MODEL 1
REMARK VINA RESULT:     -11.3      0.000      0.000
REMARK SMILES Cc1cc([C@@H](C)NC(=O)N[C@H]2C=C[C@@H](C(=O)OCCOCCOC(=O)c3ccc(-c4c5nc(c(-c6c(F)cc(S(=O)(=O)[O-])cc6F)c6ccc([nH]6)c(-c6c(F)cc(S(=O)(=O)[O-])cc6F)c6nc(c(-c7c(F)cc(S(=O)(=O)[O-])cc7F)c7ccc4[nH]7)C=C6)C=C5)cc3)C2)c(C)s1
REMARK SMILES IDX 20 1 19 2 18 3 17 4 15 5 16 6 14 7 11 8 12 9 92 10 13 11
REMARK SMILES IDX 10 12 7 13 8 14 9 16 5 18 6 19 4 20 1 21 2 22 3 23 95 24
REMARK SMILES IDX 93 25 94 26 21 27 22 28 23 29 24 30 25 31 26 32 27 33 91 34
REMARK SMILES IDX 28 35 90 36 29 37 30 38 31 39 84 40 32 41 89 42 83 43 85 44
REMARK SMILES IDX 33 45 88 46 82 47 81 48 34 50 68 51 47 52 67 53 48 54 51 55
REMARK SMILES IDX 66 56 86 57 49 58 50 59 65 61 87 62 52 63 35 64 36 65 45 66
REMARK SMILES IDX 37 67 38 68 44 69 46 70 39 71 40 72 41 73 42 74 43 75 69 76
REMARK SMILES IDX 70 77 79 78 71 79 72 80 78 81 80 82 73 83 74 84 75 85 76 86
REMARK SMILES IDX 77 87 53 88 54 89 63 90 55 91 56 92 62 93 64 94 57 95 58 96
REMARK SMILES IDX 59 97 60 98 61 99
REMARK H PARENT 7 15 10 17 85 49 51 60
REMARK Flexibility Score: inf
ROOT
ATOM      1  O   UNL A   1      35.359  32.944  27.667  1.00  0.00    -0.374 OA
ENDROOT
BRANCH   1   2
ATOM      2  C   UNL A   1      34.821  31.665  28.018  1.00  0.00     0.202 C 
BRANCH   2   3
ATOM      3  C   UNL A   1      33.387  31.388  27.547  1.00  0.00     0.261 C 
BRANCH   3   4
ATOM      4  O   UNL A   1      33.315  30.146  26.821  1.00  0.00    -0.463 OA
BRANCH   4   5
ATOM      5  C   UNL A   1      32.225  29.972  26.030  1.00  0.00     0.312 C 
ATOM      6  O   UNL A   1      31.376  30.828  25.804  1.00  0.00    -0.252 OA
BRANCH   5   7
ATOM      7  C   UNL A   1      32.154  28.582  25.408  1.00  0.00     0.124 C 
ATOM      8  C   UNL A   1      31.303  26.317  25.467  1.00  0.00     0.107 C 
ATOM      9  C   UNL A   1      30.546  27.156  24.480  1.00  0.00    -0.006 C 
ATOM     10  C   UNL A   1      31.922  27.400  26.350  1.00  0.00     0.048 C 
ATOM     11  C   UNL A   1      31.026  28.408  24.436  1.00  0.00    -0.014 C 
BRANCH   8  12
ATOM     12  N   UNL A   1      30.422  25.444  26.190  1.00  0.00    -0.332 N 
ATOM     13  N   UNL A   1      31.334  23.274  25.893  1.00  0.00    -0.332 N 
ATOM     14  C   UNL A   1      30.470  24.131  26.448  1.00  0.00     0.315 C 
ATOM     15  H   UNL A   1      31.421  22.443  26.414  1.00  0.00     0.165 HD
ATOM     16  O   UNL A   1      29.678  23.679  27.278  1.00  0.00    -0.249 OA
ATOM     17  H   UNL A   1      29.634  25.896  26.567  1.00  0.00     0.165 HD
BRANCH  13  18
ATOM     18  C   UNL A   1      32.177  23.272  24.707  1.00  0.00     0.112 C 
ATOM     19  C   UNL A   1      31.344  23.198  23.429  1.00  0.00     0.036 C 
BRANCH  18  20
ATOM     20  C   UNL A   1      33.196  22.152  24.814  1.00  0.00    -0.012 A 
ATOM     21  C   UNL A   1      33.886  18.416  24.497  1.00  0.00     0.056 C 
ATOM     22  C   UNL A   1      33.879  19.891  24.724  1.00  0.00     0.002 A 
ATOM     23  C   UNL A   1      32.813  20.763  24.699  1.00  0.00     0.021 A 
ATOM     24  S   UNL A   1      35.340  20.713  25.007  1.00  0.00    -0.146 S 
ATOM     25  C   UNL A   1      34.568  22.248  25.034  1.00  0.00     0.007 A 
ATOM     26  C   UNL A   1      35.440  23.439  25.271  1.00  0.00     0.057 C 
ENDBRANCH  18  20
ENDBRANCH  13  18
ENDBRANCH   8  12
ENDBRANCH   5   7
ENDBRANCH   4   5
ENDBRANCH   3   4
ENDBRANCH   2   3
ENDBRANCH   1   2
BRANCH   1  27
ATOM     27  C   UNL A   1      35.764  33.780  28.746  1.00  0.00     0.202 C 
BRANCH  27  28
ATOM     28  C   UNL A   1      35.734  33.174  30.150  1.00  0.00     0.261 C 
BRANCH  28  29
ATOM     29  O   UNL A   1      37.003  32.669  30.556  1.00  0.00    -0.460 OA
BRANCH  29  30
ATOM     30  C   UNL A   1      36.979  31.388  30.978  1.00  0.00     0.338 C 
ATOM     31  O   UNL A   1      36.099  30.824  31.612  1.00  0.00    -0.246 OA
BRANCH  30  32
ATOM     32  C   UNL A   1      38.126  30.694  30.385  1.00  0.00     0.060 A 
ATOM     33  C   UNL A   1      39.108  30.224  31.261  1.00  0.00     0.016 A 
ATOM     34  C   UNL A   1      38.239  30.524  29.002  1.00  0.00     0.016 A 
ATOM     35  C   UNL A   1      40.250  29.631  30.747  1.00  0.00     0.010 A 
ATOM     36  C   UNL A   1      39.387  29.926  28.488  1.00  0.00     0.010 A 
ATOM     37  C   UNL A   1      40.410  29.518  29.359  1.00  0.00    -0.014 A 
BRANCH  37  38
ATOM     38  C   UNL A   1      41.723  29.105  28.828  1.00  0.00     0.031 A 
ATOM     39  C   UNL A   1      42.825  30.124  28.765  1.00  0.00     0.074 A 
ATOM     40  C   UNL A   1      41.927  27.826  28.471  1.00  0.00     0.049 A 
ATOM     41  N   UNL A   1      44.062  29.980  28.375  1.00  0.00    -0.248 NA
ATOM     42  C   UNL A   1      42.485  31.490  29.198  1.00  0.00     0.031 C 
ATOM     43  C   UNL A   1      40.918  26.767  28.522  1.00  0.00     0.029 A 
ATOM     44  N   UNL A   1      43.050  27.200  28.004  1.00  0.00    -0.354 N 
ATOM     45  C   UNL A   1      44.649  31.232  28.513  1.00  0.00     0.074 A 
ATOM     46  C   UNL A   1      43.622  32.134  28.985  1.00  0.00     0.031 C 
ATOM     47  C   UNL A   1      41.472  25.617  28.103  1.00  0.00     0.029 A 
ATOM     48  C   UNL A   1      42.862  25.866  27.732  1.00  0.00     0.049 A 
ATOM     49  H   UNL A   1      43.911  27.661  27.874  1.00  0.00     0.167 HD
ATOM     50  C   UNL A   1      45.933  31.588  28.278  1.00  0.00     0.037 A 
ATOM     51  C   UNL A   1      43.719  24.960  27.228  1.00  0.00     0.037 A 
ATOM     52  C   UNL A   1      46.936  30.669  27.807  1.00  0.00     0.049 A 
ATOM     53  C   UNL A   1      45.132  25.390  26.935  1.00  0.00     0.074 A 
ATOM     54  C   UNL A   1      48.272  30.910  27.547  1.00  0.00     0.029 A 
ATOM     55  N   UNL A   1      46.706  29.331  27.518  1.00  0.00    -0.354 N 
ATOM     56  N   UNL A   1      45.685  26.570  27.098  1.00  0.00    -0.248 NA
ATOM     57  C   UNL A   1      46.040  24.368  26.403  1.00  0.00     0.031 C 
ATOM     58  C   UNL A   1      48.838  29.729  27.053  1.00  0.00     0.029 A 
ATOM     59  C   UNL A   1      47.869  28.737  27.060  1.00  0.00     0.049 A 
ATOM     60  H   UNL A   1      45.841  28.870  27.622  1.00  0.00     0.167 HD
ATOM     61  C   UNL A   1      47.013  26.426  26.712  1.00  0.00     0.074 A 
ATOM     62  C   UNL A   1      47.180  25.039  26.323  1.00  0.00     0.031 C 
ATOM     63  C   UNL A   1      48.005  27.352  26.682  1.00  0.00     0.037 A 
BRANCH  50  64
ATOM     64  C   UNL A   1      46.312  33.027  28.503  1.00  0.00     0.058 A 
ATOM     65  C   UNL A   1      46.895  33.462  29.704  1.00  0.00     0.135 A 
ATOM     66  C   UNL A   1      46.108  33.982  27.494  1.00  0.00     0.135 A 
ATOM     67  F   UNL A   1      47.093  32.597  30.713  1.00  0.00    -0.206 F 
ATOM     68  C   UNL A   1      47.240  34.795  29.906  1.00  0.00     0.059 A 
ATOM     69  C   UNL A   1      46.472  35.315  27.663  1.00  0.00     0.059 A 
ATOM     70  F   UNL A   1      45.548  33.624  26.328  1.00  0.00    -0.206 F 
ATOM     71  C   UNL A   1      47.027  35.714  28.878  1.00  0.00     0.060 A 
BRANCH  71  72
ATOM     72  S   UNL A   1      47.491  37.438  29.151  1.00  0.00     0.124 S 
ATOM     73  O   UNL A   1      48.929  37.396  28.904  1.00  0.00    -0.237 OA
ATOM     74  O   UNL A   1      46.697  38.137  28.146  1.00  0.00    -0.237 OA
ATOM     75  O   UNL A   1      47.099  37.681  30.536  1.00  0.00    -0.744 OA
ENDBRANCH  71  72
ENDBRANCH  50  64
BRANCH  51  76
ATOM     76  C   UNL A   1      43.264  23.567  26.979  1.00  0.00     0.058 A 
ATOM     77  C   UNL A   1      43.043  23.093  25.677  1.00  0.00     0.135 A 
ATOM     78  C   UNL A   1      43.061  22.671  28.042  1.00  0.00     0.135 A 
ATOM     79  F   UNL A   1      43.220  23.910  24.628  1.00  0.00    -0.206 F 
ATOM     80  C   UNL A   1      42.623  21.789  25.438  1.00  0.00     0.059 A 
ATOM     81  C   UNL A   1      42.667  21.355  27.826  1.00  0.00     0.059 A 
ATOM     82  F   UNL A   1      43.274  23.068  29.305  1.00  0.00    -0.206 F 
ATOM     83  C   UNL A   1      42.440  20.925  26.519  1.00  0.00     0.060 A 
BRANCH  83  84
ATOM     84  S   UNL A   1      41.941  19.221  26.194  1.00  0.00     0.124 S 
ATOM     85  O   UNL A   1      42.803  18.871  25.070  1.00  0.00    -0.237 OA
ATOM     86  O   UNL A   1      42.246  18.565  27.462  1.00  0.00    -0.237 OA
ATOM     87  O   UNL A   1      40.519  19.341  25.886  1.00  0.00    -0.744 OA
ENDBRANCH  83  84
ENDBRANCH  51  76
BRANCH  63  88
ATOM     88  C   UNL A   1      49.365  26.882  26.245  1.00  0.00     0.058 A 
ATOM     89  C   UNL A   1      49.846  27.111  24.948  1.00  0.00     0.135 A 
ATOM     90  C   UNL A   1      50.212  26.225  27.154  1.00  0.00     0.135 A 
ATOM     91  F   UNL A   1      49.074  27.730  24.041  1.00  0.00    -0.206 F 
ATOM     92  C   UNL A   1      51.107  26.676  24.555  1.00  0.00     0.059 A 
ATOM     93  C   UNL A   1      51.488  25.810  26.793  1.00  0.00     0.059 A 
ATOM     94  F   UNL A   1      49.805  25.993  28.412  1.00  0.00    -0.206 F 
ATOM     95  C   UNL A   1      51.920  26.025  25.484  1.00  0.00     0.060 A 
BRANCH  95  96
ATOM     96  S   UNL A   1      53.560  25.478  24.965  1.00  0.00     0.124 S 
ATOM     97  O   UNL A   1      53.487  25.663  23.520  1.00  0.00    -0.237 OA
ATOM     98  O   UNL A   1      54.437  26.400  25.680  1.00  0.00    -0.237 OA
ATOM     99  O   UNL A   1      53.614  24.091  25.419  1.00  0.00    -0.744 OA
ENDBRANCH  95  96
ENDBRANCH  63  88
ENDBRANCH  37  38
ENDBRANCH  30  32
ENDBRANCH  29  30
ENDBRANCH  28  29
ENDBRANCH  27  28
ENDBRANCH   1  27
TORSDOF 20
ENDMDL
MODEL 2
REMARK VINA RESULT:     -11.3      6.445     12.231
REMARK SMILES Cc1cc([C@@H](C)NC(=O)N[C@H]2C=C[C@@H](C(=O)OCCOCCOC(=O)c3ccc(-c4c5nc(c(-c6c(F)cc(S(=O)(=O)[O-])cc6F)c6ccc([nH]6)c(-c6c(F)cc(S(=O)(=O)[O-])cc6F)c6nc(c(-c7c(F)cc(S(=O)(=O)[O-])cc7F)c7ccc4[nH]7)C=C6)C=C5)cc3)C2)c(C)s1
REMARK SMILES IDX 20 1 19 2 18 3 17 4 15 5 16 6 14 7 11 8 12 9 92 10 13 11
REMARK SMILES IDX 10 12 7 13 8 14 9 16 5 18 6 19 4 20 1 21 2 22 3 23 95 24
REMARK SMILES IDX 93 25 94 26 21 27 22 28 23 29 24 30 25 31 26 32 27 33 91 34
REMARK SMILES IDX 28 35 90 36 29 37 30 38 31 39 84 40 32 41 89 42 83 43 85 44
REMARK SMILES IDX 33 45 88 46 82 47 81 48 34 50 68 51 47 52 67 53 48 54 51 55
REMARK SMILES IDX 66 56 86 57 49 58 50 59 65 61 87 62 52 63 35 64 36 65 45 66
REMARK SMILES IDX 37 67 38 68 44 69 46 70 39 71 40 72 41 73 42 74 43 75 69 76
REMARK SMILES IDX 70 77 79 78 71 79 72 80 78 81 80 82 73 83 74 84 75 85 76 86
REMARK SMILES IDX 77 87 53 88 54 89 63 90 55 91 56 92 62 93 64 94 57 95 58 96
REMARK SMILES IDX 59 97 60 98 61 99
REMARK H PARENT 7 15 10 17 85 49 51 60
REMARK Flexibility Score: inf
ROOT
ATOM      1  O   UNL A   1      39.290  21.125  25.827  1.00  0.00    -0.374 OA
ENDROOT
BRANCH   1   2
ATOM      2  C   UNL A   1      38.047  21.696  25.405  1.00  0.00     0.202 C 
BRANCH   2   3
ATOM      3  C   UNL A   1      36.961  20.699  24.981  1.00  0.00     0.261 C 
BRANCH   3   4
ATOM      4  O   UNL A   1      35.671  21.100  25.481  1.00  0.00    -0.463 OA
BRANCH   4   5
ATOM      5  C   UNL A   1      34.590  20.546  24.876  1.00  0.00     0.312 C 
ATOM      6  O   UNL A   1      34.475  19.359  24.590  1.00  0.00    -0.252 OA
BRANCH   5   7
ATOM      7  C   UNL A   1      33.482  21.554  24.591  1.00  0.00     0.124 C 
ATOM      8  C   UNL A   1      32.563  23.293  23.180  1.00  0.00     0.107 C 
ATOM      9  C   UNL A   1      31.880  21.979  22.938  1.00  0.00    -0.006 C 
ATOM     10  C   UNL A   1      33.865  22.824  23.831  1.00  0.00     0.048 C 
ATOM     11  C   UNL A   1      32.378  21.018  23.729  1.00  0.00    -0.014 C 
BRANCH   8  12
ATOM     12  N   UNL A   1      32.777  24.001  21.951  1.00  0.00    -0.332 N 
ATOM     13  N   UNL A   1      32.351  26.275  22.473  1.00  0.00    -0.332 N 
ATOM     14  C   UNL A   1      32.766  25.306  21.650  1.00  0.00     0.315 C 
ATOM     15  H   UNL A   1      32.692  27.160  22.208  1.00  0.00     0.165 HD
ATOM     16  O   UNL A   1      33.193  25.645  20.545  1.00  0.00    -0.249 OA
ATOM     17  H   UNL A   1      32.970  23.417  21.182  1.00  0.00     0.165 HD
BRANCH  13  18
ATOM     18  C   UNL A   1      31.518  26.340  23.664  1.00  0.00     0.112 C 
ATOM     19  C   UNL A   1      30.079  26.720  23.320  1.00  0.00     0.036 C 
BRANCH  18  20
ATOM     20  C   UNL A   1      32.152  27.280  24.674  1.00  0.00    -0.012 A 
ATOM     21  C   UNL A   1      31.964  30.633  26.477  1.00  0.00     0.056 C 
ATOM     22  C   UNL A   1      32.290  29.298  25.896  1.00  0.00     0.002 A 
ATOM     23  C   UNL A   1      31.658  28.623  24.875  1.00  0.00     0.021 A 
ATOM     24  S   UNL A   1      33.564  28.378  26.545  1.00  0.00    -0.146 S 
ATOM     25  C   UNL A   1      33.239  27.044  25.511  1.00  0.00     0.007 A 
ATOM     26  C   UNL A   1      34.127  25.850  25.650  1.00  0.00     0.057 C 
ENDBRANCH  18  20
ENDBRANCH  13  18
ENDBRANCH   8  12
ENDBRANCH   5   7
ENDBRANCH   4   5
ENDBRANCH   3   4
ENDBRANCH   2   3
ENDBRANCH   1   2
BRANCH   1  27
ATOM     27  C   UNL A   1      40.100  21.927  26.681  1.00  0.00     0.202 C 
BRANCH  27  28
ATOM     28  C   UNL A   1      39.960  23.445  26.555  1.00  0.00     0.261 C 
BRANCH  28  29
ATOM     29  O   UNL A   1      41.192  24.129  26.766  1.00  0.00    -0.460 OA
BRANCH  29  30
ATOM     30  C   UNL A   1      41.162  25.437  26.439  1.00  0.00     0.338 C 
ATOM     31  O   UNL A   1      41.001  25.929  25.332  1.00  0.00    -0.246 OA
BRANCH  30  32
ATOM     32  C   UNL A   1      41.169  26.215  27.681  1.00  0.00     0.060 A 
ATOM     33  C   UNL A   1      40.094  26.030  28.555  1.00  0.00     0.016 A 
ATOM     34  C   UNL A   1      42.197  27.117  27.970  1.00  0.00     0.016 A 
ATOM     35  C   UNL A   1      40.012  26.798  29.705  1.00  0.00     0.010 A 
ATOM     36  C   UNL A   1      42.114  27.887  29.127  1.00  0.00     0.010 A 
ATOM     37  C   UNL A   1      41.000  27.757  29.972  1.00  0.00    -0.014 A 
BRANCH  37  38
ATOM     38  C   UNL A   1      40.774  28.721  31.066  1.00  0.00     0.031 A 
ATOM     39  C   UNL A   1      41.643  28.638  32.288  1.00  0.00     0.074 A 
ATOM     40  C   UNL A   1      39.846  29.683  30.927  1.00  0.00     0.049 A 
ATOM     41  N   UNL A   1      41.651  29.398  33.349  1.00  0.00    -0.248 NA
ATOM     42  C   UNL A   1      42.635  27.550  32.319  1.00  0.00     0.031 C 
ATOM     43  C   UNL A   1      38.974  29.849  29.763  1.00  0.00     0.029 A 
ATOM     44  N   UNL A   1      39.488  30.703  31.764  1.00  0.00    -0.354 N 
ATOM     45  C   UNL A   1      42.644  28.883  34.174  1.00  0.00     0.074 A 
ATOM     46  C   UNL A   1      43.190  27.721  33.509  1.00  0.00     0.031 C 
ATOM     47  C   UNL A   1      38.181  30.914  29.961  1.00  0.00     0.029 A 
ATOM     48  C   UNL A   1      38.472  31.486  31.273  1.00  0.00     0.049 A 
ATOM     49  H   UNL A   1      39.918  30.862  32.637  1.00  0.00     0.167 HD
ATOM     50  C   UNL A   1      43.067  29.350  35.371  1.00  0.00     0.037 A 
ATOM     51  C   UNL A   1      37.846  32.538  31.832  1.00  0.00     0.037 A 
ATOM     52  C   UNL A   1      42.505  30.510  36.012  1.00  0.00     0.049 A 
ATOM     53  C   UNL A   1      38.307  33.013  33.184  1.00  0.00     0.074 A 
ATOM     54  C   UNL A   1      42.860  31.087  37.217  1.00  0.00     0.029 A 
ATOM     55  N   UNL A   1      41.459  31.266  35.498  1.00  0.00    -0.354 N 
ATOM     56  N   UNL A   1      39.267  32.538  33.943  1.00  0.00    -0.248 NA
ATOM     57  C   UNL A   1      37.610  34.173  33.753  1.00  0.00     0.031 C 
ATOM     58  C   UNL A   1      41.996  32.162  37.455  1.00  0.00     0.029 A 
ATOM     59  C   UNL A   1      41.140  32.291  36.371  1.00  0.00     0.049 A 
ATOM     60  H   UNL A   1      41.010  31.098  34.638  1.00  0.00     0.167 HD
ATOM     61  C   UNL A   1      39.307  33.355  35.066  1.00  0.00     0.074 A 
ATOM     62  C   UNL A   1      38.283  34.365  34.878  1.00  0.00     0.031 C 
ATOM     63  C   UNL A   1      40.115  33.283  36.154  1.00  0.00     0.037 A 
BRANCH  50  64
ATOM     64  C   UNL A   1      44.165  28.595  36.068  1.00  0.00     0.058 A 
ATOM     65  C   UNL A   1      45.519  28.940  35.912  1.00  0.00     0.135 A 
ATOM     66  C   UNL A   1      43.861  27.522  36.921  1.00  0.00     0.135 A 
ATOM     67  F   UNL A   1      45.871  29.943  35.091  1.00  0.00    -0.206 F 
ATOM     68  C   UNL A   1      46.530  28.235  36.557  1.00  0.00     0.059 A 
ATOM     69  C   UNL A   1      44.854  26.821  37.599  1.00  0.00     0.059 A 
ATOM     70  F   UNL A   1      42.586  27.144  37.101  1.00  0.00    -0.206 F 
ATOM     71  C   UNL A   1      46.187  27.177  37.401  1.00  0.00     0.060 A 
BRANCH  71  72
ATOM     72  S   UNL A   1      47.510  26.279  38.240  1.00  0.00     0.124 S 
ATOM     73  O   UNL A   1      48.305  25.807  37.111  1.00  0.00    -0.237 OA
ATOM     74  O   UNL A   1      48.125  27.321  39.056  1.00  0.00    -0.237 OA
ATOM     75  O   UNL A   1      46.800  25.243  38.984  1.00  0.00    -0.744 OA
ENDBRANCH  71  72
ENDBRANCH  50  64
BRANCH  51  76
ATOM     76  C   UNL A   1      36.730  33.206  31.112  1.00  0.00     0.058 A 
ATOM     77  C   UNL A   1      36.969  34.054  30.021  1.00  0.00     0.135 A 
ATOM     78  C   UNL A   1      35.394  32.991  31.491  1.00  0.00     0.135 A 
ATOM     79  F   UNL A   1      38.228  34.294  29.623  1.00  0.00    -0.206 F 
ATOM     80  C   UNL A   1      35.929  34.678  29.341  1.00  0.00     0.059 A 
ATOM     81  C   UNL A   1      34.336  33.582  30.809  1.00  0.00     0.059 A 
ATOM     82  F   UNL A   1      35.109  32.176  32.517  1.00  0.00    -0.206 F 
ATOM     83  C   UNL A   1      34.614  34.433  29.740  1.00  0.00     0.060 A 
BRANCH  83  84
ATOM     84  S   UNL A   1      33.269  35.209  28.819  1.00  0.00     0.124 S 
ATOM     85  O   UNL A   1      32.730  34.077  28.074  1.00  0.00    -0.237 OA
ATOM     86  O   UNL A   1      32.425  35.730  29.890  1.00  0.00    -0.237 OA
ATOM     87  O   UNL A   1      33.951  36.224  28.021  1.00  0.00    -0.744 OA
ENDBRANCH  83  84
ENDBRANCH  51  76
BRANCH  63  88
ATOM     88  C   UNL A   1      39.943  34.344  37.205  1.00  0.00     0.058 A 
ATOM     89  C   UNL A   1      40.559  35.599  37.096  1.00  0.00     0.135 A 
ATOM     90  C   UNL A   1      39.118  34.111  38.318  1.00  0.00     0.135 A 
ATOM     91  F   UNL A   1      41.361  35.871  36.054  1.00  0.00    -0.206 F 
ATOM     92  C   UNL A   1      40.391  36.577  38.072  1.00  0.00     0.059 A 
ATOM     93  C   UNL A   1      38.910  35.085  39.288  1.00  0.00     0.059 A 
ATOM     94  F   UNL A   1      38.493  32.932  38.463  1.00  0.00    -0.206 F 
ATOM     95  C   UNL A   1      39.565  36.309  39.164  1.00  0.00     0.060 A 
BRANCH  95  96
ATOM     96  S   UNL A   1      39.344  37.591  40.415  1.00  0.00     0.124 S 
ATOM     97  O   UNL A   1      38.191  38.316  39.893  1.00  0.00    -0.237 OA
ATOM     98  O   UNL A   1      39.109  36.809  41.625  1.00  0.00    -0.237 OA
ATOM     99  O   UNL A   1      40.610  38.319  40.384  1.00  0.00    -0.744 OA
ENDBRANCH  95  96
ENDBRANCH  63  88
ENDBRANCH  37  38
ENDBRANCH  30  32
ENDBRANCH  29  30
ENDBRANCH  28  29
ENDBRANCH  27  28
ENDBRANCH   1  27
TORSDOF 20
ENDMDL
MODEL 3
REMARK VINA RESULT:     -11.0      6.318     12.110
REMARK SMILES Cc1cc([C@@H](C)NC(=O)N[C@H]2C=C[C@@H](C(=O)OCCOCCOC(=O)c3ccc(-c4c5nc(c(-c6c(F)cc(S(=O)(=O)[O-])cc6F)c6ccc([nH]6)c(-c6c(F)cc(S(=O)(=O)[O-])cc6F)c6nc(c(-c7c(F)cc(S(=O)(=O)[O-])cc7F)c7ccc4[nH]7)C=C6)C=C5)cc3)C2)c(C)s1
REMARK SMILES IDX 20 1 19 2 18 3 17 4 15 5 16 6 14 7 11 8 12 9 92 10 13 11
REMARK SMILES IDX 10 12 7 13 8 14 9 16 5 18 6 19 4 20 1 21 2 22 3 23 95 24
REMARK SMILES IDX 93 25 94 26 21 27 22 28 23 29 24 30 25 31 26 32 27 33 91 34
REMARK SMILES IDX 28 35 90 36 29 37 30 38 31 39 84 40 32 41 89 42 83 43 85 44
REMARK SMILES IDX 33 45 88 46 82 47 81 48 34 50 68 51 47 52 67 53 48 54 51 55
REMARK SMILES IDX 66 56 86 57 49 58 50 59 65 61 87 62 52 63 35 64 36 65 45 66
REMARK SMILES IDX 37 67 38 68 44 69 46 70 39 71 40 72 41 73 42 74 43 75 69 76
REMARK SMILES IDX 70 77 79 78 71 79 72 80 78 81 80 82 73 83 74 84 75 85 76 86
REMARK SMILES IDX 77 87 53 88 54 89 63 90 55 91 56 92 62 93 64 94 57 95 58 96
REMARK SMILES IDX 59 97 60 98 61 99
REMARK H PARENT 7 15 10 17 85 49 51 60
REMARK Flexibility Score: inf
ROOT
ATOM      1  O   UNL A   1      41.916  21.739  25.596  1.00  0.00    -0.374 OA
ENDROOT
BRANCH   1   2
ATOM      2  C   UNL A   1      41.494  21.630  26.959  1.00  0.00     0.202 C 
BRANCH   2   3
ATOM      3  C   UNL A   1      40.098  22.182  27.276  1.00  0.00     0.261 C 
BRANCH   3   4
ATOM      4  O   UNL A   1      39.397  22.532  26.067  1.00  0.00    -0.463 OA
BRANCH   4   5
ATOM      5  C   UNL A   1      38.444  23.492  26.179  1.00  0.00     0.312 C 
ATOM      6  O   UNL A   1      38.664  24.683  26.373  1.00  0.00    -0.252 OA
BRANCH   5   7
ATOM      7  C   UNL A   1      37.028  22.951  26.015  1.00  0.00     0.124 C 
ATOM      8  C   UNL A   1      35.077  22.618  24.622  1.00  0.00     0.107 C 
ATOM      9  C   UNL A   1      35.895  21.364  24.720  1.00  0.00    -0.006 C 
ATOM     10  C   UNL A   1      36.112  23.669  25.022  1.00  0.00     0.048 C 
ATOM     11  C   UNL A   1      36.969  21.544  25.504  1.00  0.00    -0.014 C 
BRANCH   8  12
ATOM     12  N   UNL A   1      34.575  22.808  23.291  1.00  0.00    -0.332 N 
ATOM     13  N   UNL A   1      32.948  24.522  23.490  1.00  0.00    -0.332 N 
ATOM     14  C   UNL A   1      33.708  23.686  22.774  1.00  0.00     0.315 C 
ATOM     15  H   UNL A   1      32.615  25.277  22.953  1.00  0.00     0.165 HD
ATOM     16  O   UNL A   1      33.618  23.751  21.546  1.00  0.00    -0.249 OA
ATOM     17  H   UNL A   1      34.938  22.171  22.634  1.00  0.00     0.165 HD
BRANCH  13  18
ATOM     18  C   UNL A   1      32.493  24.586  24.871  1.00  0.00     0.112 C 
ATOM     19  C   UNL A   1      31.170  23.848  25.059  1.00  0.00     0.036 C 
BRANCH  18  20
ATOM     20  C   UNL A   1      32.429  26.037  25.315  1.00  0.00    -0.012 A 
ATOM     21  C   UNL A   1      34.173  28.911  27.111  1.00  0.00     0.056 C 
ATOM     22  C   UNL A   1      33.269  27.962  26.397  1.00  0.00     0.002 A 
ATOM     23  C   UNL A   1      33.436  26.613  26.177  1.00  0.00     0.021 A 
ATOM     24  S   UNL A   1      31.839  28.532  25.675  1.00  0.00    -0.146 S 
ATOM     25  C   UNL A   1      31.464  26.993  25.008  1.00  0.00     0.007 A 
ATOM     26  C   UNL A   1      30.206  26.893  24.208  1.00  0.00     0.057 C 
ENDBRANCH  18  20
ENDBRANCH  13  18
ENDBRANCH   8  12
ENDBRANCH   5   7
ENDBRANCH   4   5
ENDBRANCH   3   4
ENDBRANCH   2   3
ENDBRANCH   1   2
BRANCH   1  27
ATOM     27  C   UNL A   1      43.198  22.317  25.372  1.00  0.00     0.202 C 
BRANCH  27  28
ATOM     28  C   UNL A   1      43.245  23.809  25.039  1.00  0.00     0.261 C 
BRANCH  28  29
ATOM     29  O   UNL A   1      43.089  24.633  26.192  1.00  0.00    -0.460 OA
BRANCH  29  30
ATOM     30  C   UNL A   1      42.226  25.657  26.027  1.00  0.00     0.338 C 
ATOM     31  O   UNL A   1      41.499  25.877  25.069  1.00  0.00    -0.246 OA
BRANCH  30  32
ATOM     32  C   UNL A   1      42.152  26.395  27.290  1.00  0.00     0.060 A 
ATOM     33  C   UNL A   1      41.209  25.961  28.227  1.00  0.00     0.016 A 
ATOM     34  C   UNL A   1      42.976  27.496  27.541  1.00  0.00     0.016 A 
ATOM     35  C   UNL A   1      41.044  26.672  29.405  1.00  0.00     0.010 A 
ATOM     36  C   UNL A   1      42.809  28.207  28.726  1.00  0.00     0.010 A 
ATOM     37  C   UNL A   1      41.814  27.820  29.638  1.00  0.00    -0.014 A 
BRANCH  37  38
ATOM     38  C   UNL A   1      41.462  28.691  30.775  1.00  0.00     0.031 A 
ATOM     39  C   UNL A   1      42.290  28.610  32.026  1.00  0.00     0.074 A 
ATOM     40  C   UNL A   1      40.456  29.574  30.654  1.00  0.00     0.049 A 
ATOM     41  N   UNL A   1      42.191  29.301  33.129  1.00  0.00    -0.248 NA
ATOM     42  C   UNL A   1      43.375  27.614  32.035  1.00  0.00     0.031 C 
ATOM     43  C   UNL A   1      39.616  29.734  29.466  1.00  0.00     0.029 A 
ATOM     44  N   UNL A   1      39.977  30.505  31.534  1.00  0.00    -0.354 N 
ATOM     45  C   UNL A   1      43.195  28.826  33.963  1.00  0.00     0.074 A 
ATOM     46  C   UNL A   1      43.868  27.759  33.255  1.00  0.00     0.031 C 
ATOM     47  C   UNL A   1      38.723  30.711  29.693  1.00  0.00     0.029 A 
ATOM     48  C   UNL A   1      38.913  31.224  31.046  1.00  0.00     0.049 A 
ATOM     49  H   UNL A   1      40.358  30.647  32.431  1.00  0.00     0.167 HD
ATOM     50  C   UNL A   1      43.530  29.253  35.202  1.00  0.00     0.037 A 
ATOM     51  C   UNL A   1      38.174  32.180  31.639  1.00  0.00     0.037 A 
ATOM     52  C   UNL A   1      42.841  30.317  35.885  1.00  0.00     0.049 A 
ATOM     53  C   UNL A   1      38.540  32.610  33.035  1.00  0.00     0.074 A 
ATOM     54  C   UNL A   1      43.099  30.847  37.136  1.00  0.00     0.029 A 
ATOM     55  N   UNL A   1      41.751  31.008  35.373  1.00  0.00    -0.354 N 
ATOM     56  N   UNL A   1      39.511  32.175  33.804  1.00  0.00    -0.248 NA
ATOM     57  C   UNL A   1      37.721  33.666  33.640  1.00  0.00     0.031 C 
ATOM     58  C   UNL A   1      42.133  31.825  37.400  1.00  0.00     0.029 A 
ATOM     59  C   UNL A   1      41.309  31.945  36.291  1.00  0.00     0.049 A 
ATOM     60  H   UNL A   1      41.351  30.855  34.486  1.00  0.00     0.167 HD
ATOM     61  C   UNL A   1      39.436  32.921  34.974  1.00  0.00     0.074 A 
ATOM     62  C   UNL A   1      38.332  33.846  34.802  1.00  0.00     0.031 C 
ATOM     63  C   UNL A   1      40.207  32.853  36.089  1.00  0.00     0.037 A 
BRANCH  50  64
ATOM     64  C   UNL A   1      44.666  28.556  35.899  1.00  0.00     0.058 A 
ATOM     65  C   UNL A   1      45.996  28.991  35.769  1.00  0.00     0.135 A 
ATOM     66  C   UNL A   1      44.421  27.449  36.727  1.00  0.00     0.135 A 
ATOM     67  F   UNL A   1      46.293  30.031  34.972  1.00  0.00    -0.206 F 
ATOM     68  C   UNL A   1      47.043  28.339  36.414  1.00  0.00     0.059 A 
ATOM     69  C   UNL A   1      45.449  26.800  37.406  1.00  0.00     0.059 A 
ATOM     70  F   UNL A   1      43.171  26.986  36.883  1.00  0.00    -0.206 F 
ATOM     71  C   UNL A   1      46.758  27.245  37.232  1.00  0.00     0.060 A 
BRANCH  71  72
ATOM     72  S   UNL A   1      48.126  26.417  38.072  1.00  0.00     0.124 S 
ATOM     73  O   UNL A   1      49.242  27.305  37.759  1.00  0.00    -0.237 OA
ATOM     74  O   UNL A   1      47.685  26.422  39.463  1.00  0.00    -0.237 OA
ATOM     75  O   UNL A   1      48.172  25.104  37.437  1.00  0.00    -0.744 OA
ENDBRANCH  71  72
ENDBRANCH  50  64
BRANCH  51  76
ATOM     76  C   UNL A   1      37.029  32.790  30.914  1.00  0.00     0.058 A 
ATOM     77  C   UNL A   1      35.707  32.413  31.189  1.00  0.00     0.135 A 
ATOM     78  C   UNL A   1      37.236  33.782  29.941  1.00  0.00     0.135 A 
ATOM     79  F   UNL A   1      35.457  31.468  32.106  1.00  0.00    -0.206 F 
ATOM     80  C   UNL A   1      34.631  32.985  30.516  1.00  0.00     0.059 A 
ATOM     81  C   UNL A   1      36.176  34.388  29.275  1.00  0.00     0.059 A 
ATOM     82  F   UNL A   1      38.480  34.192  29.651  1.00  0.00    -0.206 F 
ATOM     83  C   UNL A   1      34.875  33.975  29.563  1.00  0.00     0.060 A 
BRANCH  83  84
ATOM     84  S   UNL A   1      33.470  34.744  28.731  1.00  0.00     0.124 S 
ATOM     85  O   UNL A   1      33.115  33.726  27.749  1.00  0.00    -0.237 OA
ATOM     86  O   UNL A   1      32.527  34.927  29.831  1.00  0.00    -0.237 OA
ATOM     87  O   UNL A   1      34.034  35.977  28.188  1.00  0.00    -0.744 OA
ENDBRANCH  83  84
ENDBRANCH  51  76
BRANCH  63  88
ATOM     88  C   UNL A   1      39.901  33.829  37.192  1.00  0.00     0.058 A 
ATOM     89  C   UNL A   1      39.040  33.504  38.250  1.00  0.00     0.135 A 
ATOM     90  C   UNL A   1      40.512  35.095  37.206  1.00  0.00     0.135 A 
ATOM     91  F   UNL A   1      38.428  32.310  38.280  1.00  0.00    -0.206 F 
ATOM     92  C   UNL A   1      38.766  34.412  39.267  1.00  0.00     0.059 A 
ATOM     93  C   UNL A   1      40.279  36.005  38.230  1.00  0.00     0.059 A 
ATOM     94  F   UNL A   1      41.356  35.450  36.225  1.00  0.00    -0.206 F 
ATOM     95  C   UNL A   1      39.390  35.660  39.248  1.00  0.00     0.060 A 
BRANCH  95  96
ATOM     96  S   UNL A   1      39.038  36.824  40.582  1.00  0.00     0.124 S 
ATOM     97  O   UNL A   1      40.358  36.996  41.177  1.00  0.00    -0.237 OA
ATOM     98  O   UNL A   1      38.512  37.977  39.859  1.00  0.00    -0.237 OA
ATOM     99  O   UNL A   1      38.065  36.111  41.406  1.00  0.00    -0.744 OA
ENDBRANCH  95  96
ENDBRANCH  63  88
ENDBRANCH  37  38
ENDBRANCH  30  32
ENDBRANCH  29  30
ENDBRANCH  28  29
ENDBRANCH  27  28
ENDBRANCH   1  27
TORSDOF 20
ENDMDL
