MODEL 1
REMARK VINA RESULT:     -10.5      0.000      0.000
REMARK SMILES Cc1cc(NC(=O)CC2(CC(=O)OCCOCCOC(=O)c3ccc(-c4c5nc(c(-c6c(F)cc(S(=O)(=O)[O-])cc6F)c6ccc([nH]6)c(-c6c(F)cc(S(=O)(=O)[O-])cc6F)c6nc(c(-c7c(F)cc(S(=O)(=O)[O-])cc7F)c7ccc4[nH]7)C=C6)C=C5)cc3)CCCC2)ccn1
REMARK SMILES IDX 15 1 14 2 13 3 11 4 12 5 10 6 9 7 88 8 91 9 89 10 90 11 8 12
REMARK SMILES IDX 6 13 5 14 7 16 4 17 1 18 2 19 3 20 94 21 93 22 92 23 16 24
REMARK SMILES IDX 17 25 18 26 19 27 20 28 21 29 22 30 23 31 87 32 24 33 86 34
REMARK SMILES IDX 25 35 26 36 27 37 80 38 28 39 85 40 79 41 81 42 29 43 84 44
REMARK SMILES IDX 78 45 77 46 30 48 64 49 43 50 63 51 44 52 47 53 62 54 82 55
REMARK SMILES IDX 45 56 46 57 61 59 83 60 48 61 31 62 32 63 41 64 33 65 34 66
REMARK SMILES IDX 40 67 42 68 35 69 36 70 37 71 38 72 39 73 65 74 66 75 75 76
REMARK SMILES IDX 67 77 68 78 74 79 76 80 69 81 70 82 71 83 72 84 73 85 49 86
REMARK SMILES IDX 50 87 59 88 51 89 52 90 58 91 60 92 53 93 54 94 55 95 56 96
REMARK SMILES IDX 57 97
REMARK H PARENT 5 15 81 47 47 58
REMARK Flexibility Score: inf
ROOT
ATOM      1  C   UNL A   1      38.539  23.528  26.210  1.00  0.00     0.202 C 
ENDROOT
BRANCH   1   2
ATOM      2  C   UNL A   1      37.013  23.529  26.051  1.00  0.00     0.261 C 
BRANCH   2   3
ATOM      3  O   UNL A   1      36.589  23.982  24.743  1.00  0.00    -0.463 OA
BRANCH   3   4
ATOM      4  C   UNL A   1      36.008  23.055  23.940  1.00  0.00     0.306 C 
ATOM      5  O   UNL A   1      36.368  22.801  22.797  1.00  0.00    -0.252 OA
BRANCH   4   6
ATOM      6  C   UNL A   1      34.773  22.425  24.557  1.00  0.00     0.130 C 
BRANCH   6   7
ATOM      7  C   UNL A   1      33.437  23.217  24.711  1.00  0.00    -0.011 C 
ATOM      8  C   UNL A   1      32.300  22.244  24.327  1.00  0.00     0.008 C 
ATOM      9  C   UNL A   1      33.242  24.299  23.623  1.00  0.00     0.008 C 
ATOM     10  C   UNL A   1      32.268  22.218  22.801  1.00  0.00     0.001 C 
ATOM     11  C   UNL A   1      32.823  23.565  22.352  1.00  0.00     0.001 C 
BRANCH   7  12
ATOM     12  C   UNL A   1      33.283  23.866  26.111  1.00  0.00     0.108 C 
BRANCH  12  13
ATOM     13  C   UNL A   1      31.920  23.975  26.756  1.00  0.00     0.224 C 
ATOM     14  N   UNL A   1      31.120  25.068  26.660  1.00  0.00    -0.326 N 
ATOM     15  H   UNL A   1      30.289  24.988  27.182  1.00  0.00     0.169 HD
ATOM     16  O   UNL A   1      31.478  23.016  27.401  1.00  0.00    -0.275 OA
BRANCH  14  17
ATOM     17  C   UNL A   1      31.225  26.289  25.976  1.00  0.00     0.044 A 
ATOM     18  C   UNL A   1      32.270  29.768  27.010  1.00  0.00     0.067 C 
ATOM     19  C   UNL A   1      31.793  28.615  26.180  1.00  0.00     0.039 A 
ATOM     20  C   UNL A   1      31.837  27.321  26.687  1.00  0.00     0.049 A 
ATOM     21  N   UNL A   1      31.225  28.907  24.991  1.00  0.00    -0.261 NA
ATOM     22  C   UNL A   1      30.711  27.881  24.282  1.00  0.00     0.113 A 
ATOM     23  C   UNL A   1      30.700  26.565  24.719  1.00  0.00     0.046 A 
ENDBRANCH  14  17
ENDBRANCH  12  13
ENDBRANCH   7  12
ENDBRANCH   6   7
ENDBRANCH   4   6
ENDBRANCH   3   4
ENDBRANCH   2   3
ENDBRANCH   1   2
BRANCH   1  24
ATOM     24  O   UNL A   1      39.192  22.259  26.087  1.00  0.00    -0.374 OA
BRANCH  24  25
ATOM     25  C   UNL A   1      40.287  22.046  26.970  1.00  0.00     0.202 C 
BRANCH  25  26
ATOM     26  C   UNL A   1      41.672  22.399  26.419  1.00  0.00     0.261 C 
BRANCH  26  27
ATOM     27  O   UNL A   1      41.825  23.822  26.263  1.00  0.00    -0.460 OA
BRANCH  27  28
ATOM     28  C   UNL A   1      42.756  24.368  27.078  1.00  0.00     0.338 C 
ATOM     29  O   UNL A   1      43.957  24.114  27.099  1.00  0.00    -0.246 OA
BRANCH  28  30
ATOM     30  C   UNL A   1      42.180  25.482  27.848  1.00  0.00     0.060 A 
ATOM     31  C   UNL A   1      42.998  26.601  28.046  1.00  0.00     0.016 A 
ATOM     32  C   UNL A   1      40.912  25.417  28.431  1.00  0.00     0.016 A 
ATOM     33  C   UNL A   1      42.584  27.629  28.884  1.00  0.00     0.010 A 
ATOM     34  C   UNL A   1      40.498  26.452  29.280  1.00  0.00     0.010 A 
ATOM     35  C   UNL A   1      41.352  27.538  29.546  1.00  0.00    -0.014 A 
BRANCH  35  36
ATOM     36  C   UNL A   1      41.060  28.497  30.640  1.00  0.00     0.031 A 
ATOM     37  C   UNL A   1      41.908  28.459  31.884  1.00  0.00     0.074 A 
ATOM     38  C   UNL A   1      40.110  29.438  30.494  1.00  0.00     0.049 A 
ATOM     39  N   UNL A   1      41.849  29.212  32.951  1.00  0.00    -0.248 NA
ATOM     40  C   UNL A   1      42.966  27.436  31.929  1.00  0.00     0.031 C 
ATOM     41  C   UNL A   1      39.260  29.604  29.315  1.00  0.00     0.029 A 
ATOM     42  N   UNL A   1      39.704  30.437  31.343  1.00  0.00    -0.354 N 
ATOM     43  C   UNL A   1      42.856  28.753  33.794  1.00  0.00     0.074 A 
ATOM     44  C   UNL A   1      43.488  27.635  33.130  1.00  0.00     0.031 C 
ATOM     45  C   UNL A   1      38.431  30.641  29.518  1.00  0.00     0.029 A 
ATOM     46  C   UNL A   1      38.670  31.195  30.850  1.00  0.00     0.049 A 
ATOM     47  H   UNL A   1      40.116  30.595  32.224  1.00  0.00     0.167 HD
ATOM     48  C   UNL A   1      43.225  29.229  35.007  1.00  0.00     0.037 A 
ATOM     49  C   UNL A   1      37.985  32.208  31.416  1.00  0.00     0.037 A 
ATOM     50  C   UNL A   1      42.595  30.347  35.658  1.00  0.00     0.049 A 
ATOM     51  C   UNL A   1      38.373  32.680  32.793  1.00  0.00     0.074 A 
ATOM     52  C   UNL A   1      42.903  30.915  36.883  1.00  0.00     0.029 A 
ATOM     53  N   UNL A   1      41.526  31.065  35.143  1.00  0.00    -0.354 N 
ATOM     54  N   UNL A   1      39.336  32.246  33.572  1.00  0.00    -0.248 NA
ATOM     55  C   UNL A   1      37.586  33.781  33.367  1.00  0.00     0.031 C 
ATOM     56  C   UNL A   1      41.987  31.943  37.130  1.00  0.00     0.029 A 
ATOM     57  C   UNL A   1      41.145  32.054  36.034  1.00  0.00     0.049 A 
ATOM     58  H   UNL A   1      41.100  30.897  34.272  1.00  0.00     0.167 HD
ATOM     59  C   UNL A   1      39.289  33.040  34.715  1.00  0.00     0.074 A 
ATOM     60  C   UNL A   1      38.209  33.985  34.520  1.00  0.00     0.031 C 
ATOM     61  C   UNL A   1      40.071  32.994  35.822  1.00  0.00     0.037 A 
BRANCH  48  62
ATOM     62  C   UNL A   1      44.346  28.524  35.722  1.00  0.00     0.058 A 
ATOM     63  C   UNL A   1      45.688  28.895  35.546  1.00  0.00     0.135 A 
ATOM     64  C   UNL A   1      44.069  27.482  36.622  1.00  0.00     0.135 A 
ATOM     65  F   UNL A   1      46.013  29.872  34.684  1.00  0.00    -0.206 F 
ATOM     66  C   UNL A   1      46.718  28.241  36.216  1.00  0.00     0.059 A 
ATOM     67  C   UNL A   1      45.080  26.832  37.324  1.00  0.00     0.059 A 
ATOM     68  F   UNL A   1      42.803  27.085  36.826  1.00  0.00    -0.206 F 
ATOM     69  C   UNL A   1      46.404  27.210  37.104  1.00  0.00     0.060 A 
BRANCH  69  70
ATOM     70  S   UNL A   1      47.749  26.373  37.969  1.00  0.00     0.124 S 
ATOM     71  O   UNL A   1      47.602  25.005  37.482  1.00  0.00    -0.237 OA
ATOM     72  O   UNL A   1      48.924  27.094  37.489  1.00  0.00    -0.237 OA
ATOM     73  O   UNL A   1      47.426  26.575  39.377  1.00  0.00    -0.744 OA
ENDBRANCH  69  70
ENDBRANCH  48  62
BRANCH  49  74
ATOM     74  C   UNL A   1      36.852  32.836  30.684  1.00  0.00     0.058 A 
ATOM     75  C   UNL A   1      37.060  33.890  29.782  1.00  0.00     0.135 A 
ATOM     76  C   UNL A   1      35.534  32.387  30.871  1.00  0.00     0.135 A 
ATOM     77  F   UNL A   1      38.298  34.363  29.577  1.00  0.00    -0.206 F 
ATOM     78  C   UNL A   1      36.002  34.484  29.100  1.00  0.00     0.059 A 
ATOM     79  C   UNL A   1      34.464  32.947  30.181  1.00  0.00     0.059 A 
ATOM     80  F   UNL A   1      35.282  31.374  31.715  1.00  0.00    -0.206 F 
ATOM     81  C   UNL A   1      34.707  34.002  29.303  1.00  0.00     0.060 A 
BRANCH  81  82
ATOM     82  S   UNL A   1      33.348  34.743  28.373  1.00  0.00     0.124 S 
ATOM     83  O   UNL A   1      32.618  35.441  29.424  1.00  0.00    -0.237 OA
ATOM     84  O   UNL A   1      34.058  35.588  27.417  1.00  0.00    -0.237 OA
ATOM     85  O   UNL A   1      32.671  33.587  27.792  1.00  0.00    -0.744 OA
ENDBRANCH  81  82
ENDBRANCH  49  74
BRANCH  61  86
ATOM     86  C   UNL A   1      39.818  34.015  36.896  1.00  0.00     0.058 A 
ATOM     87  C   UNL A   1      39.025  33.728  38.018  1.00  0.00     0.135 A 
ATOM     88  C   UNL A   1      40.430  35.278  36.832  1.00  0.00     0.135 A 
ATOM     89  F   UNL A   1      38.414  32.538  38.127  1.00  0.00    -0.206 F 
ATOM     90  C   UNL A   1      38.829  34.665  39.028  1.00  0.00     0.059 A 
ATOM     91  C   UNL A   1      40.269  36.220  37.843  1.00  0.00     0.059 A 
ATOM     92  F   UNL A   1      41.208  35.600  35.786  1.00  0.00    -0.206 F 
ATOM     93  C   UNL A   1      39.457  35.910  38.932  1.00  0.00     0.060 A 
BRANCH  93  94
ATOM     94  S   UNL A   1      39.223  37.102  40.265  1.00  0.00     0.124 S 
ATOM     95  O   UNL A   1      38.615  38.222  39.555  1.00  0.00    -0.237 OA
ATOM     96  O   UNL A   1      38.345  36.381  41.181  1.00  0.00    -0.237 OA
ATOM     97  O   UNL A   1      40.579  37.333  40.758  1.00  0.00    -0.744 OA
ENDBRANCH  93  94
ENDBRANCH  61  86
ENDBRANCH  35  36
ENDBRANCH  28  30
ENDBRANCH  27  28
ENDBRANCH  26  27
ENDBRANCH  25  26
ENDBRANCH  24  25
ENDBRANCH   1  24
TORSDOF 21
ENDMDL
MODEL 2
REMARK VINA RESULT:     -10.4      4.908     12.055
REMARK SMILES Cc1cc(NC(=O)CC2(CC(=O)OCCOCCOC(=O)c3ccc(-c4c5nc(c(-c6c(F)cc(S(=O)(=O)[O-])cc6F)c6ccc([nH]6)c(-c6c(F)cc(S(=O)(=O)[O-])cc6F)c6nc(c(-c7c(F)cc(S(=O)(=O)[O-])cc7F)c7ccc4[nH]7)C=C6)C=C5)cc3)CCCC2)ccn1
REMARK SMILES IDX 15 1 14 2 13 3 11 4 12 5 10 6 9 7 88 8 91 9 89 10 90 11 8 12
REMARK SMILES IDX 6 13 5 14 7 16 4 17 1 18 2 19 3 20 94 21 93 22 92 23 16 24
REMARK SMILES IDX 17 25 18 26 19 27 20 28 21 29 22 30 23 31 87 32 24 33 86 34
REMARK SMILES IDX 25 35 26 36 27 37 80 38 28 39 85 40 79 41 81 42 29 43 84 44
REMARK SMILES IDX 78 45 77 46 30 48 64 49 43 50 63 51 44 52 47 53 62 54 82 55
REMARK SMILES IDX 45 56 46 57 61 59 83 60 48 61 31 62 32 63 41 64 33 65 34 66
REMARK SMILES IDX 40 67 42 68 35 69 36 70 37 71 38 72 39 73 65 74 66 75 75 76
REMARK SMILES IDX 67 77 68 78 74 79 76 80 69 81 70 82 71 83 72 84 73 85 49 86
REMARK SMILES IDX 50 87 59 88 51 89 52 90 58 91 60 92 53 93 54 94 55 95 56 96
REMARK SMILES IDX 57 97
REMARK H PARENT 5 15 81 47 47 58
REMARK Flexibility Score: inf
ROOT
ATOM      1  C   UNL A   1      33.824  35.236  30.376  1.00  0.00     0.202 C 
ENDROOT
BRANCH   1   2
ATOM      2  C   UNL A   1      33.199  35.632  31.720  1.00  0.00     0.261 C 
BRANCH   2   3
ATOM      3  O   UNL A   1      34.162  35.647  32.800  1.00  0.00    -0.463 OA
BRANCH   3   4
ATOM      4  C   UNL A   1      34.713  34.453  33.137  1.00  0.00     0.306 C 
ATOM      5  O   UNL A   1      34.074  33.435  33.376  1.00  0.00    -0.252 OA
BRANCH   4   6
ATOM      6  C   UNL A   1      36.219  34.520  33.305  1.00  0.00     0.130 C 
BRANCH   6   7
ATOM      7  C   UNL A   1      37.150  33.358  32.837  1.00  0.00    -0.011 C 
ATOM      8  C   UNL A   1      38.555  33.971  32.636  1.00  0.00     0.008 C 
ATOM      9  C   UNL A   1      36.856  32.886  31.393  1.00  0.00     0.008 C 
ATOM     10  C   UNL A   1      38.516  34.670  31.280  1.00  0.00     0.001 C 
ATOM     11  C   UNL A   1      37.461  33.933  30.463  1.00  0.00     0.001 C 
BRANCH   7  12
ATOM     12  C   UNL A   1      37.112  32.137  33.792  1.00  0.00     0.108 C 
BRANCH  12  13
ATOM     13  C   UNL A   1      38.397  31.476  34.237  1.00  0.00     0.224 C 
ATOM     14  N   UNL A   1      39.032  31.759  35.404  1.00  0.00    -0.326 N 
ATOM     15  H   UNL A   1      39.882  31.273  35.511  1.00  0.00     0.169 HD
ATOM     16  O   UNL A   1      38.911  30.610  33.518  1.00  0.00    -0.275 OA
BRANCH  14  17
ATOM     17  C   UNL A   1      38.736  32.596  36.491  1.00  0.00     0.044 A 
ATOM     18  C   UNL A   1      39.861  36.062  37.484  1.00  0.00     0.067 C 
ATOM     19  C   UNL A   1      39.172  34.732  37.502  1.00  0.00     0.039 A 
ATOM     20  C   UNL A   1      39.226  33.899  36.391  1.00  0.00     0.049 A 
ATOM     21  N   UNL A   1      38.609  34.347  38.667  1.00  0.00    -0.261 NA
ATOM     22  C   UNL A   1      38.068  33.113  38.716  1.00  0.00     0.113 A 
ATOM     23  C   UNL A   1      38.091  32.214  37.660  1.00  0.00     0.046 A 
ENDBRANCH  14  17
ENDBRANCH  12  13
ENDBRANCH   7  12
ENDBRANCH   6   7
ENDBRANCH   4   6
ENDBRANCH   3   4
ENDBRANCH   2   3
ENDBRANCH   1   2
BRANCH   1  24
ATOM     24  O   UNL A   1      32.934  35.158  29.257  1.00  0.00    -0.374 OA
BRANCH  24  25
ATOM     25  C   UNL A   1      33.079  34.003  28.439  1.00  0.00     0.202 C 
BRANCH  25  26
ATOM     26  C   UNL A   1      34.471  33.362  28.422  1.00  0.00     0.261 C 
BRANCH  26  27
ATOM     27  O   UNL A   1      34.474  32.101  29.117  1.00  0.00    -0.460 OA
BRANCH  27  28
ATOM     28  C   UNL A   1      34.470  31.023  28.301  1.00  0.00     0.338 C 
ATOM     29  O   UNL A   1      33.609  30.724  27.479  1.00  0.00    -0.246 OA
BRANCH  28  30
ATOM     30  C   UNL A   1      35.755  30.309  28.380  1.00  0.00     0.060 A 
ATOM     31  C   UNL A   1      36.111  29.787  29.629  1.00  0.00     0.016 A 
ATOM     32  C   UNL A   1      36.631  30.214  27.294  1.00  0.00     0.016 A 
ATOM     33  C   UNL A   1      37.370  29.231  29.820  1.00  0.00     0.010 A 
ATOM     34  C   UNL A   1      37.901  29.658  27.490  1.00  0.00     0.010 A 
ATOM     35  C   UNL A   1      38.292  29.208  28.765  1.00  0.00    -0.014 A 
BRANCH  35  36
ATOM     36  C   UNL A   1      39.706  28.874  29.063  1.00  0.00     0.031 A 
ATOM     37  C   UNL A   1      40.549  29.880  29.802  1.00  0.00     0.074 A 
ATOM     38  C   UNL A   1      40.208  27.665  28.753  1.00  0.00     0.049 A 
ATOM     39  N   UNL A   1      41.795  29.794  30.188  1.00  0.00    -0.248 NA
ATOM     40  C   UNL A   1      39.897  31.152  30.156  1.00  0.00     0.031 C 
ATOM     41  C   UNL A   1      39.472  26.593  28.083  1.00  0.00     0.029 A 
ATOM     42  N   UNL A   1      41.454  27.133  28.969  1.00  0.00    -0.354 N 
ATOM     43  C   UNL A   1      42.078  30.998  30.824  1.00  0.00     0.074 A 
ATOM     44  C   UNL A   1      40.885  31.810  30.744  1.00  0.00     0.031 C 
ATOM     45  C   UNL A   1      40.284  25.532  27.939  1.00  0.00     0.029 A 
ATOM     46  C   UNL A   1      41.602  25.857  28.480  1.00  0.00     0.049 A 
ATOM     47  H   UNL A   1      42.175  27.620  29.430  1.00  0.00     0.167 HD
ATOM     48  C   UNL A   1      43.226  31.385  31.430  1.00  0.00     0.037 A 
ATOM     49  C   UNL A   1      42.683  25.053  28.456  1.00  0.00     0.037 A 
ATOM     50  C   UNL A   1      44.407  30.567  31.512  1.00  0.00     0.049 A 
ATOM     51  C   UNL A   1      43.969  25.529  29.081  1.00  0.00     0.074 A 
ATOM     52  C   UNL A   1      45.618  30.863  32.115  1.00  0.00     0.029 A 
ATOM     53  N   UNL A   1      44.530  29.296  30.971  1.00  0.00    -0.354 N 
ATOM     54  N   UNL A   1      44.218  26.664  29.692  1.00  0.00    -0.248 NA
ATOM     55  C   UNL A   1      45.119  24.617  29.019  1.00  0.00     0.031 C 
ATOM     56  C   UNL A   1      46.489  29.790  31.894  1.00  0.00     0.029 A 
ATOM     57  C   UNL A   1      45.803  28.803  31.204  1.00  0.00     0.049 A 
ATOM     58  H   UNL A   1      43.818  28.815  30.492  1.00  0.00     0.167 HD
ATOM     59  C   UNL A   1      45.543  26.590  30.112  1.00  0.00     0.074 A 
ATOM     60  C   UNL A   1      46.039  25.295  29.693  1.00  0.00     0.031 C 
ATOM     61  C   UNL A   1      46.280  27.507  30.786  1.00  0.00     0.037 A 
BRANCH  48  62
ATOM     62  C   UNL A   1      43.269  32.765  32.028  1.00  0.00     0.058 A 
ATOM     63  C   UNL A   1      43.892  33.840  31.372  1.00  0.00     0.135 A 
ATOM     64  C   UNL A   1      42.650  33.023  33.262  1.00  0.00     0.135 A 
ATOM     65  F   UNL A   1      44.516  33.647  30.199  1.00  0.00    -0.206 F 
ATOM     66  C   UNL A   1      43.921  35.114  31.931  1.00  0.00     0.059 A 
ATOM     67  C   UNL A   1      42.642  34.296  33.825  1.00  0.00     0.059 A 
ATOM     68  F   UNL A   1      42.042  32.032  33.932  1.00  0.00    -0.206 F 
ATOM     69  C   UNL A   1      43.293  35.333  33.158  1.00  0.00     0.060 A 
BRANCH  69  70
ATOM     70  S   UNL A   1      43.336  36.992  33.868  1.00  0.00     0.124 S 
ATOM     71  O   UNL A   1      43.333  37.822  32.669  1.00  0.00    -0.237 OA
ATOM     72  O   UNL A   1      42.112  37.022  34.663  1.00  0.00    -0.237 OA
ATOM     73  O   UNL A   1      44.577  37.002  34.635  1.00  0.00    -0.744 OA
ENDBRANCH  69  70
ENDBRANCH  48  62
BRANCH  49  74
ATOM     74  C   UNL A   1      42.599  23.718  27.806  1.00  0.00     0.058 A 
ATOM     75  C   UNL A   1      42.723  23.573  26.416  1.00  0.00     0.135 A 
ATOM     76  C   UNL A   1      42.399  22.555  28.568  1.00  0.00     0.135 A 
ATOM     77  F   UNL A   1      42.904  24.654  25.643  1.00  0.00    -0.206 F 
ATOM     78  C   UNL A   1      42.639  22.326  25.803  1.00  0.00     0.059 A 
ATOM     79  C   UNL A   1      42.338  21.296  27.981  1.00  0.00     0.059 A 
ATOM     80  F   UNL A   1      42.284  22.637  29.903  1.00  0.00    -0.206 F 
ATOM     81  C   UNL A   1      42.451  21.192  26.596  1.00  0.00     0.060 A 
BRANCH  81  82
ATOM     82  S   UNL A   1      42.398  19.574  25.797  1.00  0.00     0.124 S 
ATOM     83  O   UNL A   1      42.785  18.692  26.891  1.00  0.00    -0.237 OA
ATOM     84  O   UNL A   1      41.005  19.490  25.369  1.00  0.00    -0.237 OA
ATOM     85  O   UNL A   1      43.370  19.703  24.715  1.00  0.00    -0.744 OA
ENDBRANCH  81  82
ENDBRANCH  49  74
BRANCH  61  86
ATOM     86  C   UNL A   1      47.691  27.135  31.151  1.00  0.00     0.058 A 
ATOM     87  C   UNL A   1      47.998  26.491  32.360  1.00  0.00     0.135 A 
ATOM     88  C   UNL A   1      48.741  27.370  30.248  1.00  0.00     0.135 A 
ATOM     89  F   UNL A   1      47.033  26.247  33.260  1.00  0.00    -0.206 F 
ATOM     90  C   UNL A   1      49.301  26.114  32.671  1.00  0.00     0.059 A 
ATOM     91  C   UNL A   1      50.046  26.977  30.527  1.00  0.00     0.059 A 
ATOM     92  F   UNL A   1      48.500  27.971  29.072  1.00  0.00    -0.206 F 
ATOM     93  C   UNL A   1      50.319  26.360  31.747  1.00  0.00     0.060 A 
BRANCH  93  94
ATOM     94  S   UNL A   1      51.997  25.833  32.147  1.00  0.00     0.124 S 
ATOM     95  O   UNL A   1      52.211  26.485  33.435  1.00  0.00    -0.237 OA
ATOM     96  O   UNL A   1      51.869  24.380  32.187  1.00  0.00    -0.237 OA
ATOM     97  O   UNL A   1      52.792  26.356  31.040  1.00  0.00    -0.744 OA
ENDBRANCH  93  94
ENDBRANCH  61  86
ENDBRANCH  35  36
ENDBRANCH  28  30
ENDBRANCH  27  28
ENDBRANCH  26  27
ENDBRANCH  25  26
ENDBRANCH  24  25
ENDBRANCH   1  24
TORSDOF 21
ENDMDL
MODEL 3
REMARK VINA RESULT:     -10.3      6.491     12.080
REMARK SMILES Cc1cc(NC(=O)CC2(CC(=O)OCCOCCOC(=O)c3ccc(-c4c5nc(c(-c6c(F)cc(S(=O)(=O)[O-])cc6F)c6ccc([nH]6)c(-c6c(F)cc(S(=O)(=O)[O-])cc6F)c6nc(c(-c7c(F)cc(S(=O)(=O)[O-])cc7F)c7ccc4[nH]7)C=C6)C=C5)cc3)CCCC2)ccn1
REMARK SMILES IDX 15 1 14 2 13 3 11 4 12 5 10 6 9 7 88 8 91 9 89 10 90 11 8 12
REMARK SMILES IDX 6 13 5 14 7 16 4 17 1 18 2 19 3 20 94 21 93 22 92 23 16 24
REMARK SMILES IDX 17 25 18 26 19 27 20 28 21 29 22 30 23 31 87 32 24 33 86 34
REMARK SMILES IDX 25 35 26 36 27 37 80 38 28 39 85 40 79 41 81 42 29 43 84 44
REMARK SMILES IDX 78 45 77 46 30 48 64 49 43 50 63 51 44 52 47 53 62 54 82 55
REMARK SMILES IDX 45 56 46 57 61 59 83 60 48 61 31 62 32 63 41 64 33 65 34 66
REMARK SMILES IDX 40 67 42 68 35 69 36 70 37 71 38 72 39 73 65 74 66 75 75 76
REMARK SMILES IDX 67 77 68 78 74 79 76 80 69 81 70 82 71 83 72 84 73 85 49 86
REMARK SMILES IDX 50 87 59 88 51 89 52 90 58 91 60 92 53 93 54 94 55 95 56 96
REMARK SMILES IDX 57 97
REMARK H PARENT 5 15 81 47 47 58
REMARK Flexibility Score: inf
ROOT
ATOM      1  C   UNL A   1      32.513  30.381  27.031  1.00  0.00     0.202 C 
ENDROOT
BRANCH   1   2
ATOM      2  C   UNL A   1      32.282  28.867  27.115  1.00  0.00     0.261 C 
BRANCH   2   3
ATOM      3  O   UNL A   1      31.771  28.311  25.880  1.00  0.00    -0.463 OA
BRANCH   3   4
ATOM      4  C   UNL A   1      31.124  27.122  25.973  1.00  0.00     0.306 C 
ATOM      5  O   UNL A   1      30.565  26.710  26.983  1.00  0.00    -0.252 OA
BRANCH   4   6
ATOM      6  C   UNL A   1      31.253  26.276  24.720  1.00  0.00     0.130 C 
BRANCH   6   7
ATOM      7  C   UNL A   1      31.998  24.904  24.729  1.00  0.00    -0.011 C 
ATOM      8  C   UNL A   1      33.186  25.053  25.706  1.00  0.00     0.008 C 
ATOM      9  C   UNL A   1      32.765  24.619  23.416  1.00  0.00     0.008 C 
ATOM     10  C   UNL A   1      34.274  25.793  24.932  1.00  0.00     0.001 C 
ATOM     11  C   UNL A   1      34.033  25.467  23.463  1.00  0.00     0.001 C 
BRANCH   7  12
ATOM     12  C   UNL A   1      31.054  23.713  25.039  1.00  0.00     0.108 C 
BRANCH  12  13
ATOM     13  C   UNL A   1      31.144  22.995  26.367  1.00  0.00     0.224 C 
ATOM     14  N   UNL A   1      31.964  21.939  26.606  1.00  0.00    -0.326 N 
ATOM     15  H   UNL A   1      31.858  21.562  27.509  1.00  0.00     0.169 HD
ATOM     16  O   UNL A   1      30.450  23.387  27.314  1.00  0.00    -0.275 OA
BRANCH  14  17
ATOM     17  C   UNL A   1      32.930  21.269  25.839  1.00  0.00     0.044 A 
ATOM     18  C   UNL A   1      33.001  17.918  24.098  1.00  0.00     0.067 C 
ATOM     19  C   UNL A   1      33.419  19.263  24.610  1.00  0.00     0.039 A 
ATOM     20  C   UNL A   1      32.489  20.105  25.209  1.00  0.00     0.049 A 
ATOM     21  N   UNL A   1      34.736  19.556  24.564  1.00  0.00    -0.261 NA
ATOM     22  C   UNL A   1      35.129  20.726  25.108  1.00  0.00     0.113 A 
ATOM     23  C   UNL A   1      34.271  21.616  25.737  1.00  0.00     0.046 A 
ENDBRANCH  14  17
ENDBRANCH  12  13
ENDBRANCH   7  12
ENDBRANCH   6   7
ENDBRANCH   4   6
ENDBRANCH   3   4
ENDBRANCH   2   3
ENDBRANCH   1   2
BRANCH   1  24
ATOM     24  O   UNL A   1      33.861  30.809  26.805  1.00  0.00    -0.374 OA
BRANCH  24  25
ATOM     25  C   UNL A   1      34.754  30.621  27.896  1.00  0.00     0.202 C 
BRANCH  25  26
ATOM     26  C   UNL A   1      35.055  31.864  28.740  1.00  0.00     0.261 C 
BRANCH  26  27
ATOM     27  O   UNL A   1      36.466  31.994  28.994  1.00  0.00    -0.460 OA
BRANCH  27  28
ATOM     28  C   UNL A   1      36.918  31.215  30.003  1.00  0.00     0.338 C 
ATOM     29  O   UNL A   1      36.394  31.055  31.101  1.00  0.00    -0.246 OA
BRANCH  28  30
ATOM     30  C   UNL A   1      38.061  30.402  29.558  1.00  0.00     0.060 A 
ATOM     31  C   UNL A   1      39.057  30.141  30.506  1.00  0.00     0.016 A 
ATOM     32  C   UNL A   1      38.206  29.967  28.237  1.00  0.00     0.016 A 
ATOM     33  C   UNL A   1      40.235  29.508  30.126  1.00  0.00     0.010 A 
ATOM     34  C   UNL A   1      39.395  29.335  27.855  1.00  0.00     0.010 A 
ATOM     35  C   UNL A   1      40.433  29.145  28.787  1.00  0.00    -0.014 A 
BRANCH  35  36
ATOM     36  C   UNL A   1      41.791  28.735  28.355  1.00  0.00     0.031 A 
ATOM     37  C   UNL A   1      42.885  29.770  28.321  1.00  0.00     0.074 A 
ATOM     38  C   UNL A   1      42.065  27.448  28.076  1.00  0.00     0.049 A 
ATOM     39  N   UNL A   1      44.145  29.634  28.000  1.00  0.00    -0.248 NA
ATOM     40  C   UNL A   1      42.507  31.141  28.702  1.00  0.00     0.031 C 
ATOM     41  C   UNL A   1      41.099  26.351  28.124  1.00  0.00     0.029 A 
ATOM     42  N   UNL A   1      43.240  26.845  27.703  1.00  0.00    -0.354 N 
ATOM     43  C   UNL A   1      44.709  30.898  28.136  1.00  0.00     0.074 A 
ATOM     44  C   UNL A   1      43.647  31.794  28.536  1.00  0.00     0.031 C 
ATOM     45  C   UNL A   1      41.722  25.208  27.789  1.00  0.00     0.029 A 
ATOM     46  C   UNL A   1      43.120  25.495  27.476  1.00  0.00     0.049 A 
ATOM     47  H   UNL A   1      44.089  27.335  27.608  1.00  0.00     0.167 HD
ATOM     48  C   UNL A   1      45.997  31.274  27.954  1.00  0.00     0.037 A 
ATOM     49  C   UNL A   1      44.031  24.600  27.047  1.00  0.00     0.037 A 
ATOM     50  C   UNL A   1      47.050  30.374  27.562  1.00  0.00     0.049 A 
ATOM     51  C   UNL A   1      45.445  25.053  26.791  1.00  0.00     0.074 A 
ATOM     52  C   UNL A   1      48.391  30.653  27.364  1.00  0.00     0.029 A 
ATOM     53  N   UNL A   1      46.881  29.021  27.304  1.00  0.00    -0.354 N 
ATOM     54  N   UNL A   1      45.967  26.248  26.938  1.00  0.00    -0.248 NA
ATOM     55  C   UNL A   1      46.395  24.038  26.316  1.00  0.00     0.031 C 
ATOM     56  C   UNL A   1      49.023  29.480  26.936  1.00  0.00     0.029 A 
ATOM     57  C   UNL A   1      48.087  28.457  26.924  1.00  0.00     0.049 A 
ATOM     58  H   UNL A   1      46.029  28.534  27.380  1.00  0.00     0.167 HD
ATOM     59  C   UNL A   1      47.312  26.122  26.602  1.00  0.00     0.074 A 
ATOM     60  C   UNL A   1      47.524  24.732  26.252  1.00  0.00     0.031 C 
ATOM     61  C   UNL A   1      48.283  27.068  26.587  1.00  0.00     0.037 A 
BRANCH  48  62
ATOM     62  C   UNL A   1      46.335  32.727  28.150  1.00  0.00     0.058 A 
ATOM     63  C   UNL A   1      46.146  33.677  27.133  1.00  0.00     0.135 A 
ATOM     64  C   UNL A   1      46.826  33.181  29.385  1.00  0.00     0.135 A 
ATOM     65  F   UNL A   1      45.697  33.297  25.926  1.00  0.00    -0.206 F 
ATOM     66  C   UNL A   1      46.455  35.020  27.326  1.00  0.00     0.059 A 
ATOM     67  C   UNL A   1      47.116  34.523  29.609  1.00  0.00     0.059 A 
ATOM     68  F   UNL A   1      47.029  32.315  30.390  1.00  0.00    -0.206 F 
ATOM     69  C   UNL A   1      46.940  35.434  28.568  1.00  0.00     0.060 A 
BRANCH  69  70
ATOM     70  S   UNL A   1      47.334  37.180  28.804  1.00  0.00     0.124 S 
ATOM     71  O   UNL A   1      48.323  37.400  27.754  1.00  0.00    -0.237 OA
ATOM     72  O   UNL A   1      46.040  37.822  28.601  1.00  0.00    -0.237 OA
ATOM     73  O   UNL A   1      47.848  37.231  30.169  1.00  0.00    -0.744 OA
ENDBRANCH  69  70
ENDBRANCH  48  62
BRANCH  49  74
ATOM     74  C   UNL A   1      43.630  23.185  26.821  1.00  0.00     0.058 A 
ATOM     75  C   UNL A   1      43.400  22.311  27.894  1.00  0.00     0.135 A 
ATOM     76  C   UNL A   1      43.463  22.681  25.520  1.00  0.00     0.135 A 
ATOM     77  F   UNL A   1      43.557  22.741  29.155  1.00  0.00    -0.206 F 
ATOM     78  C   UNL A   1      43.031  20.985  27.687  1.00  0.00     0.059 A 
ATOM     79  C   UNL A   1      43.069  21.367  25.289  1.00  0.00     0.059 A 
ATOM     80  F   UNL A   1      43.661  23.479  24.459  1.00  0.00    -0.206 F 
ATOM     81  C   UNL A   1      42.863  20.524  26.379  1.00  0.00     0.060 A 
BRANCH  81  82
ATOM     82  S   UNL A   1      42.330  18.818  26.122  1.00  0.00     0.124 S 
ATOM     83  O   UNL A   1      40.936  18.999  25.736  1.00  0.00    -0.237 OA
ATOM     84  O   UNL A   1      43.234  18.371  25.066  1.00  0.00    -0.237 OA
ATOM     85  O   UNL A   1      42.550  18.199  27.426  1.00  0.00    -0.744 OA
ENDBRANCH  81  82
ENDBRANCH  49  74
BRANCH  61  86
ATOM     86  C   UNL A   1      49.675  26.632  26.219  1.00  0.00     0.058 A 
ATOM     87  C   UNL A   1      50.190  26.815  24.926  1.00  0.00     0.135 A 
ATOM     88  C   UNL A   1      50.525  26.080  27.191  1.00  0.00     0.135 A 
ATOM     89  F   UNL A   1      49.418  27.334  23.958  1.00  0.00    -0.206 F 
ATOM     90  C   UNL A   1      51.492  26.445  24.604  1.00  0.00     0.059 A 
ATOM     91  C   UNL A   1      51.839  25.729  26.898  1.00  0.00     0.059 A 
ATOM     92  F   UNL A   1      50.087  25.895  28.446  1.00  0.00    -0.206 F 
ATOM     93  C   UNL A   1      52.311  25.904  25.598  1.00  0.00     0.060 A 
BRANCH  93  94
ATOM     94  S   UNL A   1      54.008  25.463  25.176  1.00  0.00     0.124 S 
ATOM     95  O   UNL A   1      54.768  26.411  25.983  1.00  0.00    -0.237 OA
ATOM     96  O   UNL A   1      54.084  24.068  25.599  1.00  0.00    -0.237 OA
ATOM     97  O   UNL A   1      54.068  25.677  23.733  1.00  0.00    -0.744 OA
ENDBRANCH  93  94
ENDBRANCH  61  86
ENDBRANCH  35  36
ENDBRANCH  28  30
ENDBRANCH  27  28
ENDBRANCH  26  27
ENDBRANCH  25  26
ENDBRANCH  24  25
ENDBRANCH   1  24
TORSDOF 21
ENDMDL
