MODEL 1
REMARK VINA RESULT:     -10.9      0.000      0.000
REMARK SMILES CCOc1ccc(N2C[C@H](C(=O)OCCOCCOC(=O)c3ccc(-c4c5nc(c(-c6c(F)cc(S(=O)(=O)[O-])cc6F)c6ccc([nH]6)c(-c6c(F)cc(S(=O)(=O)[O-])cc6F)c6nc(c(-c7c(F)cc(S(=O)(=O)[O-])cc7F)c7ccc4[nH]7)C=C6)C=C5)cc3)CC2=O)cc1C(F)(F)F
REMARK SMILES IDX 16 1 15 2 14 3 13 4 11 5 12 6 10 7 8 8 9 9 89 10 88 11 90 12
REMARK SMILES IDX 7 13 4 14 5 15 92 16 6 17 91 18 3 19 2 20 1 21 93 22 94 23
REMARK SMILES IDX 95 24 96 25 17 26 18 27 19 28 20 29 21 30 22 31 23 32 87 33
REMARK SMILES IDX 24 34 86 35 25 36 26 37 27 38 80 39 28 40 85 41 79 42 81 43
REMARK SMILES IDX 29 44 84 45 78 46 77 47 30 49 64 50 43 51 63 52 44 53 47 54
REMARK SMILES IDX 62 55 82 56 45 57 46 58 61 60 83 61 48 62 31 63 32 64 41 65
REMARK SMILES IDX 33 66 34 67 40 68 42 69 35 70 36 71 37 72 38 73 39 74 65 75
REMARK SMILES IDX 66 76 75 77 67 78 68 79 74 80 76 81 69 82 70 83 71 84 72 85
REMARK SMILES IDX 73 86 49 87 50 88 59 89 51 90 52 91 58 92 60 93 53 94 54 95
REMARK SMILES IDX 55 96 56 97 57 98
REMARK H PARENT 81 48 47 59
REMARK Flexibility Score: inf
ROOT
ATOM      1  O   UNL A   1      33.999  30.168  26.695  1.00  0.00    -0.374 OA
ENDROOT
BRANCH   1   2
ATOM      2  C   UNL A   1      32.884  29.960  25.826  1.00  0.00     0.202 C 
BRANCH   2   3
ATOM      3  C   UNL A   1      32.982  28.765  24.874  1.00  0.00     0.261 C 
BRANCH   3   4
ATOM      4  O   UNL A   1      31.681  28.195  24.664  1.00  0.00    -0.463 OA
BRANCH   4   5
ATOM      5  C   UNL A   1      31.277  27.267  25.564  1.00  0.00     0.311 C 
ATOM      6  O   UNL A   1      31.396  27.364  26.779  1.00  0.00    -0.252 OA
BRANCH   5   7
ATOM      7  C   UNL A   1      30.511  26.132  24.915  1.00  0.00     0.128 C 
ATOM      8  N   UNL A   1      31.419  24.002  25.301  1.00  0.00    -0.312 N 
ATOM      9  C   UNL A   1      31.338  25.021  24.287  1.00  0.00     0.141 C 
ATOM     10  C   UNL A   1      30.508  24.245  26.339  1.00  0.00     0.227 C 
ATOM     11  C   UNL A   1      29.668  25.432  25.962  1.00  0.00     0.117 C 
ATOM     12  O   UNL A   1      30.333  23.627  27.376  1.00  0.00    -0.274 OA
BRANCH   8  13
ATOM     13  C   UNL A   1      32.235  22.847  25.187  1.00  0.00     0.044 A 
ATOM     14  C   UNL A   1      33.944  20.616  24.915  1.00  0.00     0.131 A 
ATOM     15  C   UNL A   1      32.556  20.446  24.944  1.00  0.00     0.049 A 
ATOM     16  C   UNL A   1      34.497  21.890  25.012  1.00  0.00     0.100 A 
ATOM     17  C   UNL A   1      31.707  21.554  25.099  1.00  0.00     0.030 A 
ATOM     18  C   UNL A   1      33.628  22.984  25.167  1.00  0.00     0.043 A 
BRANCH  14  19
ATOM     19  O   UNL A   1      34.747  19.548  24.643  1.00  0.00    -0.493 OA
BRANCH  19  20
ATOM     20  C   UNL A   1      34.040  18.381  24.214  1.00  0.00     0.226 C 
ATOM     21  C   UNL A   1      34.816  17.141  24.628  1.00  0.00     0.049 C 
ENDBRANCH  19  20
ENDBRANCH  14  19
BRANCH  16  22
ATOM     22  C   UNL A   1      35.977  22.154  25.020  1.00  0.00     0.420 C 
ATOM     23  F   UNL A   1      36.278  23.476  25.192  1.00  0.00    -0.166 F 
ATOM     24  F   UNL A   1      36.589  21.521  26.065  1.00  0.00    -0.166 F 
ATOM     25  F   UNL A   1      36.651  21.772  23.905  1.00  0.00    -0.166 F 
ENDBRANCH  16  22
ENDBRANCH   8  13
ENDBRANCH   5   7
ENDBRANCH   4   5
ENDBRANCH   3   4
ENDBRANCH   2   3
ENDBRANCH   1   2
BRANCH   1  26
ATOM     26  C   UNL A   1      33.942  31.257  27.614  1.00  0.00     0.202 C 
BRANCH  26  27
ATOM     27  C   UNL A   1      34.966  31.271  28.753  1.00  0.00     0.261 C 
BRANCH  27  28
ATOM     28  O   UNL A   1      35.706  30.042  28.843  1.00  0.00    -0.460 OA
BRANCH  28  29
ATOM     29  C   UNL A   1      36.425  29.907  29.987  1.00  0.00     0.338 C 
ATOM     30  O   UNL A   1      35.991  29.727  31.110  1.00  0.00    -0.246 OA
BRANCH  29  31
ATOM     31  C   UNL A   1      37.864  29.834  29.672  1.00  0.00     0.060 A 
ATOM     32  C   UNL A   1      38.227  29.753  28.322  1.00  0.00     0.016 A 
ATOM     33  C   UNL A   1      38.829  29.749  30.677  1.00  0.00     0.016 A 
ATOM     34  C   UNL A   1      39.557  29.537  27.969  1.00  0.00     0.010 A 
ATOM     35  C   UNL A   1      40.162  29.522  30.321  1.00  0.00     0.010 A 
ATOM     36  C   UNL A   1      40.525  29.379  28.969  1.00  0.00    -0.014 A 
BRANCH  36  37
ATOM     37  C   UNL A   1      41.888  28.919  28.611  1.00  0.00     0.031 A 
ATOM     38  C   UNL A   1      43.007  29.923  28.565  1.00  0.00     0.074 A 
ATOM     39  C   UNL A   1      42.124  27.624  28.338  1.00  0.00     0.049 A 
ATOM     40  N   UNL A   1      44.250  29.763  28.194  1.00  0.00    -0.248 NA
ATOM     41  C   UNL A   1      42.676  31.293  28.989  1.00  0.00     0.031 C 
ATOM     42  C   UNL A   1      41.129  26.554  28.395  1.00  0.00     0.029 A 
ATOM     43  N   UNL A   1      43.277  26.993  27.946  1.00  0.00    -0.354 N 
ATOM     44  C   UNL A   1      44.847  31.011  28.324  1.00  0.00     0.074 A 
ATOM     45  C   UNL A   1      43.823  31.924  28.788  1.00  0.00     0.031 C 
ATOM     46  C   UNL A   1      41.712  25.399  28.029  1.00  0.00     0.029 A 
ATOM     47  C   UNL A   1      43.108  25.655  27.680  1.00  0.00     0.049 A 
ATOM     48  H   UNL A   1      44.142  27.454  27.861  1.00  0.00     0.167 HD
ATOM     49  C   UNL A   1      46.132  31.362  28.083  1.00  0.00     0.037 A 
ATOM     50  C   UNL A   1      43.974  24.749  27.185  1.00  0.00     0.037 A 
ATOM     51  C   UNL A   1      47.145  30.445  27.628  1.00  0.00     0.049 A 
ATOM     52  C   UNL A   1      45.384  25.174  26.868  1.00  0.00     0.074 A 
ATOM     53  C   UNL A   1      48.480  30.698  27.367  1.00  0.00     0.029 A 
ATOM     54  N   UNL A   1      46.932  29.101  27.358  1.00  0.00    -0.354 N 
ATOM     55  N   UNL A   1      45.940  26.356  27.003  1.00  0.00    -0.248 NA
ATOM     56  C   UNL A   1      46.285  24.145  26.331  1.00  0.00     0.031 C 
ATOM     57  C   UNL A   1      49.065  29.517  26.898  1.00  0.00     0.029 A 
ATOM     58  C   UNL A   1      48.107  28.515  26.915  1.00  0.00     0.049 A 
ATOM     59  H   UNL A   1      46.074  28.633  27.467  1.00  0.00     0.167 HD
ATOM     60  C   UNL A   1      47.262  26.203  26.598  1.00  0.00     0.074 A 
ATOM     61  C   UNL A   1      47.424  24.815  26.217  1.00  0.00     0.031 C 
ATOM     62  C   UNL A   1      48.254  27.128  26.552  1.00  0.00     0.037 A 
BRANCH  49  63
ATOM     63  C   UNL A   1      46.508  32.805  28.275  1.00  0.00     0.058 A 
ATOM     64  C   UNL A   1      47.018  33.283  29.494  1.00  0.00     0.135 A 
ATOM     65  C   UNL A   1      46.377  33.720  27.219  1.00  0.00     0.135 A 
ATOM     66  F   UNL A   1      47.147  32.455  30.543  1.00  0.00    -0.206 F 
ATOM     67  C   UNL A   1      47.358  34.621  29.666  1.00  0.00     0.059 A 
ATOM     68  C   UNL A   1      46.734  35.058  27.359  1.00  0.00     0.059 A 
ATOM     69  F   UNL A   1      45.891  33.319  26.033  1.00  0.00    -0.206 F 
ATOM     70  C   UNL A   1      47.209  35.502  28.593  1.00  0.00     0.060 A 
BRANCH  70  71
ATOM     71  S   UNL A   1      47.647  37.237  28.832  1.00  0.00     0.124 S 
ATOM     72  O   UNL A   1      48.716  37.404  27.851  1.00  0.00    -0.237 OA
ATOM     73  O   UNL A   1      46.395  37.921  28.526  1.00  0.00    -0.237 OA
ATOM     74  O   UNL A   1      48.063  37.294  30.229  1.00  0.00    -0.744 OA
ENDBRANCH  70  71
ENDBRANCH  49  63
BRANCH  50  75
ATOM     75  C   UNL A   1      43.526  23.352  26.947  1.00  0.00     0.058 A 
ATOM     76  C   UNL A   1      43.342  22.460  28.014  1.00  0.00     0.135 A 
ATOM     77  C   UNL A   1      43.261  22.885  25.650  1.00  0.00     0.135 A 
ATOM     78  F   UNL A   1      43.593  22.857  29.271  1.00  0.00    -0.206 F 
ATOM     79  C   UNL A   1      42.921  21.151  27.803  1.00  0.00     0.059 A 
ATOM     80  C   UNL A   1      42.814  21.588  25.416  1.00  0.00     0.059 A 
ATOM     81  F   UNL A   1      43.415  23.702  24.598  1.00  0.00    -0.206 F 
ATOM     82  C   UNL A   1      42.655  20.725  26.501  1.00  0.00     0.060 A 
BRANCH  82  83
ATOM     83  S   UNL A   1      42.058  19.041  26.249  1.00  0.00     0.124 S 
ATOM     84  O   UNL A   1      42.214  18.471  27.582  1.00  0.00    -0.237 OA
ATOM     85  O   UNL A   1      40.684  19.266  25.809  1.00  0.00    -0.237 OA
ATOM     86  O   UNL A   1      42.957  18.514  25.226  1.00  0.00    -0.744 OA
ENDBRANCH  82  83
ENDBRANCH  50  75
BRANCH  62  87
ATOM     87  C   UNL A   1      49.617  26.665  26.115  1.00  0.00     0.058 A 
ATOM     88  C   UNL A   1      50.062  26.814  24.792  1.00  0.00     0.135 A 
ATOM     89  C   UNL A   1      50.513  26.124  27.052  1.00  0.00     0.135 A 
ATOM     90  F   UNL A   1      49.243  27.321  23.858  1.00  0.00    -0.206 F 
ATOM     91  C   UNL A   1      51.342  26.426  24.409  1.00  0.00     0.059 A 
ATOM     92  C   UNL A   1      51.806  25.753  26.696  1.00  0.00     0.059 A 
ATOM     93  F   UNL A   1      50.141  25.970  28.333  1.00  0.00    -0.206 F 
ATOM     94  C   UNL A   1      52.208  25.899  25.369  1.00  0.00     0.060 A 
BRANCH  94  95
ATOM     95  S   UNL A   1      53.881  25.438  24.869  1.00  0.00     0.124 S 
ATOM     96  O   UNL A   1      53.803  23.981  24.887  1.00  0.00    -0.237 OA
ATOM     97  O   UNL A   1      53.993  26.051  23.549  1.00  0.00    -0.237 OA
ATOM     98  O   UNL A   1      54.722  26.035  25.903  1.00  0.00    -0.744 OA
ENDBRANCH  94  95
ENDBRANCH  62  87
ENDBRANCH  36  37
ENDBRANCH  29  31
ENDBRANCH  28  29
ENDBRANCH  27  28
ENDBRANCH  26  27
ENDBRANCH   1  26
TORSDOF 21
ENDMDL
MODEL 2
REMARK VINA RESULT:     -10.4      1.123      2.121
REMARK SMILES CCOc1ccc(N2C[C@H](C(=O)OCCOCCOC(=O)c3ccc(-c4c5nc(c(-c6c(F)cc(S(=O)(=O)[O-])cc6F)c6ccc([nH]6)c(-c6c(F)cc(S(=O)(=O)[O-])cc6F)c6nc(c(-c7c(F)cc(S(=O)(=O)[O-])cc7F)c7ccc4[nH]7)C=C6)C=C5)cc3)CC2=O)cc1C(F)(F)F
REMARK SMILES IDX 16 1 15 2 14 3 13 4 11 5 12 6 10 7 8 8 9 9 89 10 88 11 90 12
REMARK SMILES IDX 7 13 4 14 5 15 92 16 6 17 91 18 3 19 2 20 1 21 93 22 94 23
REMARK SMILES IDX 95 24 96 25 17 26 18 27 19 28 20 29 21 30 22 31 23 32 87 33
REMARK SMILES IDX 24 34 86 35 25 36 26 37 27 38 80 39 28 40 85 41 79 42 81 43
REMARK SMILES IDX 29 44 84 45 78 46 77 47 30 49 64 50 43 51 63 52 44 53 47 54
REMARK SMILES IDX 62 55 82 56 45 57 46 58 61 60 83 61 48 62 31 63 32 64 41 65
REMARK SMILES IDX 33 66 34 67 40 68 42 69 35 70 36 71 37 72 38 73 39 74 65 75
REMARK SMILES IDX 66 76 75 77 67 78 68 79 74 80 76 81 69 82 70 83 71 84 72 85
REMARK SMILES IDX 73 86 49 87 50 88 59 89 51 90 52 91 58 92 60 93 53 94 54 95
REMARK SMILES IDX 55 96 56 97 57 98
REMARK H PARENT 81 48 47 59
REMARK Flexibility Score: inf
ROOT
ATOM      1  O   UNL A   1      33.316  32.157  27.556  1.00  0.00    -0.374 OA
ENDROOT
BRANCH   1   2
ATOM      2  C   UNL A   1      32.458  31.116  27.089  1.00  0.00     0.202 C 
BRANCH   2   3
ATOM      3  C   UNL A   1      33.135  29.969  26.334  1.00  0.00     0.261 C 
BRANCH   3   4
ATOM      4  O   UNL A   1      33.114  28.775  27.131  1.00  0.00    -0.463 OA
BRANCH   4   5
ATOM      5  C   UNL A   1      31.941  28.098  27.171  1.00  0.00     0.311 C 
ATOM      6  O   UNL A   1      31.113  28.173  28.071  1.00  0.00    -0.252 OA
BRANCH   5   7
ATOM      7  C   UNL A   1      31.675  27.332  25.891  1.00  0.00     0.128 C 
ATOM      8  N   UNL A   1      32.608  25.179  25.836  1.00  0.00    -0.312 N 
ATOM      9  C   UNL A   1      32.828  26.511  25.334  1.00  0.00     0.141 C 
ATOM     10  C   UNL A   1      31.322  25.047  26.378  1.00  0.00     0.227 C 
ATOM     11  C   UNL A   1      30.571  26.323  26.129  1.00  0.00     0.117 C 
ATOM     12  O   UNL A   1      30.810  24.087  26.931  1.00  0.00    -0.274 OA
BRANCH   8  13
ATOM     13  C   UNL A   1      33.541  24.121  25.682  1.00  0.00     0.044 A 
ATOM     14  C   UNL A   1      35.317  21.943  25.415  1.00  0.00     0.131 A 
ATOM     15  C   UNL A   1      35.809  23.238  25.602  1.00  0.00     0.049 A 
ATOM     16  C   UNL A   1      33.944  21.713  25.368  1.00  0.00     0.100 A 
ATOM     17  C   UNL A   1      34.925  24.324  25.715  1.00  0.00     0.030 A 
ATOM     18  C   UNL A   1      33.080  22.815  25.483  1.00  0.00     0.043 A 
BRANCH  14  19
ATOM     19  O   UNL A   1      36.180  20.887  25.428  1.00  0.00    -0.493 OA
BRANCH  19  20
ATOM     20  C   UNL A   1      37.392  21.115  24.704  1.00  0.00     0.226 C 
ATOM     21  C   UNL A   1      38.477  21.567  25.668  1.00  0.00     0.049 C 
ENDBRANCH  19  20
ENDBRANCH  14  19
BRANCH  16  22
ATOM     22  C   UNL A   1      33.336  20.357  25.140  1.00  0.00     0.420 C 
ATOM     23  F   UNL A   1      34.081  19.575  24.304  1.00  0.00    -0.166 F 
ATOM     24  F   UNL A   1      33.261  19.645  26.305  1.00  0.00    -0.166 F 
ATOM     25  F   UNL A   1      32.083  20.353  24.618  1.00  0.00    -0.166 F 
ENDBRANCH  16  22
ENDBRANCH   8  13
ENDBRANCH   5   7
ENDBRANCH   4   5
ENDBRANCH   3   4
ENDBRANCH   2   3
ENDBRANCH   1   2
BRANCH   1  26
ATOM     26  C   UNL A   1      34.371  31.810  28.451  1.00  0.00     0.202 C 
BRANCH  26  27
ATOM     27  C   UNL A   1      35.791  32.236  28.065  1.00  0.00     0.261 C 
BRANCH  27  28
ATOM     28  O   UNL A   1      36.631  32.449  29.212  1.00  0.00    -0.460 OA
BRANCH  28  29
ATOM     29  C   UNL A   1      36.737  31.372  30.033  1.00  0.00     0.338 C 
ATOM     30  O   UNL A   1      35.925  30.997  30.860  1.00  0.00    -0.246 OA
BRANCH  29  31
ATOM     31  C   UNL A   1      37.926  30.577  29.672  1.00  0.00     0.060 A 
ATOM     32  C   UNL A   1      38.878  30.349  30.674  1.00  0.00     0.016 A 
ATOM     33  C   UNL A   1      38.150  30.149  28.364  1.00  0.00     0.016 A 
ATOM     34  C   UNL A   1      40.086  29.731  30.360  1.00  0.00     0.010 A 
ATOM     35  C   UNL A   1      39.368  29.538  28.048  1.00  0.00     0.010 A 
ATOM     36  C   UNL A   1      40.354  29.359  29.036  1.00  0.00    -0.014 A 
BRANCH  36  37
ATOM     37  C   UNL A   1      41.717  28.921  28.654  1.00  0.00     0.031 A 
ATOM     38  C   UNL A   1      42.819  29.942  28.591  1.00  0.00     0.074 A 
ATOM     39  C   UNL A   1      41.969  27.630  28.375  1.00  0.00     0.049 A 
ATOM     40  N   UNL A   1      44.058  29.802  28.197  1.00  0.00    -0.248 NA
ATOM     41  C   UNL A   1      42.474  31.307  29.023  1.00  0.00     0.031 C 
ATOM     42  C   UNL A   1      40.991  26.545  28.446  1.00  0.00     0.029 A 
ATOM     43  N   UNL A   1      43.124  27.018  27.961  1.00  0.00    -0.354 N 
ATOM     44  C   UNL A   1      44.637  31.060  28.319  1.00  0.00     0.074 A 
ATOM     45  C   UNL A   1      43.608  31.955  28.803  1.00  0.00     0.031 C 
ATOM     46  C   UNL A   1      41.586  25.399  28.068  1.00  0.00     0.029 A 
ATOM     47  C   UNL A   1      42.971  25.678  27.695  1.00  0.00     0.049 A 
ATOM     48  H   UNL A   1      43.980  27.493  27.862  1.00  0.00     0.167 HD
ATOM     49  C   UNL A   1      45.913  31.431  28.056  1.00  0.00     0.037 A 
ATOM     50  C   UNL A   1      43.843  24.787  27.183  1.00  0.00     0.037 A 
ATOM     51  C   UNL A   1      46.931  30.531  27.581  1.00  0.00     0.049 A 
ATOM     52  C   UNL A   1      45.239  25.234  26.843  1.00  0.00     0.074 A 
ATOM     53  C   UNL A   1      48.258  30.805  27.299  1.00  0.00     0.029 A 
ATOM     54  N   UNL A   1      46.735  29.184  27.314  1.00  0.00    -0.354 N 
ATOM     55  N   UNL A   1      45.779  26.424  26.970  1.00  0.00    -0.248 NA
ATOM     56  C   UNL A   1      46.147  24.219  26.289  1.00  0.00     0.031 C 
ATOM     57  C   UNL A   1      48.853  29.634  26.817  1.00  0.00     0.029 A 
ATOM     58  C   UNL A   1      47.911  28.617  26.849  1.00  0.00     0.049 A 
ATOM     59  H   UNL A   1      45.886  28.702  27.436  1.00  0.00     0.167 HD
ATOM     60  C   UNL A   1      47.097  26.293  26.542  1.00  0.00     0.074 A 
ATOM     61  C   UNL A   1      47.274  24.908  26.156  1.00  0.00     0.031 C 
ATOM     62  C   UNL A   1      48.074  27.233  26.480  1.00  0.00     0.037 A 
BRANCH  49  63
ATOM     63  C   UNL A   1      46.269  32.879  28.245  1.00  0.00     0.058 A 
ATOM     64  C   UNL A   1      46.116  33.822  27.214  1.00  0.00     0.135 A 
ATOM     65  C   UNL A   1      46.750  33.337  29.482  1.00  0.00     0.135 A 
ATOM     66  F   UNL A   1      45.677  33.435  26.006  1.00  0.00    -0.206 F 
ATOM     67  C   UNL A   1      46.453  35.159  27.396  1.00  0.00     0.059 A 
ATOM     68  C   UNL A   1      47.070  34.675  29.694  1.00  0.00     0.059 A 
ATOM     69  F   UNL A   1      46.920  32.478  30.501  1.00  0.00    -0.206 F 
ATOM     70  C   UNL A   1      46.933  35.575  28.639  1.00  0.00     0.060 A 
BRANCH  70  71
ATOM     71  S   UNL A   1      47.374  37.312  28.858  1.00  0.00     0.124 S 
ATOM     72  O   UNL A   1      47.589  37.376  30.301  1.00  0.00    -0.237 OA
ATOM     73  O   UNL A   1      48.571  37.438  28.033  1.00  0.00    -0.237 OA
ATOM     74  O   UNL A   1      46.200  38.027  28.368  1.00  0.00    -0.744 OA
ENDBRANCH  70  71
ENDBRANCH  49  63
BRANCH  50  75
ATOM     75  C   UNL A   1      43.412  23.382  26.952  1.00  0.00     0.058 A 
ATOM     76  C   UNL A   1      43.153  22.909  25.657  1.00  0.00     0.135 A 
ATOM     77  C   UNL A   1      43.264  22.483  28.019  1.00  0.00     0.135 A 
ATOM     78  F   UNL A   1      43.271  23.734  24.606  1.00  0.00    -0.206 F 
ATOM     79  C   UNL A   1      42.753  21.597  25.429  1.00  0.00     0.059 A 
ATOM     80  C   UNL A   1      42.890  21.159  27.815  1.00  0.00     0.059 A 
ATOM     81  F   UNL A   1      43.508  22.886  29.276  1.00  0.00    -0.206 F 
ATOM     82  C   UNL A   1      42.628  20.727  26.514  1.00  0.00     0.060 A 
BRANCH  82  83
ATOM     83  S   UNL A   1      42.160  19.013  26.197  1.00  0.00     0.124 S 
ATOM     84  O   UNL A   1      43.097  18.643  25.143  1.00  0.00    -0.237 OA
ATOM     85  O   UNL A   1      42.383  18.389  27.498  1.00  0.00    -0.237 OA
ATOM     86  O   UNL A   1      40.761  19.116  25.792  1.00  0.00    -0.744 OA
ENDBRANCH  82  83
ENDBRANCH  50  75
BRANCH  62  87
ATOM     87  C   UNL A   1      49.435  26.792  26.019  1.00  0.00     0.058 A 
ATOM     88  C   UNL A   1      49.867  26.979  24.696  1.00  0.00     0.135 A 
ATOM     89  C   UNL A   1      50.344  26.234  26.933  1.00  0.00     0.135 A 
ATOM     90  F   UNL A   1      49.035  27.503  23.783  1.00  0.00    -0.206 F 
ATOM     91  C   UNL A   1      51.145  26.611  24.291  1.00  0.00     0.059 A 
ATOM     92  C   UNL A   1      51.637  25.882  26.555  1.00  0.00     0.059 A 
ATOM     93  F   UNL A   1      49.986  26.044  28.213  1.00  0.00    -0.206 F 
ATOM     94  C   UNL A   1      52.025  26.065  25.229  1.00  0.00     0.060 A 
BRANCH  94  95
ATOM     95  S   UNL A   1      53.697  25.631  24.702  1.00  0.00     0.124 S 
ATOM     96  O   UNL A   1      53.698  24.184  24.891  1.00  0.00    -0.237 OA
ATOM     97  O   UNL A   1      53.717  26.090  23.316  1.00  0.00    -0.237 OA
ATOM     98  O   UNL A   1      54.549  26.385  25.617  1.00  0.00    -0.744 OA
ENDBRANCH  94  95
ENDBRANCH  62  87
ENDBRANCH  36  37
ENDBRANCH  29  31
ENDBRANCH  28  29
ENDBRANCH  27  28
ENDBRANCH  26  27
ENDBRANCH   1  26
TORSDOF 21
ENDMDL
MODEL 3
REMARK VINA RESULT:      -9.9      0.973      8.229
REMARK SMILES CCOc1ccc(N2C[C@H](C(=O)OCCOCCOC(=O)c3ccc(-c4c5nc(c(-c6c(F)cc(S(=O)(=O)[O-])cc6F)c6ccc([nH]6)c(-c6c(F)cc(S(=O)(=O)[O-])cc6F)c6nc(c(-c7c(F)cc(S(=O)(=O)[O-])cc7F)c7ccc4[nH]7)C=C6)C=C5)cc3)CC2=O)cc1C(F)(F)F
REMARK SMILES IDX 16 1 15 2 14 3 13 4 11 5 12 6 10 7 8 8 9 9 89 10 88 11 90 12
REMARK SMILES IDX 7 13 4 14 5 15 92 16 6 17 91 18 3 19 2 20 1 21 93 22 94 23
REMARK SMILES IDX 95 24 96 25 17 26 18 27 19 28 20 29 21 30 22 31 23 32 87 33
REMARK SMILES IDX 24 34 86 35 25 36 26 37 27 38 80 39 28 40 85 41 79 42 81 43
REMARK SMILES IDX 29 44 84 45 78 46 77 47 30 49 64 50 43 51 63 52 44 53 47 54
REMARK SMILES IDX 62 55 82 56 45 57 46 58 61 60 83 61 48 62 31 63 32 64 41 65
REMARK SMILES IDX 33 66 34 67 40 68 42 69 35 70 36 71 37 72 38 73 39 74 65 75
REMARK SMILES IDX 66 76 75 77 67 78 68 79 74 80 76 81 69 82 70 83 71 84 72 85
REMARK SMILES IDX 73 86 49 87 50 88 59 89 51 90 52 91 58 92 60 93 53 94 54 95
REMARK SMILES IDX 55 96 56 97 57 98
REMARK H PARENT 81 48 47 59
REMARK Flexibility Score: inf
ROOT
ATOM      1  O   UNL A   1      33.899  31.961  27.930  1.00  0.00    -0.374 OA
ENDROOT
BRANCH   1   2
ATOM      2  C   UNL A   1      33.235  30.825  27.377  1.00  0.00     0.202 C 
BRANCH   2   3
ATOM      3  C   UNL A   1      34.135  29.684  26.894  1.00  0.00     0.261 C 
BRANCH   3   4
ATOM      4  O   UNL A   1      33.792  28.465  27.572  1.00  0.00    -0.463 OA
BRANCH   4   5
ATOM      5  C   UNL A   1      32.531  28.006  27.382  1.00  0.00     0.311 C 
ATOM      6  O   UNL A   1      31.606  28.135  28.175  1.00  0.00    -0.252 OA
BRANCH   5   7
ATOM      7  C   UNL A   1      32.332  27.430  25.995  1.00  0.00     0.128 C 
ATOM      8  N   UNL A   1      32.697  25.117  25.842  1.00  0.00    -0.312 N 
ATOM      9  C   UNL A   1      33.330  26.375  25.543  1.00  0.00     0.141 C 
ATOM     10  C   UNL A   1      31.339  25.291  26.146  1.00  0.00     0.227 C 
ATOM     11  C   UNL A   1      30.988  26.734  25.928  1.00  0.00     0.117 C 
ATOM     12  O   UNL A   1      30.511  24.463  26.491  1.00  0.00    -0.274 OA
BRANCH   8  13
ATOM     13  C   UNL A   1      33.351  23.864  25.721  1.00  0.00     0.044 A 
ATOM     14  C   UNL A   1      34.701  21.407  25.382  1.00  0.00     0.131 A 
ATOM     15  C   UNL A   1      33.522  21.470  26.132  1.00  0.00     0.049 A 
ATOM     16  C   UNL A   1      35.215  22.555  24.786  1.00  0.00     0.100 A 
ATOM     17  C   UNL A   1      32.862  22.696  26.317  1.00  0.00     0.030 A 
ATOM     18  C   UNL A   1      34.538  23.770  24.986  1.00  0.00     0.043 A 
BRANCH  14  19
ATOM     19  O   UNL A   1      35.262  20.194  25.111  1.00  0.00    -0.493 OA
BRANCH  19  20
ATOM     20  C   UNL A   1      34.335  19.216  24.632  1.00  0.00     0.226 C 
ATOM     21  C   UNL A   1      35.044  17.880  24.484  1.00  0.00     0.049 C 
ENDBRANCH  19  20
ENDBRANCH  14  19
BRANCH  16  22
ATOM     22  C   UNL A   1      36.491  22.578  23.990  1.00  0.00     0.420 C 
ATOM     23  F   UNL A   1      36.289  22.881  22.673  1.00  0.00    -0.166 F 
ATOM     24  F   UNL A   1      37.341  23.549  24.442  1.00  0.00    -0.166 F 
ATOM     25  F   UNL A   1      37.207  21.425  23.990  1.00  0.00    -0.166 F 
ENDBRANCH  16  22
ENDBRANCH   8  13
ENDBRANCH   5   7
ENDBRANCH   4   5
ENDBRANCH   3   4
ENDBRANCH   2   3
ENDBRANCH   1   2
BRANCH   1  26
ATOM     26  C   UNL A   1      35.030  31.737  28.769  1.00  0.00     0.202 C 
BRANCH  26  27
ATOM     27  C   UNL A   1      35.910  32.946  29.104  1.00  0.00     0.261 C 
BRANCH  27  28
ATOM     28  O   UNL A   1      36.944  32.628  30.051  1.00  0.00    -0.460 OA
BRANCH  28  29
ATOM     29  C   UNL A   1      36.930  31.339  30.479  1.00  0.00     0.338 C 
ATOM     30  O   UNL A   1      36.020  30.764  31.047  1.00  0.00    -0.246 OA
BRANCH  29  31
ATOM     31  C   UNL A   1      38.137  30.637  30.004  1.00  0.00     0.060 A 
ATOM     32  C   UNL A   1      39.133  30.355  30.948  1.00  0.00     0.016 A 
ATOM     33  C   UNL A   1      38.332  30.349  28.653  1.00  0.00     0.016 A 
ATOM     34  C   UNL A   1      40.354  29.826  30.536  1.00  0.00     0.010 A 
ATOM     35  C   UNL A   1      39.561  29.826  28.240  1.00  0.00     0.010 A 
ATOM     36  C   UNL A   1      40.589  29.597  29.174  1.00  0.00    -0.014 A 
BRANCH  36  37
ATOM     37  C   UNL A   1      41.954  29.259  28.706  1.00  0.00     0.031 A 
ATOM     38  C   UNL A   1      42.246  27.850  28.268  1.00  0.00     0.074 A 
ATOM     39  C   UNL A   1      42.917  30.197  28.666  1.00  0.00     0.049 A 
ATOM     40  N   UNL A   1      43.381  27.311  27.910  1.00  0.00    -0.248 NA
ATOM     41  C   UNL A   1      41.103  26.922  28.239  1.00  0.00     0.031 C 
ATOM     42  C   UNL A   1      42.739  31.604  29.022  1.00  0.00     0.029 A 
ATOM     43  N   UNL A   1      44.240  30.100  28.320  1.00  0.00    -0.354 N 
ATOM     44  C   UNL A   1      43.096  25.981  27.626  1.00  0.00     0.074 A 
ATOM     45  C   UNL A   1      41.683  25.788  27.876  1.00  0.00     0.031 C 
ATOM     46  C   UNL A   1      43.919  32.236  28.894  1.00  0.00     0.029 A 
ATOM     47  C   UNL A   1      44.938  31.272  28.482  1.00  0.00     0.049 A 
ATOM     48  H   UNL A   1      44.651  29.269  27.987  1.00  0.00     0.167 HD
ATOM     49  C   UNL A   1      43.935  25.010  27.192  1.00  0.00     0.037 A 
ATOM     50  C   UNL A   1      46.253  31.529  28.342  1.00  0.00     0.037 A 
ATOM     51  C   UNL A   1      45.338  25.214  26.940  1.00  0.00     0.049 A 
ATOM     52  C   UNL A   1      47.180  30.422  27.915  1.00  0.00     0.074 A 
ATOM     53  C   UNL A   1      46.271  24.299  26.485  1.00  0.00     0.029 A 
ATOM     54  N   UNL A   1      46.010  26.412  27.128  1.00  0.00    -0.354 N 
ATOM     55  N   UNL A   1      46.897  29.169  27.642  1.00  0.00    -0.248 NA
ATOM     56  C   UNL A   1      48.603  30.759  27.777  1.00  0.00     0.031 C 
ATOM     57  C   UNL A   1      47.518  24.933  26.440  1.00  0.00     0.029 A 
ATOM     58  C   UNL A   1      47.352  26.256  26.817  1.00  0.00     0.049 A 
ATOM     59  H   UNL A   1      45.596  27.249  27.435  1.00  0.00     0.167 HD
ATOM     60  C   UNL A   1      48.101  28.579  27.269  1.00  0.00     0.074 A 
ATOM     61  C   UNL A   1      49.113  29.612  27.349  1.00  0.00     0.031 C 
ATOM     62  C   UNL A   1      48.345  27.299  26.890  1.00  0.00     0.037 A 
BRANCH  49  63
ATOM     63  C   UNL A   1      43.364  23.634  26.994  1.00  0.00     0.058 A 
ATOM     64  C   UNL A   1      42.958  23.173  25.730  1.00  0.00     0.135 A 
ATOM     65  C   UNL A   1      43.242  22.752  28.080  1.00  0.00     0.135 A 
ATOM     66  F   UNL A   1      43.036  23.981  24.661  1.00  0.00    -0.206 F 
ATOM     67  C   UNL A   1      42.425  21.900  25.557  1.00  0.00     0.059 A 
ATOM     68  C   UNL A   1      42.736  21.465  27.926  1.00  0.00     0.059 A 
ATOM     69  F   UNL A   1      43.612  23.142  29.312  1.00  0.00    -0.206 F 
ATOM     70  C   UNL A   1      42.316  21.054  26.662  1.00  0.00     0.060 A 
BRANCH  70  71
ATOM     71  S   UNL A   1      41.616  19.407  26.424  1.00  0.00     0.124 S 
ATOM     72  O   UNL A   1      41.803  18.819  27.748  1.00  0.00    -0.237 OA
ATOM     73  O   UNL A   1      40.236  19.703  26.053  1.00  0.00    -0.237 OA
ATOM     74  O   UNL A   1      42.439  18.837  25.363  1.00  0.00    -0.744 OA
ENDBRANCH  70  71
ENDBRANCH  49  63
BRANCH  50  75
ATOM     75  C   UNL A   1      46.773  32.894  28.621  1.00  0.00     0.058 A 
ATOM     76  C   UNL A   1      46.868  33.854  27.603  1.00  0.00     0.135 A 
ATOM     77  C   UNL A   1      47.172  33.269  29.913  1.00  0.00     0.135 A 
ATOM     78  F   UNL A   1      46.508  33.540  26.349  1.00  0.00    -0.206 F 
ATOM     79  C   UNL A   1      47.350  35.135  27.853  1.00  0.00     0.059 A 
ATOM     80  C   UNL A   1      47.634  34.551  30.194  1.00  0.00     0.059 A 
ATOM     81  F   UNL A   1      47.093  32.389  30.923  1.00  0.00    -0.206 F 
ATOM     82  C   UNL A   1      47.727  35.475  29.154  1.00  0.00     0.060 A 
BRANCH  82  83
ATOM     83  S   UNL A   1      48.300  37.157  29.474  1.00  0.00     0.124 S 
ATOM     84  O   UNL A   1      49.384  36.923  30.420  1.00  0.00    -0.237 OA
ATOM     85  O   UNL A   1      48.700  37.602  28.142  1.00  0.00    -0.237 OA
ATOM     86  O   UNL A   1      47.117  37.817  30.018  1.00  0.00    -0.744 OA
ENDBRANCH  82  83
ENDBRANCH  50  75
BRANCH  62  87
ATOM     87  C   UNL A   1      49.751  26.948  26.489  1.00  0.00     0.058 A 
ATOM     88  C   UNL A   1      50.695  26.487  27.420  1.00  0.00     0.135 A 
ATOM     89  C   UNL A   1      50.138  27.013  25.140  1.00  0.00     0.135 A 
ATOM     90  F   UNL A   1      50.377  26.412  28.722  1.00  0.00    -0.206 F 
ATOM     91  C   UNL A   1      51.979  26.120  27.031  1.00  0.00     0.059 A 
ATOM     92  C   UNL A   1      51.409  26.627  24.725  1.00  0.00     0.059 A 
ATOM     93  F   UNL A   1      49.270  27.436  24.207  1.00  0.00    -0.206 F 
ATOM     94  C   UNL A   1      52.326  26.191  25.681  1.00  0.00     0.060 A 
BRANCH  94  95
ATOM     95  S   UNL A   1      53.982  25.672  25.181  1.00  0.00     0.124 S 
ATOM     96  O   UNL A   1      54.240  26.556  24.050  1.00  0.00    -0.237 OA
ATOM     97  O   UNL A   1      54.768  25.934  26.384  1.00  0.00    -0.237 OA
ATOM     98  O   UNL A   1      53.810  24.260  24.849  1.00  0.00    -0.744 OA
ENDBRANCH  94  95
ENDBRANCH  62  87
ENDBRANCH  36  37
ENDBRANCH  29  31
ENDBRANCH  28  29
ENDBRANCH  27  28
ENDBRANCH  26  27
ENDBRANCH   1  26
TORSDOF 21
ENDMDL
