MODEL 1
REMARK VINA RESULT:     -11.3      0.000      0.000
REMARK SMILES Cc1cc(Cl)cc2c1O[C@H](C(F)(F)F)C(C(=O)OCCOCCOC(=O)c1ccc(-c3c4nc(c(-c5c(F)cc(S(=O)(=O)[O-])cc5F)c5ccc([nH]5)c(-c5c(F)cc(S(=O)(=O)[O-])cc5F)c5nc(c(-c6c(F)cc(S(=O)(=O)[O-])cc6F)c6ccc3[nH]6)C=C5)C=C4)cc1)=C2
REMARK SMILES IDX 22 1 21 2 20 3 19 4 18 5 16 6 17 7 15 8 1 9 2 10 3 11 8 12
REMARK SMILES IDX 4 13 7 14 9 15 5 16 6 17 93 18 10 19 11 20 12 21 13 22 14 23
REMARK SMILES IDX 23 24 24 25 25 26 26 27 27 28 28 29 92 30 29 31 91 32 30 33
REMARK SMILES IDX 31 34 32 35 85 36 33 37 90 38 84 39 86 40 34 41 89 42 83 43
REMARK SMILES IDX 82 44 35 46 69 47 48 48 68 49 49 50 52 51 67 52 87 53 50 54
REMARK SMILES IDX 51 55 66 57 88 58 53 59 36 60 37 61 46 62 38 63 39 64 45 65
REMARK SMILES IDX 47 66 40 67 41 68 42 69 43 70 44 71 70 72 71 73 80 74 72 75
REMARK SMILES IDX 73 76 79 77 81 78 74 79 75 80 76 81 77 82 78 83 54 84 55 85
REMARK SMILES IDX 64 86 56 87 57 88 63 89 65 90 58 91 59 92 60 93 61 94 62 95
REMARK H PARENT 86 45 52 56
REMARK Flexibility Score: inf
ROOT
ATOM      1  C   UNL A   1      38.816  21.595  25.693  1.00  0.00     0.202 C 
ENDROOT
BRANCH   1   2
ATOM      2  O   UNL A   1      37.402  21.781  25.784  1.00  0.00    -0.374 OA
BRANCH   2   3
ATOM      3  C   UNL A   1      36.566  20.837  25.116  1.00  0.00     0.202 C 
BRANCH   3   4
ATOM      4  C   UNL A   1      35.059  21.101  25.173  1.00  0.00     0.261 C 
BRANCH   4   5
ATOM      5  O   UNL A   1      34.768  22.341  25.839  1.00  0.00    -0.460 OA
BRANCH   5   6
ATOM      6  C   UNL A   1      33.526  22.827  25.614  1.00  0.00     0.338 C 
ATOM      7  O   UNL A   1      32.465  22.271  25.856  1.00  0.00    -0.246 OA
BRANCH   6   8
ATOM      8  C   UNL A   1      33.611  24.223  25.142  1.00  0.00     0.087 C 
ATOM      9  C   UNL A   1      33.711  28.561  22.422  1.00  0.00     0.048 C 
ATOM     10  C   UNL A   1      33.445  28.193  23.854  1.00  0.00    -0.007 A 
ATOM     11  C   UNL A   1      33.048  29.184  24.766  1.00  0.00     0.027 A 
ATOM     12  C   UNL A   1      33.590  26.870  24.302  1.00  0.00     0.131 A 
ATOM     13  C   UNL A   1      32.793  28.855  26.095  1.00  0.00     0.042 A 
ATOM     14  C   UNL A   1      33.299  26.542  25.630  1.00  0.00     0.019 A 
ATOM     15  O   UNL A   1      34.036  25.950  23.394  1.00  0.00    -0.475 OA
ATOM     16  Cl  UNL A   1      32.301  30.078  27.202  1.00  0.00    -0.084 Cl
ATOM     17  C   UNL A   1      32.914  27.540  26.532  1.00  0.00     0.032 A 
ATOM     18  C   UNL A   1      33.341  25.158  26.061  1.00  0.00     0.027 C 
ATOM     19  C   UNL A   1      33.961  24.531  23.713  1.00  0.00     0.316 C 
BRANCH  19  20
ATOM     20  C   UNL A   1      33.004  23.862  22.715  1.00  0.00     0.430 C 
ATOM     21  F   UNL A   1      32.943  24.558  21.555  1.00  0.00    -0.167 F 
ATOM     22  F   UNL A   1      33.400  22.608  22.403  1.00  0.00    -0.167 F 
ATOM     23  F   UNL A   1      31.746  23.781  23.205  1.00  0.00    -0.167 F 
ENDBRANCH  19  20
ENDBRANCH   6   8
ENDBRANCH   5   6
ENDBRANCH   4   5
ENDBRANCH   3   4
ENDBRANCH   2   3
ENDBRANCH   1   2
BRANCH   1  24
ATOM     24  C   UNL A   1      39.683  22.260  26.768  1.00  0.00     0.261 C 
BRANCH  24  25
ATOM     25  O   UNL A   1      39.799  23.682  26.577  1.00  0.00    -0.460 OA
BRANCH  25  26
ATOM     26  C   UNL A   1      40.933  24.228  27.077  1.00  0.00     0.338 C 
ATOM     27  O   UNL A   1      42.084  23.904  26.816  1.00  0.00    -0.246 OA
BRANCH  26  28
ATOM     28  C   UNL A   1      40.612  25.428  27.868  1.00  0.00     0.060 A 
ATOM     29  C   UNL A   1      41.547  26.472  27.875  1.00  0.00     0.016 A 
ATOM     30  C   UNL A   1      39.463  25.497  28.659  1.00  0.00     0.016 A 
ATOM     31  C   UNL A   1      41.361  27.570  28.711  1.00  0.00     0.010 A 
ATOM     32  C   UNL A   1      39.286  26.594  29.509  1.00  0.00     0.010 A 
ATOM     33  C   UNL A   1      40.251  27.616  29.564  1.00  0.00    -0.014 A 
BRANCH  33  34
ATOM     34  C   UNL A   1      40.185  28.653  30.621  1.00  0.00     0.031 A 
ATOM     35  C   UNL A   1      41.130  28.561  31.788  1.00  0.00     0.074 A 
ATOM     36  C   UNL A   1      39.322  29.679  30.524  1.00  0.00     0.049 A 
ATOM     37  N   UNL A   1      41.217  29.322  32.847  1.00  0.00    -0.248 NA
ATOM     38  C   UNL A   1      42.112  27.463  31.753  1.00  0.00     0.031 C 
ATOM     39  C   UNL A   1      38.402  29.907  29.413  1.00  0.00     0.029 A 
ATOM     40  N   UNL A   1      39.083  30.725  31.381  1.00  0.00    -0.354 N 
ATOM     41  C   UNL A   1      42.261  28.802  33.602  1.00  0.00     0.074 A 
ATOM     42  C   UNL A   1      42.757  27.640  32.897  1.00  0.00     0.031 C 
ATOM     43  C   UNL A   1      37.691  31.021  29.657  1.00  0.00     0.029 A 
ATOM     44  C   UNL A   1      38.082  31.565  30.955  1.00  0.00     0.049 A 
ATOM     45  H   UNL A   1      39.580  30.860  32.219  1.00  0.00     0.167 HD
ATOM     46  C   UNL A   1      42.766  29.258  34.773  1.00  0.00     0.037 A 
ATOM     47  C   UNL A   1      37.532  32.638  31.558  1.00  0.00     0.037 A 
ATOM     48  C   UNL A   1      42.262  30.411  35.473  1.00  0.00     0.049 A 
ATOM     49  C   UNL A   1      38.048  33.073  32.904  1.00  0.00     0.074 A 
ATOM     50  C   UNL A   1      42.697  30.947  36.673  1.00  0.00     0.029 A 
ATOM     51  N   UNL A   1      41.211  31.205  35.038  1.00  0.00    -0.354 N 
ATOM     52  N   UNL A   1      39.024  32.562  33.618  1.00  0.00    -0.248 NA
ATOM     53  C   UNL A   1      37.386  34.226  33.530  1.00  0.00     0.031 C 
ATOM     54  C   UNL A   1      41.880  32.040  36.984  1.00  0.00     0.029 A 
ATOM     55  C   UNL A   1      40.969  32.215  35.954  1.00  0.00     0.049 A 
ATOM     56  H   UNL A   1      40.710  31.070  34.201  1.00  0.00     0.167 HD
ATOM     57  C   UNL A   1      39.108  33.344  34.765  1.00  0.00     0.074 A 
ATOM     58  C   UNL A   1      38.090  34.369  34.645  1.00  0.00     0.031 C 
ATOM     59  C   UNL A   1      39.952  33.227  35.821  1.00  0.00     0.037 A 
BRANCH  46  60
ATOM     60  C   UNL A   1      43.912  28.499  35.381  1.00  0.00     0.058 A 
ATOM     61  C   UNL A   1      45.245  28.818  35.082  1.00  0.00     0.135 A 
ATOM     62  C   UNL A   1      43.674  27.469  36.305  1.00  0.00     0.135 A 
ATOM     63  F   UNL A   1      45.526  29.781  34.189  1.00  0.00    -0.206 F 
ATOM     64  C   UNL A   1      46.305  28.133  35.669  1.00  0.00     0.059 A 
ATOM     65  C   UNL A   1      44.720  26.787  36.921  1.00  0.00     0.059 A 
ATOM     66  F   UNL A   1      42.417  27.119  36.621  1.00  0.00    -0.206 F 
ATOM     67  C   UNL A   1      46.032  27.120  36.589  1.00  0.00     0.060 A 
BRANCH  67  68
ATOM     68  S   UNL A   1      47.420  26.253  37.351  1.00  0.00     0.124 S 
ATOM     69  O   UNL A   1      46.784  25.016  37.792  1.00  0.00    -0.237 OA
ATOM     70  O   UNL A   1      48.355  26.123  36.238  1.00  0.00    -0.237 OA
ATOM     71  O   UNL A   1      47.840  27.155  38.419  1.00  0.00    -0.744 OA
ENDBRANCH  67  68
ENDBRANCH  46  60
BRANCH  47  72
ATOM     72  C   UNL A   1      36.425  33.374  30.891  1.00  0.00     0.058 A 
ATOM     73  C   UNL A   1      35.105  33.265  31.351  1.00  0.00     0.135 A 
ATOM     74  C   UNL A   1      36.667  34.212  29.792  1.00  0.00     0.135 A 
ATOM     75  F   UNL A   1      34.822  32.464  32.391  1.00  0.00    -0.206 F 
ATOM     76  C   UNL A   1      34.063  33.958  30.746  1.00  0.00     0.059 A 
ATOM     77  C   UNL A   1      35.645  34.935  29.184  1.00  0.00     0.059 A 
ATOM     78  F   UNL A   1      37.914  34.356  29.317  1.00  0.00    -0.206 F 
ATOM     79  C   UNL A   1      34.344  34.796  29.666  1.00  0.00     0.060 A 
BRANCH  79  80
ATOM     80  S   UNL A   1      32.992  35.740  28.929  1.00  0.00     0.124 S 
ATOM     81  O   UNL A   1      33.709  36.856  28.320  1.00  0.00    -0.237 OA
ATOM     82  O   UNL A   1      32.414  34.771  28.004  1.00  0.00    -0.237 OA
ATOM     83  O   UNL A   1      32.155  36.080  30.076  1.00  0.00    -0.744 OA
ENDBRANCH  79  80
ENDBRANCH  47  72
BRANCH  59  84
ATOM     84  C   UNL A   1      39.831  34.242  36.923  1.00  0.00     0.058 A 
ATOM     85  C   UNL A   1      40.497  35.476  36.863  1.00  0.00     0.135 A 
ATOM     86  C   UNL A   1      38.990  34.004  38.022  1.00  0.00     0.135 A 
ATOM     87  F   UNL A   1      41.317  35.752  35.837  1.00  0.00    -0.206 F 
ATOM     88  C   UNL A   1      40.350  36.430  37.865  1.00  0.00     0.059 A 
ATOM     89  C   UNL A   1      38.807  34.954  39.022  1.00  0.00     0.059 A 
ATOM     90  F   UNL A   1      38.320  32.845  38.122  1.00  0.00    -0.206 F 
ATOM     91  C   UNL A   1      39.500  36.160  38.939  1.00  0.00     0.060 A 
BRANCH  91  92
ATOM     92  S   UNL A   1      39.293  37.421  40.215  1.00  0.00     0.124 S 
ATOM     93  O   UNL A   1      38.238  38.250  39.642  1.00  0.00    -0.237 OA
ATOM     94  O   UNL A   1      38.913  36.628  41.379  1.00  0.00    -0.237 OA
ATOM     95  O   UNL A   1      40.610  38.047  40.293  1.00  0.00    -0.744 OA
ENDBRANCH  91  92
ENDBRANCH  59  84
ENDBRANCH  33  34
ENDBRANCH  26  28
ENDBRANCH  25  26
ENDBRANCH  24  25
ENDBRANCH   1  24
TORSDOF 18
ENDMDL
MODEL 2
REMARK VINA RESULT:     -11.2      6.671     11.997
REMARK SMILES Cc1cc(Cl)cc2c1O[C@H](C(F)(F)F)C(C(=O)OCCOCCOC(=O)c1ccc(-c3c4nc(c(-c5c(F)cc(S(=O)(=O)[O-])cc5F)c5ccc([nH]5)c(-c5c(F)cc(S(=O)(=O)[O-])cc5F)c5nc(c(-c6c(F)cc(S(=O)(=O)[O-])cc6F)c6ccc3[nH]6)C=C5)C=C4)cc1)=C2
REMARK SMILES IDX 22 1 21 2 20 3 19 4 18 5 16 6 17 7 15 8 1 9 2 10 3 11 8 12
REMARK SMILES IDX 4 13 7 14 9 15 5 16 6 17 93 18 10 19 11 20 12 21 13 22 14 23
REMARK SMILES IDX 23 24 24 25 25 26 26 27 27 28 28 29 92 30 29 31 91 32 30 33
REMARK SMILES IDX 31 34 32 35 85 36 33 37 90 38 84 39 86 40 34 41 89 42 83 43
REMARK SMILES IDX 82 44 35 46 69 47 48 48 68 49 49 50 52 51 67 52 87 53 50 54
REMARK SMILES IDX 51 55 66 57 88 58 53 59 36 60 37 61 46 62 38 63 39 64 45 65
REMARK SMILES IDX 47 66 40 67 41 68 42 69 43 70 44 71 70 72 71 73 80 74 72 75
REMARK SMILES IDX 73 76 79 77 81 78 74 79 75 80 76 81 77 82 78 83 54 84 55 85
REMARK SMILES IDX 64 86 56 87 57 88 63 89 65 90 58 91 59 92 60 93 61 94 62 95
REMARK H PARENT 86 45 52 56
REMARK Flexibility Score: inf
ROOT
ATOM      1  C   UNL A   1      33.978  31.405  27.652  1.00  0.00     0.202 C 
ENDROOT
BRANCH   1   2
ATOM      2  O   UNL A   1      34.295  30.072  27.247  1.00  0.00    -0.374 OA
BRANCH   2   3
ATOM      3  C   UNL A   1      33.544  29.510  26.172  1.00  0.00     0.202 C 
BRANCH   3   4
ATOM      4  C   UNL A   1      34.061  28.190  25.594  1.00  0.00     0.261 C 
BRANCH   4   5
ATOM      5  O   UNL A   1      33.768  28.080  24.192  1.00  0.00    -0.460 OA
BRANCH   5   6
ATOM      6  C   UNL A   1      33.076  26.973  23.842  1.00  0.00     0.338 C 
ATOM      7  O   UNL A   1      33.486  25.822  23.835  1.00  0.00    -0.246 OA
BRANCH   6   8
ATOM      8  C   UNL A   1      31.665  27.324  23.584  1.00  0.00     0.087 C 
ATOM      9  C   UNL A   1      26.575  27.882  23.684  1.00  0.00     0.048 C 
ATOM     10  C   UNL A   1      27.731  28.643  23.100  1.00  0.00    -0.007 A 
ATOM     11  C   UNL A   1      27.504  29.867  22.451  1.00  0.00     0.027 A 
ATOM     12  C   UNL A   1      29.043  28.149  23.187  1.00  0.00     0.131 A 
ATOM     13  C   UNL A   1      28.567  30.585  21.911  1.00  0.00     0.042 A 
ATOM     14  C   UNL A   1      30.110  28.893  22.672  1.00  0.00     0.019 A 
ATOM     15  O   UNL A   1      29.211  26.925  23.775  1.00  0.00    -0.475 OA
ATOM     16  Cl  UNL A   1      28.275  32.087  21.123  1.00  0.00    -0.084 Cl
ATOM     17  C   UNL A   1      29.869  30.106  22.018  1.00  0.00     0.032 A 
ATOM     18  C   UNL A   1      31.472  28.435  22.863  1.00  0.00     0.027 C 
ATOM     19  C   UNL A   1      30.550  26.477  24.130  1.00  0.00     0.316 C 
BRANCH  19  20
ATOM     20  C   UNL A   1      30.619  26.324  25.656  1.00  0.00     0.430 C 
ATOM     21  F   UNL A   1      30.917  27.503  26.252  1.00  0.00    -0.167 F 
ATOM     22  F   UNL A   1      29.442  25.908  26.173  1.00  0.00    -0.167 F 
ATOM     23  F   UNL A   1      31.565  25.432  26.029  1.00  0.00    -0.167 F 
ENDBRANCH  19  20
ENDBRANCH   6   8
ENDBRANCH   5   6
ENDBRANCH   4   5
ENDBRANCH   3   4
ENDBRANCH   2   3
ENDBRANCH   1   2
BRANCH   1  24
ATOM     24  C   UNL A   1      34.779  31.995  28.819  1.00  0.00     0.261 C 
BRANCH  24  25
ATOM     25  O   UNL A   1      35.593  31.008  29.479  1.00  0.00    -0.460 OA
BRANCH  25  26
ATOM     26  C   UNL A   1      36.709  31.500  30.068  1.00  0.00     0.338 C 
ATOM     27  O   UNL A   1      36.769  32.383  30.913  1.00  0.00    -0.246 OA
BRANCH  26  28
ATOM     28  C   UNL A   1      37.880  30.689  29.691  1.00  0.00     0.060 A 
ATOM     29  C   UNL A   1      38.815  30.394  30.692  1.00  0.00     0.016 A 
ATOM     30  C   UNL A   1      38.107  30.302  28.369  1.00  0.00     0.016 A 
ATOM     31  C   UNL A   1      40.006  29.751  30.366  1.00  0.00     0.010 A 
ATOM     32  C   UNL A   1      39.310  29.669  28.041  1.00  0.00     0.010 A 
ATOM     33  C   UNL A   1      40.278  29.423  29.032  1.00  0.00    -0.014 A 
BRANCH  33  34
ATOM     34  C   UNL A   1      41.638  28.969  28.654  1.00  0.00     0.031 A 
ATOM     35  C   UNL A   1      42.764  29.968  28.658  1.00  0.00     0.074 A 
ATOM     36  C   UNL A   1      41.872  27.682  28.348  1.00  0.00     0.049 A 
ATOM     37  N   UNL A   1      44.015  29.807  28.317  1.00  0.00    -0.248 NA
ATOM     38  C   UNL A   1      42.433  31.330  29.111  1.00  0.00     0.031 C 
ATOM     39  C   UNL A   1      40.876  26.613  28.369  1.00  0.00     0.029 A 
ATOM     40  N   UNL A   1      43.030  27.055  27.959  1.00  0.00    -0.354 N 
ATOM     41  C   UNL A   1      44.622  31.041  28.517  1.00  0.00     0.074 A 
ATOM     42  C   UNL A   1      43.595  31.950  28.977  1.00  0.00     0.031 C 
ATOM     43  C   UNL A   1      41.463  25.461  28.002  1.00  0.00     0.029 A 
ATOM     44  C   UNL A   1      42.868  25.717  27.690  1.00  0.00     0.049 A 
ATOM     45  H   UNL A   1      43.894  27.519  27.881  1.00  0.00     0.167 HD
ATOM     46  C   UNL A   1      45.921  31.382  28.339  1.00  0.00     0.037 A 
ATOM     47  C   UNL A   1      43.748  24.811  27.223  1.00  0.00     0.037 A 
ATOM     48  C   UNL A   1      46.937  30.474  27.873  1.00  0.00     0.049 A 
ATOM     49  C   UNL A   1      45.167  25.235  26.945  1.00  0.00     0.074 A 
ATOM     50  C   UNL A   1      48.278  30.726  27.649  1.00  0.00     0.029 A 
ATOM     51  N   UNL A   1      46.722  29.140  27.558  1.00  0.00    -0.354 N 
ATOM     52  N   UNL A   1      45.725  26.410  27.120  1.00  0.00    -0.248 NA
ATOM     53  C   UNL A   1      46.074  24.213  26.403  1.00  0.00     0.031 C 
ATOM     54  C   UNL A   1      48.866  29.555  27.157  1.00  0.00     0.029 A 
ATOM     55  C   UNL A   1      47.902  28.560  27.122  1.00  0.00     0.049 A 
ATOM     56  H   UNL A   1      45.857  28.675  27.632  1.00  0.00     0.167 HD
ATOM     57  C   UNL A   1      47.053  26.262  26.731  1.00  0.00     0.074 A 
ATOM     58  C   UNL A   1      47.216  24.882  26.321  1.00  0.00     0.031 C 
ATOM     59  C   UNL A   1      48.047  27.185  26.717  1.00  0.00     0.037 A 
BRANCH  46  60
ATOM     60  C   UNL A   1      46.315  32.801  28.635  1.00  0.00     0.058 A 
ATOM     61  C   UNL A   1      46.265  33.800  27.650  1.00  0.00     0.135 A 
ATOM     62  C   UNL A   1      46.708  33.177  29.931  1.00  0.00     0.135 A 
ATOM     63  F   UNL A   1      45.917  33.489  26.391  1.00  0.00    -0.206 F 
ATOM     64  C   UNL A   1      46.604  35.119  27.934  1.00  0.00     0.059 A 
ATOM     65  C   UNL A   1      47.028  34.496  30.243  1.00  0.00     0.059 A 
ATOM     66  F   UNL A   1      46.779  32.260  30.908  1.00  0.00    -0.206 F 
ATOM     67  C   UNL A   1      46.981  35.457  29.235  1.00  0.00     0.060 A 
BRANCH  67  68
ATOM     68  S   UNL A   1      47.402  37.178  29.588  1.00  0.00     0.124 S 
ATOM     69  O   UNL A   1      47.355  37.768  28.255  1.00  0.00    -0.237 OA
ATOM     70  O   UNL A   1      46.334  37.579  30.497  1.00  0.00    -0.237 OA
ATOM     71  O   UNL A   1      48.730  37.087  30.186  1.00  0.00    -0.744 OA
ENDBRANCH  67  68
ENDBRANCH  46  60
BRANCH  47  72
ATOM     72  C   UNL A   1      43.311  23.409  26.984  1.00  0.00     0.058 A 
ATOM     73  C   UNL A   1      43.068  22.939  25.686  1.00  0.00     0.135 A 
ATOM     74  C   UNL A   1      43.143  22.509  28.048  1.00  0.00     0.135 A 
ATOM     75  F   UNL A   1      43.201  23.767  24.638  1.00  0.00    -0.206 F 
ATOM     76  C   UNL A   1      42.672  21.628  25.448  1.00  0.00     0.059 A 
ATOM     77  C   UNL A   1      42.771  21.185  27.834  1.00  0.00     0.059 A 
ATOM     78  F   UNL A   1      43.370  22.907  29.310  1.00  0.00    -0.206 F 
ATOM     79  C   UNL A   1      42.532  20.756  26.529  1.00  0.00     0.060 A 
BRANCH  79  80
ATOM     80  S   UNL A   1      42.080  19.038  26.202  1.00  0.00     0.124 S 
ATOM     81  O   UNL A   1      42.967  18.706  25.092  1.00  0.00    -0.237 OA
ATOM     82  O   UNL A   1      42.382  18.396  27.476  1.00  0.00    -0.237 OA
ATOM     83  O   UNL A   1      40.660  19.122  25.871  1.00  0.00    -0.744 OA
ENDBRANCH  79  80
ENDBRANCH  47  72
BRANCH  59  84
ATOM     84  C   UNL A   1      49.408  26.733  26.265  1.00  0.00     0.058 A 
ATOM     85  C   UNL A   1      49.850  26.931  24.949  1.00  0.00     0.135 A 
ATOM     86  C   UNL A   1      50.304  26.151  27.177  1.00  0.00     0.135 A 
ATOM     87  F   UNL A   1      49.032  27.479  24.036  1.00  0.00    -0.206 F 
ATOM     88  C   UNL A   1      51.126  26.550  24.546  1.00  0.00     0.059 A 
ATOM     89  C   UNL A   1      51.594  25.787  26.803  1.00  0.00     0.059 A 
ATOM     90  F   UNL A   1      49.936  25.950  28.453  1.00  0.00    -0.206 F 
ATOM     91  C   UNL A   1      51.992  25.981  25.482  1.00  0.00     0.060 A 
BRANCH  91  92
ATOM     92  S   UNL A   1      53.655  25.521  24.952  1.00  0.00     0.124 S 
ATOM     93  O   UNL A   1      54.482  26.329  25.843  1.00  0.00    -0.237 OA
ATOM     94  O   UNL A   1      53.676  24.083  25.200  1.00  0.00    -0.237 OA
ATOM     95  O   UNL A   1      53.685  25.909  23.545  1.00  0.00    -0.744 OA
ENDBRANCH  91  92
ENDBRANCH  59  84
ENDBRANCH  33  34
ENDBRANCH  26  28
ENDBRANCH  25  26
ENDBRANCH  24  25
ENDBRANCH   1  24
TORSDOF 18
ENDMDL
MODEL 3
REMARK VINA RESULT:     -11.2      4.815     10.582
REMARK SMILES Cc1cc(Cl)cc2c1O[C@H](C(F)(F)F)C(C(=O)OCCOCCOC(=O)c1ccc(-c3c4nc(c(-c5c(F)cc(S(=O)(=O)[O-])cc5F)c5ccc([nH]5)c(-c5c(F)cc(S(=O)(=O)[O-])cc5F)c5nc(c(-c6c(F)cc(S(=O)(=O)[O-])cc6F)c6ccc3[nH]6)C=C5)C=C4)cc1)=C2
REMARK SMILES IDX 22 1 21 2 20 3 19 4 18 5 16 6 17 7 15 8 1 9 2 10 3 11 8 12
REMARK SMILES IDX 4 13 7 14 9 15 5 16 6 17 93 18 10 19 11 20 12 21 13 22 14 23
REMARK SMILES IDX 23 24 24 25 25 26 26 27 27 28 28 29 92 30 29 31 91 32 30 33
REMARK SMILES IDX 31 34 32 35 85 36 33 37 90 38 84 39 86 40 34 41 89 42 83 43
REMARK SMILES IDX 82 44 35 46 69 47 48 48 68 49 49 50 52 51 67 52 87 53 50 54
REMARK SMILES IDX 51 55 66 57 88 58 53 59 36 60 37 61 46 62 38 63 39 64 45 65
REMARK SMILES IDX 47 66 40 67 41 68 42 69 43 70 44 71 70 72 71 73 80 74 72 75
REMARK SMILES IDX 73 76 79 77 81 78 74 79 75 80 76 81 77 82 78 83 54 84 55 85
REMARK SMILES IDX 64 86 56 87 57 88 63 89 65 90 58 91 59 92 60 93 61 94 62 95
REMARK H PARENT 86 45 52 56
REMARK Flexibility Score: inf
ROOT
ATOM      1  C   UNL A   1      31.787  29.543  26.304  1.00  0.00     0.202 C 
ENDROOT
BRANCH   1   2
ATOM      2  O   UNL A   1      32.061  28.506  25.360  1.00  0.00    -0.374 OA
BRANCH   2   3
ATOM      3  C   UNL A   1      30.980  27.656  24.979  1.00  0.00     0.202 C 
BRANCH   3   4
ATOM      4  C   UNL A   1      31.004  27.125  23.542  1.00  0.00     0.261 C 
BRANCH   4   5
ATOM      5  O   UNL A   1      31.212  25.703  23.513  1.00  0.00    -0.460 OA
BRANCH   5   6
ATOM      6  C   UNL A   1      32.055  25.273  22.546  1.00  0.00     0.338 C 
ATOM      7  O   UNL A   1      32.234  25.780  21.450  1.00  0.00    -0.246 OA
BRANCH   6   8
ATOM      8  C   UNL A   1      32.863  24.145  23.051  1.00  0.00     0.087 C 
ATOM      9  C   UNL A   1      36.224  21.100  25.430  1.00  0.00     0.048 C 
ATOM     10  C   UNL A   1      34.877  20.925  24.789  1.00  0.00    -0.007 A 
ATOM     11  C   UNL A   1      34.236  19.676  24.843  1.00  0.00     0.027 A 
ATOM     12  C   UNL A   1      34.244  21.989  24.126  1.00  0.00     0.131 A 
ATOM     13  C   UNL A   1      32.985  19.502  24.257  1.00  0.00     0.042 A 
ATOM     14  C   UNL A   1      32.973  21.815  23.570  1.00  0.00     0.019 A 
ATOM     15  O   UNL A   1      34.931  23.170  24.045  1.00  0.00    -0.475 OA
ATOM     16  Cl  UNL A   1      32.208  17.968  24.336  1.00  0.00    -0.084 Cl
ATOM     17  C   UNL A   1      32.349  20.564  23.622  1.00  0.00     0.032 A 
ATOM     18  C   UNL A   1      32.275  22.944  22.987  1.00  0.00     0.027 C 
ATOM     19  C   UNL A   1      34.238  24.375  23.610  1.00  0.00     0.316 C 
BRANCH  19  20
ATOM     20  C   UNL A   1      34.242  25.380  24.772  1.00  0.00     0.430 C 
ATOM     21  F   UNL A   1      34.226  26.654  24.315  1.00  0.00    -0.167 F 
ATOM     22  F   UNL A   1      33.160  25.232  25.567  1.00  0.00    -0.167 F 
ATOM     23  F   UNL A   1      35.340  25.242  25.550  1.00  0.00    -0.167 F 
ENDBRANCH  19  20
ENDBRANCH   6   8
ENDBRANCH   5   6
ENDBRANCH   4   5
ENDBRANCH   3   4
ENDBRANCH   2   3
ENDBRANCH   1   2
BRANCH   1  24
ATOM     24  C   UNL A   1      32.948  30.468  26.689  1.00  0.00     0.261 C 
BRANCH  24  25
ATOM     25  O   UNL A   1      33.745  29.929  27.760  1.00  0.00    -0.460 OA
BRANCH  25  26
ATOM     26  C   UNL A   1      34.681  30.778  28.248  1.00  0.00     0.338 C 
ATOM     27  O   UNL A   1      34.494  31.897  28.706  1.00  0.00    -0.246 OA
BRANCH  26  28
ATOM     28  C   UNL A   1      35.986  30.099  28.333  1.00  0.00     0.060 A 
ATOM     29  C   UNL A   1      36.363  29.571  29.575  1.00  0.00     0.016 A 
ATOM     30  C   UNL A   1      36.862  30.059  27.246  1.00  0.00     0.016 A 
ATOM     31  C   UNL A   1      37.640  29.041  29.748  1.00  0.00     0.010 A 
ATOM     32  C   UNL A   1      38.148  29.539  27.427  1.00  0.00     0.010 A 
ATOM     33  C   UNL A   1      38.553  29.062  28.686  1.00  0.00    -0.014 A 
BRANCH  33  34
ATOM     34  C   UNL A   1      39.975  28.730  28.940  1.00  0.00     0.031 A 
ATOM     35  C   UNL A   1      40.860  29.767  29.576  1.00  0.00     0.074 A 
ATOM     36  C   UNL A   1      40.461  27.513  28.642  1.00  0.00     0.049 A 
ATOM     37  N   UNL A   1      42.138  29.715  29.844  1.00  0.00    -0.248 NA
ATOM     38  C   UNL A   1      40.214  31.032  29.966  1.00  0.00     0.031 C 
ATOM     39  C   UNL A   1      39.686  26.409  28.080  1.00  0.00     0.029 A 
ATOM     40  N   UNL A   1      41.728  27.003  28.773  1.00  0.00    -0.354 N 
ATOM     41  C   UNL A   1      42.451  30.933  30.435  1.00  0.00     0.074 A 
ATOM     42  C   UNL A   1      41.235  31.718  30.458  1.00  0.00     0.031 C 
ATOM     43  C   UNL A   1      40.496  25.350  27.908  1.00  0.00     0.029 A 
ATOM     44  C   UNL A   1      41.852  25.712  28.316  1.00  0.00     0.049 A 
ATOM     45  H   UNL A   1      42.477  27.512  29.158  1.00  0.00     0.167 HD
ATOM     46  C   UNL A   1      43.641  31.356  30.922  1.00  0.00     0.037 A 
ATOM     47  C   UNL A   1      42.941  24.924  28.220  1.00  0.00     0.037 A 
ATOM     48  C   UNL A   1      44.850  30.572  30.889  1.00  0.00     0.049 A 
ATOM     49  C   UNL A   1      44.274  25.449  28.683  1.00  0.00     0.074 A 
ATOM     50  C   UNL A   1      46.110  30.915  31.345  1.00  0.00     0.029 A 
ATOM     51  N   UNL A   1      44.948  29.290  30.367  1.00  0.00    -0.354 N 
ATOM     52  N   UNL A   1      44.561  26.610  29.224  1.00  0.00    -0.248 NA
ATOM     53  C   UNL A   1      45.433  24.559  28.520  1.00  0.00     0.031 C 
ATOM     54  C   UNL A   1      46.979  29.856  31.061  1.00  0.00     0.029 A 
ATOM     55  C   UNL A   1      46.251  28.834  30.473  1.00  0.00     0.049 A 
ATOM     56  H   UNL A   1      44.200  28.780  29.979  1.00  0.00     0.167 HD
ATOM     57  C   UNL A   1      45.927  26.581  29.486  1.00  0.00     0.074 A 
ATOM     58  C   UNL A   1      46.407  25.284  29.053  1.00  0.00     0.031 C 
ATOM     59  C   UNL A   1      46.713  27.540  30.036  1.00  0.00     0.037 A 
BRANCH  46  60
ATOM     60  C   UNL A   1      43.702  32.733  31.519  1.00  0.00     0.058 A 
ATOM     61  C   UNL A   1      43.894  33.872  30.722  1.00  0.00     0.135 A 
ATOM     62  C   UNL A   1      43.524  32.920  32.899  1.00  0.00     0.135 A 
ATOM     63  F   UNL A   1      44.090  33.747  29.400  1.00  0.00    -0.206 F 
ATOM     64  C   UNL A   1      43.920  35.150  31.274  1.00  0.00     0.059 A 
ATOM     65  C   UNL A   1      43.523  34.191  33.469  1.00  0.00     0.059 A 
ATOM     66  F   UNL A   1      43.344  31.864  33.708  1.00  0.00    -0.206 F 
ATOM     67  C   UNL A   1      43.732  35.298  32.649  1.00  0.00     0.060 A 
BRANCH  67  68
ATOM     68  S   UNL A   1      43.754  36.964  33.345  1.00  0.00     0.124 S 
ATOM     69  O   UNL A   1      42.515  36.974  34.116  1.00  0.00    -0.237 OA
ATOM     70  O   UNL A   1      44.987  36.958  34.126  1.00  0.00    -0.237 OA
ATOM     71  O   UNL A   1      43.766  37.825  32.167  1.00  0.00    -0.744 OA
ENDBRANCH  67  68
ENDBRANCH  46  60
BRANCH  47  72
ATOM     72  C   UNL A   1      42.814  23.554  27.655  1.00  0.00     0.058 A 
ATOM     73  C   UNL A   1      42.450  22.469  28.466  1.00  0.00     0.135 A 
ATOM     74  C   UNL A   1      43.042  23.305  26.293  1.00  0.00     0.135 A 
ATOM     75  F   UNL A   1      42.236  22.656  29.778  1.00  0.00    -0.206 F 
ATOM     76  C   UNL A   1      42.315  21.186  27.949  1.00  0.00     0.059 A 
ATOM     77  C   UNL A   1      42.890  22.034  25.746  1.00  0.00     0.059 A 
ATOM     78  F   UNL A   1      43.386  24.310  25.473  1.00  0.00    -0.206 F 
ATOM     79  C   UNL A   1      42.531  20.980  26.585  1.00  0.00     0.060 A 
BRANCH  79  80
ATOM     80  S   UNL A   1      42.291  19.320  25.913  1.00  0.00     0.124 S 
ATOM     81  O   UNL A   1      42.812  18.488  26.992  1.00  0.00    -0.237 OA
ATOM     82  O   UNL A   1      40.846  19.279  25.716  1.00  0.00    -0.237 OA
ATOM     83  O   UNL A   1      43.084  19.335  24.688  1.00  0.00    -0.744 OA
ENDBRANCH  79  80
ENDBRANCH  47  72
BRANCH  59  84
ATOM     84  C   UNL A   1      48.169  27.221  30.226  1.00  0.00     0.058 A 
ATOM     85  C   UNL A   1      49.128  27.553  29.257  1.00  0.00     0.135 A 
ATOM     86  C   UNL A   1      48.620  26.633  31.419  1.00  0.00     0.135 A 
ATOM     87  F   UNL A   1      48.750  28.113  28.097  1.00  0.00    -0.206 F 
ATOM     88  C   UNL A   1      50.481  27.295  29.455  1.00  0.00     0.059 A 
ATOM     89  C   UNL A   1      49.971  26.390  31.650  1.00  0.00     0.059 A 
ATOM     90  F   UNL A   1      47.746  26.307  32.385  1.00  0.00    -0.206 F 
ATOM     91  C   UNL A   1      50.892  26.715  30.656  1.00  0.00     0.060 A 
BRANCH  91  92
ATOM     92  S   UNL A   1      52.655  26.416  30.912  1.00  0.00     0.124 S 
ATOM     93  O   UNL A   1      53.130  26.264  29.540  1.00  0.00    -0.237 OA
ATOM     94  O   UNL A   1      53.081  27.631  31.599  1.00  0.00    -0.237 OA
ATOM     95  O   UNL A   1      52.681  25.202  31.722  1.00  0.00    -0.744 OA
ENDBRANCH  91  92
ENDBRANCH  59  84
ENDBRANCH  33  34
ENDBRANCH  26  28
ENDBRANCH  25  26
ENDBRANCH  24  25
ENDBRANCH   1  24
TORSDOF 18
ENDMDL
