MODEL 1
REMARK VINA RESULT:     -10.9      0.000      0.000
REMARK SMILES Cc1ccc(NS(=O)(=O)N2CCCC[C@@H]2C(=O)OCCOCCOC(=O)c2ccc(-c3c4nc(c(-c5c(F)cc(S(=O)(=O)[O-])cc5F)c5ccc([nH]5)c(-c5c(F)cc(S(=O)(=O)[O-])cc5F)c5nc(c(-c6c(F)cc(S(=O)(=O)[O-])cc6F)c6ccc3[nH]6)C=C5)C=C4)cc2)c(C)n1
REMARK SMILES IDX 21 1 20 2 19 3 18 4 16 5 17 6 15 7 10 8 11 9 12 10 14 11
REMARK SMILES IDX 13 12 7 13 8 14 9 15 6 16 5 18 1 19 2 20 3 21 95 22 4 23
REMARK SMILES IDX 93 24 94 25 22 26 23 27 24 28 25 29 26 30 27 31 28 32 92 33
REMARK SMILES IDX 29 34 91 35 30 36 31 37 32 38 85 39 33 40 90 41 84 42 86 43
REMARK SMILES IDX 34 44 89 45 83 46 82 47 35 49 69 50 48 51 68 52 49 53 52 54
REMARK SMILES IDX 67 55 87 56 50 57 51 58 66 60 88 61 53 62 36 63 37 64 46 65
REMARK SMILES IDX 38 66 39 67 45 68 47 69 40 70 41 71 42 72 43 73 44 74 70 75
REMARK SMILES IDX 71 76 80 77 72 78 73 79 79 80 81 81 74 82 75 83 76 84 77 85
REMARK SMILES IDX 78 86 54 87 55 88 64 89 56 90 57 91 63 92 65 93 58 94 59 95
REMARK SMILES IDX 60 96 61 97 62 98
REMARK H PARENT 6 17 86 48 52 59
REMARK Flexibility Score: inf
ROOT
ATOM      1  O   UNL A   1      38.572  22.042  25.708  1.00  0.00    -0.374 OA
ENDROOT
BRANCH   1   2
ATOM      2  C   UNL A   1      37.463  21.313  25.206  1.00  0.00     0.202 C 
BRANCH   2   3
ATOM      3  C   UNL A   1      36.129  22.036  25.006  1.00  0.00     0.261 C 
BRANCH   3   4
ATOM      4  O   UNL A   1      35.409  22.357  26.206  1.00  0.00    -0.462 OA
BRANCH   4   5
ATOM      5  C   UNL A   1      34.093  21.999  26.192  1.00  0.00     0.324 C 
ATOM      6  O   UNL A   1      33.398  21.906  27.200  1.00  0.00    -0.250 OA
BRANCH   5   7
ATOM      7  C   UNL A   1      33.543  21.737  24.793  1.00  0.00     0.184 C 
ATOM      8  N   UNL A   1      32.673  22.780  24.163  1.00  0.00    -0.170 NA
ATOM      9  C   UNL A   1      32.541  22.530  22.701  1.00  0.00     0.105 C 
ATOM     10  C   UNL A   1      31.818  21.203  22.464  1.00  0.00     0.017 C 
ATOM     11  C   UNL A   1      32.784  20.398  24.691  1.00  0.00     0.032 C 
ATOM     12  C   UNL A   1      32.429  20.044  23.244  1.00  0.00     0.004 C 
BRANCH   8  13
ATOM     13  S   UNL A   1      32.910  24.394  24.586  1.00  0.00     0.302 S 
ATOM     14  O   UNL A   1      34.287  24.759  24.339  1.00  0.00    -0.189 OA
ATOM     15  O   UNL A   1      32.345  24.596  25.894  1.00  0.00    -0.189 OA
BRANCH  13  16
ATOM     16  N   UNL A   1      31.972  25.218  23.502  1.00  0.00    -0.269 N 
ATOM     17  H   UNL A   1      31.636  24.697  22.736  1.00  0.00     0.181 HD
BRANCH  16  18
ATOM     18  C   UNL A   1      31.588  26.607  23.543  1.00  0.00     0.071 A 
ATOM     19  C   UNL A   1      29.781  29.975  21.841  1.00  0.00     0.067 C 
ATOM     20  C   UNL A   1      30.336  28.913  22.713  1.00  0.00     0.038 A 
ATOM     21  C   UNL A   1      29.563  27.947  23.321  1.00  0.00     0.026 A 
ATOM     22  N   UNL A   1      31.669  28.859  22.703  1.00  0.00    -0.256 NA
ATOM     23  C   UNL A   1      30.206  26.787  23.747  1.00  0.00     0.030 A 
ATOM     24  C   UNL A   1      32.295  27.734  23.115  1.00  0.00     0.062 A 
ATOM     25  C   UNL A   1      33.747  27.901  22.889  1.00  0.00     0.069 C 
ENDBRANCH  16  18
ENDBRANCH  13  16
ENDBRANCH   8  13
ENDBRANCH   5   7
ENDBRANCH   4   5
ENDBRANCH   3   4
ENDBRANCH   2   3
ENDBRANCH   1   2
BRANCH   1  26
ATOM     26  C   UNL A   1      39.684  21.304  26.196  1.00  0.00     0.202 C 
BRANCH  26  27
ATOM     27  C   UNL A   1      40.981  22.047  26.548  1.00  0.00     0.261 C 
BRANCH  27  28
ATOM     28  O   UNL A   1      40.809  23.244  27.329  1.00  0.00    -0.460 OA
BRANCH  28  29
ATOM     29  C   UNL A   1      41.597  24.283  26.943  1.00  0.00     0.338 C 
ATOM     30  O   UNL A   1      42.389  24.293  26.015  1.00  0.00    -0.246 OA
BRANCH  29  31
ATOM     31  C   UNL A   1      41.280  25.500  27.718  1.00  0.00     0.060 A 
ATOM     32  C   UNL A   1      42.261  26.496  27.836  1.00  0.00     0.016 A 
ATOM     33  C   UNL A   1      40.083  25.607  28.425  1.00  0.00     0.016 A 
ATOM     34  C   UNL A   1      42.063  27.590  28.687  1.00  0.00     0.010 A 
ATOM     35  C   UNL A   1      39.884  26.706  29.271  1.00  0.00     0.010 A 
ATOM     36  C   UNL A   1      40.880  27.698  29.429  1.00  0.00    -0.014 A 
BRANCH  36  37
ATOM     37  C   UNL A   1      40.705  28.750  30.474  1.00  0.00     0.031 A 
ATOM     38  C   UNL A   1      41.522  28.622  31.733  1.00  0.00     0.074 A 
ATOM     39  C   UNL A   1      39.832  29.773  30.350  1.00  0.00     0.049 A 
ATOM     40  N   UNL A   1      41.485  29.342  32.822  1.00  0.00    -0.248 NA
ATOM     41  C   UNL A   1      42.524  27.542  31.758  1.00  0.00     0.031 C 
ATOM     42  C   UNL A   1      39.041  30.096  29.166  1.00  0.00     0.029 A 
ATOM     43  N   UNL A   1      39.431  30.723  31.264  1.00  0.00    -0.354 N 
ATOM     44  C   UNL A   1      42.476  28.823  33.646  1.00  0.00     0.074 A 
ATOM     45  C   UNL A   1      43.035  27.672  32.973  1.00  0.00     0.031 C 
ATOM     46  C   UNL A   1      38.170  31.078  29.453  1.00  0.00     0.029 A 
ATOM     47  C   UNL A   1      38.385  31.509  30.828  1.00  0.00     0.049 A 
ATOM     48  H   UNL A   1      39.853  30.831  32.146  1.00  0.00     0.167 HD
ATOM     49  C   UNL A   1      42.918  29.292  34.836  1.00  0.00     0.037 A 
ATOM     50  C   UNL A   1      37.687  32.479  31.453  1.00  0.00     0.037 A 
ATOM     51  C   UNL A   1      42.366  30.436  35.507  1.00  0.00     0.049 A 
ATOM     52  C   UNL A   1      38.117  32.907  32.832  1.00  0.00     0.074 A 
ATOM     53  C   UNL A   1      42.754  30.996  36.711  1.00  0.00     0.029 A 
ATOM     54  N   UNL A   1      41.307  31.197  35.034  1.00  0.00    -0.354 N 
ATOM     55  N   UNL A   1      39.098  32.443  33.569  1.00  0.00    -0.248 NA
ATOM     56  C   UNL A   1      37.381  34.021  33.445  1.00  0.00     0.031 C 
ATOM     57  C   UNL A   1      41.897  32.064  36.991  1.00  0.00     0.029 A 
ATOM     58  C   UNL A   1      41.015  32.207  35.934  1.00  0.00     0.049 A 
ATOM     59  H   UNL A   1      40.834  31.041  34.185  1.00  0.00     0.167 HD
ATOM     60  C   UNL A   1      39.135  33.250  34.700  1.00  0.00     0.074 A 
ATOM     61  C   UNL A   1      38.080  34.229  34.552  1.00  0.00     0.031 C 
ATOM     62  C   UNL A   1      39.977  33.192  35.762  1.00  0.00     0.037 A 
BRANCH  49  63
ATOM     63  C   UNL A   1      44.076  28.576  35.472  1.00  0.00     0.058 A 
ATOM     64  C   UNL A   1      43.872  27.522  36.377  1.00  0.00     0.135 A 
ATOM     65  C   UNL A   1      45.397  28.916  35.145  1.00  0.00     0.135 A 
ATOM     66  F   UNL A   1      42.628  27.174  36.743  1.00  0.00    -0.206 F 
ATOM     67  C   UNL A   1      44.939  26.839  36.949  1.00  0.00     0.059 A 
ATOM     68  C   UNL A   1      46.480  28.227  35.682  1.00  0.00     0.059 A 
ATOM     69  F   UNL A   1      45.647  29.922  34.292  1.00  0.00    -0.206 F 
ATOM     70  C   UNL A   1      46.240  27.195  36.590  1.00  0.00     0.060 A 
BRANCH  70  71
ATOM     71  S   UNL A   1      47.610  26.274  37.317  1.00  0.00     0.124 S 
ATOM     72  O   UNL A   1      48.514  27.353  37.701  1.00  0.00    -0.237 OA
ATOM     73  O   UNL A   1      46.959  25.570  38.418  1.00  0.00    -0.237 OA
ATOM     74  O   UNL A   1      48.072  25.428  36.222  1.00  0.00    -0.744 OA
ENDBRANCH  70  71
ENDBRANCH  49  63
BRANCH  50  75
ATOM     75  C   UNL A   1      36.548  33.164  30.777  1.00  0.00     0.058 A 
ATOM     76  C   UNL A   1      36.773  34.119  29.773  1.00  0.00     0.135 A 
ATOM     77  C   UNL A   1      35.219  32.925  31.159  1.00  0.00     0.135 A 
ATOM     78  F   UNL A   1      38.025  34.386  29.371  1.00  0.00    -0.206 F 
ATOM     79  C   UNL A   1      35.730  34.849  29.210  1.00  0.00     0.059 A 
ATOM     80  C   UNL A   1      34.155  33.622  30.591  1.00  0.00     0.059 A 
ATOM     81  F   UNL A   1      34.945  32.009  32.101  1.00  0.00    -0.206 F 
ATOM     82  C   UNL A   1      34.424  34.600  29.633  1.00  0.00     0.060 A 
BRANCH  82  83
ATOM     83  S   UNL A   1      33.083  35.567  28.903  1.00  0.00     0.124 S 
ATOM     84  O   UNL A   1      32.391  36.050  30.092  1.00  0.00    -0.237 OA
ATOM     85  O   UNL A   1      33.814  36.572  28.139  1.00  0.00    -0.237 OA
ATOM     86  O   UNL A   1      32.356  34.585  28.103  1.00  0.00    -0.744 OA
ENDBRANCH  82  83
ENDBRANCH  50  75
BRANCH  62  87
ATOM     87  C   UNL A   1      39.836  34.248  36.823  1.00  0.00     0.058 A 
ATOM     88  C   UNL A   1      39.067  34.042  37.978  1.00  0.00     0.135 A 
ATOM     89  C   UNL A   1      40.532  35.464  36.707  1.00  0.00     0.135 A 
ATOM     90  F   UNL A   1      38.377  32.901  38.136  1.00  0.00    -0.206 F 
ATOM     91  C   UNL A   1      38.973  35.012  38.970  1.00  0.00     0.059 A 
ATOM     92  C   UNL A   1      40.480  36.433  37.701  1.00  0.00     0.059 A 
ATOM     93  F   UNL A   1      41.290  35.709  35.626  1.00  0.00    -0.206 F 
ATOM     94  C   UNL A   1      39.688  36.202  38.825  1.00  0.00     0.060 A 
BRANCH  94  95
ATOM     95  S   UNL A   1      39.592  37.431  40.143  1.00  0.00     0.124 S 
ATOM     96  O   UNL A   1      39.870  36.620  41.324  1.00  0.00    -0.237 OA
ATOM     97  O   UNL A   1      40.638  38.376  39.763  1.00  0.00    -0.237 OA
ATOM     98  O   UNL A   1      38.228  37.940  40.037  1.00  0.00    -0.744 OA
ENDBRANCH  94  95
ENDBRANCH  62  87
ENDBRANCH  36  37
ENDBRANCH  29  31
ENDBRANCH  28  29
ENDBRANCH  27  28
ENDBRANCH  26  27
ENDBRANCH   1  26
TORSDOF 20
ENDMDL
MODEL 2
REMARK VINA RESULT:     -10.9      1.280      3.544
REMARK SMILES Cc1ccc(NS(=O)(=O)N2CCCC[C@@H]2C(=O)OCCOCCOC(=O)c2ccc(-c3c4nc(c(-c5c(F)cc(S(=O)(=O)[O-])cc5F)c5ccc([nH]5)c(-c5c(F)cc(S(=O)(=O)[O-])cc5F)c5nc(c(-c6c(F)cc(S(=O)(=O)[O-])cc6F)c6ccc3[nH]6)C=C5)C=C4)cc2)c(C)n1
REMARK SMILES IDX 21 1 20 2 19 3 18 4 16 5 17 6 15 7 10 8 11 9 12 10 14 11
REMARK SMILES IDX 13 12 7 13 8 14 9 15 6 16 5 18 1 19 2 20 3 21 95 22 4 23
REMARK SMILES IDX 93 24 94 25 22 26 23 27 24 28 25 29 26 30 27 31 28 32 92 33
REMARK SMILES IDX 29 34 91 35 30 36 31 37 32 38 85 39 33 40 90 41 84 42 86 43
REMARK SMILES IDX 34 44 89 45 83 46 82 47 35 49 69 50 48 51 68 52 49 53 52 54
REMARK SMILES IDX 67 55 87 56 50 57 51 58 66 60 88 61 53 62 36 63 37 64 46 65
REMARK SMILES IDX 38 66 39 67 45 68 47 69 40 70 41 71 42 72 43 73 44 74 70 75
REMARK SMILES IDX 71 76 80 77 72 78 73 79 79 80 81 81 74 82 75 83 76 84 77 85
REMARK SMILES IDX 78 86 54 87 55 88 64 89 56 90 57 91 63 92 65 93 58 94 59 95
REMARK SMILES IDX 60 96 61 97 62 98
REMARK H PARENT 6 17 86 48 52 59
REMARK Flexibility Score: inf
ROOT
ATOM      1  O   UNL A   1      38.256  22.962  25.747  1.00  0.00    -0.374 OA
ENDROOT
BRANCH   1   2
ATOM      2  C   UNL A   1      36.840  22.863  25.765  1.00  0.00     0.202 C 
BRANCH   2   3
ATOM      3  C   UNL A   1      36.011  23.966  25.103  1.00  0.00     0.261 C 
BRANCH   3   4
ATOM      4  O   UNL A   1      34.643  24.057  25.529  1.00  0.00    -0.462 OA
BRANCH   4   5
ATOM      5  C   UNL A   1      33.735  24.121  24.514  1.00  0.00     0.324 C 
ATOM      6  O   UNL A   1      33.887  23.578  23.423  1.00  0.00    -0.250 OA
BRANCH   5   7
ATOM      7  C   UNL A   1      32.483  24.923  24.860  1.00  0.00     0.184 C 
ATOM      8  N   UNL A   1      31.266  24.182  25.316  1.00  0.00    -0.170 NA
ATOM      9  C   UNL A   1      30.296  25.119  25.948  1.00  0.00     0.105 C 
ATOM     10  C   UNL A   1      29.793  26.123  24.909  1.00  0.00     0.017 C 
ATOM     11  C   UNL A   1      32.039  25.857  23.715  1.00  0.00     0.032 C 
ATOM     12  C   UNL A   1      30.922  26.811  24.150  1.00  0.00     0.004 C 
BRANCH   8  13
ATOM     13  S   UNL A   1      31.467  22.719  26.128  1.00  0.00     0.302 S 
ATOM     14  O   UNL A   1      30.209  22.009  26.161  1.00  0.00    -0.189 OA
ATOM     15  O   UNL A   1      32.164  22.989  27.358  1.00  0.00    -0.189 OA
BRANCH  13  16
ATOM     16  N   UNL A   1      32.493  21.872  25.145  1.00  0.00    -0.269 N 
ATOM     17  H   UNL A   1      33.319  22.338  24.876  1.00  0.00     0.181 HD
BRANCH  16  18
ATOM     18  C   UNL A   1      32.323  20.534  24.635  1.00  0.00     0.071 A 
ATOM     19  C   UNL A   1      33.871  16.885  23.297  1.00  0.00     0.067 C 
ATOM     20  C   UNL A   1      33.082  18.004  23.864  1.00  0.00     0.038 A 
ATOM     21  C   UNL A   1      32.991  18.262  25.215  1.00  0.00     0.026 A 
ATOM     22  N   UNL A   1      32.624  18.852  22.943  1.00  0.00    -0.256 NA
ATOM     23  C   UNL A   1      32.597  19.543  25.597  1.00  0.00     0.030 A 
ATOM     24  C   UNL A   1      32.242  20.095  23.311  1.00  0.00     0.062 A 
ATOM     25  C   UNL A   1      31.896  20.856  22.089  1.00  0.00     0.069 C 
ENDBRANCH  16  18
ENDBRANCH  13  16
ENDBRANCH   8  13
ENDBRANCH   5   7
ENDBRANCH   4   5
ENDBRANCH   3   4
ENDBRANCH   2   3
ENDBRANCH   1   2
BRANCH   1  26
ATOM     26  C   UNL A   1      39.005  21.819  26.138  1.00  0.00     0.202 C 
BRANCH  26  27
ATOM     27  C   UNL A   1      40.539  21.896  26.149  1.00  0.00     0.261 C 
BRANCH  27  28
ATOM     28  O   UNL A   1      41.101  22.790  27.126  1.00  0.00    -0.460 OA
BRANCH  28  29
ATOM     29  C   UNL A   1      41.751  23.861  26.597  1.00  0.00     0.338 C 
ATOM     30  O   UNL A   1      42.396  23.886  25.562  1.00  0.00    -0.246 OA
BRANCH  29  31
ATOM     31  C   UNL A   1      41.471  25.085  27.376  1.00  0.00     0.060 A 
ATOM     32  C   UNL A   1      42.447  26.091  27.421  1.00  0.00     0.016 A 
ATOM     33  C   UNL A   1      40.319  25.189  28.154  1.00  0.00     0.016 A 
ATOM     34  C   UNL A   1      42.291  27.195  28.270  1.00  0.00     0.010 A 
ATOM     35  C   UNL A   1      40.161  26.298  28.997  1.00  0.00     0.010 A 
ATOM     36  C   UNL A   1      41.155  27.301  29.082  1.00  0.00    -0.014 A 
BRANCH  36  37
ATOM     37  C   UNL A   1      41.033  28.364  30.123  1.00  0.00     0.031 A 
ATOM     38  C   UNL A   1      41.928  28.259  31.331  1.00  0.00     0.074 A 
ATOM     39  C   UNL A   1      40.144  29.377  30.042  1.00  0.00     0.049 A 
ATOM     40  N   UNL A   1      41.951  28.993  32.412  1.00  0.00    -0.248 NA
ATOM     41  C   UNL A   1      42.941  27.189  31.306  1.00  0.00     0.031 C 
ATOM     42  C   UNL A   1      39.278  29.677  28.905  1.00  0.00     0.029 A 
ATOM     43  N   UNL A   1      39.790  30.334  30.967  1.00  0.00    -0.354 N 
ATOM     44  C   UNL A   1      42.996  28.494  33.179  1.00  0.00     0.074 A 
ATOM     45  C   UNL A   1      43.525  27.340  32.486  1.00  0.00     0.031 C 
ATOM     46  C   UNL A   1      38.416  30.654  29.233  1.00  0.00     0.029 A 
ATOM     47  C   UNL A   1      38.711  31.104  30.587  1.00  0.00     0.049 A 
ATOM     48  H   UNL A   1      40.265  30.457  31.820  1.00  0.00     0.167 HD
ATOM     49  C   UNL A   1      43.506  28.982  34.333  1.00  0.00     0.037 A 
ATOM     50  C   UNL A   1      38.043  32.075  31.243  1.00  0.00     0.037 A 
ATOM     51  C   UNL A   1      42.985  30.129  35.023  1.00  0.00     0.049 A 
ATOM     52  C   UNL A   1      38.553  32.525  32.587  1.00  0.00     0.074 A 
ATOM     53  C   UNL A   1      43.441  30.707  36.194  1.00  0.00     0.029 A 
ATOM     54  N   UNL A   1      41.891  30.873  34.608  1.00  0.00    -0.354 N 
ATOM     55  N   UNL A   1      39.583  32.080  33.268  1.00  0.00    -0.248 NA
ATOM     56  C   UNL A   1      37.845  33.639  33.232  1.00  0.00     0.031 C 
ATOM     57  C   UNL A   1      42.592  31.770  36.514  1.00  0.00     0.029 A 
ATOM     58  C   UNL A   1      41.644  31.892  35.512  1.00  0.00     0.049 A 
ATOM     59  H   UNL A   1      41.367  30.702  33.792  1.00  0.00     0.167 HD
ATOM     60  C   UNL A   1      39.681  32.901  34.385  1.00  0.00     0.074 A 
ATOM     61  C   UNL A   1      38.609  33.868  34.290  1.00  0.00     0.031 C 
ATOM     62  C   UNL A   1      40.588  32.865  35.393  1.00  0.00     0.037 A 
BRANCH  49  63
ATOM     63  C   UNL A   1      44.709  28.286  34.904  1.00  0.00     0.058 A 
ATOM     64  C   UNL A   1      46.012  28.681  34.560  1.00  0.00     0.135 A 
ATOM     65  C   UNL A   1      44.562  27.246  35.835  1.00  0.00     0.135 A 
ATOM     66  F   UNL A   1      46.207  29.654  33.655  1.00  0.00    -0.206 F 
ATOM     67  C   UNL A   1      47.128  28.059  35.106  1.00  0.00     0.059 A 
ATOM     68  C   UNL A   1      45.665  26.629  36.417  1.00  0.00     0.059 A 
ATOM     69  F   UNL A   1      43.339  26.824  36.191  1.00  0.00    -0.206 F 
ATOM     70  C   UNL A   1      46.944  27.038  36.039  1.00  0.00     0.060 A 
BRANCH  70  71
ATOM     71  S   UNL A   1      48.406  26.266  36.761  1.00  0.00     0.124 S 
ATOM     72  O   UNL A   1      47.838  25.603  37.930  1.00  0.00    -0.237 OA
ATOM     73  O   UNL A   1      48.852  25.384  35.686  1.00  0.00    -0.237 OA
ATOM     74  O   UNL A   1      49.283  27.397  37.045  1.00  0.00    -0.744 OA
ENDBRANCH  70  71
ENDBRANCH  49  63
BRANCH  50  75
ATOM     75  C   UNL A   1      36.857  32.740  30.631  1.00  0.00     0.058 A 
ATOM     76  C   UNL A   1      37.012  33.797  29.719  1.00  0.00     0.135 A 
ATOM     77  C   UNL A   1      35.549  32.377  30.987  1.00  0.00     0.135 A 
ATOM     78  F   UNL A   1      38.241  34.184  29.346  1.00  0.00    -0.206 F 
ATOM     79  C   UNL A   1      35.920  34.503  29.224  1.00  0.00     0.059 A 
ATOM     80  C   UNL A   1      34.438  33.050  30.484  1.00  0.00     0.059 A 
ATOM     81  F   UNL A   1      35.342  31.362  31.840  1.00  0.00    -0.206 F 
ATOM     82  C   UNL A   1      34.635  34.127  29.620  1.00  0.00     0.060 A 
BRANCH  82  83
ATOM     83  S   UNL A   1      33.229  35.065  28.980  1.00  0.00     0.124 S 
ATOM     84  O   UNL A   1      32.421  35.237  30.182  1.00  0.00    -0.237 OA
ATOM     85  O   UNL A   1      33.874  36.269  28.467  1.00  0.00    -0.237 OA
ATOM     86  O   UNL A   1      32.669  34.179  27.964  1.00  0.00    -0.744 OA
ENDBRANCH  82  83
ENDBRANCH  50  75
BRANCH  62  87
ATOM     87  C   UNL A   1      40.502  33.932  36.448  1.00  0.00     0.058 A 
ATOM     88  C   UNL A   1      41.335  35.061  36.433  1.00  0.00     0.135 A 
ATOM     89  C   UNL A   1      39.527  33.850  37.457  1.00  0.00     0.135 A 
ATOM     90  F   UNL A   1      42.288  35.185  35.495  1.00  0.00    -0.206 F 
ATOM     91  C   UNL A   1      41.222  36.059  37.394  1.00  0.00     0.059 A 
ATOM     92  C   UNL A   1      39.373  34.853  38.408  1.00  0.00     0.059 A 
ATOM     93  F   UNL A   1      38.697  32.797  37.512  1.00  0.00    -0.206 F 
ATOM     94  C   UNL A   1      40.233  35.949  38.374  1.00  0.00     0.060 A 
BRANCH  94  95
ATOM     95  S   UNL A   1      40.069  37.276  39.586  1.00  0.00     0.124 S 
ATOM     96  O   UNL A   1      41.222  38.112  39.266  1.00  0.00    -0.237 OA
ATOM     97  O   UNL A   1      38.765  37.841  39.253  1.00  0.00    -0.237 OA
ATOM     98  O   UNL A   1      40.136  36.578  40.867  1.00  0.00    -0.744 OA
ENDBRANCH  94  95
ENDBRANCH  62  87
ENDBRANCH  36  37
ENDBRANCH  29  31
ENDBRANCH  28  29
ENDBRANCH  27  28
ENDBRANCH  26  27
ENDBRANCH   1  26
TORSDOF 20
ENDMDL
MODEL 3
REMARK VINA RESULT:     -10.8      6.006      8.128
REMARK SMILES Cc1ccc(NS(=O)(=O)N2CCCC[C@@H]2C(=O)OCCOCCOC(=O)c2ccc(-c3c4nc(c(-c5c(F)cc(S(=O)(=O)[O-])cc5F)c5ccc([nH]5)c(-c5c(F)cc(S(=O)(=O)[O-])cc5F)c5nc(c(-c6c(F)cc(S(=O)(=O)[O-])cc6F)c6ccc3[nH]6)C=C5)C=C4)cc2)c(C)n1
REMARK SMILES IDX 21 1 20 2 19 3 18 4 16 5 17 6 15 7 10 8 11 9 12 10 14 11
REMARK SMILES IDX 13 12 7 13 8 14 9 15 6 16 5 18 1 19 2 20 3 21 95 22 4 23
REMARK SMILES IDX 93 24 94 25 22 26 23 27 24 28 25 29 26 30 27 31 28 32 92 33
REMARK SMILES IDX 29 34 91 35 30 36 31 37 32 38 85 39 33 40 90 41 84 42 86 43
REMARK SMILES IDX 34 44 89 45 83 46 82 47 35 49 69 50 48 51 68 52 49 53 52 54
REMARK SMILES IDX 67 55 87 56 50 57 51 58 66 60 88 61 53 62 36 63 37 64 46 65
REMARK SMILES IDX 38 66 39 67 45 68 47 69 40 70 41 71 42 72 43 73 44 74 70 75
REMARK SMILES IDX 71 76 80 77 72 78 73 79 79 80 81 81 74 82 75 83 76 84 77 85
REMARK SMILES IDX 78 86 54 87 55 88 64 89 56 90 57 91 63 92 65 93 58 94 59 95
REMARK SMILES IDX 60 96 61 97 62 98
REMARK H PARENT 6 17 86 48 52 59
REMARK Flexibility Score: inf
ROOT
ATOM      1  O   UNL A   1      38.134  22.242  25.888  1.00  0.00    -0.374 OA
ENDROOT
BRANCH   1   2
ATOM      2  C   UNL A   1      37.448  21.650  24.795  1.00  0.00     0.202 C 
BRANCH   2   3
ATOM      3  C   UNL A   1      36.046  21.079  25.022  1.00  0.00     0.261 C 
BRANCH   3   4
ATOM      4  O   UNL A   1      35.414  21.453  26.255  1.00  0.00    -0.462 OA
BRANCH   4   5
ATOM      5  C   UNL A   1      34.056  21.567  26.186  1.00  0.00     0.324 C 
ATOM      6  O   UNL A   1      33.332  21.728  27.165  1.00  0.00    -0.250 OA
BRANCH   5   7
ATOM      7  C   UNL A   1      33.506  21.496  24.765  1.00  0.00     0.184 C 
ATOM      8  N   UNL A   1      32.820  22.703  24.206  1.00  0.00    -0.170 NA
ATOM      9  C   UNL A   1      32.686  22.584  22.727  1.00  0.00     0.105 C 
ATOM     10  C   UNL A   1      31.775  21.405  22.382  1.00  0.00     0.017 C 
ATOM     11  C   UNL A   1      32.555  20.300  24.553  1.00  0.00     0.032 C 
ATOM     12  C   UNL A   1      32.185  20.112  23.079  1.00  0.00     0.004 C 
BRANCH   8  13
ATOM     13  S   UNL A   1      33.290  24.226  24.753  1.00  0.00     0.302 S 
ATOM     14  O   UNL A   1      34.733  24.296  24.804  1.00  0.00    -0.189 OA
ATOM     15  O   UNL A   1      32.521  24.529  25.931  1.00  0.00    -0.189 OA
BRANCH  13  16
ATOM     16  N   UNL A   1      32.783  25.240  23.549  1.00  0.00    -0.269 N 
ATOM     17  H   UNL A   1      32.752  24.856  22.642  1.00  0.00     0.181 HD
BRANCH  16  18
ATOM     18  C   UNL A   1      32.380  26.620  23.668  1.00  0.00     0.071 A 
ATOM     19  C   UNL A   1      31.929  30.140  25.884  1.00  0.00     0.067 C 
ATOM     20  C   UNL A   1      32.124  29.088  24.859  1.00  0.00     0.038 A 
ATOM     21  C   UNL A   1      33.355  28.753  24.338  1.00  0.00     0.026 A 
ATOM     22  N   UNL A   1      31.029  28.364  24.625  1.00  0.00    -0.256 NA
ATOM     23  C   UNL A   1      33.474  27.506  23.728  1.00  0.00     0.030 A 
ATOM     24  C   UNL A   1      31.142  27.153  24.035  1.00  0.00     0.062 A 
ATOM     25  C   UNL A   1      29.804  26.523  24.007  1.00  0.00     0.069 C 
ENDBRANCH  16  18
ENDBRANCH  13  16
ENDBRANCH   8  13
ENDBRANCH   5   7
ENDBRANCH   4   5
ENDBRANCH   3   4
ENDBRANCH   2   3
ENDBRANCH   1   2
BRANCH   1  26
ATOM     26  C   UNL A   1      39.399  21.702  26.247  1.00  0.00     0.202 C 
BRANCH  26  27
ATOM     27  C   UNL A   1      39.754  20.272  25.814  1.00  0.00     0.261 C 
BRANCH  27  28
ATOM     28  O   UNL A   1      40.659  19.574  26.687  1.00  0.00    -0.460 OA
BRANCH  28  29
ATOM     29  C   UNL A   1      41.943  19.526  26.241  1.00  0.00     0.338 C 
ATOM     30  O   UNL A   1      42.474  18.607  25.641  1.00  0.00    -0.246 OA
BRANCH  29  31
ATOM     31  C   UNL A   1      42.622  20.822  26.452  1.00  0.00     0.060 A 
ATOM     32  C   UNL A   1      42.657  21.359  27.748  1.00  0.00     0.016 A 
ATOM     33  C   UNL A   1      43.107  21.559  25.374  1.00  0.00     0.016 A 
ATOM     34  C   UNL A   1      43.150  22.651  27.968  1.00  0.00     0.010 A 
ATOM     35  C   UNL A   1      43.606  22.850  25.596  1.00  0.00     0.010 A 
ATOM     36  C   UNL A   1      43.612  23.419  26.891  1.00  0.00    -0.014 A 
BRANCH  36  37
ATOM     37  C   UNL A   1      43.979  24.857  27.056  1.00  0.00     0.031 A 
ATOM     38  C   UNL A   1      45.442  25.212  26.982  1.00  0.00     0.074 A 
ATOM     39  C   UNL A   1      43.072  25.826  27.301  1.00  0.00     0.049 A 
ATOM     40  N   UNL A   1      46.027  26.363  27.187  1.00  0.00    -0.248 NA
ATOM     41  C   UNL A   1      46.365  24.124  26.613  1.00  0.00     0.031 C 
ATOM     42  C   UNL A   1      41.621  25.669  27.308  1.00  0.00     0.029 A 
ATOM     43  N   UNL A   1      43.246  27.151  27.634  1.00  0.00    -0.354 N 
ATOM     44  C   UNL A   1      47.377  26.143  26.943  1.00  0.00     0.074 A 
ATOM     45  C   UNL A   1      47.539  24.734  26.665  1.00  0.00     0.031 C 
ATOM     46  C   UNL A   1      41.041  26.801  27.742  1.00  0.00     0.029 A 
ATOM     47  C   UNL A   1      42.077  27.796  27.982  1.00  0.00     0.049 A 
ATOM     48  H   UNL A   1      44.123  27.597  27.624  1.00  0.00     0.167 HD
ATOM     49  C   UNL A   1      48.386  27.043  26.903  1.00  0.00     0.037 A 
ATOM     50  C   UNL A   1      41.858  29.052  28.424  1.00  0.00     0.037 A 
ATOM     51  C   UNL A   1      48.227  28.445  27.178  1.00  0.00     0.049 A 
ATOM     52  C   UNL A   1      43.018  30.010  28.491  1.00  0.00     0.074 A 
ATOM     53  C   UNL A   1      49.189  29.439  27.152  1.00  0.00     0.029 A 
ATOM     54  N   UNL A   1      47.031  29.053  27.530  1.00  0.00    -0.354 N 
ATOM     55  N   UNL A   1      44.279  29.797  28.196  1.00  0.00    -0.248 NA
ATOM     56  C   UNL A   1      42.722  31.389  28.902  1.00  0.00     0.031 C 
ATOM     57  C   UNL A   1      48.586  30.639  27.537  1.00  0.00     0.029 A 
ATOM     58  C   UNL A   1      47.237  30.404  27.745  1.00  0.00     0.049 A 
ATOM     59  H   UNL A   1      46.167  28.591  27.614  1.00  0.00     0.167 HD
ATOM     60  C   UNL A   1      44.910  31.030  28.324  1.00  0.00     0.074 A 
ATOM     61  C   UNL A   1      43.895  31.981  28.724  1.00  0.00     0.031 C 
ATOM     62  C   UNL A   1      46.212  31.346  28.117  1.00  0.00     0.037 A 
BRANCH  49  63
ATOM     63  C   UNL A   1      49.748  26.536  26.523  1.00  0.00     0.058 A 
ATOM     64  C   UNL A   1      50.649  26.070  27.493  1.00  0.00     0.135 A 
ATOM     65  C   UNL A   1      50.141  26.474  25.177  1.00  0.00     0.135 A 
ATOM     66  F   UNL A   1      50.332  26.131  28.797  1.00  0.00    -0.206 F 
ATOM     67  C   UNL A   1      51.901  25.575  27.146  1.00  0.00     0.059 A 
ATOM     68  C   UNL A   1      51.377  25.955  24.803  1.00  0.00     0.059 A 
ATOM     69  F   UNL A   1      49.320  26.914  24.211  1.00  0.00    -0.206 F 
ATOM     70  C   UNL A   1      52.252  25.516  25.797  1.00  0.00     0.060 A 
BRANCH  70  71
ATOM     71  S   UNL A   1      53.868  24.839  25.364  1.00  0.00     0.124 S 
ATOM     72  O   UNL A   1      53.523  23.465  25.012  1.00  0.00    -0.237 OA
ATOM     73  O   UNL A   1      54.274  25.695  24.253  1.00  0.00    -0.237 OA
ATOM     74  O   UNL A   1      54.643  24.997  26.589  1.00  0.00    -0.744 OA
ENDBRANCH  70  71
ENDBRANCH  49  63
BRANCH  50  75
ATOM     75  C   UNL A   1      40.485  29.510  28.785  1.00  0.00     0.058 A 
ATOM     76  C   UNL A   1      40.119  29.708  30.125  1.00  0.00     0.135 A 
ATOM     77  C   UNL A   1      39.497  29.702  27.806  1.00  0.00     0.135 A 
ATOM     78  F   UNL A   1      41.026  29.538  31.099  1.00  0.00    -0.206 F 
ATOM     79  C   UNL A   1      38.814  30.027  30.488  1.00  0.00     0.059 A 
ATOM     80  C   UNL A   1      38.190  30.048  28.142  1.00  0.00     0.059 A 
ATOM     81  F   UNL A   1      39.797  29.545  26.508  1.00  0.00    -0.206 F 
ATOM     82  C   UNL A   1      37.853  30.186  29.489  1.00  0.00     0.060 A 
BRANCH  82  83
ATOM     83  S   UNL A   1      36.159  30.584  29.978  1.00  0.00     0.124 S 
ATOM     84  O   UNL A   1      36.271  32.004  30.289  1.00  0.00    -0.237 OA
ATOM     85  O   UNL A   1      35.408  30.252  28.771  1.00  0.00    -0.237 OA
ATOM     86  O   UNL A   1      35.923  29.704  31.119  1.00  0.00    -0.744 OA
ENDBRANCH  82  83
ENDBRANCH  50  75
BRANCH  62  87
ATOM     87  C   UNL A   1      46.610  32.789  28.260  1.00  0.00     0.058 A 
ATOM     88  C   UNL A   1      47.131  33.301  29.459  1.00  0.00     0.135 A 
ATOM     89  C   UNL A   1      46.524  33.658  27.159  1.00  0.00     0.135 A 
ATOM     90  F   UNL A   1      47.228  32.515  30.543  1.00  0.00    -0.206 F 
ATOM     91  C   UNL A   1      47.529  34.628  29.569  1.00  0.00     0.059 A 
ATOM     92  C   UNL A   1      46.949  34.979  27.236  1.00  0.00     0.059 A 
ATOM     93  F   UNL A   1      46.043  33.218  25.986  1.00  0.00    -0.206 F 
ATOM     94  C   UNL A   1      47.440  35.459  28.449  1.00  0.00     0.060 A 
BRANCH  94  95
ATOM     95  S   UNL A   1      48.005  37.166  28.595  1.00  0.00     0.124 S 
ATOM     96  O   UNL A   1      48.266  37.269  30.027  1.00  0.00    -0.237 OA
ATOM     97  O   UNL A   1      49.184  37.177  27.735  1.00  0.00    -0.237 OA
ATOM     98  O   UNL A   1      46.872  37.944  28.105  1.00  0.00    -0.744 OA
ENDBRANCH  94  95
ENDBRANCH  62  87
ENDBRANCH  36  37
ENDBRANCH  29  31
ENDBRANCH  28  29
ENDBRANCH  27  28
ENDBRANCH  26  27
ENDBRANCH   1  26
TORSDOF 20
ENDMDL
