MODEL 1
REMARK VINA RESULT:     -10.3      0.000      0.000
REMARK SMILES O=C(CC[NH+]1CC[NH+](Cc2ccccc2C2CC2)CC1)OCCOCCOC(=O)c1ccc(-c2c3nc(c(-c4c(F)cc(S(=O)(=O)[O-])cc4F)c4ccc([nH]4)c(-c4c(F)cc(S(=O)(=O)[O-])cc4F)c4nc(c(-c5c(F)cc(S(=O)(=O)[O-])cc5F)c5ccc2[nH]5)C=C4)C=C3)cc1
REMARK SMILES IDX 23 1 22 2 21 3 2 4 1 5 3 6 4 7 5 8 6 9 20 10 7 12 19 13 8 14
REMARK SMILES IDX 9 16 10 17 11 18 15 19 12 20 14 21 13 22 16 23 17 24 18 25
REMARK SMILES IDX 24 26 25 27 26 28 27 29 28 30 29 31 30 32 31 33 95 34 32 35
REMARK SMILES IDX 94 36 33 37 34 38 35 39 88 40 36 41 93 42 87 43 89 44 37 45
REMARK SMILES IDX 92 46 86 47 85 48 38 50 72 51 51 52 71 53 52 54 55 55 70 56
REMARK SMILES IDX 90 57 53 58 54 59 69 61 91 62 56 63 39 64 40 65 49 66 41 67
REMARK SMILES IDX 42 68 48 69 50 70 43 71 44 72 45 73 46 74 47 75 73 76 74 77
REMARK SMILES IDX 83 78 75 79 76 80 82 81 84 82 77 83 78 84 79 85 80 86 81 87
REMARK SMILES IDX 57 88 58 89 67 90 59 91 60 92 66 93 68 94 61 95 62 96 63 97
REMARK SMILES IDX 64 98 65 99
REMARK H PARENT 5 11 8 15 89 49 55 60
REMARK Flexibility Score: inf
ROOT
ATOM      1  C   UNL A   1      40.101  20.642  26.124  1.00  0.00     0.202 C 
ENDROOT
BRANCH   1   2
ATOM      2  C   UNL A   1      39.241  21.915  26.032  1.00  0.00     0.261 C 
BRANCH   2   3
ATOM      3  O   UNL A   1      37.961  21.935  25.338  1.00  0.00    -0.463 OA
BRANCH   3   4
ATOM      4  C   UNL A   1      36.918  21.112  25.153  1.00  0.00     0.311 C 
ATOM      5  O   UNL A   1      37.129  19.976  24.723  1.00  0.00    -0.252 OA
BRANCH   4   6
ATOM      6  C   UNL A   1      35.510  21.540  25.447  1.00  0.00     0.184 C 
BRANCH   6   7
ATOM      7  C   UNL A   1      34.911  22.346  24.276  1.00  0.00     0.274 C 
BRANCH   7   8
ATOM      8  N   UNL A   1      33.450  22.491  24.291  1.00  0.00    -0.325 N 
ATOM      9  C   UNL A   1      32.888  22.762  25.630  1.00  0.00     0.324 C 
ATOM     10  C   UNL A   1      32.952  23.531  23.400  1.00  0.00     0.324 C 
ATOM     11  H   UNL A   1      33.136  21.577  23.966  1.00  0.00     0.348 HD
ATOM     12  C   UNL A   1      32.833  24.259  26.083  1.00  0.00     0.324 C 
ATOM     13  C   UNL A   1      33.228  24.979  23.844  1.00  0.00     0.324 C 
ATOM     14  N   UNL A   1      32.527  25.289  25.079  1.00  0.00    -0.322 N 
ATOM     15  H   UNL A   1      32.883  26.145  25.506  1.00  0.00     0.348 HD
BRANCH  14  16
ATOM     16  C   UNL A   1      31.138  25.741  24.881  1.00  0.00     0.299 C 
BRANCH  16  17
ATOM     17  C   UNL A   1      30.880  27.165  24.393  1.00  0.00     0.010 A 
ATOM     18  C   UNL A   1      29.990  27.303  23.287  1.00  0.00     0.010 A 
ATOM     19  C   UNL A   1      31.385  28.333  25.012  1.00  0.00    -0.036 A 
ATOM     20  C   UNL A   1      29.526  28.544  22.852  1.00  0.00     0.001 A 
ATOM     21  C   UNL A   1      30.875  29.576  24.543  1.00  0.00     0.004 A 
ATOM     22  C   UNL A   1      29.951  29.686  23.501  1.00  0.00     0.000 A 
BRANCH  19  23
ATOM     23  C   UNL A   1      32.340  28.430  26.189  1.00  0.00     0.020 C 
ATOM     24  C   UNL A   1      32.433  29.505  27.236  1.00  0.00     0.009 C 
ATOM     25  C   UNL A   1      31.773  28.212  27.574  1.00  0.00     0.009 C 
ENDBRANCH  19  23
ENDBRANCH  16  17
ENDBRANCH  14  16
ENDBRANCH   7   8
ENDBRANCH   6   7
ENDBRANCH   4   6
ENDBRANCH   3   4
ENDBRANCH   2   3
ENDBRANCH   1   2
BRANCH   1  26
ATOM     26  O   UNL A   1      41.330  20.635  26.834  1.00  0.00    -0.374 OA
BRANCH  26  27
ATOM     27  C   UNL A   1      42.547  20.498  26.129  1.00  0.00     0.202 C 
BRANCH  27  28
ATOM     28  C   UNL A   1      43.426  21.748  26.015  1.00  0.00     0.261 C 
BRANCH  28  29
ATOM     29  O   UNL A   1      42.905  22.911  26.677  1.00  0.00    -0.460 OA
BRANCH  29  30
ATOM     30  C   UNL A   1      42.769  24.013  25.892  1.00  0.00     0.338 C 
ATOM     31  O   UNL A   1      43.043  24.097  24.712  1.00  0.00    -0.246 OA
BRANCH  30  32
ATOM     32  C   UNL A   1      42.057  25.089  26.632  1.00  0.00     0.060 A 
ATOM     33  C   UNL A   1      42.522  26.404  26.479  1.00  0.00     0.016 A 
ATOM     34  C   UNL A   1      41.004  24.818  27.511  1.00  0.00     0.016 A 
ATOM     35  C   UNL A   1      42.020  27.427  27.281  1.00  0.00     0.010 A 
ATOM     36  C   UNL A   1      40.506  25.844  28.326  1.00  0.00     0.010 A 
ATOM     37  C   UNL A   1      41.072  27.131  28.268  1.00  0.00    -0.014 A 
BRANCH  37  38
ATOM     38  C   UNL A   1      40.950  28.057  29.425  1.00  0.00     0.031 A 
ATOM     39  C   UNL A   1      41.974  27.923  30.527  1.00  0.00     0.074 A 
ATOM     40  C   UNL A   1      40.025  29.032  29.471  1.00  0.00     0.049 A 
ATOM     41  N   UNL A   1      42.109  28.611  31.630  1.00  0.00    -0.248 NA
ATOM     42  C   UNL A   1      42.986  26.865  30.356  1.00  0.00     0.031 C 
ATOM     43  C   UNL A   1      39.021  29.300  28.444  1.00  0.00     0.029 A 
ATOM     44  N   UNL A   1      39.789  29.986  30.430  1.00  0.00    -0.354 N 
ATOM     45  C   UNL A   1      43.207  28.062  32.285  1.00  0.00     0.074 A 
ATOM     46  C   UNL A   1      43.682  26.964  31.476  1.00  0.00     0.031 C 
ATOM     47  C   UNL A   1      38.272  30.348  28.832  1.00  0.00     0.029 A 
ATOM     48  C   UNL A   1      38.726  30.808  30.144  1.00  0.00     0.049 A 
ATOM     49  H   UNL A   1      40.330  30.072  31.248  1.00  0.00     0.167 HD
ATOM     50  C   UNL A   1      43.781  28.444  33.451  1.00  0.00     0.037 A 
ATOM     51  C   UNL A   1      38.180  31.809  30.867  1.00  0.00     0.037 A 
ATOM     52  C   UNL A   1      43.307  29.540  34.252  1.00  0.00     0.049 A 
ATOM     53  C   UNL A   1      38.795  32.175  32.197  1.00  0.00     0.074 A 
ATOM     54  C   UNL A   1      43.817  30.018  35.445  1.00  0.00     0.029 A 
ATOM     55  N   UNL A   1      42.204  30.324  33.943  1.00  0.00    -0.354 N 
ATOM     56  N   UNL A   1      39.843  31.659  32.796  1.00  0.00    -0.248 NA
ATOM     57  C   UNL A   1      38.160  33.272  32.942  1.00  0.00     0.031 C 
ATOM     58  C   UNL A   1      42.988  31.053  35.889  1.00  0.00     0.029 A 
ATOM     59  C   UNL A   1      42.004  31.268  34.936  1.00  0.00     0.049 A 
ATOM     60  H   UNL A   1      41.647  30.224  33.138  1.00  0.00     0.167 HD
ATOM     61  C   UNL A   1      40.019  32.397  33.965  1.00  0.00     0.074 A 
ATOM     62  C   UNL A   1      38.970  33.397  33.983  1.00  0.00     0.031 C 
ATOM     63  C   UNL A   1      40.963  32.267  34.931  1.00  0.00     0.037 A 
BRANCH  50  64
ATOM     64  C   UNL A   1      44.955  27.642  33.946  1.00  0.00     0.058 A 
ATOM     65  C   UNL A   1      44.798  26.533  34.795  1.00  0.00     0.135 A 
ATOM     66  C   UNL A   1      46.259  27.983  33.553  1.00  0.00     0.135 A 
ATOM     67  F   UNL A   1      43.576  26.176  35.223  1.00  0.00    -0.206 F 
ATOM     68  C   UNL A   1      45.893  25.811  35.259  1.00  0.00     0.059 A 
ATOM     69  C   UNL A   1      47.366  27.255  33.978  1.00  0.00     0.059 A 
ATOM     70  F   UNL A   1      46.469  29.038  32.750  1.00  0.00    -0.206 F 
ATOM     71  C   UNL A   1      47.174  26.179  34.844  1.00  0.00     0.060 A 
BRANCH  71  72
ATOM     72  S   UNL A   1      48.584  25.229  35.449  1.00  0.00     0.124 S 
ATOM     73  O   UNL A   1      49.674  26.185  35.278  1.00  0.00    -0.237 OA
ATOM     74  O   UNL A   1      48.200  24.945  36.827  1.00  0.00    -0.237 OA
ATOM     75  O   UNL A   1      48.622  24.072  34.560  1.00  0.00    -0.744 OA
ENDBRANCH  71  72
ENDBRANCH  50  64
BRANCH  51  76
ATOM     76  C   UNL A   1      36.987  32.541  30.355  1.00  0.00     0.058 A 
ATOM     77  C   UNL A   1      37.123  33.663  29.524  1.00  0.00     0.135 A 
ATOM     78  C   UNL A   1      35.686  32.142  30.702  1.00  0.00     0.135 A 
ATOM     79  F   UNL A   1      38.344  34.096  29.174  1.00  0.00    -0.206 F 
ATOM     80  C   UNL A   1      36.015  34.375  29.070  1.00  0.00     0.059 A 
ATOM     81  C   UNL A   1      34.562  32.819  30.237  1.00  0.00     0.059 A 
ATOM     82  F   UNL A   1      35.499  31.071  31.489  1.00  0.00    -0.206 F 
ATOM     83  C   UNL A   1      34.738  33.942  29.430  1.00  0.00     0.060 A 
BRANCH  83  84
ATOM     84  S   UNL A   1      33.306  34.846  28.799  1.00  0.00     0.124 S 
ATOM     85  O   UNL A   1      32.751  33.891  27.847  1.00  0.00    -0.237 OA
ATOM     86  O   UNL A   1      32.526  35.064  30.013  1.00  0.00    -0.237 OA
ATOM     87  O   UNL A   1      33.897  36.047  28.218  1.00  0.00    -0.744 OA
ENDBRANCH  83  84
ENDBRANCH  51  76
BRANCH  63  88
ATOM     88  C   UNL A   1      40.954  33.268  36.055  1.00  0.00     0.058 A 
ATOM     89  C   UNL A   1      40.151  33.107  37.196  1.00  0.00     0.135 A 
ATOM     90  C   UNL A   1      41.797  34.392  36.003  1.00  0.00     0.135 A 
ATOM     91  F   UNL A   1      39.329  32.052  37.301  1.00  0.00    -0.206 F 
ATOM     92  C   UNL A   1      40.151  34.046  38.223  1.00  0.00     0.059 A 
ATOM     93  C   UNL A   1      41.839  35.325  37.034  1.00  0.00     0.059 A 
ATOM     94  F   UNL A   1      42.599  34.587  34.945  1.00  0.00    -0.206 F 
ATOM     95  C   UNL A   1      40.996  35.154  38.130  1.00  0.00     0.060 A 
BRANCH  95  96
ATOM     96  S   UNL A   1      40.989  36.366  39.469  1.00  0.00     0.124 S 
ATOM     97  O   UNL A   1      42.416  36.607  39.652  1.00  0.00    -0.237 OA
ATOM     98  O   UNL A   1      40.228  37.468  38.889  1.00  0.00    -0.237 OA
ATOM     99  O   UNL A   1      40.326  35.661  40.562  1.00  0.00    -0.744 OA
ENDBRANCH  95  96
ENDBRANCH  63  88
ENDBRANCH  37  38
ENDBRANCH  30  32
ENDBRANCH  29  30
ENDBRANCH  28  29
ENDBRANCH  27  28
ENDBRANCH  26  27
ENDBRANCH   1  26
TORSDOF 22
ENDMDL
MODEL 2
REMARK VINA RESULT:     -10.0      1.375      2.272
REMARK SMILES O=C(CC[NH+]1CC[NH+](Cc2ccccc2C2CC2)CC1)OCCOCCOC(=O)c1ccc(-c2c3nc(c(-c4c(F)cc(S(=O)(=O)[O-])cc4F)c4ccc([nH]4)c(-c4c(F)cc(S(=O)(=O)[O-])cc4F)c4nc(c(-c5c(F)cc(S(=O)(=O)[O-])cc5F)c5ccc2[nH]5)C=C4)C=C3)cc1
REMARK SMILES IDX 23 1 22 2 21 3 2 4 1 5 3 6 4 7 5 8 6 9 20 10 7 12 19 13 8 14
REMARK SMILES IDX 9 16 10 17 11 18 15 19 12 20 14 21 13 22 16 23 17 24 18 25
REMARK SMILES IDX 24 26 25 27 26 28 27 29 28 30 29 31 30 32 31 33 95 34 32 35
REMARK SMILES IDX 94 36 33 37 34 38 35 39 88 40 36 41 93 42 87 43 89 44 37 45
REMARK SMILES IDX 92 46 86 47 85 48 38 50 72 51 51 52 71 53 52 54 55 55 70 56
REMARK SMILES IDX 90 57 53 58 54 59 69 61 91 62 56 63 39 64 40 65 49 66 41 67
REMARK SMILES IDX 42 68 48 69 50 70 43 71 44 72 45 73 46 74 47 75 73 76 74 77
REMARK SMILES IDX 83 78 75 79 76 80 82 81 84 82 77 83 78 84 79 85 80 86 81 87
REMARK SMILES IDX 57 88 58 89 67 90 59 91 60 92 66 93 68 94 61 95 62 96 63 97
REMARK SMILES IDX 64 98 65 99
REMARK H PARENT 5 11 8 15 89 49 55 60
REMARK Flexibility Score: inf
ROOT
ATOM      1  C   UNL A   1      42.612  20.283  25.910  1.00  0.00     0.202 C 
ENDROOT
BRANCH   1   2
ATOM      2  C   UNL A   1      41.251  19.878  26.504  1.00  0.00     0.261 C 
BRANCH   2   3
ATOM      3  O   UNL A   1      40.208  20.855  26.783  1.00  0.00    -0.463 OA
BRANCH   3   4
ATOM      4  C   UNL A   1      39.321  21.586  26.093  1.00  0.00     0.311 C 
ATOM      5  O   UNL A   1      39.378  22.815  26.172  1.00  0.00    -0.252 OA
BRANCH   4   6
ATOM      6  C   UNL A   1      38.263  20.950  25.239  1.00  0.00     0.184 C 
BRANCH   6   7
ATOM      7  C   UNL A   1      36.923  21.705  25.348  1.00  0.00     0.274 C 
BRANCH   7   8
ATOM      8  N   UNL A   1      36.911  23.057  24.774  1.00  0.00    -0.325 N 
ATOM      9  C   UNL A   1      36.140  23.169  23.520  1.00  0.00     0.324 C 
ATOM     10  C   UNL A   1      36.402  24.078  25.682  1.00  0.00     0.324 C 
ATOM     11  H   UNL A   1      37.900  23.224  24.586  1.00  0.00     0.348 HD
ATOM     12  C   UNL A   1      34.605  23.439  23.655  1.00  0.00     0.324 C 
ATOM     13  C   UNL A   1      34.885  24.038  25.946  1.00  0.00     0.324 C 
ATOM     14  N   UNL A   1      34.136  24.322  24.733  1.00  0.00    -0.322 N 
ATOM     15  H   UNL A   1      33.153  24.067  24.834  1.00  0.00     0.348 HD
BRANCH  14  16
ATOM     16  C   UNL A   1      33.934  25.760  24.478  1.00  0.00     0.299 C 
BRANCH  16  17
ATOM     17  C   UNL A   1      33.295  26.626  25.560  1.00  0.00     0.010 A 
ATOM     18  C   UNL A   1      34.126  27.630  26.139  1.00  0.00     0.010 A 
ATOM     19  C   UNL A   1      31.937  26.557  25.951  1.00  0.00    -0.036 A 
ATOM     20  C   UNL A   1      33.629  28.604  27.004  1.00  0.00     0.001 A 
ATOM     21  C   UNL A   1      31.470  27.578  26.827  1.00  0.00     0.004 A 
ATOM     22  C   UNL A   1      32.287  28.593  27.330  1.00  0.00     0.000 A 
BRANCH  19  23
ATOM     23  C   UNL A   1      30.875  25.579  25.477  1.00  0.00     0.020 C 
ATOM     24  C   UNL A   1      29.408  25.554  25.805  1.00  0.00     0.009 C 
ATOM     25  C   UNL A   1      29.851  26.080  24.483  1.00  0.00     0.009 C 
ENDBRANCH  19  23
ENDBRANCH  16  17
ENDBRANCH  14  16
ENDBRANCH   7   8
ENDBRANCH   6   7
ENDBRANCH   4   6
ENDBRANCH   3   4
ENDBRANCH   2   3
ENDBRANCH   1   2
BRANCH   1  26
ATOM     26  O   UNL A   1      42.761  21.480  25.163  1.00  0.00    -0.374 OA
BRANCH  26  27
ATOM     27  C   UNL A   1      43.797  22.385  25.487  1.00  0.00     0.202 C 
BRANCH  27  28
ATOM     28  C   UNL A   1      43.695  23.099  26.839  1.00  0.00     0.261 C 
BRANCH  28  29
ATOM     29  O   UNL A   1      42.463  23.804  27.054  1.00  0.00    -0.460 OA
BRANCH  29  30
ATOM     30  C   UNL A   1      42.300  24.929  26.307  1.00  0.00     0.338 C 
ATOM     31  O   UNL A   1      42.591  25.066  25.136  1.00  0.00    -0.246 OA
BRANCH  30  32
ATOM     32  C   UNL A   1      41.538  25.951  27.073  1.00  0.00     0.060 A 
ATOM     33  C   UNL A   1      41.949  27.288  26.965  1.00  0.00     0.016 A 
ATOM     34  C   UNL A   1      40.489  25.610  27.933  1.00  0.00     0.016 A 
ATOM     35  C   UNL A   1      41.399  28.264  27.794  1.00  0.00     0.010 A 
ATOM     36  C   UNL A   1      39.943  26.588  28.775  1.00  0.00     0.010 A 
ATOM     37  C   UNL A   1      40.456  27.899  28.762  1.00  0.00    -0.014 A 
BRANCH  37  38
ATOM     38  C   UNL A   1      40.285  28.782  29.946  1.00  0.00     0.031 A 
ATOM     39  C   UNL A   1      41.227  28.567  31.108  1.00  0.00     0.074 A 
ATOM     40  C   UNL A   1      39.393  29.788  29.970  1.00  0.00     0.049 A 
ATOM     41  N   UNL A   1      41.308  29.206  32.245  1.00  0.00    -0.248 NA
ATOM     42  C   UNL A   1      42.212  27.481  30.961  1.00  0.00     0.031 C 
ATOM     43  C   UNL A   1      38.472  30.133  28.890  1.00  0.00     0.029 A 
ATOM     44  N   UNL A   1      39.124  30.711  30.950  1.00  0.00    -0.354 N 
ATOM     45  C   UNL A   1      42.340  28.592  32.949  1.00  0.00     0.074 A 
ATOM     46  C   UNL A   1      42.832  27.510  32.128  1.00  0.00     0.031 C 
ATOM     47  C   UNL A   1      37.734  31.191  29.270  1.00  0.00     0.029 A 
ATOM     48  C   UNL A   1      38.111  31.582  30.628  1.00  0.00     0.049 A 
ATOM     49  H   UNL A   1      39.610  30.745  31.806  1.00  0.00     0.167 HD
ATOM     50  C   UNL A   1      42.845  28.906  34.166  1.00  0.00     0.037 A 
ATOM     51  C   UNL A   1      37.551  32.573  31.354  1.00  0.00     0.037 A 
ATOM     52  C   UNL A   1      42.354  29.987  34.978  1.00  0.00     0.049 A 
ATOM     53  C   UNL A   1      38.086  32.864  32.736  1.00  0.00     0.074 A 
ATOM     54  C   UNL A   1      42.797  30.398  36.221  1.00  0.00     0.029 A 
ATOM     55  N   UNL A   1      41.303  30.822  34.629  1.00  0.00    -0.354 N 
ATOM     56  N   UNL A   1      39.072  32.286  33.382  1.00  0.00    -0.248 NA
ATOM     57  C   UNL A   1      37.438  33.953  33.482  1.00  0.00     0.031 C 
ATOM     58  C   UNL A   1      41.975  31.444  36.652  1.00  0.00     0.029 A 
ATOM     59  C   UNL A   1      41.067  31.733  35.644  1.00  0.00     0.049 A 
ATOM     60  H   UNL A   1      40.799  30.774  33.785  1.00  0.00     0.167 HD
ATOM     61  C   UNL A   1      39.192  32.971  34.590  1.00  0.00     0.074 A 
ATOM     62  C   UNL A   1      38.179  34.007  34.580  1.00  0.00     0.031 C 
ATOM     63  C   UNL A   1      40.062  32.768  35.611  1.00  0.00     0.037 A 
BRANCH  50  64
ATOM     64  C   UNL A   1      43.954  28.043  34.705  1.00  0.00     0.058 A 
ATOM     65  C   UNL A   1      43.702  26.904  35.487  1.00  0.00     0.135 A 
ATOM     66  C   UNL A   1      45.294  28.357  34.422  1.00  0.00     0.135 A 
ATOM     67  F   UNL A   1      42.442  26.569  35.809  1.00  0.00    -0.206 F 
ATOM     68  C   UNL A   1      44.737  26.124  35.993  1.00  0.00     0.059 A 
ATOM     69  C   UNL A   1      46.344  27.573  34.890  1.00  0.00     0.059 A 
ATOM     70  F   UNL A   1      45.594  29.439  33.687  1.00  0.00    -0.206 F 
ATOM     71  C   UNL A   1      46.056  26.466  35.688  1.00  0.00     0.060 A 
BRANCH  71  72
ATOM     72  S   UNL A   1      47.388  25.442  36.346  1.00  0.00     0.124 S 
ATOM     73  O   UNL A   1      47.766  26.188  37.543  1.00  0.00    -0.237 OA
ATOM     74  O   UNL A   1      46.716  24.168  36.578  1.00  0.00    -0.237 OA
ATOM     75  O   UNL A   1      48.378  25.440  35.273  1.00  0.00    -0.744 OA
ENDBRANCH  71  72
ENDBRANCH  50  64
BRANCH  51  76
ATOM     76  C   UNL A   1      36.422  33.367  30.794  1.00  0.00     0.058 A 
ATOM     77  C   UNL A   1      35.140  33.311  31.363  1.00  0.00     0.135 A 
ATOM     78  C   UNL A   1      36.598  34.186  29.667  1.00  0.00     0.135 A 
ATOM     79  F   UNL A   1      34.913  32.533  32.432  1.00  0.00    -0.206 F 
ATOM     80  C   UNL A   1      34.070  34.021  30.825  1.00  0.00     0.059 A 
ATOM     81  C   UNL A   1      35.551  34.929  29.129  1.00  0.00     0.059 A 
ATOM     82  F   UNL A   1      37.805  34.281  29.088  1.00  0.00    -0.206 F 
ATOM     83  C   UNL A   1      34.287  34.831  29.709  1.00  0.00     0.060 A 
BRANCH  83  84
ATOM     84  S   UNL A   1      32.903  35.784  29.046  1.00  0.00     0.124 S 
ATOM     85  O   UNL A   1      32.400  34.891  28.008  1.00  0.00    -0.237 OA
ATOM     86  O   UNL A   1      32.051  35.940  30.221  1.00  0.00    -0.237 OA
ATOM     87  O   UNL A   1      33.536  37.011  28.572  1.00  0.00    -0.744 OA
ENDBRANCH  83  84
ENDBRANCH  51  76
BRANCH  63  88
ATOM     88  C   UNL A   1      40.010  33.724  36.773  1.00  0.00     0.058 A 
ATOM     89  C   UNL A   1      39.167  33.517  37.876  1.00  0.00     0.135 A 
ATOM     90  C   UNL A   1      40.852  34.850  36.797  1.00  0.00     0.135 A 
ATOM     91  F   UNL A   1      38.343  32.458  37.909  1.00  0.00    -0.206 F 
ATOM     92  C   UNL A   1      39.126  34.415  38.939  1.00  0.00     0.059 A 
ATOM     93  C   UNL A   1      40.854  35.741  37.865  1.00  0.00     0.059 A 
ATOM     94  F   UNL A   1      41.692  35.087  35.778  1.00  0.00    -0.206 F 
ATOM     95  C   UNL A   1      39.972  35.526  38.922  1.00  0.00     0.060 A 
BRANCH  95  96
ATOM     96  S   UNL A   1      39.913  36.684  40.307  1.00  0.00     0.124 S 
ATOM     97  O   UNL A   1      40.295  37.934  39.659  1.00  0.00    -0.237 OA
ATOM     98  O   UNL A   1      38.520  36.590  40.733  1.00  0.00    -0.237 OA
ATOM     99  O   UNL A   1      40.888  36.140  41.246  1.00  0.00    -0.744 OA
ENDBRANCH  95  96
ENDBRANCH  63  88
ENDBRANCH  37  38
ENDBRANCH  30  32
ENDBRANCH  29  30
ENDBRANCH  28  29
ENDBRANCH  27  28
ENDBRANCH  26  27
ENDBRANCH   1  26
TORSDOF 22
ENDMDL
MODEL 3
REMARK VINA RESULT:      -9.8      1.642      2.682
REMARK SMILES O=C(CC[NH+]1CC[NH+](Cc2ccccc2C2CC2)CC1)OCCOCCOC(=O)c1ccc(-c2c3nc(c(-c4c(F)cc(S(=O)(=O)[O-])cc4F)c4ccc([nH]4)c(-c4c(F)cc(S(=O)(=O)[O-])cc4F)c4nc(c(-c5c(F)cc(S(=O)(=O)[O-])cc5F)c5ccc2[nH]5)C=C4)C=C3)cc1
REMARK SMILES IDX 23 1 22 2 21 3 2 4 1 5 3 6 4 7 5 8 6 9 20 10 7 12 19 13 8 14
REMARK SMILES IDX 9 16 10 17 11 18 15 19 12 20 14 21 13 22 16 23 17 24 18 25
REMARK SMILES IDX 24 26 25 27 26 28 27 29 28 30 29 31 30 32 31 33 95 34 32 35
REMARK SMILES IDX 94 36 33 37 34 38 35 39 88 40 36 41 93 42 87 43 89 44 37 45
REMARK SMILES IDX 92 46 86 47 85 48 38 50 72 51 51 52 71 53 52 54 55 55 70 56
REMARK SMILES IDX 90 57 53 58 54 59 69 61 91 62 56 63 39 64 40 65 49 66 41 67
REMARK SMILES IDX 42 68 48 69 50 70 43 71 44 72 45 73 46 74 47 75 73 76 74 77
REMARK SMILES IDX 83 78 75 79 76 80 82 81 84 82 77 83 78 84 79 85 80 86 81 87
REMARK SMILES IDX 57 88 58 89 67 90 59 91 60 92 66 93 68 94 61 95 62 96 63 97
REMARK SMILES IDX 64 98 65 99
REMARK H PARENT 5 11 8 15 89 49 55 60
REMARK Flexibility Score: inf
ROOT
ATOM      1  C   UNL A   1      41.402  19.623  26.028  1.00  0.00     0.202 C 
ENDROOT
BRANCH   1   2
ATOM      2  C   UNL A   1      40.255  20.476  26.598  1.00  0.00     0.261 C 
BRANCH   2   3
ATOM      3  O   UNL A   1      39.340  21.215  25.740  1.00  0.00    -0.463 OA
BRANCH   3   4
ATOM      4  C   UNL A   1      38.074  21.108  25.311  1.00  0.00     0.311 C 
ATOM      5  O   UNL A   1      37.715  20.052  24.785  1.00  0.00    -0.252 OA
BRANCH   4   6
ATOM      6  C   UNL A   1      37.094  22.236  25.446  1.00  0.00     0.184 C 
BRANCH   6   7
ATOM      7  C   UNL A   1      35.761  21.753  26.053  1.00  0.00     0.274 C 
BRANCH   7   8
ATOM      8  N   UNL A   1      34.567  22.002  25.235  1.00  0.00    -0.325 N 
ATOM      9  C   UNL A   1      33.315  21.492  25.831  1.00  0.00     0.324 C 
ATOM     10  C   UNL A   1      34.350  23.409  24.923  1.00  0.00     0.324 C 
ATOM     11  H   UNL A   1      34.775  21.486  24.381  1.00  0.00     0.348 HD
ATOM     12  C   UNL A   1      32.572  22.439  26.832  1.00  0.00     0.324 C 
ATOM     13  C   UNL A   1      33.886  24.289  26.098  1.00  0.00     0.324 C 
ATOM     14  N   UNL A   1      32.570  23.885  26.565  1.00  0.00    -0.322 N 
ATOM     15  H   UNL A   1      32.357  24.290  27.477  1.00  0.00     0.348 HD
BRANCH  14  16
ATOM     16  C   UNL A   1      31.455  24.499  25.820  1.00  0.00     0.299 C 
BRANCH  16  17
ATOM     17  C   UNL A   1      31.539  25.975  25.438  1.00  0.00     0.010 A 
ATOM     18  C   UNL A   1      31.417  26.912  26.507  1.00  0.00     0.010 A 
ATOM     19  C   UNL A   1      31.812  26.457  24.137  1.00  0.00    -0.036 A 
ATOM     20  C   UNL A   1      31.651  28.276  26.335  1.00  0.00     0.001 A 
ATOM     21  C   UNL A   1      32.055  27.854  24.010  1.00  0.00     0.004 A 
ATOM     22  C   UNL A   1      31.997  28.746  25.083  1.00  0.00     0.000 A 
BRANCH  19  23
ATOM     23  C   UNL A   1      31.977  25.655  22.858  1.00  0.00     0.020 C 
ATOM     24  C   UNL A   1      31.790  26.106  21.435  1.00  0.00     0.009 C 
ATOM     25  C   UNL A   1      33.170  25.965  21.981  1.00  0.00     0.009 C 
ENDBRANCH  19  23
ENDBRANCH  16  17
ENDBRANCH  14  16
ENDBRANCH   7   8
ENDBRANCH   6   7
ENDBRANCH   4   6
ENDBRANCH   3   4
ENDBRANCH   2   3
ENDBRANCH   1   2
BRANCH   1  26
ATOM     26  O   UNL A   1      42.759  19.944  26.293  1.00  0.00    -0.374 OA
BRANCH  26  27
ATOM     27  C   UNL A   1      43.755  19.613  25.348  1.00  0.00     0.202 C 
BRANCH  27  28
ATOM     28  C   UNL A   1      44.815  20.680  25.055  1.00  0.00     0.261 C 
BRANCH  28  29
ATOM     29  O   UNL A   1      44.526  21.978  25.600  1.00  0.00    -0.460 OA
BRANCH  29  30
ATOM     30  C   UNL A   1      43.796  22.795  24.796  1.00  0.00     0.338 C 
ATOM     31  O   UNL A   1      43.610  22.657  23.603  1.00  0.00    -0.246 OA
BRANCH  30  32
ATOM     32  C   UNL A   1      43.084  23.818  25.608  1.00  0.00     0.060 A 
ATOM     33  C   UNL A   1      43.461  25.159  25.445  1.00  0.00     0.016 A 
ATOM     34  C   UNL A   1      42.119  23.474  26.560  1.00  0.00     0.016 A 
ATOM     35  C   UNL A   1      42.966  26.140  26.303  1.00  0.00     0.010 A 
ATOM     36  C   UNL A   1      41.630  24.457  27.430  1.00  0.00     0.010 A 
ATOM     37  C   UNL A   1      42.116  25.776  27.353  1.00  0.00    -0.014 A 
BRANCH  37  38
ATOM     38  C   UNL A   1      42.032  26.675  28.534  1.00  0.00     0.031 A 
ATOM     39  C   UNL A   1      43.107  26.535  29.587  1.00  0.00     0.074 A 
ATOM     40  C   UNL A   1      41.096  27.635  28.642  1.00  0.00     0.049 A 
ATOM     41  N   UNL A   1      43.281  27.203  30.697  1.00  0.00    -0.248 NA
ATOM     42  C   UNL A   1      44.125  25.498  29.348  1.00  0.00     0.031 C 
ATOM     43  C   UNL A   1      40.043  27.908  27.666  1.00  0.00     0.029 A 
ATOM     44  N   UNL A   1      40.889  28.565  29.630  1.00  0.00    -0.354 N 
ATOM     45  C   UNL A   1      44.415  26.659  31.290  1.00  0.00     0.074 A 
ATOM     46  C   UNL A   1      44.870  25.585  30.438  1.00  0.00     0.031 C 
ATOM     47  C   UNL A   1      39.296  28.936  28.109  1.00  0.00     0.029 A 
ATOM     48  C   UNL A   1      39.802  29.376  29.409  1.00  0.00     0.049 A 
ATOM     49  H   UNL A   1      41.465  28.643  30.425  1.00  0.00     0.167 HD
ATOM     50  C   UNL A   1      45.035  27.025  32.437  1.00  0.00     0.037 A 
ATOM     51  C   UNL A   1      39.274  30.353  30.176  1.00  0.00     0.037 A 
ATOM     52  C   UNL A   1      44.581  28.098  33.281  1.00  0.00     0.049 A 
ATOM     53  C   UNL A   1      39.943  30.703  31.484  1.00  0.00     0.074 A 
ATOM     54  C   UNL A   1      45.137  28.559  34.460  1.00  0.00     0.029 A 
ATOM     55  N   UNL A   1      43.454  28.870  33.038  1.00  0.00    -0.354 N 
ATOM     56  N   UNL A   1      41.024  30.190  32.025  1.00  0.00    -0.248 NA
ATOM     57  C   UNL A   1      39.326  31.774  32.280  1.00  0.00     0.031 C 
ATOM     58  C   UNL A   1      44.313  29.571  34.962  1.00  0.00     0.029 A 
ATOM     59  C   UNL A   1      43.285  29.790  34.058  1.00  0.00     0.049 A 
ATOM     60  H   UNL A   1      42.863  28.778  32.257  1.00  0.00     0.167 HD
ATOM     61  C   UNL A   1      41.241  30.907  33.200  1.00  0.00     0.074 A 
ATOM     62  C   UNL A   1      40.180  31.891  33.286  1.00  0.00     0.031 C 
ATOM     63  C   UNL A   1      42.229  30.772  34.121  1.00  0.00     0.037 A 
BRANCH  50  64
ATOM     64  C   UNL A   1      46.242  26.233  32.863  1.00  0.00     0.058 A 
ATOM     65  C   UNL A   1      46.146  25.136  33.736  1.00  0.00     0.135 A 
ATOM     66  C   UNL A   1      47.515  26.569  32.376  1.00  0.00     0.135 A 
ATOM     67  F   UNL A   1      44.957  24.784  34.252  1.00  0.00    -0.206 F 
ATOM     68  C   UNL A   1      47.271  24.422  34.134  1.00  0.00     0.059 A 
ATOM     69  C   UNL A   1      48.651  25.849  32.736  1.00  0.00     0.059 A 
ATOM     70  F   UNL A   1      47.668  27.612  31.545  1.00  0.00    -0.206 F 
ATOM     71  C   UNL A   1      48.520  24.786  33.628  1.00  0.00     0.060 A 
BRANCH  71  72
ATOM     72  S   UNL A   1      49.970  23.846  34.149  1.00  0.00     0.124 S 
ATOM     73  O   UNL A   1      50.341  24.540  35.378  1.00  0.00    -0.237 OA
ATOM     74  O   UNL A   1      49.427  22.503  34.318  1.00  0.00    -0.237 OA
ATOM     75  O   UNL A   1      50.900  24.008  33.035  1.00  0.00    -0.744 OA
ENDBRANCH  71  72
ENDBRANCH  50  64
BRANCH  51  76
ATOM     76  C   UNL A   1      38.048  31.076  29.733  1.00  0.00     0.058 A 
ATOM     77  C   UNL A   1      36.787  30.463  29.773  1.00  0.00     0.135 A 
ATOM     78  C   UNL A   1      38.118  32.390  29.245  1.00  0.00     0.135 A 
ATOM     79  F   UNL A   1      36.667  29.203  30.218  1.00  0.00    -0.206 F 
ATOM     80  C   UNL A   1      35.642  31.118  29.328  1.00  0.00     0.059 A 
ATOM     81  C   UNL A   1      36.983  33.077  28.821  1.00  0.00     0.059 A 
ATOM     82  F   UNL A   1      39.299  33.026  29.191  1.00  0.00    -0.206 F 
ATOM     83  C   UNL A   1      35.750  32.427  28.857  1.00  0.00     0.060 A 
BRANCH  83  84
ATOM     84  S   UNL A   1      34.251  33.283  28.323  1.00  0.00     0.124 S 
ATOM     85  O   UNL A   1      34.789  34.264  27.388  1.00  0.00    -0.237 OA
ATOM     86  O   UNL A   1      33.474  32.198  27.734  1.00  0.00    -0.237 OA
ATOM     87  O   UNL A   1      33.714  33.825  29.568  1.00  0.00    -0.744 OA
ENDBRANCH  83  84
ENDBRANCH  51  76
BRANCH  63  88
ATOM     88  C   UNL A   1      42.256  31.750  35.265  1.00  0.00     0.058 A 
ATOM     89  C   UNL A   1      42.986  32.948  35.211  1.00  0.00     0.135 A 
ATOM     90  C   UNL A   1      41.502  31.497  36.425  1.00  0.00     0.135 A 
ATOM     91  F   UNL A   1      43.722  33.243  34.128  1.00  0.00    -0.206 F 
ATOM     92  C   UNL A   1      43.005  33.837  36.281  1.00  0.00     0.059 A 
ATOM     93  C   UNL A   1      41.477  32.389  37.492  1.00  0.00     0.059 A 
ATOM     94  F   UNL A   1      40.770  30.376  36.524  1.00  0.00    -0.206 F 
ATOM     95  C   UNL A   1      42.249  33.546  37.419  1.00  0.00     0.060 A 
BRANCH  95  96
ATOM     96  S   UNL A   1      42.279  34.708  38.801  1.00  0.00     0.124 S 
ATOM     97  O   UNL A   1      40.877  35.105  38.879  1.00  0.00    -0.237 OA
ATOM     98  O   UNL A   1      42.764  33.877  39.899  1.00  0.00    -0.237 OA
ATOM     99  O   UNL A   1      43.202  35.746  38.353  1.00  0.00    -0.744 OA
ENDBRANCH  95  96
ENDBRANCH  63  88
ENDBRANCH  37  38
ENDBRANCH  30  32
ENDBRANCH  29  30
ENDBRANCH  28  29
ENDBRANCH  27  28
ENDBRANCH  26  27
ENDBRANCH   1  26
TORSDOF 22
ENDMDL
