MODEL 1
REMARK VINA RESULT:     -12.3      0.000      0.000
REMARK SMILES NC(=O)[C@@H]1CCC[N@@H+]1[C@@H](C(=O)OCCOCCOC(=O)c1ccc(-c2c3nc(c(-c4c(F)cc(S(=O)(=O)[O-])cc4F)c4ccc([nH]4)c(-c4c(F)cc(S(=O)(=O)[O-])cc4F)c4nc(c(-c5c(F)cc(S(=O)(=O)[O-])cc5F)c5ccc2[nH]5)C=C4)C=C3)cc1)c1c[nH]c2cc(OCc3ccccc3)ccc12
REMARK SMILES IDX 14 1 13 2 12 3 10 4 11 5 9 6 8 7 4 8 5 9 6 10 7 11 2 13 1 14
REMARK SMILES IDX 3 17 87 18 88 19 103 20 89 21 90 22 102 23 91 25 101 26
REMARK SMILES IDX 92 27 93 28 94 29 95 30 96 31 100 32 97 33 99 34 98 35 15 36
REMARK SMILES IDX 16 37 17 38 18 39 19 40 20 41 21 42 22 43 86 44 23 45 85 46
REMARK SMILES IDX 24 47 25 48 26 49 79 50 27 51 84 52 78 53 80 54 28 55 83 56
REMARK SMILES IDX 77 57 76 58 29 60 63 61 42 62 62 63 43 64 46 65 61 66 81 67
REMARK SMILES IDX 44 68 45 69 60 71 82 72 47 73 30 74 31 75 40 76 32 77 33 78
REMARK SMILES IDX 39 79 41 80 34 81 35 82 36 83 37 84 38 85 64 86 65 87 74 88
REMARK SMILES IDX 66 89 67 90 73 91 75 92 68 93 69 94 70 95 71 96 72 97 48 98
REMARK SMILES IDX 49 99 58 100 50 101 51 102 57 103 59 104 52 105 53 106
REMARK SMILES IDX 54 107 55 108 56 109
REMARK H PARENT 8 12 1 15 1 16 89 24 80 59 46 70
REMARK Flexibility Score: inf
ROOT
ATOM      1  C   UNL A   1      38.577  20.332  25.425  1.00  0.00     0.202 C 
ENDROOT
BRANCH   1   2
ATOM      2  C   UNL A   1      37.113  20.260  24.978  1.00  0.00     0.261 C 
BRANCH   2   3
ATOM      3  O   UNL A   1      36.290  21.220  25.676  1.00  0.00    -0.459 OA
BRANCH   3   4
ATOM      4  C   UNL A   1      35.294  21.817  24.954  1.00  0.00     0.370 C 
ATOM      5  O   UNL A   1      35.490  22.405  23.890  1.00  0.00    -0.245 OA
BRANCH   4   6
ATOM      6  C   UNL A   1      33.906  21.710  25.598  1.00  0.00     0.329 C 
BRANCH   6   7
ATOM      7  N   UNL A   1      32.767  21.271  24.736  1.00  0.00    -0.309 N 
ATOM      8  C   UNL A   1      32.379  19.882  24.470  1.00  0.00     0.275 C 
ATOM      9  C   UNL A   1      32.406  19.786  22.946  1.00  0.00     0.081 C 
ATOM     10  C   UNL A   1      31.857  21.131  22.525  1.00  0.00     0.068 C 
ATOM     11  C   UNL A   1      32.375  22.085  23.588  1.00  0.00     0.264 C 
ATOM     12  H   UNL A   1      32.262  21.486  25.595  1.00  0.00     0.349 HD
BRANCH   8  13
ATOM     13  C   UNL A   1      33.114  18.734  25.156  1.00  0.00     0.275 C 
ATOM     14  N   UNL A   1      32.809  18.602  26.488  1.00  0.00    -0.365 N 
ATOM     15  H   UNL A   1      33.232  17.891  27.022  1.00  0.00     0.159 HD
ATOM     16  H   UNL A   1      32.169  19.220  26.910  1.00  0.00     0.159 HD
ATOM     17  O   UNL A   1      33.960  18.011  24.646  1.00  0.00    -0.268 OA
ENDBRANCH   8  13
ENDBRANCH   6   7
BRANCH   6  18
ATOM     18  C   UNL A   1      33.444  22.986  26.342  1.00  0.00     0.046 A 
ATOM     19  C   UNL A   1      32.491  22.938  27.352  1.00  0.00     0.094 A 
ATOM     20  C   UNL A   1      33.479  24.379  25.963  1.00  0.00     0.009 A 
ATOM     21  N   UNL A   1      31.601  23.936  27.045  1.00  0.00    -0.361 N 
ATOM     22  C   UNL A   1      32.150  24.774  26.109  1.00  0.00     0.050 A 
ATOM     23  C   UNL A   1      34.343  25.287  25.316  1.00  0.00     0.015 A 
ATOM     24  H   UNL A   1      30.703  24.035  27.436  1.00  0.00     0.166 HD
ATOM     25  C   UNL A   1      31.584  25.791  25.337  1.00  0.00     0.073 A 
ATOM     26  C   UNL A   1      33.815  26.426  24.663  1.00  0.00     0.047 A 
ATOM     27  C   UNL A   1      32.438  26.601  24.583  1.00  0.00     0.121 A 
BRANCH  27  28
ATOM     28  O   UNL A   1      31.786  27.461  23.740  1.00  0.00    -0.489 OA
BRANCH  28  29
ATOM     29  C   UNL A   1      30.432  27.184  23.382  1.00  0.00     0.265 C 
BRANCH  29  30
ATOM     30  C   UNL A   1      29.557  28.421  23.354  1.00  0.00    -0.011 A 
ATOM     31  C   UNL A   1      28.206  28.298  22.997  1.00  0.00     0.007 A 
ATOM     32  C   UNL A   1      30.041  29.695  23.682  1.00  0.00     0.007 A 
ATOM     33  C   UNL A   1      27.381  29.423  22.936  1.00  0.00     0.000 A 
ATOM     34  C   UNL A   1      29.224  30.821  23.608  1.00  0.00     0.000 A 
ATOM     35  C   UNL A   1      27.893  30.686  23.230  1.00  0.00     0.000 A 
ENDBRANCH  29  30
ENDBRANCH  28  29
ENDBRANCH  27  28
ENDBRANCH   6  18
ENDBRANCH   4   6
ENDBRANCH   3   4
ENDBRANCH   2   3
ENDBRANCH   1   2
BRANCH   1  36
ATOM     36  O   UNL A   1      39.159  21.629  25.591  1.00  0.00    -0.374 OA
BRANCH  36  37
ATOM     37  C   UNL A   1      40.132  21.771  26.614  1.00  0.00     0.202 C 
BRANCH  37  38
ATOM     38  C   UNL A   1      40.884  23.103  26.711  1.00  0.00     0.261 C 
BRANCH  38  39
ATOM     39  O   UNL A   1      40.038  24.244  26.614  1.00  0.00    -0.460 OA
BRANCH  39  40
ATOM     40  C   UNL A   1      40.720  25.389  26.381  1.00  0.00     0.338 C 
ATOM     41  O   UNL A   1      41.109  25.824  25.313  1.00  0.00    -0.246 OA
BRANCH  40  42
ATOM     42  C   UNL A   1      40.785  26.152  27.632  1.00  0.00     0.060 A 
ATOM     43  C   UNL A   1      39.721  25.989  28.523  1.00  0.00     0.016 A 
ATOM     44  C   UNL A   1      41.831  27.036  27.900  1.00  0.00     0.016 A 
ATOM     45  C   UNL A   1      39.673  26.761  29.676  1.00  0.00     0.010 A 
ATOM     46  C   UNL A   1      41.781  27.811  29.058  1.00  0.00     0.010 A 
ATOM     47  C   UNL A   1      40.681  27.703  29.926  1.00  0.00    -0.014 A 
BRANCH  47  48
ATOM     48  C   UNL A   1      40.477  28.687  31.010  1.00  0.00     0.031 A 
ATOM     49  C   UNL A   1      41.370  28.625  32.215  1.00  0.00     0.074 A 
ATOM     50  C   UNL A   1      39.559  29.660  30.880  1.00  0.00     0.049 A 
ATOM     51  N   UNL A   1      41.403  29.408  33.261  1.00  0.00    -0.248 NA
ATOM     52  C   UNL A   1      42.361  27.537  32.246  1.00  0.00     0.031 C 
ATOM     53  C   UNL A   1      38.676  29.840  29.728  1.00  0.00     0.029 A 
ATOM     54  N   UNL A   1      39.228  30.688  31.724  1.00  0.00    -0.354 N 
ATOM     55  C   UNL A   1      42.423  28.917  34.066  1.00  0.00     0.074 A 
ATOM     56  C   UNL A   1      42.954  27.741  33.412  1.00  0.00     0.031 C 
ATOM     57  C   UNL A   1      37.908  30.923  29.934  1.00  0.00     0.029 A 
ATOM     58  C   UNL A   1      38.226  31.494  31.243  1.00  0.00     0.049 A 
ATOM     59  H   UNL A   1      39.669  30.835  32.592  1.00  0.00     0.167 HD
ATOM     60  C   UNL A   1      42.885  29.412  35.239  1.00  0.00     0.037 A 
ATOM     61  C   UNL A   1      37.632  32.566  31.802  1.00  0.00     0.037 A 
ATOM     62  C   UNL A   1      42.345  30.576  35.886  1.00  0.00     0.049 A 
ATOM     63  C   UNL A   1      38.098  33.039  33.153  1.00  0.00     0.074 A 
ATOM     64  C   UNL A   1      42.740  31.163  37.075  1.00  0.00     0.029 A 
ATOM     65  N   UNL A   1      41.281  31.326  35.403  1.00  0.00    -0.354 N 
ATOM     66  N   UNL A   1      39.077  32.578  33.897  1.00  0.00    -0.248 NA
ATOM     67  C   UNL A   1      37.379  34.177  33.744  1.00  0.00     0.031 C 
ATOM     68  C   UNL A   1      41.884  32.239  37.334  1.00  0.00     0.029 A 
ATOM     69  C   UNL A   1      40.986  32.352  36.284  1.00  0.00     0.049 A 
ATOM     70  H   UNL A   1      40.807  31.153  34.558  1.00  0.00     0.167 HD
ATOM     71  C   UNL A   1      39.106  33.384  35.030  1.00  0.00     0.074 A 
ATOM     72  C   UNL A   1      38.053  34.366  34.871  1.00  0.00     0.031 C 
ATOM     73  C   UNL A   1      39.933  33.320  36.105  1.00  0.00     0.037 A 
BRANCH  60  74
ATOM     74  C   UNL A   1      44.014  28.672  35.900  1.00  0.00     0.058 A 
ATOM     75  C   UNL A   1      43.781  27.591  36.766  1.00  0.00     0.135 A 
ATOM     76  C   UNL A   1      45.346  29.049  35.666  1.00  0.00     0.135 A 
ATOM     77  F   UNL A   1      42.526  27.202  37.038  1.00  0.00    -0.206 F 
ATOM     78  C   UNL A   1      44.827  26.933  37.405  1.00  0.00     0.059 A 
ATOM     79  C   UNL A   1      46.409  28.388  36.274  1.00  0.00     0.059 A 
ATOM     80  F   UNL A   1      45.624  30.078  34.850  1.00  0.00    -0.206 F 
ATOM     81  C   UNL A   1      46.138  27.344  37.157  1.00  0.00     0.060 A 
BRANCH  81  82
ATOM     82  S   UNL A   1      47.485  26.497  38.011  1.00  0.00     0.124 S 
ATOM     83  O   UNL A   1      48.576  26.652  37.054  1.00  0.00    -0.237 OA
ATOM     84  O   UNL A   1      47.609  27.268  39.243  1.00  0.00    -0.237 OA
ATOM     85  O   UNL A   1      46.982  25.137  38.173  1.00  0.00    -0.744 OA
ENDBRANCH  81  82
ENDBRANCH  60  74
BRANCH  61  86
ATOM     86  C   UNL A   1      36.531  33.260  31.086  1.00  0.00     0.058 A 
ATOM     87  C   UNL A   1      35.197  33.114  31.493  1.00  0.00     0.135 A 
ATOM     88  C   UNL A   1      36.793  34.092  29.986  1.00  0.00     0.135 A 
ATOM     89  F   UNL A   1      34.896  32.323  32.533  1.00  0.00    -0.206 F 
ATOM     90  C   UNL A   1      34.159  33.759  30.828  1.00  0.00     0.059 A 
ATOM     91  C   UNL A   1      35.775  34.765  29.320  1.00  0.00     0.059 A 
ATOM     92  F   UNL A   1      38.053  34.275  29.565  1.00  0.00    -0.206 F 
ATOM     93  C   UNL A   1      34.459  34.586  29.744  1.00  0.00     0.060 A 
BRANCH  93  94
ATOM     94  S   UNL A   1      33.110  35.460  28.919  1.00  0.00     0.124 S 
ATOM     95  O   UNL A   1      32.335  35.942  30.056  1.00  0.00    -0.237 OA
ATOM     96  O   UNL A   1      33.826  36.475  28.155  1.00  0.00    -0.237 OA
ATOM     97  O   UNL A   1      32.476  34.415  28.120  1.00  0.00    -0.744 OA
ENDBRANCH  93  94
ENDBRANCH  61  86
BRANCH  73  98
ATOM     98  C   UNL A   1      39.747  34.350  37.185  1.00  0.00     0.058 A 
ATOM     99  C   UNL A   1      38.919  34.112  38.291  1.00  0.00     0.135 A 
ATOM    100  C   UNL A   1      40.467  35.556  37.147  1.00  0.00     0.135 A 
ATOM    101  F   UNL A   1      38.205  32.979  38.370  1.00  0.00    -0.206 F 
ATOM    102  C   UNL A   1      38.799  35.042  39.319  1.00  0.00     0.059 A 
ATOM    103  C   UNL A   1      40.380  36.489  38.176  1.00  0.00     0.059 A 
ATOM    104  F   UNL A   1      41.280  35.827  36.115  1.00  0.00    -0.206 F 
ATOM    105  C   UNL A   1      39.538  36.225  39.256  1.00  0.00     0.060 A 
BRANCH 105 106
ATOM    106  S   UNL A   1      39.414  37.397  40.624  1.00  0.00     0.124 S 
ATOM    107  O   UNL A   1      38.363  38.291  40.150  1.00  0.00    -0.237 OA
ATOM    108  O   UNL A   1      39.054  36.533  41.743  1.00  0.00    -0.237 OA
ATOM    109  O   UNL A   1      40.751  37.979  40.694  1.00  0.00    -0.744 OA
ENDBRANCH 105 106
ENDBRANCH  73  98
ENDBRANCH  47  48
ENDBRANCH  40  42
ENDBRANCH  39  40
ENDBRANCH  38  39
ENDBRANCH  37  38
ENDBRANCH  36  37
ENDBRANCH   1  36
TORSDOF 23
ENDMDL
MODEL 2
REMARK VINA RESULT:     -12.0      6.345     12.158
REMARK SMILES NC(=O)[C@@H]1CCC[N@@H+]1[C@@H](C(=O)OCCOCCOC(=O)c1ccc(-c2c3nc(c(-c4c(F)cc(S(=O)(=O)[O-])cc4F)c4ccc([nH]4)c(-c4c(F)cc(S(=O)(=O)[O-])cc4F)c4nc(c(-c5c(F)cc(S(=O)(=O)[O-])cc5F)c5ccc2[nH]5)C=C4)C=C3)cc1)c1c[nH]c2cc(OCc3ccccc3)ccc12
REMARK SMILES IDX 14 1 13 2 12 3 10 4 11 5 9 6 8 7 4 8 5 9 6 10 7 11 2 13 1 14
REMARK SMILES IDX 3 17 87 18 88 19 103 20 89 21 90 22 102 23 91 25 101 26
REMARK SMILES IDX 92 27 93 28 94 29 95 30 96 31 100 32 97 33 99 34 98 35 15 36
REMARK SMILES IDX 16 37 17 38 18 39 19 40 20 41 21 42 22 43 86 44 23 45 85 46
REMARK SMILES IDX 24 47 25 48 26 49 79 50 27 51 84 52 78 53 80 54 28 55 83 56
REMARK SMILES IDX 77 57 76 58 29 60 63 61 42 62 62 63 43 64 46 65 61 66 81 67
REMARK SMILES IDX 44 68 45 69 60 71 82 72 47 73 30 74 31 75 40 76 32 77 33 78
REMARK SMILES IDX 39 79 41 80 34 81 35 82 36 83 37 84 38 85 64 86 65 87 74 88
REMARK SMILES IDX 66 89 67 90 73 91 75 92 68 93 69 94 70 95 71 96 72 97 48 98
REMARK SMILES IDX 49 99 58 100 50 101 51 102 57 103 59 104 52 105 53 106
REMARK SMILES IDX 54 107 55 108 56 109
REMARK H PARENT 8 12 1 15 1 16 89 24 80 59 46 70
REMARK Flexibility Score: inf
ROOT
ATOM      1  C   UNL A   1      32.820  30.947  27.125  1.00  0.00     0.202 C 
ENDROOT
BRANCH   1   2
ATOM      2  C   UNL A   1      32.520  29.446  27.204  1.00  0.00     0.261 C 
BRANCH   2   3
ATOM      3  O   UNL A   1      32.787  28.778  25.952  1.00  0.00    -0.459 OA
BRANCH   3   4
ATOM      4  C   UNL A   1      31.879  27.838  25.550  1.00  0.00     0.370 C 
ATOM      5  O   UNL A   1      31.178  27.197  26.334  1.00  0.00    -0.245 OA
BRANCH   4   6
ATOM      6  C   UNL A   1      31.823  27.634  24.031  1.00  0.00     0.329 C 
BRANCH   6   7
ATOM      7  N   UNL A   1      30.505  27.281  23.421  1.00  0.00    -0.309 N 
ATOM      8  C   UNL A   1      29.569  28.223  22.799  1.00  0.00     0.275 C 
ATOM      9  C   UNL A   1      28.268  27.995  23.567  1.00  0.00     0.081 C 
ATOM     10  C   UNL A   1      28.270  26.498  23.777  1.00  0.00     0.068 C 
ATOM     11  C   UNL A   1      29.740  26.157  23.955  1.00  0.00     0.264 C 
ATOM     12  H   UNL A   1      31.125  27.037  22.649  1.00  0.00     0.349 HD
BRANCH   8  13
ATOM     13  C   UNL A   1      29.937  29.697  22.667  1.00  0.00     0.275 C 
ATOM     14  N   UNL A   1      30.770  29.965  21.608  1.00  0.00    -0.365 N 
ATOM     15  H   UNL A   1      31.067  30.887  21.436  1.00  0.00     0.159 HD
ATOM     16  H   UNL A   1      31.071  29.233  21.022  1.00  0.00     0.159 HD
ATOM     17  O   UNL A   1      29.615  30.594  23.436  1.00  0.00    -0.268 OA
ENDBRANCH   8  13
ENDBRANCH   6   7
BRANCH   6  18
ATOM     18  C   UNL A   1      32.860  26.626  23.481  1.00  0.00     0.046 A 
ATOM     19  C   UNL A   1      33.365  26.727  22.191  1.00  0.00     0.094 A 
ATOM     20  C   UNL A   1      33.180  25.273  23.873  1.00  0.00     0.009 A 
ATOM     21  N   UNL A   1      33.263  25.462  21.671  1.00  0.00    -0.361 N 
ATOM     22  C   UNL A   1      33.041  24.563  22.683  1.00  0.00     0.050 A 
ATOM     23  C   UNL A   1      33.333  24.512  25.051  1.00  0.00     0.015 A 
ATOM     24  H   UNL A   1      33.337  25.234  20.716  1.00  0.00     0.166 HD
ATOM     25  C   UNL A   1      32.668  23.218  22.654  1.00  0.00     0.073 A 
ATOM     26  C   UNL A   1      33.126  23.113  25.023  1.00  0.00     0.047 A 
ATOM     27  C   UNL A   1      32.684  22.502  23.855  1.00  0.00     0.121 A 
BRANCH  27  28
ATOM     28  O   UNL A   1      32.154  21.243  23.758  1.00  0.00    -0.489 OA
BRANCH  28  29
ATOM     29  C   UNL A   1      32.089  20.430  24.930  1.00  0.00     0.265 C 
BRANCH  29  30
ATOM     30  C   UNL A   1      32.565  19.009  24.698  1.00  0.00    -0.011 A 
ATOM     31  C   UNL A   1      32.754  18.555  23.385  1.00  0.00     0.007 A 
ATOM     32  C   UNL A   1      32.836  18.123  25.751  1.00  0.00     0.007 A 
ATOM     33  C   UNL A   1      33.166  17.244  23.138  1.00  0.00     0.000 A 
ATOM     34  C   UNL A   1      33.232  16.810  25.507  1.00  0.00     0.000 A 
ATOM     35  C   UNL A   1      33.393  16.368  24.199  1.00  0.00     0.000 A 
ENDBRANCH  29  30
ENDBRANCH  28  29
ENDBRANCH  27  28
ENDBRANCH   6  18
ENDBRANCH   4   6
ENDBRANCH   3   4
ENDBRANCH   2   3
ENDBRANCH   1   2
BRANCH   1  36
ATOM     36  O   UNL A   1      34.180  31.363  27.285  1.00  0.00    -0.374 OA
BRANCH  36  37
ATOM     37  C   UNL A   1      34.447  32.306  28.312  1.00  0.00     0.202 C 
BRANCH  37  38
ATOM     38  C   UNL A   1      35.228  31.828  29.541  1.00  0.00     0.261 C 
BRANCH  38  39
ATOM     39  O   UNL A   1      35.791  30.529  29.389  1.00  0.00    -0.460 OA
BRANCH  39  40
ATOM     40  C   UNL A   1      36.517  30.140  30.462  1.00  0.00     0.338 C 
ATOM     41  O   UNL A   1      36.109  29.771  31.548  1.00  0.00    -0.246 OA
BRANCH  40  42
ATOM     42  C   UNL A   1      37.926  30.061  30.064  1.00  0.00     0.060 A 
ATOM     43  C   UNL A   1      38.187  29.956  28.695  1.00  0.00     0.016 A 
ATOM     44  C   UNL A   1      38.956  30.042  31.006  1.00  0.00     0.016 A 
ATOM     45  C   UNL A   1      39.493  29.774  28.262  1.00  0.00     0.010 A 
ATOM     46  C   UNL A   1      40.268  29.859  30.569  1.00  0.00     0.010 A 
ATOM     47  C   UNL A   1      40.532  29.684  29.199  1.00  0.00    -0.014 A 
BRANCH  47  48
ATOM     48  C   UNL A   1      41.863  29.232  28.741  1.00  0.00     0.031 A 
ATOM     49  C   UNL A   1      43.000  30.212  28.758  1.00  0.00     0.074 A 
ATOM     50  C   UNL A   1      42.061  27.951  28.387  1.00  0.00     0.049 A 
ATOM     51  N   UNL A   1      44.256  30.028  28.445  1.00  0.00    -0.248 NA
ATOM     52  C   UNL A   1      42.682  31.584  29.189  1.00  0.00     0.031 C 
ATOM     53  C   UNL A   1      41.035  26.908  28.385  1.00  0.00     0.029 A 
ATOM     54  N   UNL A   1      43.198  27.308  27.975  1.00  0.00    -0.354 N 
ATOM     55  C   UNL A   1      44.879  31.252  28.652  1.00  0.00     0.074 A 
ATOM     56  C   UNL A   1      43.856  32.185  29.073  1.00  0.00     0.031 C 
ATOM     57  C   UNL A   1      41.595  25.749  27.997  1.00  0.00     0.029 A 
ATOM     58  C   UNL A   1      43.009  25.977  27.698  1.00  0.00     0.049 A 
ATOM     59  H   UNL A   1      44.070  27.759  27.886  1.00  0.00     0.167 HD
ATOM     60  C   UNL A   1      46.189  31.565  28.518  1.00  0.00     0.037 A 
ATOM     61  C   UNL A   1      43.880  25.052  27.249  1.00  0.00     0.037 A 
ATOM     62  C   UNL A   1      47.196  30.633  28.090  1.00  0.00     0.049 A 
ATOM     63  C   UNL A   1      45.313  25.450  27.013  1.00  0.00     0.074 A 
ATOM     64  C   UNL A   1      48.553  30.846  27.922  1.00  0.00     0.029 A 
ATOM     65  N   UNL A   1      46.954  29.309  27.750  1.00  0.00    -0.354 N 
ATOM     66  N   UNL A   1      45.896  26.606  27.231  1.00  0.00    -0.248 NA
ATOM     67  C   UNL A   1      46.208  24.419  26.470  1.00  0.00     0.031 C 
ATOM     68  C   UNL A   1      49.122  29.665  27.434  1.00  0.00     0.029 A 
ATOM     69  C   UNL A   1      48.129  28.702  27.344  1.00  0.00     0.049 A 
ATOM     70  H   UNL A   1      46.075  28.868  27.791  1.00  0.00     0.167 HD
ATOM     71  C   UNL A   1      47.229  26.434  26.874  1.00  0.00     0.074 A 
ATOM     72  C   UNL A   1      47.369  25.061  26.434  1.00  0.00     0.031 C 
ATOM     73  C   UNL A   1      48.247  27.331  26.910  1.00  0.00     0.037 A 
BRANCH  60  74
ATOM     74  C   UNL A   1      46.590  32.982  28.814  1.00  0.00     0.058 A 
ATOM     75  C   UNL A   1      46.591  33.973  27.818  1.00  0.00     0.135 A 
ATOM     76  C   UNL A   1      46.981  33.356  30.110  1.00  0.00     0.135 A 
ATOM     77  F   UNL A   1      46.245  33.665  26.559  1.00  0.00    -0.206 F 
ATOM     78  C   UNL A   1      47.000  35.275  28.088  1.00  0.00     0.059 A 
ATOM     79  C   UNL A   1      47.369  34.659  30.408  1.00  0.00     0.059 A 
ATOM     80  F   UNL A   1      47.002  32.448  31.097  1.00  0.00    -0.206 F 
ATOM     81  C   UNL A   1      47.393  35.607  29.386  1.00  0.00     0.060 A 
BRANCH  81  82
ATOM     82  S   UNL A   1      47.943  37.294  29.719  1.00  0.00     0.124 S 
ATOM     83  O   UNL A   1      47.132  37.639  30.882  1.00  0.00    -0.237 OA
ATOM     84  O   UNL A   1      49.369  37.115  29.971  1.00  0.00    -0.237 OA
ATOM     85  O   UNL A   1      47.611  38.007  28.489  1.00  0.00    -0.744 OA
ENDBRANCH  81  82
ENDBRANCH  60  74
BRANCH  61  86
ATOM     86  C   UNL A   1      43.419  23.664  26.991  1.00  0.00     0.058 A 
ATOM     87  C   UNL A   1      43.183  23.210  25.685  1.00  0.00     0.135 A 
ATOM     88  C   UNL A   1      43.214  22.760  28.046  1.00  0.00     0.135 A 
ATOM     89  F   UNL A   1      43.357  24.039  24.646  1.00  0.00    -0.206 F 
ATOM     90  C   UNL A   1      42.750  21.912  25.433  1.00  0.00     0.059 A 
ATOM     91  C   UNL A   1      42.803  21.452  27.817  1.00  0.00     0.059 A 
ATOM     92  F   UNL A   1      43.436  23.142  29.312  1.00  0.00    -0.206 F 
ATOM     93  C   UNL A   1      42.566  21.039  26.507  1.00  0.00     0.060 A 
BRANCH  93  94
ATOM     94  S   UNL A   1      42.053  19.340  26.167  1.00  0.00     0.124 S 
ATOM     95  O   UNL A   1      42.850  19.025  24.987  1.00  0.00    -0.237 OA
ATOM     96  O   UNL A   1      42.431  18.655  27.398  1.00  0.00    -0.237 OA
ATOM     97  O   UNL A   1      40.615  19.465  25.943  1.00  0.00    -0.744 OA
ENDBRANCH  93  94
ENDBRANCH  61  86
BRANCH  73  98
ATOM     98  C   UNL A   1      49.607  26.854  26.482  1.00  0.00     0.058 A 
ATOM     99  C   UNL A   1      50.499  26.267  27.392  1.00  0.00     0.135 A 
ATOM    100  C   UNL A   1      49.989  26.918  25.132  1.00  0.00     0.135 A 
ATOM    101  F   UNL A   1      50.183  26.190  28.693  1.00  0.00    -0.206 F 
ATOM    102  C   UNL A   1      51.731  25.770  26.979  1.00  0.00     0.059 A 
ATOM    103  C   UNL A   1      51.206  26.405  24.694  1.00  0.00     0.059 A 
ATOM    104  F   UNL A   1      49.168  27.461  24.221  1.00  0.00    -0.206 F 
ATOM    105  C   UNL A   1      52.074  25.838  25.627  1.00  0.00     0.060 A 
BRANCH 105 106
ATOM    106  S   UNL A   1      53.653  25.140  25.099  1.00  0.00     0.124 S 
ATOM    107  O   UNL A   1      53.732  25.603  23.718  1.00  0.00    -0.237 OA
ATOM    108  O   UNL A   1      54.593  25.756  26.029  1.00  0.00    -0.237 OA
ATOM    109  O   UNL A   1      53.463  23.703  25.270  1.00  0.00    -0.744 OA
ENDBRANCH 105 106
ENDBRANCH  73  98
ENDBRANCH  47  48
ENDBRANCH  40  42
ENDBRANCH  39  40
ENDBRANCH  38  39
ENDBRANCH  37  38
ENDBRANCH  36  37
ENDBRANCH   1  36
TORSDOF 23
ENDMDL
MODEL 3
REMARK VINA RESULT:     -11.3      1.292      8.030
REMARK SMILES NC(=O)[C@@H]1CCC[N@@H+]1[C@@H](C(=O)OCCOCCOC(=O)c1ccc(-c2c3nc(c(-c4c(F)cc(S(=O)(=O)[O-])cc4F)c4ccc([nH]4)c(-c4c(F)cc(S(=O)(=O)[O-])cc4F)c4nc(c(-c5c(F)cc(S(=O)(=O)[O-])cc5F)c5ccc2[nH]5)C=C4)C=C3)cc1)c1c[nH]c2cc(OCc3ccccc3)ccc12
REMARK SMILES IDX 14 1 13 2 12 3 10 4 11 5 9 6 8 7 4 8 5 9 6 10 7 11 2 13 1 14
REMARK SMILES IDX 3 17 87 18 88 19 103 20 89 21 90 22 102 23 91 25 101 26
REMARK SMILES IDX 92 27 93 28 94 29 95 30 96 31 100 32 97 33 99 34 98 35 15 36
REMARK SMILES IDX 16 37 17 38 18 39 19 40 20 41 21 42 22 43 86 44 23 45 85 46
REMARK SMILES IDX 24 47 25 48 26 49 79 50 27 51 84 52 78 53 80 54 28 55 83 56
REMARK SMILES IDX 77 57 76 58 29 60 63 61 42 62 62 63 43 64 46 65 61 66 81 67
REMARK SMILES IDX 44 68 45 69 60 71 82 72 47 73 30 74 31 75 40 76 32 77 33 78
REMARK SMILES IDX 39 79 41 80 34 81 35 82 36 83 37 84 38 85 64 86 65 87 74 88
REMARK SMILES IDX 66 89 67 90 73 91 75 92 68 93 69 94 70 95 71 96 72 97 48 98
REMARK SMILES IDX 49 99 58 100 50 101 51 102 57 103 59 104 52 105 53 106
REMARK SMILES IDX 54 107 55 108 56 109
REMARK H PARENT 8 12 1 15 1 16 89 24 80 59 46 70
REMARK Flexibility Score: inf
ROOT
ATOM      1  C   UNL A   1      37.618  21.485  25.098  1.00  0.00     0.202 C 
ENDROOT
BRANCH   1   2
ATOM      2  C   UNL A   1      36.088  21.519  25.018  1.00  0.00     0.261 C 
BRANCH   2   3
ATOM      3  O   UNL A   1      35.583  22.869  24.932  1.00  0.00    -0.459 OA
BRANCH   3   4
ATOM      4  C   UNL A   1      34.873  23.190  23.808  1.00  0.00     0.370 C 
ATOM      5  O   UNL A   1      35.389  23.329  22.698  1.00  0.00    -0.245 OA
BRANCH   4   6
ATOM      6  C   UNL A   1      33.371  23.383  24.053  1.00  0.00     0.329 C 
BRANCH   6   7
ATOM      7  N   UNL A   1      32.547  22.169  24.331  1.00  0.00    -0.309 N 
ATOM      8  C   UNL A   1      32.108  21.716  25.656  1.00  0.00     0.275 C 
ATOM      9  C   UNL A   1      32.635  20.284  25.739  1.00  0.00     0.081 C 
ATOM     10  C   UNL A   1      32.426  19.777  24.330  1.00  0.00     0.068 C 
ATOM     11  C   UNL A   1      32.665  21.001  23.462  1.00  0.00     0.264 C 
ATOM     12  H   UNL A   1      31.810  22.821  24.062  1.00  0.00     0.349 HD
BRANCH   8  13
ATOM     13  C   UNL A   1      32.426  22.545  26.896  1.00  0.00     0.275 C 
ATOM     14  N   UNL A   1      33.695  22.347  27.381  1.00  0.00    -0.365 N 
ATOM     15  H   UNL A   1      33.999  22.835  28.180  1.00  0.00     0.159 HD
ATOM     16  H   UNL A   1      34.301  21.715  26.930  1.00  0.00     0.159 HD
ATOM     17  O   UNL A   1      31.648  23.278  27.494  1.00  0.00    -0.268 OA
ENDBRANCH   8  13
ENDBRANCH   6   7
BRANCH   6  18
ATOM     18  C   UNL A   1      32.639  24.184  22.950  1.00  0.00     0.046 A 
ATOM     19  C   UNL A   1      33.305  24.659  21.827  1.00  0.00     0.094 A 
ATOM     20  C   UNL A   1      31.416  24.951  22.977  1.00  0.00     0.009 A 
ATOM     21  N   UNL A   1      32.920  25.971  21.716  1.00  0.00    -0.361 N 
ATOM     22  C   UNL A   1      31.819  26.197  22.503  1.00  0.00     0.050 A 
ATOM     23  C   UNL A   1      30.119  24.872  23.529  1.00  0.00     0.015 A 
ATOM     24  H   UNL A   1      33.365  26.647  21.157  1.00  0.00     0.166 HD
ATOM     25  C   UNL A   1      31.191  27.383  22.888  1.00  0.00     0.073 A 
ATOM     26  C   UNL A   1      29.382  26.053  23.778  1.00  0.00     0.047 A 
ATOM     27  C   UNL A   1      29.970  27.295  23.564  1.00  0.00     0.121 A 
BRANCH  27  28
ATOM     28  O   UNL A   1      29.510  28.493  24.040  1.00  0.00    -0.489 OA
BRANCH  28  29
ATOM     29  C   UNL A   1      30.266  29.676  23.777  1.00  0.00     0.265 C 
BRANCH  29  30
ATOM     30  C   UNL A   1      29.479  30.733  23.026  1.00  0.00    -0.011 A 
ATOM     31  C   UNL A   1      29.021  30.456  21.730  1.00  0.00     0.007 A 
ATOM     32  C   UNL A   1      29.178  31.985  23.582  1.00  0.00     0.007 A 
ATOM     33  C   UNL A   1      28.317  31.419  21.004  1.00  0.00     0.000 A 
ATOM     34  C   UNL A   1      28.489  32.953  22.854  1.00  0.00     0.000 A 
ATOM     35  C   UNL A   1      28.062  32.671  21.561  1.00  0.00     0.000 A 
ENDBRANCH  29  30
ENDBRANCH  28  29
ENDBRANCH  27  28
ENDBRANCH   6  18
ENDBRANCH   4   6
ENDBRANCH   3   4
ENDBRANCH   2   3
ENDBRANCH   1   2
BRANCH   1  36
ATOM     36  O   UNL A   1      38.253  22.339  26.055  1.00  0.00    -0.374 OA
BRANCH  36  37
ATOM     37  C   UNL A   1      39.627  22.100  26.318  1.00  0.00     0.202 C 
BRANCH  37  38
ATOM     38  C   UNL A   1      40.507  23.297  26.692  1.00  0.00     0.261 C 
BRANCH  38  39
ATOM     39  O   UNL A   1      39.863  24.555  26.516  1.00  0.00    -0.460 OA
BRANCH  39  40
ATOM     40  C   UNL A   1      40.731  25.562  26.264  1.00  0.00     0.338 C 
ATOM     41  O   UNL A   1      41.170  25.919  25.187  1.00  0.00    -0.246 OA
BRANCH  40  42
ATOM     42  C   UNL A   1      40.952  26.305  27.509  1.00  0.00     0.060 A 
ATOM     43  C   UNL A   1      40.097  26.013  28.576  1.00  0.00     0.016 A 
ATOM     44  C   UNL A   1      41.934  27.292  27.611  1.00  0.00     0.016 A 
ATOM     45  C   UNL A   1      40.188  26.754  29.745  1.00  0.00     0.010 A 
ATOM     46  C   UNL A   1      42.024  28.035  28.787  1.00  0.00     0.010 A 
ATOM     47  C   UNL A   1      41.124  27.794  29.840  1.00  0.00    -0.014 A 
BRANCH  47  48
ATOM     48  C   UNL A   1      41.028  28.731  30.979  1.00  0.00     0.031 A 
ATOM     49  C   UNL A   1      39.962  29.789  30.952  1.00  0.00     0.074 A 
ATOM     50  C   UNL A   1      41.833  28.590  32.046  1.00  0.00     0.049 A 
ATOM     51  N   UNL A   1      39.663  30.685  31.855  1.00  0.00    -0.248 NA
ATOM     52  C   UNL A   1      39.115  29.840  29.749  1.00  0.00     0.031 C 
ATOM     53  C   UNL A   1      42.866  27.565  32.193  1.00  0.00     0.029 A 
ATOM     54  N   UNL A   1      41.895  29.304  33.213  1.00  0.00    -0.354 N 
ATOM     55  C   UNL A   1      38.590  31.398  31.336  1.00  0.00     0.074 A 
ATOM     56  C   UNL A   1      38.318  30.862  30.021  1.00  0.00     0.031 C 
ATOM     57  C   UNL A   1      43.456  27.712  33.392  1.00  0.00     0.029 A 
ATOM     58  C   UNL A   1      42.860  28.857  34.081  1.00  0.00     0.049 A 
ATOM     59  H   UNL A   1      41.303  30.066  33.411  1.00  0.00     0.167 HD
ATOM     60  C   UNL A   1      37.885  32.400  31.913  1.00  0.00     0.037 A 
ATOM     61  C   UNL A   1      43.223  29.326  35.291  1.00  0.00     0.037 A 
ATOM     62  C   UNL A   1      38.169  32.933  33.217  1.00  0.00     0.049 A 
ATOM     63  C   UNL A   1      42.487  30.505  35.870  1.00  0.00     0.074 A 
ATOM     64  C   UNL A   1      37.516  33.946  33.896  1.00  0.00     0.029 A 
ATOM     65  N   UNL A   1      39.201  32.501  34.039  1.00  0.00    -0.354 N 
ATOM     66  N   UNL A   1      41.460  31.159  35.379  1.00  0.00    -0.248 NA
ATOM     67  C   UNL A   1      42.958  31.012  37.167  1.00  0.00     0.031 C 
ATOM     68  C   UNL A   1      38.184  34.160  35.106  1.00  0.00     0.029 A 
ATOM     69  C   UNL A   1      39.223  33.247  35.204  1.00  0.00     0.049 A 
ATOM     70  H   UNL A   1      39.826  31.771  33.824  1.00  0.00     0.167 HD
ATOM     71  C   UNL A   1      41.148  32.138  36.316  1.00  0.00     0.074 A 
ATOM     72  C   UNL A   1      42.089  31.985  37.407  1.00  0.00     0.031 C 
ATOM     73  C   UNL A   1      40.169  33.078  36.280  1.00  0.00     0.037 A 
BRANCH  60  74
ATOM     74  C   UNL A   1      36.759  32.995  31.116  1.00  0.00     0.058 A 
ATOM     75  C   UNL A   1      36.995  33.854  30.029  1.00  0.00     0.135 A 
ATOM     76  C   UNL A   1      35.425  32.704  31.442  1.00  0.00     0.135 A 
ATOM     77  F   UNL A   1      38.252  34.179  29.687  1.00  0.00    -0.206 F 
ATOM     78  C   UNL A   1      35.950  34.432  29.318  1.00  0.00     0.059 A 
ATOM     79  C   UNL A   1      34.363  33.251  30.727  1.00  0.00     0.059 A 
ATOM     80  F   UNL A   1      35.142  31.893  32.473  1.00  0.00    -0.206 F 
ATOM     81  C   UNL A   1      34.635  34.129  29.679  1.00  0.00     0.060 A 
BRANCH  81  82
ATOM     82  S   UNL A   1      33.286  34.903  28.763  1.00  0.00     0.124 S 
ATOM     83  O   UNL A   1      33.984  35.992  28.086  1.00  0.00    -0.237 OA
ATOM     84  O   UNL A   1      32.825  33.817  27.905  1.00  0.00    -0.237 OA
ATOM     85  O   UNL A   1      32.355  35.310  29.810  1.00  0.00    -0.744 OA
ENDBRANCH  81  82
ENDBRANCH  60  74
BRANCH  61  86
ATOM     86  C   UNL A   1      44.336  28.680  36.033  1.00  0.00     0.058 A 
ATOM     87  C   UNL A   1      44.096  27.630  36.931  1.00  0.00     0.135 A 
ATOM     88  C   UNL A   1      45.665  29.095  35.851  1.00  0.00     0.135 A 
ATOM     89  F   UNL A   1      42.842  27.205  37.144  1.00  0.00    -0.206 F 
ATOM     90  C   UNL A   1      45.132  27.020  37.631  1.00  0.00     0.059 A 
ATOM     91  C   UNL A   1      46.719  28.486  36.522  1.00  0.00     0.059 A 
ATOM     92  F   UNL A   1      45.949  30.088  34.994  1.00  0.00    -0.206 F 
ATOM     93  C   UNL A   1      46.441  27.453  37.417  1.00  0.00     0.060 A 
BRANCH  93  94
ATOM     94  S   UNL A   1      47.785  26.621  38.291  1.00  0.00     0.124 S 
ATOM     95  O   UNL A   1      48.434  25.893  37.207  1.00  0.00    -0.237 OA
ATOM     96  O   UNL A   1      48.532  27.745  38.845  1.00  0.00    -0.237 OA
ATOM     97  O   UNL A   1      47.084  25.798  39.274  1.00  0.00    -0.744 OA
ENDBRANCH  93  94
ENDBRANCH  61  86
BRANCH  73  98
ATOM     98  C   UNL A   1      40.050  34.002  37.460  1.00  0.00     0.058 A 
ATOM     99  C   UNL A   1      40.603  35.290  37.442  1.00  0.00     0.135 A 
ATOM    100  C   UNL A   1      39.309  33.618  38.590  1.00  0.00     0.135 A 
ATOM    101  F   UNL A   1      41.326  35.700  36.388  1.00  0.00    -0.206 F 
ATOM    102  C   UNL A   1      40.437  36.165  38.511  1.00  0.00     0.059 A 
ATOM    103  C   UNL A   1      39.110  34.486  39.659  1.00  0.00     0.059 A 
ATOM    104  F   UNL A   1      38.751  32.399  38.652  1.00  0.00    -0.206 F 
ATOM    105  C   UNL A   1      39.684  35.756  39.613  1.00  0.00     0.060 A 
BRANCH 105 106
ATOM    106  S   UNL A   1      39.431  36.921  40.969  1.00  0.00     0.124 S 
ATOM    107  O   UNL A   1      38.363  36.271  41.720  1.00  0.00    -0.237 OA
ATOM    108  O   UNL A   1      40.740  36.938  41.614  1.00  0.00    -0.237 OA
ATOM    109  O   UNL A   1      39.059  38.158  40.289  1.00  0.00    -0.744 OA
ENDBRANCH 105 106
ENDBRANCH  73  98
ENDBRANCH  47  48
ENDBRANCH  40  42
ENDBRANCH  39  40
ENDBRANCH  38  39
ENDBRANCH  37  38
ENDBRANCH  36  37
ENDBRANCH   1  36
TORSDOF 23
ENDMDL
