MODEL 1
REMARK VINA RESULT:     -11.9      0.000      0.000
REMARK SMILES O=C(OCCOCCOC(=O)[C@@H]1C[NH2+]CCN1C(=O)N[C@H]1CCOC1)c1ccc(-c2c3nc(c(-c4c(F)cc(S(=O)(=O)[O-])cc4F)c4ccc([nH]4)c(-c4c(F)cc(S(=O)(=O)[O-])cc4F)c4nc(c(-c5c(F)cc(S(=O)(=O)[O-])cc5F)c5ccc2[nH]5)C=C4)C=C3)cc1
REMARK SMILES IDX 5 1 4 2 3 3 2 4 1 5 26 6 27 7 91 8 28 9 90 10 29 11 30 12
REMARK SMILES IDX 31 13 84 14 32 15 89 16 83 17 85 18 33 19 88 20 82 21 81 22
REMARK SMILES IDX 34 24 68 25 47 26 67 27 48 28 51 29 66 30 86 31 49 32 50 33
REMARK SMILES IDX 65 35 87 36 52 37 35 38 36 39 45 40 37 41 38 42 44 43 46 44
REMARK SMILES IDX 39 45 40 46 41 47 42 48 43 49 69 50 70 51 79 52 71 53 72 54
REMARK SMILES IDX 78 55 80 56 73 57 74 58 75 59 76 60 77 61 53 62 54 63 63 64
REMARK SMILES IDX 55 65 56 66 62 67 64 68 57 69 58 70 59 71 60 72 61 73 6 74
REMARK SMILES IDX 7 75 8 76 9 77 10 78 11 79 12 80 13 81 17 82 14 83 16 84
REMARK SMILES IDX 15 85 18 88 19 89 20 90 21 92 22 93 25 94 23 95 24 96
REMARK H PARENT 85 23 51 34 14 86 14 87 20 91
REMARK Flexibility Score: inf
ROOT
ATOM      1  C   UNL A   1      34.006  28.276  26.025  1.00  0.00     0.202 C 
ENDROOT
BRANCH   1   2
ATOM      2  C   UNL A   1      33.118  29.480  26.463  1.00  0.00     0.261 C 
BRANCH   2   3
ATOM      3  O   UNL A   1      33.803  30.753  26.587  1.00  0.00    -0.460 OA
BRANCH   3   4
ATOM      4  C   UNL A   1      34.282  31.326  27.738  1.00  0.00     0.338 C 
ATOM      5  O   UNL A   1      33.638  32.201  28.305  1.00  0.00    -0.246 OA
BRANCH   4   6
ATOM      6  C   UNL A   1      35.635  30.965  28.256  1.00  0.00     0.060 A 
ATOM      7  C   UNL A   1      35.831  29.716  28.785  1.00  0.00     0.016 A 
ATOM      8  C   UNL A   1      36.759  31.786  28.202  1.00  0.00     0.016 A 
ATOM      9  C   UNL A   1      36.941  29.287  29.426  1.00  0.00     0.010 A 
ATOM     10  C   UNL A   1      37.985  31.334  28.748  1.00  0.00     0.010 A 
ATOM     11  C   UNL A   1      38.054  30.085  29.391  1.00  0.00    -0.014 A 
BRANCH  11  12
ATOM     12  C   UNL A   1      39.093  29.582  30.294  1.00  0.00     0.031 A 
ATOM     13  C   UNL A   1      40.130  28.706  29.663  1.00  0.00     0.074 A 
ATOM     14  C   UNL A   1      39.325  30.241  31.451  1.00  0.00     0.049 A 
ATOM     15  N   UNL A   1      41.180  28.157  30.198  1.00  0.00    -0.248 NA
ATOM     16  C   UNL A   1      39.997  28.460  28.211  1.00  0.00     0.031 C 
ATOM     17  C   UNL A   1      38.546  31.392  31.947  1.00  0.00     0.029 A 
ATOM     18  N   UNL A   1      40.336  30.129  32.361  1.00  0.00    -0.354 N 
ATOM     19  C   UNL A   1      41.778  27.435  29.176  1.00  0.00     0.074 A 
ATOM     20  C   UNL A   1      41.024  27.665  27.969  1.00  0.00     0.031 C 
ATOM     21  C   UNL A   1      39.140  31.895  33.041  1.00  0.00     0.029 A 
ATOM     22  C   UNL A   1      40.255  31.035  33.397  1.00  0.00     0.049 A 
ATOM     23  H   UNL A   1      41.058  29.463  32.285  1.00  0.00     0.167 HD
ATOM     24  C   UNL A   1      42.837  26.603  29.276  1.00  0.00     0.037 A 
ATOM     25  C   UNL A   1      40.973  31.099  34.532  1.00  0.00     0.037 A 
ATOM     26  C   UNL A   1      43.521  26.407  30.520  1.00  0.00     0.049 A 
ATOM     27  C   UNL A   1      42.025  30.036  34.702  1.00  0.00     0.074 A 
ATOM     28  C   UNL A   1      44.463  25.461  30.862  1.00  0.00     0.029 A 
ATOM     29  N   UNL A   1      43.307  27.200  31.644  1.00  0.00    -0.354 N 
ATOM     30  N   UNL A   1      42.458  29.165  33.817  1.00  0.00    -0.248 NA
ATOM     31  C   UNL A   1      42.645  29.916  36.023  1.00  0.00     0.031 C 
ATOM     32  C   UNL A   1      44.780  25.653  32.214  1.00  0.00     0.029 A 
ATOM     33  C   UNL A   1      44.079  26.752  32.694  1.00  0.00     0.049 A 
ATOM     34  H   UNL A   1      42.693  27.968  31.684  1.00  0.00     0.167 HD
ATOM     35  C   UNL A   1      43.405  28.393  34.470  1.00  0.00     0.074 A 
ATOM     36  C   UNL A   1      43.497  28.919  35.821  1.00  0.00     0.031 C 
ATOM     37  C   UNL A   1      44.127  27.339  34.011  1.00  0.00     0.037 A 
BRANCH  24  38
ATOM     38  C   UNL A   1      43.126  25.756  28.073  1.00  0.00     0.058 A 
ATOM     39  C   UNL A   1      42.538  24.497  27.872  1.00  0.00     0.135 A 
ATOM     40  C   UNL A   1      44.138  26.158  27.184  1.00  0.00     0.135 A 
ATOM     41  F   UNL A   1      41.611  24.040  28.728  1.00  0.00    -0.206 F 
ATOM     42  C   UNL A   1      42.968  23.652  26.850  1.00  0.00     0.059 A 
ATOM     43  C   UNL A   1      44.569  25.337  26.146  1.00  0.00     0.059 A 
ATOM     44  F   UNL A   1      44.758  27.335  27.355  1.00  0.00    -0.206 F 
ATOM     45  C   UNL A   1      43.995  24.076  26.003  1.00  0.00     0.060 A 
BRANCH  45  46
ATOM     46  S   UNL A   1      44.596  22.947  24.729  1.00  0.00     0.124 S 
ATOM     47  O   UNL A   1      45.077  21.830  25.535  1.00  0.00    -0.237 OA
ATOM     48  O   UNL A   1      43.392  22.691  23.944  1.00  0.00    -0.237 OA
ATOM     49  O   UNL A   1      45.629  23.722  24.049  1.00  0.00    -0.744 OA
ENDBRANCH  45  46
ENDBRANCH  24  38
BRANCH  25  50
ATOM     50  C   UNL A   1      40.644  32.074  35.613  1.00  0.00     0.058 A 
ATOM     51  C   UNL A   1      41.424  33.218  35.839  1.00  0.00     0.135 A 
ATOM     52  C   UNL A   1      39.552  31.865  36.476  1.00  0.00     0.135 A 
ATOM     53  F   UNL A   1      42.485  33.470  35.057  1.00  0.00    -0.206 F 
ATOM     54  C   UNL A   1      41.146  34.103  36.881  1.00  0.00     0.059 A 
ATOM     55  C   UNL A   1      39.236  32.749  37.505  1.00  0.00     0.059 A 
ATOM     56  F   UNL A   1      38.764  30.788  36.319  1.00  0.00    -0.206 F 
ATOM     57  C   UNL A   1      40.051  33.858  37.711  1.00  0.00     0.060 A 
BRANCH  57  58
ATOM     58  S   UNL A   1      39.690  35.013  39.053  1.00  0.00     0.124 S 
ATOM     59  O   UNL A   1      38.836  34.204  39.914  1.00  0.00    -0.237 OA
ATOM     60  O   UNL A   1      41.021  35.311  39.569  1.00  0.00    -0.237 OA
ATOM     61  O   UNL A   1      39.027  36.122  38.371  1.00  0.00    -0.744 OA
ENDBRANCH  57  58
ENDBRANCH  25  50
BRANCH  37  62
ATOM     62  C   UNL A   1      45.097  26.732  34.972  1.00  0.00     0.058 A 
ATOM     63  C   UNL A   1      46.416  27.197  35.072  1.00  0.00     0.135 A 
ATOM     64  C   UNL A   1      44.668  25.730  35.853  1.00  0.00     0.135 A 
ATOM     65  F   UNL A   1      46.863  28.151  34.241  1.00  0.00    -0.206 F 
ATOM     66  C   UNL A   1      47.288  26.673  36.015  1.00  0.00     0.059 A 
ATOM     67  C   UNL A   1      45.515  25.211  36.820  1.00  0.00     0.059 A 
ATOM     68  F   UNL A   1      43.407  25.270  35.793  1.00  0.00    -0.206 F 
ATOM     69  C   UNL A   1      46.826  25.683  36.886  1.00  0.00     0.060 A 
BRANCH  69  70
ATOM     70  S   UNL A   1      47.949  25.048  38.144  1.00  0.00     0.124 S 
ATOM     71  O   UNL A   1      49.098  25.932  37.980  1.00  0.00    -0.237 OA
ATOM     72  O   UNL A   1      47.179  25.227  39.371  1.00  0.00    -0.237 OA
ATOM     73  O   UNL A   1      48.159  23.661  37.740  1.00  0.00    -0.744 OA
ENDBRANCH  69  70
ENDBRANCH  37  62
ENDBRANCH  11  12
ENDBRANCH   4   6
ENDBRANCH   3   4
ENDBRANCH   2   3
ENDBRANCH   1   2
BRANCH   1  74
ATOM     74  O   UNL A   1      33.629  27.418  24.933  1.00  0.00    -0.374 OA
BRANCH  74  75
ATOM     75  C   UNL A   1      32.934  27.817  23.750  1.00  0.00     0.202 C 
BRANCH  75  76
ATOM     76  C   UNL A   1      33.594  27.254  22.423  1.00  0.00     0.261 C 
BRANCH  76  77
ATOM     77  O   UNL A   1      33.859  25.547  22.332  1.00  0.00    -0.462 OA
BRANCH  77  78
ATOM     78  C   UNL A   1      33.803  23.772  22.977  1.00  0.00     0.334 C 
ATOM     79  O   UNL A   1      33.151  22.811  22.463  1.00  0.00    -0.250 OA
BRANCH  78  80
ATOM     80  C   UNL A   1      34.831  23.104  24.161  1.00  0.00     0.252 C 
ATOM     81  C   UNL A   1      36.239  23.268  23.454  1.00  0.00     0.298 C 
ATOM     82  N   UNL A   1      34.830  21.871  25.008  1.00  0.00    -0.300 N 
ATOM     83  N   UNL A   1      37.440  22.873  24.217  1.00  0.00    -0.343 N 
ATOM     84  C   UNL A   1      36.068  21.463  25.652  1.00  0.00     0.183 C 
ATOM     85  C   UNL A   1      37.257  21.512  24.721  1.00  0.00     0.282 C 
ATOM     86  H   UNL A   1      37.573  23.513  25.000  1.00  0.00     0.346 HD
ATOM     87  H   UNL A   1      38.259  22.909  23.611  1.00  0.00     0.346 HD
BRANCH  82  88
ATOM     88  C   UNL A   1      33.758  21.598  25.801  1.00  0.00     0.318 C 
ATOM     89  O   UNL A   1      33.511  22.089  26.896  1.00  0.00    -0.249 OA
ATOM     90  N   UNL A   1      32.936  20.685  25.316  1.00  0.00    -0.333 N 
ATOM     91  H   UNL A   1      32.027  20.629  25.690  1.00  0.00     0.165 HD
BRANCH  90  92
ATOM     92  C   UNL A   1      33.294  19.784  24.291  1.00  0.00     0.112 C 
ATOM     93  C   UNL A   1      34.394  18.098  24.608  1.00  0.00     0.056 C 
ATOM     94  C   UNL A   1      32.121  19.405  22.689  1.00  0.00     0.185 C 
ATOM     95  C   UNL A   1      34.033  16.893  23.010  1.00  0.00     0.162 C 
ATOM     96  O   UNL A   1      32.543  17.650  22.094  1.00  0.00    -0.379 OA
ENDBRANCH  90  92
ENDBRANCH  82  88
ENDBRANCH  78  80
ENDBRANCH  77  78
ENDBRANCH  76  77
ENDBRANCH  75  76
ENDBRANCH  74  75
ENDBRANCH   1  74
TORSDOF 19
ENDMDL
MODEL 2
REMARK VINA RESULT:     -11.6      2.973      9.165
REMARK SMILES O=C(OCCOCCOC(=O)[C@@H]1C[NH2+]CCN1C(=O)N[C@H]1CCOC1)c1ccc(-c2c3nc(c(-c4c(F)cc(S(=O)(=O)[O-])cc4F)c4ccc([nH]4)c(-c4c(F)cc(S(=O)(=O)[O-])cc4F)c4nc(c(-c5c(F)cc(S(=O)(=O)[O-])cc5F)c5ccc2[nH]5)C=C4)C=C3)cc1
REMARK SMILES IDX 5 1 4 2 3 3 2 4 1 5 26 6 27 7 91 8 28 9 90 10 29 11 30 12
REMARK SMILES IDX 31 13 84 14 32 15 89 16 83 17 85 18 33 19 88 20 82 21 81 22
REMARK SMILES IDX 34 24 68 25 47 26 67 27 48 28 51 29 66 30 86 31 49 32 50 33
REMARK SMILES IDX 65 35 87 36 52 37 35 38 36 39 45 40 37 41 38 42 44 43 46 44
REMARK SMILES IDX 39 45 40 46 41 47 42 48 43 49 69 50 70 51 79 52 71 53 72 54
REMARK SMILES IDX 78 55 80 56 73 57 74 58 75 59 76 60 77 61 53 62 54 63 63 64
REMARK SMILES IDX 55 65 56 66 62 67 64 68 57 69 58 70 59 71 60 72 61 73 6 74
REMARK SMILES IDX 7 75 8 76 9 77 10 78 11 79 12 80 13 81 17 82 14 83 16 84
REMARK SMILES IDX 15 85 18 88 19 89 20 90 21 92 22 93 25 94 23 95 24 96
REMARK H PARENT 85 23 51 34 14 86 14 87 20 91
REMARK Flexibility Score: inf
ROOT
ATOM      1  C   UNL A   1      41.056  21.831  26.405  1.00  0.00     0.202 C 
ENDROOT
BRANCH   1   2
ATOM      2  C   UNL A   1      42.271  22.573  25.772  1.00  0.00     0.261 C 
BRANCH   2   3
ATOM      3  O   UNL A   1      42.671  23.802  26.432  1.00  0.00    -0.460 OA
BRANCH   3   4
ATOM      4  C   UNL A   1      42.245  25.074  26.139  1.00  0.00     0.338 C 
ATOM      5  O   UNL A   1      42.341  25.508  24.998  1.00  0.00    -0.246 OA
BRANCH   4   6
ATOM      6  C   UNL A   1      41.755  25.975  27.224  1.00  0.00     0.060 A 
ATOM      7  C   UNL A   1      42.276  27.238  27.324  1.00  0.00     0.016 A 
ATOM      8  C   UNL A   1      40.751  25.658  28.137  1.00  0.00     0.016 A 
ATOM      9  C   UNL A   1      42.053  28.116  28.327  1.00  0.00     0.010 A 
ATOM     10  C   UNL A   1      40.389  26.595  29.135  1.00  0.00     0.010 A 
ATOM     11  C   UNL A   1      41.076  27.817  29.239  1.00  0.00    -0.014 A 
BRANCH  11  12
ATOM     12  C   UNL A   1      41.099  28.756  30.364  1.00  0.00     0.031 A 
ATOM     13  C   UNL A   1      39.938  29.697  30.446  1.00  0.00     0.074 A 
ATOM     14  C   UNL A   1      41.851  28.456  31.447  1.00  0.00     0.049 A 
ATOM     15  N   UNL A   1      39.671  30.599  31.344  1.00  0.00    -0.248 NA
ATOM     16  C   UNL A   1      38.903  29.567  29.398  1.00  0.00     0.031 C 
ATOM     17  C   UNL A   1      42.748  27.290  31.566  1.00  0.00     0.029 A 
ATOM     18  N   UNL A   1      41.904  29.022  32.688  1.00  0.00    -0.354 N 
ATOM     19  C   UNL A   1      38.492  31.197  30.924  1.00  0.00     0.074 A 
ATOM     20  C   UNL A   1      38.048  30.518  29.733  1.00  0.00     0.031 C 
ATOM     21  C   UNL A   1      43.217  27.214  32.820  1.00  0.00     0.029 A 
ATOM     22  C   UNL A   1      42.766  28.384  33.553  1.00  0.00     0.049 A 
ATOM     23  H   UNL A   1      41.374  29.812  32.943  1.00  0.00     0.167 HD
ATOM     24  C   UNL A   1      37.880  32.268  31.473  1.00  0.00     0.037 A 
ATOM     25  C   UNL A   1      43.181  28.761  34.776  1.00  0.00     0.037 A 
ATOM     26  C   UNL A   1      38.397  32.906  32.648  1.00  0.00     0.049 A 
ATOM     27  C   UNL A   1      42.624  30.064  35.283  1.00  0.00     0.074 A 
ATOM     28  C   UNL A   1      38.045  34.110  33.218  1.00  0.00     0.029 A 
ATOM     29  N   UNL A   1      39.411  32.361  33.431  1.00  0.00    -0.354 N 
ATOM     30  N   UNL A   1      41.653  30.791  34.776  1.00  0.00    -0.248 NA
ATOM     31  C   UNL A   1      43.243  30.631  36.483  1.00  0.00     0.031 C 
ATOM     32  C   UNL A   1      38.884  34.316  34.321  1.00  0.00     0.029 A 
ATOM     33  C   UNL A   1      39.718  33.214  34.469  1.00  0.00     0.049 A 
ATOM     34  H   UNL A   1      39.844  31.493  33.268  1.00  0.00     0.167 HD
ATOM     35  C   UNL A   1      41.539  31.903  35.594  1.00  0.00     0.074 A 
ATOM     36  C   UNL A   1      42.528  31.738  36.645  1.00  0.00     0.031 C 
ATOM     37  C   UNL A   1      40.709  32.972  35.489  1.00  0.00     0.037 A 
BRANCH  24  38
ATOM     38  C   UNL A   1      36.757  32.865  30.679  1.00  0.00     0.058 A 
ATOM     39  C   UNL A   1      36.970  33.730  29.594  1.00  0.00     0.135 A 
ATOM     40  C   UNL A   1      35.435  32.682  31.122  1.00  0.00     0.135 A 
ATOM     41  F   UNL A   1      38.218  33.988  29.171  1.00  0.00    -0.206 F 
ATOM     42  C   UNL A   1      35.915  34.419  28.999  1.00  0.00     0.059 A 
ATOM     43  C   UNL A   1      34.366  33.345  30.530  1.00  0.00     0.059 A 
ATOM     44  F   UNL A   1      35.181  31.895  32.179  1.00  0.00    -0.206 F 
ATOM     45  C   UNL A   1      34.619  34.231  29.485  1.00  0.00     0.060 A 
BRANCH  45  46
ATOM     46  S   UNL A   1      33.268  35.182  28.757  1.00  0.00     0.124 S 
ATOM     47  O   UNL A   1      32.509  35.562  29.944  1.00  0.00    -0.237 OA
ATOM     48  O   UNL A   1      33.976  36.265  28.084  1.00  0.00    -0.237 OA
ATOM     49  O   UNL A   1      32.614  34.221  27.874  1.00  0.00    -0.744 OA
ENDBRANCH  45  46
ENDBRANCH  24  38
BRANCH  25  50
ATOM     50  C   UNL A   1      44.238  28.006  35.512  1.00  0.00     0.058 A 
ATOM     51  C   UNL A   1      43.919  27.030  36.468  1.00  0.00     0.135 A 
ATOM     52  C   UNL A   1      45.605  28.268  35.298  1.00  0.00     0.135 A 
ATOM     53  F   UNL A   1      42.634  26.740  36.725  1.00  0.00    -0.206 F 
ATOM     54  C   UNL A   1      44.905  26.360  37.192  1.00  0.00     0.059 A 
ATOM     55  C   UNL A   1      46.608  27.592  35.986  1.00  0.00     0.059 A 
ATOM     56  F   UNL A   1      45.982  29.192  34.399  1.00  0.00    -0.206 F 
ATOM     57  C   UNL A   1      46.248  26.650  36.946  1.00  0.00     0.060 A 
BRANCH  57  58
ATOM     58  S   UNL A   1      47.522  25.772  37.879  1.00  0.00     0.124 S 
ATOM     59  O   UNL A   1      46.728  24.786  38.604  1.00  0.00    -0.237 OA
ATOM     60  O   UNL A   1      48.376  25.251  36.818  1.00  0.00    -0.237 OA
ATOM     61  O   UNL A   1      48.122  26.823  38.698  1.00  0.00    -0.744 OA
ENDBRANCH  57  58
ENDBRANCH  25  50
BRANCH  37  62
ATOM     62  C   UNL A   1      40.820  34.005  36.563  1.00  0.00     0.058 A 
ATOM     63  C   UNL A   1      41.744  35.055  36.476  1.00  0.00     0.135 A 
ATOM     64  C   UNL A   1      39.931  33.979  37.646  1.00  0.00     0.135 A 
ATOM     65  F   UNL A   1      42.615  35.108  35.456  1.00  0.00    -0.206 F 
ATOM     66  C   UNL A   1      41.792  36.047  37.444  1.00  0.00     0.059 A 
ATOM     67  C   UNL A   1      39.944  34.975  38.611  1.00  0.00     0.059 A 
ATOM     68  F   UNL A   1      39.023  32.994  37.755  1.00  0.00    -0.206 F 
ATOM     69  C   UNL A   1      40.884  35.999  38.505  1.00  0.00     0.060 A 
BRANCH  69  70
ATOM     70  S   UNL A   1      40.915  37.323  39.728  1.00  0.00     0.124 S 
ATOM     71  O   UNL A   1      42.056  38.110  39.275  1.00  0.00    -0.237 OA
ATOM     72  O   UNL A   1      39.605  37.942  39.554  1.00  0.00    -0.237 OA
ATOM     73  O   UNL A   1      41.102  36.611  40.990  1.00  0.00    -0.744 OA
ENDBRANCH  69  70
ENDBRANCH  37  62
ENDBRANCH  11  12
ENDBRANCH   4   6
ENDBRANCH   3   4
ENDBRANCH   2   3
ENDBRANCH   1   2
BRANCH   1  74
ATOM     74  O   UNL A   1      39.703  22.130  26.016  1.00  0.00    -0.374 OA
BRANCH  74  75
ATOM     75  C   UNL A   1      38.822  23.047  26.668  1.00  0.00     0.202 C 
BRANCH  75  76
ATOM     76  C   UNL A   1      37.793  23.731  25.675  1.00  0.00     0.261 C 
BRANCH  76  77
ATOM     77  O   UNL A   1      36.121  23.694  26.117  1.00  0.00    -0.462 OA
BRANCH  77  78
ATOM     78  C   UNL A   1      34.516  22.861  26.667  1.00  0.00     0.334 C 
ATOM     79  O   UNL A   1      34.238  22.484  27.848  1.00  0.00    -0.250 OA
BRANCH  78  80
ATOM     80  C   UNL A   1      33.083  22.744  25.752  1.00  0.00     0.252 C 
ATOM     81  C   UNL A   1      33.659  22.242  24.365  1.00  0.00     0.298 C 
ATOM     82  N   UNL A   1      31.888  23.613  25.519  1.00  0.00    -0.300 N 
ATOM     83  N   UNL A   1      32.693  21.928  23.294  1.00  0.00    -0.343 N 
ATOM     84  C   UNL A   1      31.025  23.328  24.383  1.00  0.00     0.183 C 
ATOM     85  C   UNL A   1      31.797  23.069  23.111  1.00  0.00     0.282 C 
ATOM     86  H   UNL A   1      32.150  21.105  23.554  1.00  0.00     0.346 HD
ATOM     87  H   UNL A   1      33.193  21.739  22.425  1.00  0.00     0.346 HD
BRANCH  82  88
ATOM     88  C   UNL A   1      31.162  24.060  26.579  1.00  0.00     0.318 C 
ATOM     89  O   UNL A   1      30.363  23.413  27.247  1.00  0.00    -0.249 OA
ATOM     90  N   UNL A   1      31.345  25.335  26.872  1.00  0.00    -0.333 N 
ATOM     91  H   UNL A   1      31.070  25.655  27.761  1.00  0.00     0.165 HD
BRANCH  90  92
ATOM     92  C   UNL A   1      31.914  26.263  25.973  1.00  0.00     0.112 C 
ATOM     93  C   UNL A   1      30.890  27.102  24.425  1.00  0.00     0.056 C 
ATOM     94  C   UNL A   1      33.329  27.602  26.512  1.00  0.00     0.185 C 
ATOM     95  C   UNL A   1      31.921  28.782  23.925  1.00  0.00     0.162 C 
ATOM     96  O   UNL A   1      33.168  29.085  25.334  1.00  0.00    -0.379 OA
ENDBRANCH  90  92
ENDBRANCH  82  88
ENDBRANCH  78  80
ENDBRANCH  77  78
ENDBRANCH  76  77
ENDBRANCH  75  76
ENDBRANCH  74  75
ENDBRANCH   1  74
TORSDOF 19
ENDMDL
MODEL 3
REMARK VINA RESULT:     -11.4      5.431     11.050
REMARK SMILES O=C(OCCOCCOC(=O)[C@@H]1C[NH2+]CCN1C(=O)N[C@H]1CCOC1)c1ccc(-c2c3nc(c(-c4c(F)cc(S(=O)(=O)[O-])cc4F)c4ccc([nH]4)c(-c4c(F)cc(S(=O)(=O)[O-])cc4F)c4nc(c(-c5c(F)cc(S(=O)(=O)[O-])cc5F)c5ccc2[nH]5)C=C4)C=C3)cc1
REMARK SMILES IDX 5 1 4 2 3 3 2 4 1 5 26 6 27 7 91 8 28 9 90 10 29 11 30 12
REMARK SMILES IDX 31 13 84 14 32 15 89 16 83 17 85 18 33 19 88 20 82 21 81 22
REMARK SMILES IDX 34 24 68 25 47 26 67 27 48 28 51 29 66 30 86 31 49 32 50 33
REMARK SMILES IDX 65 35 87 36 52 37 35 38 36 39 45 40 37 41 38 42 44 43 46 44
REMARK SMILES IDX 39 45 40 46 41 47 42 48 43 49 69 50 70 51 79 52 71 53 72 54
REMARK SMILES IDX 78 55 80 56 73 57 74 58 75 59 76 60 77 61 53 62 54 63 63 64
REMARK SMILES IDX 55 65 56 66 62 67 64 68 57 69 58 70 59 71 60 72 61 73 6 74
REMARK SMILES IDX 7 75 8 76 9 77 10 78 11 79 12 80 13 81 17 82 14 83 16 84
REMARK SMILES IDX 15 85 18 88 19 89 20 90 21 92 22 93 25 94 23 95 24 96
REMARK H PARENT 85 23 51 34 14 86 14 87 20 91
REMARK Flexibility Score: inf
ROOT
ATOM      1  C   UNL A   1      38.593  21.078  25.564  1.00  0.00     0.202 C 
ENDROOT
BRANCH   1   2
ATOM      2  C   UNL A   1      39.262  19.671  25.548  1.00  0.00     0.261 C 
BRANCH   2   3
ATOM      3  O   UNL A   1      40.503  19.556  26.291  1.00  0.00    -0.460 OA
BRANCH   3   4
ATOM      4  C   UNL A   1      41.717  20.106  25.963  1.00  0.00     0.338 C 
ATOM      5  O   UNL A   1      42.525  19.464  25.301  1.00  0.00    -0.246 OA
BRANCH   4   6
ATOM      6  C   UNL A   1      42.108  21.446  26.491  1.00  0.00     0.060 A 
ATOM      7  C   UNL A   1      42.015  22.537  25.667  1.00  0.00     0.016 A 
ATOM      8  C   UNL A   1      42.520  21.704  27.797  1.00  0.00     0.016 A 
ATOM      9  C   UNL A   1      42.466  23.782  25.939  1.00  0.00     0.010 A 
ATOM     10  C   UNL A   1      42.885  23.020  28.170  1.00  0.00     0.010 A 
ATOM     11  C   UNL A   1      42.884  24.052  27.215  1.00  0.00    -0.014 A 
BRANCH  11  12
ATOM     12  C   UNL A   1      43.527  25.367  27.293  1.00  0.00     0.031 A 
ATOM     13  C   UNL A   1      42.765  26.416  28.042  1.00  0.00     0.074 A 
ATOM     14  C   UNL A   1      44.864  25.449  27.112  1.00  0.00     0.049 A 
ATOM     15  N   UNL A   1      43.100  27.644  28.306  1.00  0.00    -0.248 NA
ATOM     16  C   UNL A   1      41.468  26.008  28.622  1.00  0.00     0.031 C 
ATOM     17  C   UNL A   1      45.745  24.325  26.739  1.00  0.00     0.029 A 
ATOM     18  N   UNL A   1      45.737  26.477  27.325  1.00  0.00    -0.354 N 
ATOM     19  C   UNL A   1      42.024  28.176  29.003  1.00  0.00     0.074 A 
ATOM     20  C   UNL A   1      41.052  27.127  29.187  1.00  0.00     0.031 C 
ATOM     21  C   UNL A   1      47.025  24.724  26.796  1.00  0.00     0.029 A 
ATOM     22  C   UNL A   1      47.052  26.148  27.078  1.00  0.00     0.049 A 
ATOM     23  H   UNL A   1      45.454  27.370  27.627  1.00  0.00     0.167 HD
ATOM     24  C   UNL A   1      41.858  29.458  29.393  1.00  0.00     0.037 A 
ATOM     25  C   UNL A   1      48.135  26.946  27.025  1.00  0.00     0.037 A 
ATOM     26  C   UNL A   1      42.863  30.451  29.150  1.00  0.00     0.049 A 
ATOM     27  C   UNL A   1      47.884  28.408  27.278  1.00  0.00     0.074 A 
ATOM     28  C   UNL A   1      42.788  31.821  29.277  1.00  0.00     0.029 A 
ATOM     29  N   UNL A   1      44.149  30.147  28.712  1.00  0.00    -0.354 N 
ATOM     30  N   UNL A   1      46.788  28.985  27.719  1.00  0.00    -0.248 NA
ATOM     31  C   UNL A   1      48.978  29.333  26.978  1.00  0.00     0.031 C 
ATOM     32  C   UNL A   1      44.019  32.349  28.865  1.00  0.00     0.029 A 
ATOM     33  C   UNL A   1      44.875  31.305  28.536  1.00  0.00     0.049 A 
ATOM     34  H   UNL A   1      44.489  29.238  28.550  1.00  0.00     0.167 HD
ATOM     35  C   UNL A   1      47.057  30.343  27.754  1.00  0.00     0.074 A 
ATOM     36  C   UNL A   1      48.432  30.497  27.310  1.00  0.00     0.031 C 
ATOM     37  C   UNL A   1      46.250  31.377  28.104  1.00  0.00     0.037 A 
BRANCH  24  38
ATOM     38  C   UNL A   1      40.497  29.819  29.907  1.00  0.00     0.058 A 
ATOM     39  C   UNL A   1      39.392  30.008  29.063  1.00  0.00     0.135 A 
ATOM     40  C   UNL A   1      40.344  30.134  31.269  1.00  0.00     0.135 A 
ATOM     41  F   UNL A   1      39.502  29.781  27.744  1.00  0.00    -0.206 F 
ATOM     42  C   UNL A   1      38.192  30.529  29.545  1.00  0.00     0.059 A 
ATOM     43  C   UNL A   1      39.150  30.638  31.774  1.00  0.00     0.059 A 
ATOM     44  F   UNL A   1      41.381  30.008  32.111  1.00  0.00    -0.206 F 
ATOM     45  C   UNL A   1      38.088  30.855  30.900  1.00  0.00     0.060 A 
BRANCH  45  46
ATOM     46  S   UNL A   1      36.557  31.598  31.502  1.00  0.00     0.124 S 
ATOM     47  O   UNL A   1      36.964  32.985  31.697  1.00  0.00    -0.237 OA
ATOM     48  O   UNL A   1      35.636  31.357  30.396  1.00  0.00    -0.237 OA
ATOM     49  O   UNL A   1      36.274  30.848  32.722  1.00  0.00    -0.744 OA
ENDBRANCH  45  46
ENDBRANCH  24  38
BRANCH  25  50
ATOM     50  C   UNL A   1      49.468  26.428  26.599  1.00  0.00     0.058 A 
ATOM     51  C   UNL A   1      50.366  25.857  27.513  1.00  0.00     0.135 A 
ATOM     52  C   UNL A   1      49.894  26.524  25.260  1.00  0.00     0.135 A 
ATOM     53  F   UNL A   1      50.024  25.745  28.806  1.00  0.00    -0.206 F 
ATOM     54  C   UNL A   1      51.633  25.419  27.125  1.00  0.00     0.059 A 
ATOM     55  C   UNL A   1      51.141  26.067  24.842  1.00  0.00     0.059 A 
ATOM     56  F   UNL A   1      49.086  27.062  24.332  1.00  0.00    -0.206 F 
ATOM     57  C   UNL A   1      52.012  25.531  25.786  1.00  0.00     0.060 A 
BRANCH  57  58
ATOM     58  S   UNL A   1      53.649  24.953  25.286  1.00  0.00     0.124 S 
ATOM     59  O   UNL A   1      54.488  25.487  26.353  1.00  0.00    -0.237 OA
ATOM     60  O   UNL A   1      53.474  23.505  25.274  1.00  0.00    -0.237 OA
ATOM     61  O   UNL A   1      53.834  25.566  23.972  1.00  0.00    -0.744 OA
ENDBRANCH  57  58
ENDBRANCH  25  50
BRANCH  37  62
ATOM     62  C   UNL A   1      46.859  32.740  28.058  1.00  0.00     0.058 A 
ATOM     63  C   UNL A   1      46.683  33.583  26.952  1.00  0.00     0.135 A 
ATOM     64  C   UNL A   1      47.557  33.228  29.171  1.00  0.00     0.135 A 
ATOM     65  F   UNL A   1      46.025  33.147  25.866  1.00  0.00    -0.206 F 
ATOM     66  C   UNL A   1      47.194  34.872  26.947  1.00  0.00     0.059 A 
ATOM     67  C   UNL A   1      48.054  34.522  29.198  1.00  0.00     0.059 A 
ATOM     68  F   UNL A   1      47.734  32.452  30.253  1.00  0.00    -0.206 F 
ATOM     69  C   UNL A   1      47.875  35.332  28.077  1.00  0.00     0.060 A 
BRANCH  69  70
ATOM     70  S   UNL A   1      48.487  37.028  28.085  1.00  0.00     0.124 S 
ATOM     71  O   UNL A   1      47.396  37.727  28.754  1.00  0.00    -0.237 OA
ATOM     72  O   UNL A   1      49.728  36.909  28.844  1.00  0.00    -0.237 OA
ATOM     73  O   UNL A   1      48.654  37.331  26.666  1.00  0.00    -0.744 OA
ENDBRANCH  69  70
ENDBRANCH  37  62
ENDBRANCH  11  12
ENDBRANCH   4   6
ENDBRANCH   3   4
ENDBRANCH   2   3
ENDBRANCH   1   2
BRANCH   1  74
ATOM     74  O   UNL A   1      37.540  21.422  24.646  1.00  0.00    -0.374 OA
BRANCH  74  75
ATOM     75  C   UNL A   1      36.997  22.728  24.438  1.00  0.00     0.202 C 
BRANCH  75  76
ATOM     76  C   UNL A   1      36.786  23.535  25.785  1.00  0.00     0.261 C 
BRANCH  76  77
ATOM     77  O   UNL A   1      35.430  23.098  26.767  1.00  0.00    -0.462 OA
BRANCH  77  78
ATOM     78  C   UNL A   1      33.615  22.677  27.085  1.00  0.00     0.334 C 
ATOM     79  O   UNL A   1      33.084  22.477  28.222  1.00  0.00    -0.250 OA
BRANCH  78  80
ATOM     80  C   UNL A   1      32.348  22.784  25.951  1.00  0.00     0.252 C 
ATOM     81  C   UNL A   1      32.998  22.042  24.712  1.00  0.00     0.298 C 
ATOM     82  N   UNL A   1      31.429  23.862  25.470  1.00  0.00    -0.300 N 
ATOM     83  N   UNL A   1      32.159  21.842  23.514  1.00  0.00    -0.343 N 
ATOM     84  C   UNL A   1      30.706  23.663  24.225  1.00  0.00     0.183 C 
ATOM     85  C   UNL A   1      31.583  23.127  23.117  1.00  0.00     0.282 C 
ATOM     86  H   UNL A   1      31.411  21.183  23.727  1.00  0.00     0.346 HD
ATOM     87  H   UNL A   1      32.729  21.470  22.755  1.00  0.00     0.346 HD
BRANCH  82  88
ATOM     88  C   UNL A   1      30.672  24.552  26.366  1.00  0.00     0.318 C 
ATOM     89  O   UNL A   1      29.647  24.163  26.914  1.00  0.00    -0.249 OA
ATOM     90  N   UNL A   1      31.104  25.773  26.625  1.00  0.00    -0.333 N 
ATOM     91  H   UNL A   1      30.776  26.222  27.437  1.00  0.00     0.165 HD
BRANCH  90  92
ATOM     92  C   UNL A   1      32.013  26.467  25.797  1.00  0.00     0.112 C 
ATOM     93  C   UNL A   1      31.501  27.282  24.002  1.00  0.00     0.056 C 
ATOM     94  C   UNL A   1      33.535  27.584  26.516  1.00  0.00     0.185 C 
ATOM     95  C   UNL A   1      32.927  28.675  23.599  1.00  0.00     0.162 C 
ATOM     96  O   UNL A   1      33.909  28.918  25.214  1.00  0.00    -0.379 OA
ENDBRANCH  90  92
ENDBRANCH  82  88
ENDBRANCH  78  80
ENDBRANCH  77  78
ENDBRANCH  76  77
ENDBRANCH  75  76
ENDBRANCH  74  75
ENDBRANCH   1  74
TORSDOF 19
ENDMDL
