MODEL 1
REMARK VINA RESULT:     -10.8      0.000      0.000
REMARK SMILES C[C@H]1[C@@H](C(=O)OCCOCCOC(=O)c2ccc(-c3c4nc(c(-c5c(F)cc(S(=O)(=O)[O-])cc5F)c5ccc([nH]5)c(-c5c(F)cc(S(=O)(=O)[O-])cc5F)c5nc(c(-c6c(F)cc(S(=O)(=O)[O-])cc6F)c6ccc3[nH]6)C=C5)C=C4)cc2)CCN1C(=O)/C=C/c1cccc(F)c1
REMARK SMILES IDX 9 1 8 2 7 3 6 4 4 5 5 6 3 7 1 8 2 9 83 10 81 11 82 12 84 13
REMARK SMILES IDX 85 14 86 15 87 16 88 17 89 18 94 19 90 20 92 21 91 22 93 23
REMARK SMILES IDX 10 24 11 25 12 26 13 27 14 28 15 29 16 30 80 31 17 32 79 33
REMARK SMILES IDX 18 34 19 35 20 36 73 37 21 38 78 39 72 40 74 41 22 42 77 43
REMARK SMILES IDX 71 44 70 45 23 47 57 48 36 49 56 50 37 51 40 52 55 53 75 54
REMARK SMILES IDX 38 55 39 56 54 58 76 59 41 60 24 61 25 62 34 63 26 64 27 65
REMARK SMILES IDX 33 66 35 67 28 68 29 69 30 70 31 71 32 72 58 73 59 74 68 75
REMARK SMILES IDX 60 76 61 77 67 78 69 79 62 80 63 81 64 82 65 83 66 84 42 85
REMARK SMILES IDX 43 86 52 87 44 88 45 89 51 90 53 91 46 92 47 93 48 94 49 95
REMARK SMILES IDX 50 96
REMARK H PARENT 74 46 40 57
REMARK Flexibility Score: inf
ROOT
ATOM      1  O   UNL A   1      31.223  29.119  25.019  1.00  0.00    -0.374 OA
ENDROOT
BRANCH   1   2
ATOM      2  C   UNL A   1      30.738  29.344  23.692  1.00  0.00     0.202 C 
BRANCH   2   3
ATOM      3  C   UNL A   1      29.771  28.270  23.178  1.00  0.00     0.261 C 
BRANCH   3   4
ATOM      4  O   UNL A   1      30.356  27.599  22.045  1.00  0.00    -0.463 OA
BRANCH   4   5
ATOM      5  C   UNL A   1      31.164  26.549  22.290  1.00  0.00     0.311 C 
ATOM      6  O   UNL A   1      32.084  26.200  21.557  1.00  0.00    -0.252 OA
BRANCH   5   7
ATOM      7  C   UNL A   1      30.860  25.839  23.602  1.00  0.00     0.123 C 
ATOM      8  C   UNL A   1      33.250  26.365  24.638  1.00  0.00     0.032 C 
ATOM      9  C   UNL A   1      31.840  25.802  24.807  1.00  0.00     0.096 C 
ATOM     10  N   UNL A   1      31.867  24.390  25.238  1.00  0.00    -0.336 N 
ATOM     11  C   UNL A   1      30.506  24.366  23.307  1.00  0.00     0.039 C 
ATOM     12  C   UNL A   1      31.379  23.515  24.201  1.00  0.00     0.121 C 
BRANCH  10  13
ATOM     13  C   UNL A   1      32.374  23.817  26.391  1.00  0.00     0.246 C 
ATOM     14  O   UNL A   1      31.742  23.782  27.446  1.00  0.00    -0.270 OA
BRANCH  13  15
ATOM     15  C   UNL A   1      33.674  23.105  26.341  1.00  0.00     0.072 C 
ATOM     16  C   UNL A   1      34.850  23.720  26.145  1.00  0.00     0.014 C 
BRANCH  16  17
ATOM     17  C   UNL A   1      36.152  23.059  25.955  1.00  0.00    -0.023 A 
ATOM     18  C   UNL A   1      36.152  21.746  25.448  1.00  0.00     0.008 A 
ATOM     19  C   UNL A   1      37.382  23.644  26.278  1.00  0.00     0.047 A 
ATOM     20  C   UNL A   1      37.344  21.039  25.269  1.00  0.00     0.004 A 
ATOM     21  C   UNL A   1      38.565  22.932  26.093  1.00  0.00     0.123 A 
ATOM     22  C   UNL A   1      38.558  21.637  25.592  1.00  0.00     0.039 A 
ATOM     23  F   UNL A   1      39.733  23.509  26.404  1.00  0.00    -0.207 F 
ENDBRANCH  16  17
ENDBRANCH  13  15
ENDBRANCH  10  13
ENDBRANCH   5   7
ENDBRANCH   4   5
ENDBRANCH   3   4
ENDBRANCH   2   3
ENDBRANCH   1   2
BRANCH   1  24
ATOM     24  C   UNL A   1      32.426  29.792  25.384  1.00  0.00     0.202 C 
BRANCH  24  25
ATOM     25  C   UNL A   1      32.386  30.565  26.706  1.00  0.00     0.261 C 
BRANCH  25  26
ATOM     26  O   UNL A   1      33.409  30.114  27.608  1.00  0.00    -0.460 OA
BRANCH  26  27
ATOM     27  C   UNL A   1      34.406  31.008  27.797  1.00  0.00     0.338 C 
ATOM     28  O   UNL A   1      34.293  32.227  27.851  1.00  0.00    -0.246 OA
BRANCH  27  29
ATOM     29  C   UNL A   1      35.671  30.317  28.106  1.00  0.00     0.060 A 
ATOM     30  C   UNL A   1      35.744  29.665  29.342  1.00  0.00     0.016 A 
ATOM     31  C   UNL A   1      36.784  30.357  27.260  1.00  0.00     0.016 A 
ATOM     32  C   UNL A   1      36.954  29.145  29.784  1.00  0.00     0.010 A 
ATOM     33  C   UNL A   1      38.001  29.823  27.702  1.00  0.00     0.010 A 
ATOM     34  C   UNL A   1      38.103  29.272  28.992  1.00  0.00    -0.014 A 
BRANCH  34  35
ATOM     35  C   UNL A   1      39.419  28.996  29.619  1.00  0.00     0.031 A 
ATOM     36  C   UNL A   1      39.806  29.757  30.862  1.00  0.00     0.074 A 
ATOM     37  C   UNL A   1      40.206  28.010  29.154  1.00  0.00     0.049 A 
ATOM     38  N   UNL A   1      40.857  29.615  31.627  1.00  0.00    -0.248 NA
ATOM     39  C   UNL A   1      38.885  30.818  31.301  1.00  0.00     0.031 C 
ATOM     40  C   UNL A   1      39.921  27.187  27.979  1.00  0.00     0.029 A 
ATOM     41  N   UNL A   1      41.398  27.522  29.624  1.00  0.00    -0.354 N 
ATOM     42  C   UNL A   1      40.723  30.564  32.636  1.00  0.00     0.074 A 
ATOM     43  C   UNL A   1      39.513  31.306  32.360  1.00  0.00     0.031 C 
ATOM     44  C   UNL A   1      40.907  26.287  27.827  1.00  0.00     0.029 A 
ATOM     45  C   UNL A   1      41.902  26.484  28.879  1.00  0.00     0.049 A 
ATOM     46  H   UNL A   1      41.850  27.881  30.422  1.00  0.00     0.167 HD
ATOM     47  C   UNL A   1      41.525  30.785  33.705  1.00  0.00     0.037 A 
ATOM     48  C   UNL A   1      43.040  25.776  29.027  1.00  0.00     0.037 A 
ATOM     49  C   UNL A   1      42.725  30.037  33.978  1.00  0.00     0.049 A 
ATOM     50  C   UNL A   1      43.938  26.068  30.201  1.00  0.00     0.074 A 
ATOM     51  C   UNL A   1      43.599  30.171  35.041  1.00  0.00     0.029 A 
ATOM     52  N   UNL A   1      43.221  29.019  33.177  1.00  0.00    -0.354 N 
ATOM     53  N   UNL A   1      43.783  26.950  31.161  1.00  0.00    -0.248 NA
ATOM     54  C   UNL A   1      45.159  25.261  30.319  1.00  0.00     0.031 C 
ATOM     55  C   UNL A   1      44.652  29.268  34.857  1.00  0.00     0.029 A 
ATOM     56  C   UNL A   1      44.403  28.530  33.711  1.00  0.00     0.049 A 
ATOM     57  H   UNL A   1      42.797  28.691  32.352  1.00  0.00     0.167 HD
ATOM     58  C   UNL A   1      44.871  26.782  32.012  1.00  0.00     0.074 A 
ATOM     59  C   UNL A   1      45.666  25.704  31.461  1.00  0.00     0.031 C 
ATOM     60  C   UNL A   1      45.183  27.455  33.149  1.00  0.00     0.037 A 
BRANCH  47  61
ATOM     61  C   UNL A   1      41.140  31.895  34.648  1.00  0.00     0.058 A 
ATOM     62  C   UNL A   1      40.409  31.651  35.822  1.00  0.00     0.135 A 
ATOM     63  C   UNL A   1      41.533  33.217  34.385  1.00  0.00     0.135 A 
ATOM     64  F   UNL A   1      39.990  30.410  36.113  1.00  0.00    -0.206 F 
ATOM     65  C   UNL A   1      40.058  32.682  36.688  1.00  0.00     0.059 A 
ATOM     66  C   UNL A   1      41.218  34.259  35.253  1.00  0.00     0.059 A 
ATOM     67  F   UNL A   1      42.230  33.507  33.276  1.00  0.00    -0.206 F 
ATOM     68  C   UNL A   1      40.469  33.985  36.395  1.00  0.00     0.060 A 
BRANCH  68  69
ATOM     69  S   UNL A   1      40.011  35.310  37.531  1.00  0.00     0.124 S 
ATOM     70  O   UNL A   1      40.039  36.473  36.649  1.00  0.00    -0.237 OA
ATOM     71  O   UNL A   1      38.689  34.890  37.984  1.00  0.00    -0.237 OA
ATOM     72  O   UNL A   1      41.061  35.267  38.545  1.00  0.00    -0.744 OA
ENDBRANCH  68  69
ENDBRANCH  47  61
BRANCH  48  73
ATOM     73  C   UNL A   1      43.390  24.718  28.041  1.00  0.00     0.058 A 
ATOM     74  C   UNL A   1      42.897  23.411  28.165  1.00  0.00     0.135 A 
ATOM     75  C   UNL A   1      44.228  25.000  26.949  1.00  0.00     0.135 A 
ATOM     76  F   UNL A   1      42.101  23.089  29.196  1.00  0.00    -0.206 F 
ATOM     77  C   UNL A   1      43.234  22.416  27.252  1.00  0.00     0.059 A 
ATOM     78  C   UNL A   1      44.556  24.029  26.009  1.00  0.00     0.059 A 
ATOM     79  F   UNL A   1      44.715  26.238  26.778  1.00  0.00    -0.206 F 
ATOM     80  C   UNL A   1      44.061  22.736  26.175  1.00  0.00     0.060 A 
BRANCH  80  81
ATOM     81  S   UNL A   1      44.451  21.451  24.967  1.00  0.00     0.124 S 
ATOM     82  O   UNL A   1      43.445  20.442  25.275  1.00  0.00    -0.237 OA
ATOM     83  O   UNL A   1      44.281  22.160  23.703  1.00  0.00    -0.237 OA
ATOM     84  O   UNL A   1      45.828  21.092  25.294  1.00  0.00    -0.744 OA
ENDBRANCH  80  81
ENDBRANCH  48  73
BRANCH  60  85
ATOM     85  C   UNL A   1      46.417  27.019  33.892  1.00  0.00     0.058 A 
ATOM     86  C   UNL A   1      46.377  26.017  34.875  1.00  0.00     0.135 A 
ATOM     87  C   UNL A   1      47.664  27.596  33.598  1.00  0.00     0.135 A 
ATOM     88  F   UNL A   1      45.212  25.433  35.197  1.00  0.00    -0.206 F 
ATOM     89  C   UNL A   1      47.520  25.634  35.570  1.00  0.00     0.059 A 
ATOM     90  C   UNL A   1      48.825  27.205  34.258  1.00  0.00     0.059 A 
ATOM     91  F   UNL A   1      47.764  28.547  32.656  1.00  0.00    -0.206 F 
ATOM     92  C   UNL A   1      48.739  26.237  35.256  1.00  0.00     0.060 A 
BRANCH  92  93
ATOM     93  S   UNL A   1      50.214  25.733  36.165  1.00  0.00     0.124 S 
ATOM     94  O   UNL A   1      50.889  27.011  36.364  1.00  0.00    -0.237 OA
ATOM     95  O   UNL A   1      49.651  25.121  37.364  1.00  0.00    -0.237 OA
ATOM     96  O   UNL A   1      50.878  24.808  35.250  1.00  0.00    -0.744 OA
ENDBRANCH  92  93
ENDBRANCH  60  85
ENDBRANCH  34  35
ENDBRANCH  27  29
ENDBRANCH  26  27
ENDBRANCH  25  26
ENDBRANCH  24  25
ENDBRANCH   1  24
TORSDOF 20
ENDMDL
MODEL 2
REMARK VINA RESULT:     -10.8      3.063      9.831
REMARK SMILES C[C@H]1[C@@H](C(=O)OCCOCCOC(=O)c2ccc(-c3c4nc(c(-c5c(F)cc(S(=O)(=O)[O-])cc5F)c5ccc([nH]5)c(-c5c(F)cc(S(=O)(=O)[O-])cc5F)c5nc(c(-c6c(F)cc(S(=O)(=O)[O-])cc6F)c6ccc3[nH]6)C=C5)C=C4)cc2)CCN1C(=O)/C=C/c1cccc(F)c1
REMARK SMILES IDX 9 1 8 2 7 3 6 4 4 5 5 6 3 7 1 8 2 9 83 10 81 11 82 12 84 13
REMARK SMILES IDX 85 14 86 15 87 16 88 17 89 18 94 19 90 20 92 21 91 22 93 23
REMARK SMILES IDX 10 24 11 25 12 26 13 27 14 28 15 29 16 30 80 31 17 32 79 33
REMARK SMILES IDX 18 34 19 35 20 36 73 37 21 38 78 39 72 40 74 41 22 42 77 43
REMARK SMILES IDX 71 44 70 45 23 47 57 48 36 49 56 50 37 51 40 52 55 53 75 54
REMARK SMILES IDX 38 55 39 56 54 58 76 59 41 60 24 61 25 62 34 63 26 64 27 65
REMARK SMILES IDX 33 66 35 67 28 68 29 69 30 70 31 71 32 72 58 73 59 74 68 75
REMARK SMILES IDX 60 76 61 77 67 78 69 79 62 80 63 81 64 82 65 83 66 84 42 85
REMARK SMILES IDX 43 86 52 87 44 88 45 89 51 90 53 91 46 92 47 93 48 94 49 95
REMARK SMILES IDX 50 96
REMARK H PARENT 74 46 40 57
REMARK Flexibility Score: inf
ROOT
ATOM      1  O   UNL A   1      41.231  21.911  27.611  1.00  0.00    -0.374 OA
ENDROOT
BRANCH   1   2
ATOM      2  C   UNL A   1      40.513  20.890  26.910  1.00  0.00     0.202 C 
BRANCH   2   3
ATOM      3  C   UNL A   1      39.726  21.390  25.692  1.00  0.00     0.261 C 
BRANCH   3   4
ATOM      4  O   UNL A   1      38.604  22.177  26.135  1.00  0.00    -0.463 OA
BRANCH   4   5
ATOM      5  C   UNL A   1      37.418  21.969  25.530  1.00  0.00     0.311 C 
ATOM      6  O   UNL A   1      36.838  20.889  25.501  1.00  0.00    -0.252 OA
BRANCH   5   7
ATOM      7  C   UNL A   1      36.822  23.224  24.908  1.00  0.00     0.123 C 
ATOM      8  C   UNL A   1      34.751  23.273  26.572  1.00  0.00     0.032 C 
ATOM      9  C   UNL A   1      35.552  23.935  25.452  1.00  0.00     0.096 C 
ATOM     10  N   UNL A   1      34.715  24.191  24.263  1.00  0.00    -0.336 N 
ATOM     11  C   UNL A   1      36.545  22.962  23.413  1.00  0.00     0.039 C 
ATOM     12  C   UNL A   1      35.109  23.357  23.155  1.00  0.00     0.121 C 
BRANCH  10  13
ATOM     13  C   UNL A   1      33.597  24.992  24.113  1.00  0.00     0.246 C 
ATOM     14  O   UNL A   1      32.526  24.562  23.689  1.00  0.00    -0.270 OA
BRANCH  13  15
ATOM     15  C   UNL A   1      33.637  26.397  24.588  1.00  0.00     0.072 C 
ATOM     16  C   UNL A   1      33.573  26.744  25.882  1.00  0.00     0.014 C 
BRANCH  16  17
ATOM     17  C   UNL A   1      33.475  28.117  26.406  1.00  0.00    -0.023 A 
ATOM     18  C   UNL A   1      32.230  28.765  26.318  1.00  0.00     0.008 A 
ATOM     19  C   UNL A   1      34.552  28.824  26.955  1.00  0.00     0.047 A 
ATOM     20  C   UNL A   1      32.062  30.079  26.765  1.00  0.00     0.004 A 
ATOM     21  C   UNL A   1      34.375  30.133  27.400  1.00  0.00     0.123 A 
ATOM     22  C   UNL A   1      33.142  30.766  27.310  1.00  0.00     0.039 A 
ATOM     23  F   UNL A   1      35.415  30.793  27.926  1.00  0.00    -0.207 F 
ENDBRANCH  16  17
ENDBRANCH  13  15
ENDBRANCH  10  13
ENDBRANCH   5   7
ENDBRANCH   4   5
ENDBRANCH   3   4
ENDBRANCH   2   3
ENDBRANCH   1   2
BRANCH   1  24
ATOM     24  C   UNL A   1      42.654  21.858  27.536  1.00  0.00     0.202 C 
BRANCH  24  25
ATOM     25  C   UNL A   1      43.302  22.750  26.472  1.00  0.00     0.261 C 
BRANCH  25  26
ATOM     26  O   UNL A   1      43.552  24.071  26.977  1.00  0.00    -0.460 OA
BRANCH  26  27
ATOM     27  C   UNL A   1      42.959  25.054  26.263  1.00  0.00     0.338 C 
ATOM     28  O   UNL A   1      42.892  25.130  25.042  1.00  0.00    -0.246 OA
BRANCH  27  29
ATOM     29  C   UNL A   1      42.234  25.978  27.153  1.00  0.00     0.060 A 
ATOM     30  C   UNL A   1      42.752  27.273  27.267  1.00  0.00     0.016 A 
ATOM     31  C   UNL A   1      41.127  25.589  27.915  1.00  0.00     0.016 A 
ATOM     32  C   UNL A   1      42.236  28.148  28.216  1.00  0.00     0.010 A 
ATOM     33  C   UNL A   1      40.602  26.475  28.863  1.00  0.00     0.010 A 
ATOM     34  C   UNL A   1      41.197  27.734  29.059  1.00  0.00    -0.014 A 
BRANCH  34  35
ATOM     35  C   UNL A   1      40.890  28.563  30.252  1.00  0.00     0.031 A 
ATOM     36  C   UNL A   1      41.761  28.425  31.475  1.00  0.00     0.074 A 
ATOM     37  C   UNL A   1      39.924  29.498  30.206  1.00  0.00     0.049 A 
ATOM     38  N   UNL A   1      41.739  29.111  32.589  1.00  0.00    -0.248 NA
ATOM     39  C   UNL A   1      42.795  27.378  31.437  1.00  0.00     0.031 C 
ATOM     40  C   UNL A   1      39.041  29.742  29.067  1.00  0.00     0.029 A 
ATOM     41  N   UNL A   1      39.538  30.427  31.137  1.00  0.00    -0.354 N 
ATOM     42  C   UNL A   1      42.752  28.580  33.381  1.00  0.00     0.074 A 
ATOM     43  C   UNL A   1      43.340  27.486  32.639  1.00  0.00     0.031 C 
ATOM     44  C   UNL A   1      38.220  30.764  29.363  1.00  0.00     0.029 A 
ATOM     45  C   UNL A   1      38.506  31.231  30.717  1.00  0.00     0.049 A 
ATOM     46  H   UNL A   1      39.960  30.510  32.023  1.00  0.00     0.167 HD
ATOM     47  C   UNL A   1      43.168  28.978  34.607  1.00  0.00     0.037 A 
ATOM     48  C   UNL A   1      37.863  32.229  31.357  1.00  0.00     0.037 A 
ATOM     49  C   UNL A   1      42.583  30.073  35.337  1.00  0.00     0.049 A 
ATOM     50  C   UNL A   1      38.316  32.628  32.738  1.00  0.00     0.074 A 
ATOM     51  C   UNL A   1      42.940  30.567  36.578  1.00  0.00     0.029 A 
ATOM     52  N   UNL A   1      41.515  30.839  34.894  1.00  0.00    -0.354 N 
ATOM     53  N   UNL A   1      39.294  32.134  33.461  1.00  0.00    -0.248 NA
ATOM     54  C   UNL A   1      37.587  33.727  33.383  1.00  0.00     0.031 C 
ATOM     55  C   UNL A   1      42.055  31.600  36.909  1.00  0.00     0.029 A 
ATOM     56  C   UNL A   1      41.184  31.788  35.847  1.00  0.00     0.049 A 
ATOM     57  H   UNL A   1      41.059  30.725  34.028  1.00  0.00     0.167 HD
ATOM     58  C   UNL A   1      39.316  32.882  34.634  1.00  0.00     0.074 A 
ATOM     59  C   UNL A   1      38.264  33.872  34.514  1.00  0.00     0.031 C 
ATOM     60  C   UNL A   1      40.133  32.767  35.712  1.00  0.00     0.037 A 
BRANCH  47  61
ATOM     61  C   UNL A   1      44.297  28.212  35.244  1.00  0.00     0.058 A 
ATOM     62  C   UNL A   1      45.639  28.587  35.072  1.00  0.00     0.135 A 
ATOM     63  C   UNL A   1      44.029  27.101  36.061  1.00  0.00     0.135 A 
ATOM     64  F   UNL A   1      45.955  29.628  34.286  1.00  0.00    -0.206 F 
ATOM     65  C   UNL A   1      46.677  27.874  35.664  1.00  0.00     0.059 A 
ATOM     66  C   UNL A   1      45.049  26.391  36.687  1.00  0.00     0.059 A 
ATOM     67  F   UNL A   1      42.765  26.696  36.257  1.00  0.00    -0.206 F 
ATOM     68  C   UNL A   1      46.371  26.776  36.472  1.00  0.00     0.060 A 
BRANCH  68  69
ATOM     69  S   UNL A   1      47.727  25.865  37.239  1.00  0.00     0.124 S 
ATOM     70  O   UNL A   1      47.502  24.517  36.723  1.00  0.00    -0.237 OA
ATOM     71  O   UNL A   1      48.902  26.554  36.715  1.00  0.00    -0.237 OA
ATOM     72  O   UNL A   1      47.487  26.036  38.669  1.00  0.00    -0.744 OA
ENDBRANCH  68  69
ENDBRANCH  47  61
BRANCH  48  73
ATOM     73  C   UNL A   1      36.727  32.925  30.695  1.00  0.00     0.058 A 
ATOM     74  C   UNL A   1      35.397  32.631  31.025  1.00  0.00     0.135 A 
ATOM     75  C   UNL A   1      36.956  33.907  29.716  1.00  0.00     0.135 A 
ATOM     76  F   UNL A   1      35.125  31.695  31.947  1.00  0.00    -0.206 F 
ATOM     77  C   UNL A   1      34.332  33.271  30.398  1.00  0.00     0.059 A 
ATOM     78  C   UNL A   1      35.909  34.580  29.096  1.00  0.00     0.059 A 
ATOM     79  F   UNL A   1      38.211  34.235  29.373  1.00  0.00    -0.206 F 
ATOM     80  C   UNL A   1      34.599  34.248  29.437  1.00  0.00     0.060 A 
BRANCH  80  81
ATOM     81  S   UNL A   1      33.212  35.110  28.666  1.00  0.00     0.124 S 
ATOM     82  O   UNL A   1      32.430  35.510  29.830  1.00  0.00    -0.237 OA
ATOM     83  O   UNL A   1      33.885  36.187  27.946  1.00  0.00    -0.237 OA
ATOM     84  O   UNL A   1      32.608  34.084  27.820  1.00  0.00    -0.744 OA
ENDBRANCH  80  81
ENDBRANCH  48  73
BRANCH  60  85
ATOM     85  C   UNL A   1      39.946  33.757  36.829  1.00  0.00     0.058 A 
ATOM     86  C   UNL A   1      39.086  33.503  37.910  1.00  0.00     0.135 A 
ATOM     87  C   UNL A   1      40.659  34.967  36.832  1.00  0.00     0.135 A 
ATOM     88  F   UNL A   1      38.379  32.363  37.957  1.00  0.00    -0.206 F 
ATOM     89  C   UNL A   1      38.906  34.433  38.929  1.00  0.00     0.059 A 
ATOM     90  C   UNL A   1      40.519  35.896  37.858  1.00  0.00     0.059 A 
ATOM     91  F   UNL A   1      41.508  35.255  35.833  1.00  0.00    -0.206 F 
ATOM     92  C   UNL A   1      39.625  35.629  38.892  1.00  0.00     0.060 A 
BRANCH  92  93
ATOM     93  S   UNL A   1      39.382  36.827  40.220  1.00  0.00     0.124 S 
ATOM     94  O   UNL A   1      38.893  37.988  39.482  1.00  0.00    -0.237 OA
ATOM     95  O   UNL A   1      38.402  36.159  41.070  1.00  0.00    -0.237 OA
ATOM     96  O   UNL A   1      40.715  36.967  40.799  1.00  0.00    -0.744 OA
ENDBRANCH  92  93
ENDBRANCH  60  85
ENDBRANCH  34  35
ENDBRANCH  27  29
ENDBRANCH  26  27
ENDBRANCH  25  26
ENDBRANCH  24  25
ENDBRANCH   1  24
TORSDOF 20
ENDMDL
MODEL 3
REMARK VINA RESULT:     -10.8      1.804      2.651
REMARK SMILES C[C@H]1[C@@H](C(=O)OCCOCCOC(=O)c2ccc(-c3c4nc(c(-c5c(F)cc(S(=O)(=O)[O-])cc5F)c5ccc([nH]5)c(-c5c(F)cc(S(=O)(=O)[O-])cc5F)c5nc(c(-c6c(F)cc(S(=O)(=O)[O-])cc6F)c6ccc3[nH]6)C=C5)C=C4)cc2)CCN1C(=O)/C=C/c1cccc(F)c1
REMARK SMILES IDX 9 1 8 2 7 3 6 4 4 5 5 6 3 7 1 8 2 9 83 10 81 11 82 12 84 13
REMARK SMILES IDX 85 14 86 15 87 16 88 17 89 18 94 19 90 20 92 21 91 22 93 23
REMARK SMILES IDX 10 24 11 25 12 26 13 27 14 28 15 29 16 30 80 31 17 32 79 33
REMARK SMILES IDX 18 34 19 35 20 36 73 37 21 38 78 39 72 40 74 41 22 42 77 43
REMARK SMILES IDX 71 44 70 45 23 47 57 48 36 49 56 50 37 51 40 52 55 53 75 54
REMARK SMILES IDX 38 55 39 56 54 58 76 59 41 60 24 61 25 62 34 63 26 64 27 65
REMARK SMILES IDX 33 66 35 67 28 68 29 69 30 70 31 71 32 72 58 73 59 74 68 75
REMARK SMILES IDX 60 76 61 77 67 78 69 79 62 80 63 81 64 82 65 83 66 84 42 85
REMARK SMILES IDX 43 86 52 87 44 88 45 89 51 90 53 91 46 92 47 93 48 94 49 95
REMARK SMILES IDX 50 96
REMARK H PARENT 74 46 40 57
REMARK Flexibility Score: inf
ROOT
ATOM      1  O   UNL A   1      31.200  30.365  25.067  1.00  0.00    -0.374 OA
ENDROOT
BRANCH   1   2
ATOM      2  C   UNL A   1      31.355  28.959  24.842  1.00  0.00     0.202 C 
BRANCH   2   3
ATOM      3  C   UNL A   1      31.970  28.597  23.485  1.00  0.00     0.261 C 
BRANCH   3   4
ATOM      4  O   UNL A   1      33.273  28.017  23.688  1.00  0.00    -0.463 OA
BRANCH   4   5
ATOM      5  C   UNL A   1      33.584  26.916  22.976  1.00  0.00     0.311 C 
ATOM      6  O   UNL A   1      33.802  26.913  21.769  1.00  0.00    -0.252 OA
BRANCH   5   7
ATOM      7  C   UNL A   1      33.686  25.653  23.821  1.00  0.00     0.123 C 
ATOM      8  C   UNL A   1      31.193  24.897  23.297  1.00  0.00     0.032 C 
ATOM      9  C   UNL A   1      32.550  24.599  23.932  1.00  0.00     0.096 C 
ATOM     10  N   UNL A   1      32.424  24.319  25.376  1.00  0.00    -0.336 N 
ATOM     11  C   UNL A   1      34.034  26.045  25.272  1.00  0.00     0.039 C 
ATOM     12  C   UNL A   1      33.023  25.365  26.167  1.00  0.00     0.121 C 
BRANCH  10  13
ATOM     13  C   UNL A   1      31.748  23.308  26.035  1.00  0.00     0.246 C 
ATOM     14  O   UNL A   1      31.126  23.498  27.079  1.00  0.00    -0.270 OA
BRANCH  13  15
ATOM     15  C   UNL A   1      31.657  21.965  25.412  1.00  0.00     0.072 C 
ATOM     16  C   UNL A   1      32.566  20.997  25.600  1.00  0.00     0.014 C 
BRANCH  16  17
ATOM     17  C   UNL A   1      32.602  19.696  24.909  1.00  0.00    -0.023 A 
ATOM     18  C   UNL A   1      32.852  18.550  25.684  1.00  0.00     0.008 A 
ATOM     19  C   UNL A   1      32.434  19.539  23.528  1.00  0.00     0.047 A 
ATOM     20  C   UNL A   1      32.932  17.282  25.100  1.00  0.00     0.004 A 
ATOM     21  C   UNL A   1      32.514  18.271  22.954  1.00  0.00     0.123 A 
ATOM     22  C   UNL A   1      32.761  17.143  23.726  1.00  0.00     0.039 A 
ATOM     23  F   UNL A   1      32.347  18.138  21.633  1.00  0.00    -0.207 F 
ENDBRANCH  16  17
ENDBRANCH  13  15
ENDBRANCH  10  13
ENDBRANCH   5   7
ENDBRANCH   4   5
ENDBRANCH   3   4
ENDBRANCH   2   3
ENDBRANCH   1   2
BRANCH   1  24
ATOM     24  C   UNL A   1      31.472  30.836  26.385  1.00  0.00     0.202 C 
BRANCH  24  25
ATOM     25  C   UNL A   1      32.524  30.048  27.173  1.00  0.00     0.261 C 
BRANCH  25  26
ATOM     26  O   UNL A   1      33.855  30.478  26.845  1.00  0.00    -0.460 OA
BRANCH  26  27
ATOM     27  C   UNL A   1      34.504  31.081  27.866  1.00  0.00     0.338 C 
ATOM     28  O   UNL A   1      34.078  31.992  28.566  1.00  0.00    -0.246 OA
BRANCH  27  29
ATOM     29  C   UNL A   1      35.769  30.384  28.160  1.00  0.00     0.060 A 
ATOM     30  C   UNL A   1      35.829  29.676  29.367  1.00  0.00     0.016 A 
ATOM     31  C   UNL A   1      36.894  30.469  27.333  1.00  0.00     0.016 A 
ATOM     32  C   UNL A   1      37.036  29.143  29.801  1.00  0.00     0.010 A 
ATOM     33  C   UNL A   1      38.108  29.922  27.767  1.00  0.00     0.010 A 
ATOM     34  C   UNL A   1      38.195  29.313  29.032  1.00  0.00    -0.014 A 
BRANCH  34  35
ATOM     35  C   UNL A   1      39.505  29.017  29.665  1.00  0.00     0.031 A 
ATOM     36  C   UNL A   1      39.896  29.768  30.912  1.00  0.00     0.074 A 
ATOM     37  C   UNL A   1      40.280  28.021  29.199  1.00  0.00     0.049 A 
ATOM     38  N   UNL A   1      40.942  29.608  31.682  1.00  0.00    -0.248 NA
ATOM     39  C   UNL A   1      38.988  30.840  31.350  1.00  0.00     0.031 C 
ATOM     40  C   UNL A   1      39.988  27.206  28.021  1.00  0.00     0.029 A 
ATOM     41  N   UNL A   1      41.462  27.515  29.674  1.00  0.00    -0.354 N 
ATOM     42  C   UNL A   1      40.816  30.555  32.693  1.00  0.00     0.074 A 
ATOM     43  C   UNL A   1      39.618  31.316  32.414  1.00  0.00     0.031 C 
ATOM     44  C   UNL A   1      40.962  26.293  27.869  1.00  0.00     0.029 A 
ATOM     45  C   UNL A   1      41.955  26.472  28.927  1.00  0.00     0.049 A 
ATOM     46  H   UNL A   1      41.915  27.864  30.475  1.00  0.00     0.167 HD
ATOM     47  C   UNL A   1      41.615  30.761  33.767  1.00  0.00     0.037 A 
ATOM     48  C   UNL A   1      43.081  25.748  29.078  1.00  0.00     0.037 A 
ATOM     49  C   UNL A   1      42.803  29.995  34.043  1.00  0.00     0.049 A 
ATOM     50  C   UNL A   1      43.978  26.023  30.257  1.00  0.00     0.074 A 
ATOM     51  C   UNL A   1      43.674  30.113  35.110  1.00  0.00     0.029 A 
ATOM     52  N   UNL A   1      43.289  28.973  33.241  1.00  0.00    -0.354 N 
ATOM     53  N   UNL A   1      43.831  26.903  31.219  1.00  0.00    -0.248 NA
ATOM     54  C   UNL A   1      45.187  25.197  30.378  1.00  0.00     0.031 C 
ATOM     55  C   UNL A   1      44.715  29.196  34.929  1.00  0.00     0.029 A 
ATOM     56  C   UNL A   1      44.461  28.465  33.779  1.00  0.00     0.049 A 
ATOM     57  H   UNL A   1      42.864  28.654  32.412  1.00  0.00     0.167 HD
ATOM     58  C   UNL A   1      44.912  26.717  32.076  1.00  0.00     0.074 A 
ATOM     59  C   UNL A   1      45.695  25.629  31.524  1.00  0.00     0.031 C 
ATOM     60  C   UNL A   1      45.229  27.381  33.216  1.00  0.00     0.037 A 
BRANCH  47  61
ATOM     61  C   UNL A   1      41.243  31.873  34.711  1.00  0.00     0.058 A 
ATOM     62  C   UNL A   1      40.356  31.671  35.782  1.00  0.00     0.135 A 
ATOM     63  C   UNL A   1      41.801  33.152  34.558  1.00  0.00     0.135 A 
ATOM     64  F   UNL A   1      39.777  30.474  35.965  1.00  0.00    -0.206 F 
ATOM     65  C   UNL A   1      40.017  32.704  36.651  1.00  0.00     0.059 A 
ATOM     66  C   UNL A   1      41.498  34.192  35.433  1.00  0.00     0.059 A 
ATOM     67  F   UNL A   1      42.651  33.402  33.551  1.00  0.00    -0.206 F 
ATOM     68  C   UNL A   1      40.595  33.962  36.469  1.00  0.00     0.060 A 
BRANCH  68  69
ATOM     69  S   UNL A   1      40.150  35.289  37.607  1.00  0.00     0.124 S 
ATOM     70  O   UNL A   1      41.372  35.423  38.394  1.00  0.00    -0.237 OA
ATOM     71  O   UNL A   1      39.858  36.394  36.699  1.00  0.00    -0.237 OA
ATOM     72  O   UNL A   1      38.998  34.751  38.325  1.00  0.00    -0.744 OA
ENDBRANCH  68  69
ENDBRANCH  47  61
BRANCH  48  73
ATOM     73  C   UNL A   1      43.422  24.688  28.091  1.00  0.00     0.058 A 
ATOM     74  C   UNL A   1      44.209  24.964  26.963  1.00  0.00     0.135 A 
ATOM     75  C   UNL A   1      42.965  23.371  28.262  1.00  0.00     0.135 A 
ATOM     76  F   UNL A   1      44.662  26.208  26.750  1.00  0.00    -0.206 F 
ATOM     77  C   UNL A   1      44.517  23.977  26.031  1.00  0.00     0.059 A 
ATOM     78  C   UNL A   1      43.283  22.362  27.359  1.00  0.00     0.059 A 
ATOM     79  F   UNL A   1      42.219  23.051  29.331  1.00  0.00    -0.206 F 
ATOM     80  C   UNL A   1      44.053  22.678  26.240  1.00  0.00     0.060 A 
BRANCH  80  81
ATOM     81  S   UNL A   1      44.502  21.393  25.053  1.00  0.00     0.124 S 
ATOM     82  O   UNL A   1      45.832  21.016  25.516  1.00  0.00    -0.237 OA
ATOM     83  O   UNL A   1      43.448  20.405  25.260  1.00  0.00    -0.237 OA
ATOM     84  O   UNL A   1      44.452  22.090  23.771  1.00  0.00    -0.744 OA
ENDBRANCH  80  81
ENDBRANCH  48  73
BRANCH  60  85
ATOM     85  C   UNL A   1      46.453  26.925  33.964  1.00  0.00     0.058 A 
ATOM     86  C   UNL A   1      47.720  27.479  33.721  1.00  0.00     0.135 A 
ATOM     87  C   UNL A   1      46.351  25.937  34.957  1.00  0.00     0.135 A 
ATOM     88  F   UNL A   1      47.875  28.426  32.782  1.00  0.00    -0.206 F 
ATOM     89  C   UNL A   1      48.849  27.038  34.404  1.00  0.00     0.059 A 
ATOM     90  C   UNL A   1      47.462  25.504  35.674  1.00  0.00     0.059 A 
ATOM     91  F   UNL A   1      45.162  25.384  35.242  1.00  0.00    -0.206 F 
ATOM     92  C   UNL A   1      48.710  26.046  35.377  1.00  0.00     0.060 A 
BRANCH  92  93
ATOM     93  S   UNL A   1      50.182  25.482  36.255  1.00  0.00     0.124 S 
ATOM     94  O   UNL A   1      49.933  24.048  36.354  1.00  0.00    -0.237 OA
ATOM     95  O   UNL A   1      51.258  25.878  35.352  1.00  0.00    -0.237 OA
ATOM     96  O   UNL A   1      50.128  26.217  37.516  1.00  0.00    -0.744 OA
ENDBRANCH  92  93
ENDBRANCH  60  85
ENDBRANCH  34  35
ENDBRANCH  27  29
ENDBRANCH  26  27
ENDBRANCH  25  26
ENDBRANCH  24  25
ENDBRANCH   1  24
TORSDOF 20
ENDMDL
