MODEL 1
REMARK VINA RESULT:     -11.3      0.000      0.000
REMARK SMILES CC(C)CN(C)c1cc2c(cc1Cl)C=C(C(=O)OCCOCCOC(=O)c1ccc(-c3c4nc(c(-c5c(F)cc(S(=O)(=O)[O-])cc5F)c5ccc([nH]5)c(-c5c(F)cc(S(=O)(=O)[O-])cc5F)c5nc(c(-c6c(F)cc(S(=O)(=O)[O-])cc6F)c6ccc3[nH]6)C=C5)C=C4)cc1)[C@@H](C(F)(F)F)O2
REMARK SMILES IDX 21 1 20 2 19 3 18 4 16 5 17 6 15 7 7 8 8 9 12 10 9 11 11 12
REMARK SMILES IDX 13 13 10 14 98 15 14 16 93 17 5 18 6 19 4 20 2 21 1 22 3 23
REMARK SMILES IDX 94 24 95 25 96 26 97 27 22 28 23 29 24 30 25 31 26 32 27 33
REMARK SMILES IDX 28 34 92 35 29 36 91 37 30 38 31 39 32 40 85 41 33 42 90 43
REMARK SMILES IDX 84 44 86 45 34 46 89 47 83 48 82 49 35 51 69 52 48 53 68 54
REMARK SMILES IDX 49 55 52 56 67 57 87 58 50 59 51 60 66 62 88 63 53 64 36 65
REMARK SMILES IDX 37 66 46 67 38 68 39 69 45 70 47 71 40 72 41 73 42 74 43 75
REMARK SMILES IDX 44 76 70 77 71 78 80 79 72 80 73 81 79 82 81 83 74 84 75 85
REMARK SMILES IDX 76 86 77 87 78 88 54 89 55 90 64 91 56 92 57 93 63 94 65 95
REMARK SMILES IDX 58 96 59 97 60 98 61 99 62 100
REMARK H PARENT 86 50 52 61
REMARK Flexibility Score: inf
ROOT
ATOM      1  O   UNL A   1      39.540  21.572  26.635  1.00  0.00    -0.374 OA
ENDROOT
BRANCH   1   2
ATOM      2  C   UNL A   1      38.553  21.361  25.631  1.00  0.00     0.202 C 
BRANCH   2   3
ATOM      3  C   UNL A   1      37.347  22.305  25.563  1.00  0.00     0.261 C 
BRANCH   3   4
ATOM      4  O   UNL A   1      36.605  22.189  24.339  1.00  0.00    -0.460 OA
BRANCH   4   5
ATOM      5  C   UNL A   1      35.426  21.544  24.494  1.00  0.00     0.338 C 
ATOM      6  O   UNL A   1      35.273  20.379  24.831  1.00  0.00    -0.246 OA
BRANCH   5   7
ATOM      7  C   UNL A   1      34.291  22.467  24.344  1.00  0.00     0.087 C 
ATOM      8  C   UNL A   1      31.999  26.847  23.524  1.00  0.00     0.059 A 
ATOM      9  C   UNL A   1      31.596  25.646  24.155  1.00  0.00     0.074 A 
ATOM     10  C   UNL A   1      33.285  26.866  22.940  1.00  0.00     0.065 A 
ATOM     11  C   UNL A   1      32.428  24.518  24.162  1.00  0.00     0.130 A 
ATOM     12  C   UNL A   1      34.036  25.704  22.812  1.00  0.00     0.034 A 
ATOM     13  Cl  UNL A   1      34.082  28.327  22.459  1.00  0.00    -0.082 Cl
ATOM     14  C   UNL A   1      33.605  24.534  23.423  1.00  0.00     0.019 A 
ATOM     15  O   UNL A   1      32.057  23.422  24.904  1.00  0.00    -0.475 OA
ATOM     16  C   UNL A   1      34.473  23.381  23.386  1.00  0.00     0.027 C 
ATOM     17  C   UNL A   1      33.131  22.494  25.300  1.00  0.00     0.316 C 
BRANCH   8  18
ATOM     18  N   UNL A   1      31.169  27.977  23.497  1.00  0.00    -0.373 N 
ATOM     19  C   UNL A   1      31.196  28.815  24.691  1.00  0.00     0.143 C 
BRANCH  18  20
ATOM     20  C   UNL A   1      29.896  27.907  22.741  1.00  0.00     0.119 C 
BRANCH  20  21
ATOM     21  C   UNL A   1      29.038  29.187  22.850  1.00  0.00     0.002 C 
ATOM     22  C   UNL A   1      29.303  30.164  21.700  1.00  0.00     0.009 C 
ATOM     23  C   UNL A   1      27.538  28.884  22.898  1.00  0.00     0.009 C 
ENDBRANCH  20  21
ENDBRANCH  18  20
ENDBRANCH   8  18
BRANCH  17  24
ATOM     24  C   UNL A   1      33.597  22.777  26.736  1.00  0.00     0.430 C 
ATOM     25  F   UNL A   1      34.534  23.753  26.769  1.00  0.00    -0.167 F 
ATOM     26  F   UNL A   1      32.566  23.192  27.509  1.00  0.00    -0.167 F 
ATOM     27  F   UNL A   1      34.128  21.679  27.321  1.00  0.00    -0.167 F 
ENDBRANCH  17  24
ENDBRANCH   5   7
ENDBRANCH   4   5
ENDBRANCH   3   4
ENDBRANCH   2   3
ENDBRANCH   1   2
BRANCH   1  28
ATOM     28  C   UNL A   1      40.902  21.733  26.249  1.00  0.00     0.202 C 
BRANCH  28  29
ATOM     29  C   UNL A   1      41.575  23.108  26.377  1.00  0.00     0.261 C 
BRANCH  29  30
ATOM     30  O   UNL A   1      40.652  24.207  26.414  1.00  0.00    -0.460 OA
BRANCH  30  31
ATOM     31  C   UNL A   1      41.216  25.427  26.205  1.00  0.00     0.338 C 
ATOM     32  O   UNL A   1      41.587  25.895  25.144  1.00  0.00    -0.246 OA
BRANCH  31  33
ATOM     33  C   UNL A   1      41.143  26.212  27.451  1.00  0.00     0.060 A 
ATOM     34  C   UNL A   1      42.088  27.198  27.729  1.00  0.00     0.016 A 
ATOM     35  C   UNL A   1      40.070  25.982  28.321  1.00  0.00     0.016 A 
ATOM     36  C   UNL A   1      41.946  27.969  28.885  1.00  0.00     0.010 A 
ATOM     37  C   UNL A   1      39.932  26.751  29.476  1.00  0.00     0.010 A 
ATOM     38  C   UNL A   1      40.860  27.761  29.759  1.00  0.00    -0.014 A 
BRANCH  38  39
ATOM     39  C   UNL A   1      40.645  28.677  30.906  1.00  0.00     0.031 A 
ATOM     40  C   UNL A   1      41.468  28.570  32.155  1.00  0.00     0.074 A 
ATOM     41  C   UNL A   1      39.682  29.615  30.806  1.00  0.00     0.049 A 
ATOM     42  N   UNL A   1      41.457  29.340  33.213  1.00  0.00    -0.248 NA
ATOM     43  C   UNL A   1      42.423  27.453  32.232  1.00  0.00     0.031 C 
ATOM     44  C   UNL A   1      38.793  29.783  29.655  1.00  0.00     0.029 A 
ATOM     45  N   UNL A   1      39.296  30.605  31.673  1.00  0.00    -0.354 N 
ATOM     46  C   UNL A   1      42.417  28.821  34.072  1.00  0.00     0.074 A 
ATOM     47  C   UNL A   1      42.951  27.635  33.436  1.00  0.00     0.031 C 
ATOM     48  C   UNL A   1      37.994  30.839  29.870  1.00  0.00     0.029 A 
ATOM     49  C   UNL A   1      38.287  31.401  31.185  1.00  0.00     0.049 A 
ATOM     50  H   UNL A   1      39.703  30.733  32.561  1.00  0.00     0.167 HD
ATOM     51  C   UNL A   1      42.827  29.306  35.269  1.00  0.00     0.037 A 
ATOM     52  C   UNL A   1      37.673  32.469  31.730  1.00  0.00     0.037 A 
ATOM     53  C   UNL A   1      42.274  30.479  35.900  1.00  0.00     0.049 A 
ATOM     54  C   UNL A   1      38.113  32.956  33.084  1.00  0.00     0.074 A 
ATOM     55  C   UNL A   1      42.647  31.067  37.097  1.00  0.00     0.029 A 
ATOM     56  N   UNL A   1      41.226  31.236  35.396  1.00  0.00    -0.354 N 
ATOM     57  N   UNL A   1      39.075  32.499  33.850  1.00  0.00    -0.248 NA
ATOM     58  C   UNL A   1      37.389  34.103  33.646  1.00  0.00     0.031 C 
ATOM     59  C   UNL A   1      41.789  32.142  37.345  1.00  0.00     0.029 A 
ATOM     60  C   UNL A   1      40.918  32.264  36.274  1.00  0.00     0.049 A 
ATOM     61  H   UNL A   1      40.767  31.067  34.541  1.00  0.00     0.167 HD
ATOM     62  C   UNL A   1      39.083  33.314  34.976  1.00  0.00     0.074 A 
ATOM     63  C   UNL A   1      38.045  34.305  34.782  1.00  0.00     0.031 C 
ATOM     64  C   UNL A   1      39.878  33.245  36.074  1.00  0.00     0.037 A 
BRANCH  51  65
ATOM     65  C   UNL A   1      43.940  28.581  35.978  1.00  0.00     0.058 A 
ATOM     66  C   UNL A   1      45.280  28.967  35.819  1.00  0.00     0.135 A 
ATOM     67  C   UNL A   1      43.661  27.544  36.884  1.00  0.00     0.135 A 
ATOM     68  F   UNL A   1      45.605  29.945  34.959  1.00  0.00    -0.206 F 
ATOM     69  C   UNL A   1      46.306  28.340  36.519  1.00  0.00     0.059 A 
ATOM     70  C   UNL A   1      44.669  26.921  37.615  1.00  0.00     0.059 A 
ATOM     71  F   UNL A   1      42.397  27.135  37.077  1.00  0.00    -0.206 F 
ATOM     72  C   UNL A   1      45.990  27.321  37.419  1.00  0.00     0.060 A 
BRANCH  72  73
ATOM     73  S   UNL A   1      47.336  26.534  38.328  1.00  0.00     0.124 S 
ATOM     74  O   UNL A   1      48.088  25.902  37.248  1.00  0.00    -0.237 OA
ATOM     75  O   UNL A   1      47.984  27.673  38.969  1.00  0.00    -0.237 OA
ATOM     76  O   UNL A   1      46.647  25.616  39.231  1.00  0.00    -0.744 OA
ENDBRANCH  72  73
ENDBRANCH  51  65
BRANCH  52  77
ATOM     77  C   UNL A   1      36.597  33.165  30.976  1.00  0.00     0.058 A 
ATOM     78  C   UNL A   1      35.245  32.885  31.223  1.00  0.00     0.135 A 
ATOM     79  C   UNL A   1      36.896  34.144  30.016  1.00  0.00     0.135 A 
ATOM     80  F   UNL A   1      34.908  31.952  32.127  1.00  0.00    -0.206 F 
ATOM     81  C   UNL A   1      34.228  33.541  30.538  1.00  0.00     0.059 A 
ATOM     82  C   UNL A   1      35.897  34.835  29.338  1.00  0.00     0.059 A 
ATOM     83  F   UNL A   1      38.174  34.461  29.753  1.00  0.00    -0.206 F 
ATOM     84  C   UNL A   1      34.564  34.521  29.603  1.00  0.00     0.060 A 
BRANCH  84  85
ATOM     85  S   UNL A   1      33.232  35.403  28.761  1.00  0.00     0.124 S 
ATOM     86  O   UNL A   1      33.977  36.281  27.867  1.00  0.00    -0.237 OA
ATOM     87  O   UNL A   1      32.503  34.311  28.125  1.00  0.00    -0.237 OA
ATOM     88  O   UNL A   1      32.525  36.066  29.853  1.00  0.00    -0.744 OA
ENDBRANCH  84  85
ENDBRANCH  52  77
BRANCH  64  89
ATOM     89  C   UNL A   1      39.666  34.270  37.156  1.00  0.00     0.058 A 
ATOM     90  C   UNL A   1      38.944  33.969  38.321  1.00  0.00     0.135 A 
ATOM     91  C   UNL A   1      40.252  35.543  37.060  1.00  0.00     0.135 A 
ATOM     92  F   UNL A   1      38.356  32.770  38.461  1.00  0.00    -0.206 F 
ATOM     93  C   UNL A   1      38.799  34.896  39.347  1.00  0.00     0.059 A 
ATOM     94  C   UNL A   1      40.145  36.476  38.087  1.00  0.00     0.059 A 
ATOM     95  F   UNL A   1      40.960  35.882  35.972  1.00  0.00    -0.206 F 
ATOM     96  C   UNL A   1      39.410  36.146  39.224  1.00  0.00     0.060 A 
BRANCH  96  97
ATOM     97  S   UNL A   1      39.251  37.320  40.587  1.00  0.00     0.124 S 
ATOM     98  O   UNL A   1      38.284  38.270  40.047  1.00  0.00    -0.237 OA
ATOM     99  O   UNL A   1      38.768  36.471  41.672  1.00  0.00    -0.237 OA
ATOM    100  O   UNL A   1      40.607  37.834  40.756  1.00  0.00    -0.744 OA
ENDBRANCH  96  97
ENDBRANCH  64  89
ENDBRANCH  38  39
ENDBRANCH  31  33
ENDBRANCH  30  31
ENDBRANCH  29  30
ENDBRANCH  28  29
ENDBRANCH   1  28
TORSDOF 21
ENDMDL
MODEL 2
REMARK VINA RESULT:     -10.5      0.834      8.119
REMARK SMILES CC(C)CN(C)c1cc2c(cc1Cl)C=C(C(=O)OCCOCCOC(=O)c1ccc(-c3c4nc(c(-c5c(F)cc(S(=O)(=O)[O-])cc5F)c5ccc([nH]5)c(-c5c(F)cc(S(=O)(=O)[O-])cc5F)c5nc(c(-c6c(F)cc(S(=O)(=O)[O-])cc6F)c6ccc3[nH]6)C=C5)C=C4)cc1)[C@@H](C(F)(F)F)O2
REMARK SMILES IDX 21 1 20 2 19 3 18 4 16 5 17 6 15 7 7 8 8 9 12 10 9 11 11 12
REMARK SMILES IDX 13 13 10 14 98 15 14 16 93 17 5 18 6 19 4 20 2 21 1 22 3 23
REMARK SMILES IDX 94 24 95 25 96 26 97 27 22 28 23 29 24 30 25 31 26 32 27 33
REMARK SMILES IDX 28 34 92 35 29 36 91 37 30 38 31 39 32 40 85 41 33 42 90 43
REMARK SMILES IDX 84 44 86 45 34 46 89 47 83 48 82 49 35 51 69 52 48 53 68 54
REMARK SMILES IDX 49 55 52 56 67 57 87 58 50 59 51 60 66 62 88 63 53 64 36 65
REMARK SMILES IDX 37 66 46 67 38 68 39 69 45 70 47 71 40 72 41 73 42 74 43 75
REMARK SMILES IDX 44 76 70 77 71 78 80 79 72 80 73 81 79 82 81 83 74 84 75 85
REMARK SMILES IDX 76 86 77 87 78 88 54 89 55 90 64 91 56 92 57 93 63 94 65 95
REMARK SMILES IDX 58 96 59 97 60 98 61 99 62 100
REMARK H PARENT 86 50 52 61
REMARK Flexibility Score: inf
ROOT
ATOM      1  O   UNL A   1      38.839  22.076  25.797  1.00  0.00    -0.374 OA
ENDROOT
BRANCH   1   2
ATOM      2  C   UNL A   1      38.009  21.119  25.148  1.00  0.00     0.202 C 
BRANCH   2   3
ATOM      3  C   UNL A   1      36.512  21.087  25.479  1.00  0.00     0.261 C 
BRANCH   3   4
ATOM      4  O   UNL A   1      35.685  21.572  24.410  1.00  0.00    -0.460 OA
BRANCH   4   5
ATOM      5  C   UNL A   1      34.412  21.120  24.478  1.00  0.00     0.338 C 
ATOM      6  O   UNL A   1      34.059  19.963  24.659  1.00  0.00    -0.246 OA
BRANCH   5   7
ATOM      7  C   UNL A   1      33.450  22.233  24.453  1.00  0.00     0.087 C 
ATOM      8  C   UNL A   1      31.884  26.947  23.799  1.00  0.00     0.059 A 
ATOM      9  C   UNL A   1      31.366  25.846  24.521  1.00  0.00     0.074 A 
ATOM     10  C   UNL A   1      33.058  26.727  23.045  1.00  0.00     0.065 A 
ATOM     11  C   UNL A   1      31.976  24.585  24.454  1.00  0.00     0.130 A 
ATOM     12  C   UNL A   1      33.565  25.447  22.857  1.00  0.00     0.034 A 
ATOM     13  Cl  UNL A   1      34.028  28.014  22.410  1.00  0.00    -0.082 Cl
ATOM     14  C   UNL A   1      33.022  24.380  23.561  1.00  0.00     0.019 A 
ATOM     15  O   UNL A   1      31.523  23.582  25.277  1.00  0.00    -0.475 OA
ATOM     16  C   UNL A   1      33.656  23.088  23.448  1.00  0.00     0.027 C 
ATOM     17  C   UNL A   1      32.458  22.479  25.555  1.00  0.00     0.316 C 
BRANCH   8  18
ATOM     18  N   UNL A   1      31.274  28.209  23.845  1.00  0.00    -0.373 N 
ATOM     19  C   UNL A   1      30.366  28.517  22.745  1.00  0.00     0.143 C 
BRANCH  18  20
ATOM     20  C   UNL A   1      32.019  29.338  24.451  1.00  0.00     0.119 C 
BRANCH  20  21
ATOM     21  C   UNL A   1      31.884  29.416  25.989  1.00  0.00     0.002 C 
ATOM     22  C   UNL A   1      33.098  28.819  26.709  1.00  0.00     0.009 C 
ATOM     23  C   UNL A   1      31.677  30.849  26.486  1.00  0.00     0.009 C 
ENDBRANCH  20  21
ENDBRANCH  18  20
ENDBRANCH   8  18
BRANCH  17  24
ATOM     24  C   UNL A   1      33.164  22.686  26.905  1.00  0.00     0.430 C 
ATOM     25  F   UNL A   1      32.374  23.348  27.780  1.00  0.00    -0.167 F 
ATOM     26  F   UNL A   1      33.480  21.500  27.475  1.00  0.00    -0.167 F 
ATOM     27  F   UNL A   1      34.311  23.392  26.772  1.00  0.00    -0.167 F 
ENDBRANCH  17  24
ENDBRANCH   5   7
ENDBRANCH   4   5
ENDBRANCH   3   4
ENDBRANCH   2   3
ENDBRANCH   1   2
BRANCH   1  28
ATOM     28  C   UNL A   1      39.962  21.628  26.550  1.00  0.00     0.202 C 
BRANCH  28  29
ATOM     29  C   UNL A   1      41.330  22.297  26.351  1.00  0.00     0.261 C 
BRANCH  29  30
ATOM     30  O   UNL A   1      41.577  23.395  27.243  1.00  0.00    -0.460 OA
BRANCH  30  31
ATOM     31  C   UNL A   1      41.716  24.601  26.630  1.00  0.00     0.338 C 
ATOM     32  O   UNL A   1      41.860  24.810  25.439  1.00  0.00    -0.246 OA
BRANCH  31  33
ATOM     33  C   UNL A   1      41.472  25.672  27.612  1.00  0.00     0.060 A 
ATOM     34  C   UNL A   1      40.292  25.707  28.352  1.00  0.00     0.016 A 
ATOM     35  C   UNL A   1      42.480  26.623  27.826  1.00  0.00     0.016 A 
ATOM     36  C   UNL A   1      40.127  26.697  29.323  1.00  0.00     0.010 A 
ATOM     37  C   UNL A   1      42.311  27.612  28.794  1.00  0.00     0.010 A 
ATOM     38  C   UNL A   1      41.139  27.647  29.561  1.00  0.00    -0.014 A 
BRANCH  38  39
ATOM     39  C   UNL A   1      41.010  28.604  30.688  1.00  0.00     0.031 A 
ATOM     40  C   UNL A   1      39.966  29.681  30.681  1.00  0.00     0.074 A 
ATOM     41  C   UNL A   1      41.860  28.489  31.728  1.00  0.00     0.049 A 
ATOM     42  N   UNL A   1      39.673  30.544  31.619  1.00  0.00    -0.248 NA
ATOM     43  C   UNL A   1      39.148  29.810  29.465  1.00  0.00     0.031 C 
ATOM     44  C   UNL A   1      42.941  27.506  31.821  1.00  0.00     0.029 A 
ATOM     45  N   UNL A   1      41.945  29.191  32.902  1.00  0.00    -0.354 N 
ATOM     46  C   UNL A   1      38.622  31.305  31.122  1.00  0.00     0.074 A 
ATOM     47  C   UNL A   1      38.368  30.838  29.775  1.00  0.00     0.031 C 
ATOM     48  C   UNL A   1      43.555  27.642  33.006  1.00  0.00     0.029 A 
ATOM     49  C   UNL A   1      42.936  28.740  33.742  1.00  0.00     0.049 A 
ATOM     50  H   UNL A   1      41.353  29.947  33.123  1.00  0.00     0.167 HD
ATOM     51  C   UNL A   1      37.923  32.284  31.744  1.00  0.00     0.037 A 
ATOM     52  C   UNL A   1      43.301  29.159  34.970  1.00  0.00     0.037 A 
ATOM     53  C   UNL A   1      38.199  32.753  33.080  1.00  0.00     0.049 A 
ATOM     54  C   UNL A   1      42.540  30.284  35.617  1.00  0.00     0.074 A 
ATOM     55  C   UNL A   1      37.524  33.718  33.808  1.00  0.00     0.029 A 
ATOM     56  N   UNL A   1      39.235  32.302  33.885  1.00  0.00    -0.354 N 
ATOM     57  N   UNL A   1      41.500  30.942  35.163  1.00  0.00    -0.248 NA
ATOM     58  C   UNL A   1      42.999  30.721  36.942  1.00  0.00     0.031 C 
ATOM     59  C   UNL A   1      38.186  33.892  35.027  1.00  0.00     0.029 A 
ATOM     60  C   UNL A   1      39.238  32.993  35.087  1.00  0.00     0.049 A 
ATOM     61  H   UNL A   1      39.875  31.595  33.639  1.00  0.00     0.167 HD
ATOM     62  C   UNL A   1      41.169  31.859  36.155  1.00  0.00     0.074 A 
ATOM     63  C   UNL A   1      42.106  31.657  37.241  1.00  0.00     0.031 C 
ATOM     64  C   UNL A   1      40.179  32.787  36.162  1.00  0.00     0.037 A 
BRANCH  51  65
ATOM     65  C   UNL A   1      36.779  32.916  30.998  1.00  0.00     0.058 A 
ATOM     66  C   UNL A   1      35.448  32.718  31.400  1.00  0.00     0.135 A 
ATOM     67  C   UNL A   1      37.014  33.787  29.921  1.00  0.00     0.135 A 
ATOM     68  F   UNL A   1      35.164  31.888  32.415  1.00  0.00    -0.206 F 
ATOM     69  C   UNL A   1      34.391  33.347  30.750  1.00  0.00     0.059 A 
ATOM     70  C   UNL A   1      35.973  34.448  29.274  1.00  0.00     0.059 A 
ATOM     71  F   UNL A   1      38.267  34.014  29.496  1.00  0.00    -0.206 F 
ATOM     72  C   UNL A   1      34.663  34.214  29.691  1.00  0.00     0.060 A 
BRANCH  72  73
ATOM     73  S   UNL A   1      33.276  35.033  28.875  1.00  0.00     0.124 S 
ATOM     74  O   UNL A   1      33.924  36.214  28.315  1.00  0.00    -0.237 OA
ATOM     75  O   UNL A   1      32.849  34.026  27.910  1.00  0.00    -0.237 OA
ATOM     76  O   UNL A   1      32.342  35.290  29.967  1.00  0.00    -0.744 OA
ENDBRANCH  72  73
ENDBRANCH  51  65
BRANCH  52  77
ATOM     77  C   UNL A   1      44.422  28.484  35.676  1.00  0.00     0.058 A 
ATOM     78  C   UNL A   1      44.186  27.406  36.540  1.00  0.00     0.135 A 
ATOM     79  C   UNL A   1      45.753  28.884  35.480  1.00  0.00     0.135 A 
ATOM     80  F   UNL A   1      42.930  26.990  36.766  1.00  0.00    -0.206 F 
ATOM     81  C   UNL A   1      45.226  26.754  37.194  1.00  0.00     0.059 A 
ATOM     82  C   UNL A   1      46.813  28.230  36.099  1.00  0.00     0.059 A 
ATOM     83  F   UNL A   1      46.035  29.902  34.650  1.00  0.00    -0.206 F 
ATOM     84  C   UNL A   1      46.538  27.169  36.959  1.00  0.00     0.060 A 
BRANCH  84  85
ATOM     85  S   UNL A   1      47.882  26.277  37.773  1.00  0.00     0.124 S 
ATOM     86  O   UNL A   1      47.275  25.931  39.052  1.00  0.00    -0.237 OA
ATOM     87  O   UNL A   1      48.109  25.168  36.851  1.00  0.00    -0.237 OA
ATOM     88  O   UNL A   1      48.956  27.265  37.829  1.00  0.00    -0.744 OA
ENDBRANCH  84  85
ENDBRANCH  52  77
BRANCH  64  89
ATOM     89  C   UNL A   1      40.048  33.658  37.383  1.00  0.00     0.058 A 
ATOM     90  C   UNL A   1      40.742  34.873  37.497  1.00  0.00     0.135 A 
ATOM     91  C   UNL A   1      39.162  33.312  38.417  1.00  0.00     0.135 A 
ATOM     92  F   UNL A   1      41.607  35.248  36.542  1.00  0.00    -0.206 F 
ATOM     93  C   UNL A   1      40.575  35.706  38.598  1.00  0.00     0.059 A 
ATOM     94  C   UNL A   1      38.956  34.144  39.513  1.00  0.00     0.059 A 
ATOM     95  F   UNL A   1      38.466  32.166  38.356  1.00  0.00    -0.206 F 
ATOM     96  C   UNL A   1      39.673  35.336  39.598  1.00  0.00     0.060 A 
BRANCH  96  97
ATOM     97  S   UNL A   1      39.433  36.454  40.996  1.00  0.00     0.124 S 
ATOM     98  O   UNL A   1      38.078  36.114  41.417  1.00  0.00    -0.237 OA
ATOM     99  O   UNL A   1      40.501  36.048  41.904  1.00  0.00    -0.237 OA
ATOM    100  O   UNL A   1      39.590  37.780  40.404  1.00  0.00    -0.744 OA
ENDBRANCH  96  97
ENDBRANCH  64  89
ENDBRANCH  38  39
ENDBRANCH  31  33
ENDBRANCH  30  31
ENDBRANCH  29  30
ENDBRANCH  28  29
ENDBRANCH   1  28
TORSDOF 21
ENDMDL
MODEL 3
REMARK VINA RESULT:     -10.3      1.356      8.075
REMARK SMILES CC(C)CN(C)c1cc2c(cc1Cl)C=C(C(=O)OCCOCCOC(=O)c1ccc(-c3c4nc(c(-c5c(F)cc(S(=O)(=O)[O-])cc5F)c5ccc([nH]5)c(-c5c(F)cc(S(=O)(=O)[O-])cc5F)c5nc(c(-c6c(F)cc(S(=O)(=O)[O-])cc6F)c6ccc3[nH]6)C=C5)C=C4)cc1)[C@@H](C(F)(F)F)O2
REMARK SMILES IDX 21 1 20 2 19 3 18 4 16 5 17 6 15 7 7 8 8 9 12 10 9 11 11 12
REMARK SMILES IDX 13 13 10 14 98 15 14 16 93 17 5 18 6 19 4 20 2 21 1 22 3 23
REMARK SMILES IDX 94 24 95 25 96 26 97 27 22 28 23 29 24 30 25 31 26 32 27 33
REMARK SMILES IDX 28 34 92 35 29 36 91 37 30 38 31 39 32 40 85 41 33 42 90 43
REMARK SMILES IDX 84 44 86 45 34 46 89 47 83 48 82 49 35 51 69 52 48 53 68 54
REMARK SMILES IDX 49 55 52 56 67 57 87 58 50 59 51 60 66 62 88 63 53 64 36 65
REMARK SMILES IDX 37 66 46 67 38 68 39 69 45 70 47 71 40 72 41 73 42 74 43 75
REMARK SMILES IDX 44 76 70 77 71 78 80 79 72 80 73 81 79 82 81 83 74 84 75 85
REMARK SMILES IDX 76 86 77 87 78 88 54 89 55 90 64 91 56 92 57 93 63 94 65 95
REMARK SMILES IDX 58 96 59 97 60 98 61 99 62 100
REMARK H PARENT 86 50 52 61
REMARK Flexibility Score: inf
ROOT
ATOM      1  O   UNL A   1      39.490  21.553  26.918  1.00  0.00    -0.374 OA
ENDROOT
BRANCH   1   2
ATOM      2  C   UNL A   1      38.913  21.412  25.624  1.00  0.00     0.202 C 
BRANCH   2   3
ATOM      3  C   UNL A   1      37.883  22.446  25.152  1.00  0.00     0.261 C 
BRANCH   3   4
ATOM      4  O   UNL A   1      36.713  21.854  24.567  1.00  0.00    -0.460 OA
BRANCH   4   5
ATOM      5  C   UNL A   1      35.597  22.042  25.309  1.00  0.00     0.338 C 
ATOM      6  O   UNL A   1      35.408  21.651  26.452  1.00  0.00    -0.246 OA
BRANCH   5   7
ATOM      7  C   UNL A   1      34.645  22.928  24.621  1.00  0.00     0.087 C 
ATOM      8  C   UNL A   1      31.053  26.399  24.220  1.00  0.00     0.059 A 
ATOM      9  C   UNL A   1      31.523  25.386  23.351  1.00  0.00     0.074 A 
ATOM     10  C   UNL A   1      31.724  26.549  25.455  1.00  0.00     0.065 A 
ATOM     11  C   UNL A   1      32.630  24.597  23.691  1.00  0.00     0.130 A 
ATOM     12  C   UNL A   1      32.911  25.875  25.717  1.00  0.00     0.034 A 
ATOM     13  Cl  UNL A   1      31.078  27.463  26.777  1.00  0.00    -0.082 Cl
ATOM     14  C   UNL A   1      33.361  24.902  24.834  1.00  0.00     0.019 A 
ATOM     15  O   UNL A   1      32.965  23.537  22.883  1.00  0.00    -0.475 OA
ATOM     16  C   UNL A   1      34.521  24.126  25.201  1.00  0.00     0.027 C 
ATOM     17  C   UNL A   1      33.765  22.462  23.495  1.00  0.00     0.316 C 
BRANCH   8  18
ATOM     18  N   UNL A   1      29.957  27.206  23.885  1.00  0.00    -0.373 N 
ATOM     19  C   UNL A   1      28.659  26.540  23.863  1.00  0.00     0.143 C 
BRANCH  18  20
ATOM     20  C   UNL A   1      30.163  28.328  22.940  1.00  0.00     0.119 C 
BRANCH  20  21
ATOM     21  C   UNL A   1      29.115  29.456  23.076  1.00  0.00     0.002 C 
ATOM     22  C   UNL A   1      29.666  30.673  23.828  1.00  0.00     0.009 C 
ATOM     23  C   UNL A   1      28.576  29.921  21.721  1.00  0.00     0.009 C 
ENDBRANCH  20  21
ENDBRANCH  18  20
ENDBRANCH   8  18
BRANCH  17  24
ATOM     24  C   UNL A   1      32.868  21.294  23.935  1.00  0.00     0.430 C 
ATOM     25  F   UNL A   1      32.272  21.548  25.122  1.00  0.00    -0.167 F 
ATOM     26  F   UNL A   1      31.881  21.074  23.035  1.00  0.00    -0.167 F 
ATOM     27  F   UNL A   1      33.565  20.142  24.064  1.00  0.00    -0.167 F 
ENDBRANCH  17  24
ENDBRANCH   5   7
ENDBRANCH   4   5
ENDBRANCH   3   4
ENDBRANCH   2   3
ENDBRANCH   1   2
BRANCH   1  28
ATOM     28  C   UNL A   1      40.903  21.450  27.065  1.00  0.00     0.202 C 
BRANCH  28  29
ATOM     29  C   UNL A   1      41.821  22.428  26.317  1.00  0.00     0.261 C 
BRANCH  29  30
ATOM     30  O   UNL A   1      41.372  23.791  26.351  1.00  0.00    -0.460 OA
BRANCH  30  31
ATOM     31  C   UNL A   1      42.369  24.715  26.407  1.00  0.00     0.338 C 
ATOM     32  O   UNL A   1      43.322  24.817  25.657  1.00  0.00    -0.246 OA
BRANCH  31  33
ATOM     33  C   UNL A   1      42.030  25.729  27.422  1.00  0.00     0.060 A 
ATOM     34  C   UNL A   1      40.975  25.526  28.309  1.00  0.00     0.016 A 
ATOM     35  C   UNL A   1      42.829  26.877  27.509  1.00  0.00     0.016 A 
ATOM     36  C   UNL A   1      40.729  26.478  29.301  1.00  0.00     0.010 A 
ATOM     37  C   UNL A   1      42.579  27.827  28.498  1.00  0.00     0.010 A 
ATOM     38  C   UNL A   1      41.536  27.627  29.412  1.00  0.00    -0.014 A 
BRANCH  38  39
ATOM     39  C   UNL A   1      41.351  28.557  30.553  1.00  0.00     0.031 A 
ATOM     40  C   UNL A   1      40.273  29.600  30.543  1.00  0.00     0.074 A 
ATOM     41  C   UNL A   1      42.182  28.450  31.610  1.00  0.00     0.049 A 
ATOM     42  N   UNL A   1      39.933  30.435  31.490  1.00  0.00    -0.248 NA
ATOM     43  C   UNL A   1      39.479  29.727  29.312  1.00  0.00     0.031 C 
ATOM     44  C   UNL A   1      43.292  27.500  31.709  1.00  0.00     0.029 A 
ATOM     45  N   UNL A   1      42.219  29.131  32.798  1.00  0.00    -0.354 N 
ATOM     46  C   UNL A   1      38.869  31.171  30.984  1.00  0.00     0.074 A 
ATOM     47  C   UNL A   1      38.659  30.722  29.624  1.00  0.00     0.031 C 
ATOM     48  C   UNL A   1      43.875  27.632  32.910  1.00  0.00     0.029 A 
ATOM     49  C   UNL A   1      43.205  28.696  33.652  1.00  0.00     0.049 A 
ATOM     50  H   UNL A   1      41.598  29.863  33.020  1.00  0.00     0.167 HD
ATOM     51  C   UNL A   1      38.125  32.116  31.609  1.00  0.00     0.037 A 
ATOM     52  C   UNL A   1      43.530  29.102  34.895  1.00  0.00     0.037 A 
ATOM     53  C   UNL A   1      38.356  32.567  32.960  1.00  0.00     0.049 A 
ATOM     54  C   UNL A   1      42.719  30.189  35.546  1.00  0.00     0.074 A 
ATOM     55  C   UNL A   1      37.635  33.496  33.690  1.00  0.00     0.029 A 
ATOM     56  N   UNL A   1      39.389  32.134  33.779  1.00  0.00    -0.354 N 
ATOM     57  N   UNL A   1      41.668  30.823  35.082  1.00  0.00    -0.248 NA
ATOM     58  C   UNL A   1      43.134  30.615  36.888  1.00  0.00     0.031 C 
ATOM     59  C   UNL A   1      38.264  33.667  34.927  1.00  0.00     0.029 A 
ATOM     60  C   UNL A   1      39.343  32.801  34.993  1.00  0.00     0.049 A 
ATOM     61  H   UNL A   1      40.057  31.453  33.533  1.00  0.00     0.167 HD
ATOM     62  C   UNL A   1      41.286  31.709  36.083  1.00  0.00     0.074 A 
ATOM     63  C   UNL A   1      42.205  31.516  37.185  1.00  0.00     0.031 C 
ATOM     64  C   UNL A   1      40.267  32.605  36.085  1.00  0.00     0.037 A 
BRANCH  51  65
ATOM     65  C   UNL A   1      36.977  32.725  30.849  1.00  0.00     0.058 A 
ATOM     66  C   UNL A   1      37.177  33.786  29.952  1.00  0.00     0.135 A 
ATOM     67  C   UNL A   1      35.680  32.195  30.957  1.00  0.00     0.135 A 
ATOM     68  F   UNL A   1      38.393  34.337  29.817  1.00  0.00    -0.206 F 
ATOM     69  C   UNL A   1      36.129  34.313  29.203  1.00  0.00     0.059 A 
ATOM     70  C   UNL A   1      34.623  32.689  30.197  1.00  0.00     0.059 A 
ATOM     71  F   UNL A   1      35.432  31.179  31.798  1.00  0.00    -0.206 F 
ATOM     72  C   UNL A   1      34.857  33.754  29.329  1.00  0.00     0.060 A 
BRANCH  72  73
ATOM     73  S   UNL A   1      33.517  34.443  28.333  1.00  0.00     0.124 S 
ATOM     74  O   UNL A   1      32.665  35.035  29.360  1.00  0.00    -0.237 OA
ATOM     75  O   UNL A   1      34.224  35.386  27.475  1.00  0.00    -0.237 OA
ATOM     76  O   UNL A   1      32.961  33.275  27.655  1.00  0.00    -0.744 OA
ENDBRANCH  72  73
ENDBRANCH  51  65
BRANCH  52  77
ATOM     77  C   UNL A   1      44.656  28.450  35.613  1.00  0.00     0.058 A 
ATOM     78  C   UNL A   1      44.445  27.315  36.409  1.00  0.00     0.135 A 
ATOM     79  C   UNL A   1      45.971  28.930  35.496  1.00  0.00     0.135 A 
ATOM     80  F   UNL A   1      43.205  26.822  36.558  1.00  0.00    -0.206 F 
ATOM     81  C   UNL A   1      45.492  26.684  37.073  1.00  0.00     0.059 A 
ATOM     82  C   UNL A   1      47.039  28.299  36.126  1.00  0.00     0.059 A 
ATOM     83  F   UNL A   1      46.230  30.005  34.734  1.00  0.00    -0.206 F 
ATOM     84  C   UNL A   1      46.788  27.180  36.918  1.00  0.00     0.060 A 
BRANCH  84  85
ATOM     85  S   UNL A   1      48.144  26.318  37.741  1.00  0.00     0.124 S 
ATOM     86  O   UNL A   1      47.437  25.580  38.781  1.00  0.00    -0.237 OA
ATOM     87  O   UNL A   1      48.698  25.518  36.653  1.00  0.00    -0.237 OA
ATOM     88  O   UNL A   1      49.000  27.405  38.209  1.00  0.00    -0.744 OA
ENDBRANCH  84  85
ENDBRANCH  52  77
BRANCH  64  89
ATOM     89  C   UNL A   1      40.081  33.447  37.318  1.00  0.00     0.058 A 
ATOM     90  C   UNL A   1      39.170  33.087  38.324  1.00  0.00     0.135 A 
ATOM     91  C   UNL A   1      40.873  34.588  37.532  1.00  0.00     0.135 A 
ATOM     92  F   UNL A   1      38.382  32.012  38.167  1.00  0.00    -0.206 F 
ATOM     93  C   UNL A   1      39.040  33.833  39.490  1.00  0.00     0.059 A 
ATOM     94  C   UNL A   1      40.782  35.332  38.705  1.00  0.00     0.059 A 
ATOM     95  F   UNL A   1      41.767  34.973  36.608  1.00  0.00    -0.206 F 
ATOM     96  C   UNL A   1      39.858  34.951  39.675  1.00  0.00     0.060 A 
BRANCH  96  97
ATOM     97  S   UNL A   1      39.709  35.879  41.217  1.00  0.00     0.124 S 
ATOM     98  O   UNL A   1      39.269  34.842  42.145  1.00  0.00    -0.237 OA
ATOM     99  O   UNL A   1      41.069  36.371  41.415  1.00  0.00    -0.237 OA
ATOM    100  O   UNL A   1      38.716  36.903  40.905  1.00  0.00    -0.744 OA
ENDBRANCH  96  97
ENDBRANCH  64  89
ENDBRANCH  38  39
ENDBRANCH  31  33
ENDBRANCH  30  31
ENDBRANCH  29  30
ENDBRANCH  28  29
ENDBRANCH   1  28
TORSDOF 21
ENDMDL
