MODEL 1
REMARK VINA RESULT:     -10.1      0.000      0.000
REMARK SMILES CSc1nc(C2CC2)nc(C)c1C(=O)OCCOCCOC(=O)c1ccc(-c2c3nc(c(-c4c(F)cc(S(=O)(=O)[O-])cc4F)c4ccc([nH]4)c(-c4c(F)cc(S(=O)(=O)[O-])cc4F)c4nc(c(-c5c(F)cc(S(=O)(=O)[O-])cc5F)c5ccc2[nH]5)C=C4)C=C3)cc1
REMARK SMILES IDX 19 1 18 2 17 3 16 4 15 5 13 6 14 7 12 8 3 9 4 10 5 11 10 12
REMARK SMILES IDX 9 13 11 14 2 15 1 16 6 17 7 18 8 19 20 20 21 21 22 22 23 23
REMARK SMILES IDX 24 24 25 25 89 26 26 27 88 28 27 29 28 30 29 31 82 32 30 33
REMARK SMILES IDX 87 34 81 35 83 36 31 37 86 38 80 39 79 40 32 42 66 43 45 44
REMARK SMILES IDX 65 45 46 46 49 47 64 48 84 49 47 50 48 51 63 53 85 54 50 55
REMARK SMILES IDX 33 56 34 57 43 58 35 59 36 60 42 61 44 62 37 63 38 64 39 65
REMARK SMILES IDX 40 66 41 67 67 68 68 69 77 70 69 71 70 72 76 73 78 74 71 75
REMARK SMILES IDX 72 76 73 77 74 78 75 79 51 80 52 81 61 82 53 83 54 84 60 85
REMARK SMILES IDX 62 86 55 87 56 88 57 89 58 90 59 91
REMARK H PARENT 83 41 49 52
REMARK Flexibility Score: inf
ROOT
ATOM      1  C   UNL A   1      34.577  31.196  27.951  1.00  0.00     0.202 C 
ENDROOT
BRANCH   1   2
ATOM      2  O   UNL A   1      33.329  31.311  27.276  1.00  0.00    -0.374 OA
BRANCH   2   3
ATOM      3  C   UNL A   1      32.692  30.105  26.840  1.00  0.00     0.202 C 
BRANCH   3   4
ATOM      4  C   UNL A   1      32.911  29.714  25.379  1.00  0.00     0.261 C 
BRANCH   4   5
ATOM      5  O   UNL A   1      32.055  28.600  25.071  1.00  0.00    -0.460 OA
BRANCH   5   6
ATOM      6  C   UNL A   1      31.566  28.549  23.816  1.00  0.00     0.342 C 
ATOM      7  O   UNL A   1      30.946  29.434  23.248  1.00  0.00    -0.246 OA
BRANCH   6   8
ATOM      8  C   UNL A   1      31.968  27.288  23.171  1.00  0.00     0.113 A 
ATOM      9  C   UNL A   1      31.220  26.130  23.343  1.00  0.00     0.114 A 
ATOM     10  N   UNL A   1      31.664  24.905  22.980  1.00  0.00    -0.225 NA
ATOM     11  C   UNL A   1      32.887  24.826  22.431  1.00  0.00     0.133 A 
ATOM     12  C   UNL A   1      33.115  27.143  22.409  1.00  0.00     0.057 A 
ATOM     13  N   UNL A   1      33.575  25.918  22.058  1.00  0.00    -0.237 NA
ATOM     14  C   UNL A   1      33.991  28.272  21.957  1.00  0.00     0.068 C 
BRANCH   9  15
ATOM     15  S   UNL A   1      29.553  26.119  24.006  1.00  0.00    -0.109 SA
ATOM     16  C   UNL A   1      29.904  25.508  25.677  1.00  0.00     0.092 C 
ENDBRANCH   9  15
BRANCH  11  17
ATOM     17  C   UNL A   1      33.603  23.500  22.339  1.00  0.00     0.058 C 
ATOM     18  C   UNL A   1      34.277  22.901  23.553  1.00  0.00     0.012 C 
ATOM     19  C   UNL A   1      33.063  22.241  22.964  1.00  0.00     0.012 C 
ENDBRANCH  11  17
ENDBRANCH   6   8
ENDBRANCH   5   6
ENDBRANCH   4   5
ENDBRANCH   3   4
ENDBRANCH   2   3
ENDBRANCH   1   2
BRANCH   1  20
ATOM     20  C   UNL A   1      34.850  32.145  29.126  1.00  0.00     0.261 C 
BRANCH  20  21
ATOM     21  O   UNL A   1      36.230  32.200  29.504  1.00  0.00    -0.460 OA
BRANCH  21  22
ATOM     22  C   UNL A   1      36.577  31.264  30.424  1.00  0.00     0.338 C 
ATOM     23  O   UNL A   1      35.942  30.928  31.410  1.00  0.00    -0.246 OA
BRANCH  22  24
ATOM     24  C   UNL A   1      37.780  30.548  29.968  1.00  0.00     0.060 A 
ATOM     25  C   UNL A   1      38.694  30.141  30.948  1.00  0.00     0.016 A 
ATOM     26  C   UNL A   1      38.036  30.326  28.615  1.00  0.00     0.016 A 
ATOM     27  C   UNL A   1      39.894  29.547  30.573  1.00  0.00     0.010 A 
ATOM     28  C   UNL A   1      39.247  29.736  28.241  1.00  0.00     0.010 A 
ATOM     29  C   UNL A   1      40.194  29.376  29.215  1.00  0.00    -0.014 A 
BRANCH  29  30
ATOM     30  C   UNL A   1      41.557  28.947  28.822  1.00  0.00     0.031 A 
ATOM     31  C   UNL A   1      42.664  29.964  28.812  1.00  0.00     0.074 A 
ATOM     32  C   UNL A   1      41.805  27.661  28.518  1.00  0.00     0.049 A 
ATOM     33  N   UNL A   1      43.919  29.817  28.477  1.00  0.00    -0.248 NA
ATOM     34  C   UNL A   1      42.311  31.329  29.235  1.00  0.00     0.031 C 
ATOM     35  C   UNL A   1      40.816  26.583  28.533  1.00  0.00     0.029 A 
ATOM     36  N   UNL A   1      42.968  27.043  28.131  1.00  0.00    -0.354 N 
ATOM     37  C   UNL A   1      44.503  31.068  28.638  1.00  0.00     0.074 A 
ATOM     38  C   UNL A   1      43.459  31.970  29.072  1.00  0.00     0.031 C 
ATOM     39  C   UNL A   1      41.412  25.438  28.162  1.00  0.00     0.029 A 
ATOM     40  C   UNL A   1      42.814  25.707  27.848  1.00  0.00     0.049 A 
ATOM     41  H   UNL A   1      43.830  27.513  28.062  1.00  0.00     0.167 HD
ATOM     42  C   UNL A   1      45.795  31.427  28.450  1.00  0.00     0.037 A 
ATOM     43  C   UNL A   1      43.699  24.811  27.368  1.00  0.00     0.037 A 
ATOM     44  C   UNL A   1      46.827  30.517  28.024  1.00  0.00     0.049 A 
ATOM     45  C   UNL A   1      45.117  25.251  27.105  1.00  0.00     0.074 A 
ATOM     46  C   UNL A   1      48.172  30.775  27.825  1.00  0.00     0.029 A 
ATOM     47  N   UNL A   1      46.629  29.177  27.721  1.00  0.00    -0.354 N 
ATOM     48  N   UNL A   1      45.662  26.431  27.287  1.00  0.00    -0.248 NA
ATOM     49  C   UNL A   1      46.041  24.239  26.576  1.00  0.00     0.031 C 
ATOM     50  C   UNL A   1      48.774  29.608  27.345  1.00  0.00     0.029 A 
ATOM     51  C   UNL A   1      47.820  28.604  27.309  1.00  0.00     0.049 A 
ATOM     52  H   UNL A   1      45.768  28.704  27.789  1.00  0.00     0.167 HD
ATOM     53  C   UNL A   1      46.999  26.294  26.925  1.00  0.00     0.074 A 
ATOM     54  C   UNL A   1      47.181  24.914  26.527  1.00  0.00     0.031 C 
ATOM     55  C   UNL A   1      47.987  27.224  26.924  1.00  0.00     0.037 A 
BRANCH  42  56
ATOM     56  C   UNL A   1      46.167  32.867  28.678  1.00  0.00     0.058 A 
ATOM     57  C   UNL A   1      46.607  33.332  29.927  1.00  0.00     0.135 A 
ATOM     58  C   UNL A   1      46.132  33.784  27.615  1.00  0.00     0.135 A 
ATOM     59  F   UNL A   1      46.641  32.505  30.984  1.00  0.00    -0.206 F 
ATOM     60  C   UNL A   1      46.984  34.658  30.118  1.00  0.00     0.059 A 
ATOM     61  C   UNL A   1      46.533  35.107  27.775  1.00  0.00     0.059 A 
ATOM     62  F   UNL A   1      45.714  33.395  26.400  1.00  0.00    -0.206 F 
ATOM     63  C   UNL A   1      46.948  35.537  29.034  1.00  0.00     0.060 A 
BRANCH  63  64
ATOM     64  S   UNL A   1      47.466  37.247  29.292  1.00  0.00     0.124 S 
ATOM     65  O   UNL A   1      46.689  37.944  28.271  1.00  0.00    -0.237 OA
ATOM     66  O   UNL A   1      47.060  37.489  30.673  1.00  0.00    -0.237 OA
ATOM     67  O   UNL A   1      48.906  37.206  29.063  1.00  0.00    -0.744 OA
ENDBRANCH  63  64
ENDBRANCH  42  56
BRANCH  43  68
ATOM     68  C   UNL A   1      43.269  23.415  27.086  1.00  0.00     0.058 A 
ATOM     69  C   UNL A   1      43.067  22.491  28.122  1.00  0.00     0.135 A 
ATOM     70  C   UNL A   1      43.066  22.972  25.768  1.00  0.00     0.135 A 
ATOM     71  F   UNL A   1      43.258  22.861  29.397  1.00  0.00    -0.206 F 
ATOM     72  C   UNL A   1      42.699  21.174  27.863  1.00  0.00     0.059 A 
ATOM     73  C   UNL A   1      42.668  21.669  25.486  1.00  0.00     0.059 A 
ATOM     74  F   UNL A   1      43.234  23.819  24.741  1.00  0.00    -0.206 F 
ATOM     75  C   UNL A   1      42.501  20.774  26.540  1.00  0.00     0.060 A 
BRANCH  75  76
ATOM     76  S   UNL A   1      41.989  19.073  26.218  1.00  0.00     0.124 S 
ATOM     77  O   UNL A   1      42.240  18.441  27.508  1.00  0.00    -0.237 OA
ATOM     78  O   UNL A   1      40.587  19.240  25.850  1.00  0.00    -0.237 OA
ATOM     79  O   UNL A   1      42.870  18.658  25.129  1.00  0.00    -0.744 OA
ENDBRANCH  75  76
ENDBRANCH  43  68
BRANCH  55  80
ATOM     80  C   UNL A   1      49.366  26.774  26.519  1.00  0.00     0.058 A 
ATOM     81  C   UNL A   1      50.278  26.251  27.449  1.00  0.00     0.135 A 
ATOM     82  C   UNL A   1      49.761  26.822  25.172  1.00  0.00     0.135 A 
ATOM     83  F   UNL A   1      49.956  26.187  28.751  1.00  0.00    -0.206 F 
ATOM     84  C   UNL A   1      51.542  25.817  27.062  1.00  0.00     0.059 A 
ATOM     85  C   UNL A   1      51.006  26.362  24.757  1.00  0.00     0.059 A 
ATOM     86  F   UNL A   1      48.923  27.302  24.239  1.00  0.00    -0.206 F 
ATOM     87  C   UNL A   1      51.896  25.874  25.711  1.00  0.00     0.060 A 
BRANCH  87  88
ATOM     88  S   UNL A   1      53.528  25.280  25.220  1.00  0.00     0.124 S 
ATOM     89  O   UNL A   1      54.385  25.920  26.211  1.00  0.00    -0.237 OA
ATOM     90  O   UNL A   1      53.384  23.833  25.346  1.00  0.00    -0.237 OA
ATOM     91  O   UNL A   1      53.672  25.773  23.853  1.00  0.00    -0.744 OA
ENDBRANCH  87  88
ENDBRANCH  55  80
ENDBRANCH  29  30
ENDBRANCH  22  24
ENDBRANCH  21  22
ENDBRANCH  20  21
ENDBRANCH   1  20
TORSDOF 19
ENDMDL
MODEL 2
REMARK VINA RESULT:     -10.1      6.399     11.999
REMARK SMILES CSc1nc(C2CC2)nc(C)c1C(=O)OCCOCCOC(=O)c1ccc(-c2c3nc(c(-c4c(F)cc(S(=O)(=O)[O-])cc4F)c4ccc([nH]4)c(-c4c(F)cc(S(=O)(=O)[O-])cc4F)c4nc(c(-c5c(F)cc(S(=O)(=O)[O-])cc5F)c5ccc2[nH]5)C=C4)C=C3)cc1
REMARK SMILES IDX 19 1 18 2 17 3 16 4 15 5 13 6 14 7 12 8 3 9 4 10 5 11 10 12
REMARK SMILES IDX 9 13 11 14 2 15 1 16 6 17 7 18 8 19 20 20 21 21 22 22 23 23
REMARK SMILES IDX 24 24 25 25 89 26 26 27 88 28 27 29 28 30 29 31 82 32 30 33
REMARK SMILES IDX 87 34 81 35 83 36 31 37 86 38 80 39 79 40 32 42 66 43 45 44
REMARK SMILES IDX 65 45 46 46 49 47 64 48 84 49 47 50 48 51 63 53 85 54 50 55
REMARK SMILES IDX 33 56 34 57 43 58 35 59 36 60 42 61 44 62 37 63 38 64 39 65
REMARK SMILES IDX 40 66 41 67 67 68 68 69 77 70 69 71 70 72 76 73 78 74 71 75
REMARK SMILES IDX 72 76 73 77 74 78 75 79 51 80 52 81 61 82 53 83 54 84 60 85
REMARK SMILES IDX 62 86 55 87 56 88 57 89 58 90 59 91
REMARK H PARENT 83 41 49 52
REMARK Flexibility Score: inf
ROOT
ATOM      1  C   UNL A   1      40.022  21.741  26.410  1.00  0.00     0.202 C 
ENDROOT
BRANCH   1   2
ATOM      2  O   UNL A   1      38.979  22.710  26.374  1.00  0.00    -0.374 OA
BRANCH   2   3
ATOM      3  C   UNL A   1      37.799  22.394  25.629  1.00  0.00     0.202 C 
BRANCH   3   4
ATOM      4  C   UNL A   1      37.025  23.578  25.052  1.00  0.00     0.261 C 
BRANCH   4   5
ATOM      5  O   UNL A   1      35.975  23.072  24.211  1.00  0.00    -0.460 OA
BRANCH   5   6
ATOM      6  C   UNL A   1      34.716  23.418  24.549  1.00  0.00     0.342 C 
ATOM      7  O   UNL A   1      34.320  24.547  24.789  1.00  0.00    -0.246 OA
BRANCH   6   8
ATOM      8  C   UNL A   1      33.839  22.236  24.497  1.00  0.00     0.113 A 
ATOM      9  C   UNL A   1      33.751  21.367  25.578  1.00  0.00     0.114 A 
ATOM     10  N   UNL A   1      33.159  20.153  25.501  1.00  0.00    -0.225 NA
ATOM     11  C   UNL A   1      32.639  19.790  24.317  1.00  0.00     0.133 A 
ATOM     12  C   UNL A   1      33.096  21.875  23.387  1.00  0.00     0.057 A 
ATOM     13  N   UNL A   1      32.516  20.654  23.296  1.00  0.00    -0.237 NA
ATOM     14  C   UNL A   1      32.907  22.728  22.167  1.00  0.00     0.068 C 
BRANCH   9  15
ATOM     15  S   UNL A   1      34.352  21.768  27.220  1.00  0.00    -0.109 SA
ATOM     16  C   UNL A   1      32.864  22.557  27.893  1.00  0.00     0.092 C 
ENDBRANCH   9  15
BRANCH  11  17
ATOM     17  C   UNL A   1      32.299  18.346  24.039  1.00  0.00     0.058 C 
ATOM     18  C   UNL A   1      33.030  17.575  22.962  1.00  0.00     0.012 C 
ATOM     19  C   UNL A   1      33.217  17.211  24.408  1.00  0.00     0.012 C 
ENDBRANCH  11  17
ENDBRANCH   6   8
ENDBRANCH   5   6
ENDBRANCH   4   5
ENDBRANCH   3   4
ENDBRANCH   2   3
ENDBRANCH   1   2
BRANCH   1  20
ATOM     20  C   UNL A   1      41.460  22.221  26.173  1.00  0.00     0.261 C 
BRANCH  20  21
ATOM     21  O   UNL A   1      41.905  23.182  27.136  1.00  0.00    -0.460 OA
BRANCH  21  22
ATOM     22  C   UNL A   1      42.219  24.387  26.594  1.00  0.00     0.338 C 
ATOM     23  O   UNL A   1      42.657  24.600  25.475  1.00  0.00    -0.246 OA
BRANCH  22  24
ATOM     24  C   UNL A   1      41.779  25.463  27.496  1.00  0.00     0.060 A 
ATOM     25  C   UNL A   1      42.617  26.578  27.621  1.00  0.00     0.016 A 
ATOM     26  C   UNL A   1      40.604  25.363  28.243  1.00  0.00     0.016 A 
ATOM     27  C   UNL A   1      42.303  27.583  28.530  1.00  0.00     0.010 A 
ATOM     28  C   UNL A   1      40.297  26.370  29.162  1.00  0.00     0.010 A 
ATOM     29  C   UNL A   1      41.161  27.466  29.333  1.00  0.00    -0.014 A 
BRANCH  29  30
ATOM     30  C   UNL A   1      40.955  28.424  30.444  1.00  0.00     0.031 A 
ATOM     31  C   UNL A   1      41.818  28.313  31.670  1.00  0.00     0.074 A 
ATOM     32  C   UNL A   1      40.036  29.402  30.339  1.00  0.00     0.049 A 
ATOM     33  N   UNL A   1      41.792  29.024  32.767  1.00  0.00    -0.248 NA
ATOM     34  C   UNL A   1      42.847  27.261  31.660  1.00  0.00     0.031 C 
ATOM     35  C   UNL A   1      39.172  29.627  29.181  1.00  0.00     0.029 A 
ATOM     36  N   UNL A   1      39.675  30.386  31.224  1.00  0.00    -0.354 N 
ATOM     37  C   UNL A   1      42.791  28.501  33.580  1.00  0.00     0.074 A 
ATOM     38  C   UNL A   1      43.384  27.393  32.864  1.00  0.00     0.031 C 
ATOM     39  C   UNL A   1      38.373  30.678  29.430  1.00  0.00     0.029 A 
ATOM     40  C   UNL A   1      38.642  31.175  30.778  1.00  0.00     0.049 A 
ATOM     41  H   UNL A   1      40.113  30.513  32.097  1.00  0.00     0.167 HD
ATOM     42  C   UNL A   1      43.181  28.914  34.809  1.00  0.00     0.037 A 
ATOM     43  C   UNL A   1      37.976  32.170  31.398  1.00  0.00     0.037 A 
ATOM     44  C   UNL A   1      42.586  30.023  35.509  1.00  0.00     0.049 A 
ATOM     45  C   UNL A   1      38.388  32.569  32.791  1.00  0.00     0.074 A 
ATOM     46  C   UNL A   1      42.924  30.538  36.749  1.00  0.00     0.029 A 
ATOM     47  N   UNL A   1      41.524  30.783  35.038  1.00  0.00    -0.354 N 
ATOM     48  N   UNL A   1      39.351  32.084  33.539  1.00  0.00    -0.248 NA
ATOM     49  C   UNL A   1      37.626  33.654  33.426  1.00  0.00     0.031 C 
ATOM     50  C   UNL A   1      42.029  31.568  37.052  1.00  0.00     0.029 A 
ATOM     51  C   UNL A   1      41.176  31.742  35.974  1.00  0.00     0.049 A 
ATOM     52  H   UNL A   1      41.085  30.659  34.166  1.00  0.00     0.167 HD
ATOM     53  C   UNL A   1      39.332  32.825  34.717  1.00  0.00     0.074 A 
ATOM     54  C   UNL A   1      38.270  33.799  34.576  1.00  0.00     0.031 C 
ATOM     55  C   UNL A   1      40.121  32.711  35.814  1.00  0.00     0.037 A 
BRANCH  42  56
ATOM     56  C   UNL A   1      44.288  28.155  35.489  1.00  0.00     0.058 A 
ATOM     57  C   UNL A   1      44.032  27.055  36.322  1.00  0.00     0.135 A 
ATOM     58  C   UNL A   1      45.630  28.502  35.260  1.00  0.00     0.135 A 
ATOM     59  F   UNL A   1      42.769  26.691  36.593  1.00  0.00    -0.206 F 
ATOM     60  C   UNL A   1      45.065  26.337  36.917  1.00  0.00     0.059 A 
ATOM     61  C   UNL A   1      46.679  27.780  35.819  1.00  0.00     0.059 A 
ATOM     62  F   UNL A   1      45.932  29.549  34.475  1.00  0.00    -0.206 F 
ATOM     63  C   UNL A   1      46.386  26.704  36.655  1.00  0.00     0.060 A 
BRANCH  63  64
ATOM     64  S   UNL A   1      47.715  25.745  37.412  1.00  0.00     0.124 S 
ATOM     65  O   UNL A   1      47.338  25.790  38.822  1.00  0.00    -0.237 OA
ATOM     66  O   UNL A   1      47.572  24.447  36.760  1.00  0.00    -0.237 OA
ATOM     67  O   UNL A   1      48.918  26.491  37.061  1.00  0.00    -0.744 OA
ENDBRANCH  63  64
ENDBRANCH  42  56
BRANCH  43  68
ATOM     68  C   UNL A   1      36.839  32.845  30.716  1.00  0.00     0.058 A 
ATOM     69  C   UNL A   1      35.515  32.426  30.918  1.00  0.00     0.135 A 
ATOM     70  C   UNL A   1      37.057  33.916  29.834  1.00  0.00     0.135 A 
ATOM     71  F   UNL A   1      35.255  31.400  31.741  1.00  0.00    -0.206 F 
ATOM     72  C   UNL A   1      34.450  33.031  30.256  1.00  0.00     0.059 A 
ATOM     73  C   UNL A   1      36.006  34.557  29.185  1.00  0.00     0.059 A 
ATOM     74  F   UNL A   1      38.302  34.365  29.615  1.00  0.00    -0.206 F 
ATOM     75  C   UNL A   1      34.708  34.097  29.392  1.00  0.00     0.060 A 
BRANCH  75  76
ATOM     76  S   UNL A   1      33.315  34.897  28.566  1.00  0.00     0.124 S 
ATOM     77  O   UNL A   1      33.991  35.919  27.775  1.00  0.00    -0.237 OA
ATOM     78  O   UNL A   1      32.729  33.792  27.816  1.00  0.00    -0.237 OA
ATOM     79  O   UNL A   1      32.506  35.390  29.677  1.00  0.00    -0.744 OA
ENDBRANCH  75  76
ENDBRANCH  43  68
BRANCH  55  80
ATOM     80  C   UNL A   1      39.898  33.691  36.937  1.00  0.00     0.058 A 
ATOM     81  C   UNL A   1      39.075  33.389  38.033  1.00  0.00     0.135 A 
ATOM     82  C   UNL A   1      40.559  34.930  36.937  1.00  0.00     0.135 A 
ATOM     83  F   UNL A   1      38.414  32.221  38.082  1.00  0.00    -0.206 F 
ATOM     84  C   UNL A   1      38.893  34.293  39.075  1.00  0.00     0.059 A 
ATOM     85  C   UNL A   1      40.420  35.834  37.985  1.00  0.00     0.059 A 
ATOM     86  F   UNL A   1      41.368  35.266  35.920  1.00  0.00    -0.206 F 
ATOM     87  C   UNL A   1      39.574  35.512  39.044  1.00  0.00     0.060 A 
BRANCH  87  88
ATOM     88  S   UNL A   1      39.352  36.661  40.419  1.00  0.00     0.124 S 
ATOM     89  O   UNL A   1      40.659  36.606  41.063  1.00  0.00    -0.237 OA
ATOM     90  O   UNL A   1      39.035  37.910  39.732  1.00  0.00    -0.237 OA
ATOM     91  O   UNL A   1      38.252  36.074  41.179  1.00  0.00    -0.744 OA
ENDBRANCH  87  88
ENDBRANCH  55  80
ENDBRANCH  29  30
ENDBRANCH  22  24
ENDBRANCH  21  22
ENDBRANCH  20  21
ENDBRANCH   1  20
TORSDOF 19
ENDMDL
MODEL 3
REMARK VINA RESULT:     -10.0      2.735      8.812
REMARK SMILES CSc1nc(C2CC2)nc(C)c1C(=O)OCCOCCOC(=O)c1ccc(-c2c3nc(c(-c4c(F)cc(S(=O)(=O)[O-])cc4F)c4ccc([nH]4)c(-c4c(F)cc(S(=O)(=O)[O-])cc4F)c4nc(c(-c5c(F)cc(S(=O)(=O)[O-])cc5F)c5ccc2[nH]5)C=C4)C=C3)cc1
REMARK SMILES IDX 19 1 18 2 17 3 16 4 15 5 13 6 14 7 12 8 3 9 4 10 5 11 10 12
REMARK SMILES IDX 9 13 11 14 2 15 1 16 6 17 7 18 8 19 20 20 21 21 22 22 23 23
REMARK SMILES IDX 24 24 25 25 89 26 26 27 88 28 27 29 28 30 29 31 82 32 30 33
REMARK SMILES IDX 87 34 81 35 83 36 31 37 86 38 80 39 79 40 32 42 66 43 45 44
REMARK SMILES IDX 65 45 46 46 49 47 64 48 84 49 47 50 48 51 63 53 85 54 50 55
REMARK SMILES IDX 33 56 34 57 43 58 35 59 36 60 42 61 44 62 37 63 38 64 39 65
REMARK SMILES IDX 40 66 41 67 67 68 68 69 77 70 69 71 70 72 76 73 78 74 71 75
REMARK SMILES IDX 72 76 73 77 74 78 75 79 51 80 52 81 61 82 53 83 54 84 60 85
REMARK SMILES IDX 62 86 55 87 56 88 57 89 58 90 59 91
REMARK H PARENT 83 41 49 52
REMARK Flexibility Score: inf
ROOT
ATOM      1  C   UNL A   1      38.916  21.843  25.912  1.00  0.00     0.202 C 
ENDROOT
BRANCH   1   2
ATOM      2  O   UNL A   1      37.516  22.088  25.830  1.00  0.00    -0.374 OA
BRANCH   2   3
ATOM      3  C   UNL A   1      36.917  22.111  24.530  1.00  0.00     0.202 C 
BRANCH   3   4
ATOM      4  C   UNL A   1      35.969  23.275  24.242  1.00  0.00     0.261 C 
BRANCH   4   5
ATOM      5  O   UNL A   1      34.875  22.787  23.447  1.00  0.00    -0.460 OA
BRANCH   5   6
ATOM      6  C   UNL A   1      33.653  22.831  24.015  1.00  0.00     0.342 C 
ATOM      7  O   UNL A   1      32.992  23.836  24.222  1.00  0.00    -0.246 OA
BRANCH   6   8
ATOM      8  C   UNL A   1      33.170  21.465  24.275  1.00  0.00     0.113 A 
ATOM      9  C   UNL A   1      33.438  20.833  25.483  1.00  0.00     0.114 A 
ATOM     10  N   UNL A   1      33.233  19.511  25.684  1.00  0.00    -0.225 NA
ATOM     11  C   UNL A   1      32.748  18.795  24.657  1.00  0.00     0.133 A 
ATOM     12  C   UNL A   1      32.479  20.702  23.349  1.00  0.00     0.057 A 
ATOM     13  N   UNL A   1      32.286  19.375  23.537  1.00  0.00    -0.237 NA
ATOM     14  C   UNL A   1      31.942  21.215  22.047  1.00  0.00     0.068 C 
BRANCH   9  15
ATOM     15  S   UNL A   1      34.026  21.696  26.941  1.00  0.00    -0.109 SA
ATOM     16  C   UNL A   1      32.511  22.587  27.387  1.00  0.00     0.092 C 
ENDBRANCH   9  15
BRANCH  11  17
ATOM     17  C   UNL A   1      32.835  17.287  24.663  1.00  0.00     0.058 C 
ATOM     18  C   UNL A   1      33.727  16.561  23.681  1.00  0.00     0.012 C 
ATOM     19  C   UNL A   1      34.054  16.547  25.147  1.00  0.00     0.012 C 
ENDBRANCH  11  17
ENDBRANCH   6   8
ENDBRANCH   5   6
ENDBRANCH   4   5
ENDBRANCH   3   4
ENDBRANCH   2   3
ENDBRANCH   1   2
BRANCH   1  20
ATOM     20  C   UNL A   1      39.420  20.428  25.602  1.00  0.00     0.261 C 
BRANCH  20  21
ATOM     21  O   UNL A   1      40.230  19.872  26.643  1.00  0.00    -0.460 OA
BRANCH  21  22
ATOM     22  C   UNL A   1      41.509  19.622  26.259  1.00  0.00     0.338 C 
ATOM     23  O   UNL A   1      41.928  18.624  25.697  1.00  0.00    -0.246 OA
BRANCH  22  24
ATOM     24  C   UNL A   1      42.326  20.831  26.454  1.00  0.00     0.060 A 
ATOM     25  C   UNL A   1      42.439  21.326  27.758  1.00  0.00     0.016 A 
ATOM     26  C   UNL A   1      42.924  21.495  25.381  1.00  0.00     0.016 A 
ATOM     27  C   UNL A   1      43.117  22.518  27.991  1.00  0.00     0.010 A 
ATOM     28  C   UNL A   1      43.598  22.696  25.618  1.00  0.00     0.010 A 
ATOM     29  C   UNL A   1      43.668  23.229  26.917  1.00  0.00    -0.014 A 
BRANCH  29  30
ATOM     30  C   UNL A   1      44.193  24.596  27.146  1.00  0.00     0.031 A 
ATOM     31  C   UNL A   1      43.244  25.674  27.591  1.00  0.00     0.074 A 
ATOM     32  C   UNL A   1      45.503  24.857  26.995  1.00  0.00     0.049 A 
ATOM     33  N   UNL A   1      43.479  26.939  27.822  1.00  0.00    -0.248 NA
ATOM     34  C   UNL A   1      41.843  25.274  27.804  1.00  0.00     0.031 C 
ATOM     35  C   UNL A   1      46.520  23.879  26.605  1.00  0.00     0.029 A 
ATOM     36  N   UNL A   1      46.204  26.026  27.147  1.00  0.00    -0.354 N 
ATOM     37  C   UNL A   1      42.258  27.488  28.197  1.00  0.00     0.074 A 
ATOM     38  C   UNL A   1      41.278  26.427  28.134  1.00  0.00     0.031 C 
ATOM     39  C   UNL A   1      47.713  24.493  26.539  1.00  0.00     0.029 A 
ATOM     40  C   UNL A   1      47.540  25.911  26.846  1.00  0.00     0.049 A 
ATOM     41  H   UNL A   1      45.789  26.869  27.443  1.00  0.00     0.167 HD
ATOM     42  C   UNL A   1      41.984  28.761  28.569  1.00  0.00     0.037 A 
ATOM     43  C   UNL A   1      48.507  26.850  26.799  1.00  0.00     0.037 A 
ATOM     44  C   UNL A   1      42.971  29.808  28.635  1.00  0.00     0.049 A 
ATOM     45  C   UNL A   1      48.162  28.273  27.157  1.00  0.00     0.074 A 
ATOM     46  C   UNL A   1      42.801  31.126  29.022  1.00  0.00     0.029 A 
ATOM     47  N   UNL A   1      44.309  29.661  28.297  1.00  0.00    -0.354 N 
ATOM     48  N   UNL A   1      47.010  28.774  27.535  1.00  0.00    -0.248 NA
ATOM     49  C   UNL A   1      49.250  29.259  27.085  1.00  0.00     0.031 C 
ATOM     50  C   UNL A   1      44.021  31.789  28.860  1.00  0.00     0.029 A 
ATOM     51  C   UNL A   1      44.969  30.870  28.438  1.00  0.00     0.049 A 
ATOM     52  H   UNL A   1      44.727  28.821  28.001  1.00  0.00     0.167 HD
ATOM     53  C   UNL A   1      47.241  30.125  27.777  1.00  0.00     0.074 A 
ATOM     54  C   UNL A   1      48.645  30.359  27.514  1.00  0.00     0.031 C 
ATOM     55  C   UNL A   1      46.371  31.085  28.180  1.00  0.00     0.037 A 
BRANCH  42  56
ATOM     56  C   UNL A   1      40.560  29.104  28.913  1.00  0.00     0.058 A 
ATOM     57  C   UNL A   1      40.121  29.215  30.241  1.00  0.00     0.135 A 
ATOM     58  C   UNL A   1      39.632  29.377  27.893  1.00  0.00     0.135 A 
ATOM     59  F   UNL A   1      40.958  28.946  31.255  1.00  0.00    -0.206 F 
ATOM     60  C   UNL A   1      38.811  29.569  30.547  1.00  0.00     0.059 A 
ATOM     61  C   UNL A   1      38.326  29.762  28.177  1.00  0.00     0.059 A 
ATOM     62  F   UNL A   1      39.996  29.281  26.605  1.00  0.00    -0.206 F 
ATOM     63  C   UNL A   1      37.921  29.846  29.507  1.00  0.00     0.060 A 
BRANCH  63  64
ATOM     64  S   UNL A   1      36.232  30.330  29.922  1.00  0.00     0.124 S 
ATOM     65  O   UNL A   1      35.483  29.754  28.809  1.00  0.00    -0.237 OA
ATOM     66  O   UNL A   1      36.034  29.688  31.218  1.00  0.00    -0.237 OA
ATOM     67  O   UNL A   1      36.291  31.787  29.950  1.00  0.00    -0.744 OA
ENDBRANCH  63  64
ENDBRANCH  42  56
BRANCH  43  68
ATOM     68  C   UNL A   1      49.886  26.480  26.383  1.00  0.00     0.058 A 
ATOM     69  C   UNL A   1      50.862  26.124  27.326  1.00  0.00     0.135 A 
ATOM     70  C   UNL A   1      50.261  26.491  25.029  1.00  0.00     0.135 A 
ATOM     71  F   UNL A   1      50.558  26.109  28.632  1.00  0.00    -0.206 F 
ATOM     72  C   UNL A   1      52.164  25.812  26.945  1.00  0.00     0.059 A 
ATOM     73  C   UNL A   1      51.547  26.153  24.622  1.00  0.00     0.059 A 
ATOM     74  F   UNL A   1      49.363  26.812  24.085  1.00  0.00    -0.206 F 
ATOM     75  C   UNL A   1      52.495  25.828  25.589  1.00  0.00     0.060 A 
BRANCH  75  76
ATOM     76  S   UNL A   1      54.177  25.386  25.104  1.00  0.00     0.124 S 
ATOM     77  O   UNL A   1      54.321  26.112  23.847  1.00  0.00    -0.237 OA
ATOM     78  O   UNL A   1      54.962  25.891  26.227  1.00  0.00    -0.237 OA
ATOM     79  O   UNL A   1      54.122  23.931  24.991  1.00  0.00    -0.744 OA
ENDBRANCH  75  76
ENDBRANCH  43  68
BRANCH  55  80
ATOM     80  C   UNL A   1      46.918  32.470  28.407  1.00  0.00     0.058 A 
ATOM     81  C   UNL A   1      46.908  33.445  27.398  1.00  0.00     0.135 A 
ATOM     82  C   UNL A   1      47.414  32.839  29.668  1.00  0.00     0.135 A 
ATOM     83  F   UNL A   1      46.450  33.147  26.171  1.00  0.00    -0.206 F 
ATOM     84  C   UNL A   1      47.395  34.729  27.624  1.00  0.00     0.059 A 
ATOM     85  C   UNL A   1      47.874  34.125  29.926  1.00  0.00     0.059 A 
ATOM     86  F   UNL A   1      47.436  31.949  30.673  1.00  0.00    -0.206 F 
ATOM     87  C   UNL A   1      47.873  35.061  28.893  1.00  0.00     0.060 A 
BRANCH  87  88
ATOM     88  S   UNL A   1      48.474  36.739  29.179  1.00  0.00     0.124 S 
ATOM     89  O   UNL A   1      47.327  37.355  29.836  1.00  0.00    -0.237 OA
ATOM     90  O   UNL A   1      49.642  36.511  30.026  1.00  0.00    -0.237 OA
ATOM     91  O   UNL A   1      48.767  37.229  27.836  1.00  0.00    -0.744 OA
ENDBRANCH  87  88
ENDBRANCH  55  80
ENDBRANCH  29  30
ENDBRANCH  22  24
ENDBRANCH  21  22
ENDBRANCH  20  21
ENDBRANCH   1  20
TORSDOF 19
ENDMDL
