MODEL 1
REMARK VINA RESULT:     -10.8      0.000      0.000
REMARK SMILES COC(=O)[C@@H](NC(=O)CCC(=O)OCCOCCOC(=O)c1ccc(-c2c3nc(c(-c4c(F)cc(S(=O)(=O)[O-])cc4F)c4ccc([nH]4)c(-c4c(F)cc(S(=O)(=O)[O-])cc4F)c4nc(c(-c5c(F)cc(S(=O)(=O)[O-])cc5F)c5ccc2[nH]5)C=C4)C=C3)cc1)c1cccc2ccccc12
REMARK SMILES IDX 15 1 14 2 13 3 11 4 12 5 10 6 9 7 7 8 6 9 8 11 5 12 3 13
REMARK SMILES IDX 4 14 2 15 1 16 88 17 89 18 97 19 90 20 92 21 96 22 91 23
REMARK SMILES IDX 93 24 95 25 94 26 16 27 17 28 18 29 19 30 20 31 21 32 22 33
REMARK SMILES IDX 23 34 87 35 24 36 86 37 25 38 26 39 27 40 80 41 28 42 85 43
REMARK SMILES IDX 79 44 81 45 29 46 84 47 78 48 77 49 30 51 64 52 43 53 63 54
REMARK SMILES IDX 44 55 47 56 62 57 82 58 45 59 46 60 61 62 83 63 48 64 31 65
REMARK SMILES IDX 32 66 41 67 33 68 34 69 40 70 42 71 35 72 36 73 37 74 38 75
REMARK SMILES IDX 39 76 65 77 66 78 75 79 67 80 68 81 74 82 76 83 69 84 70 85
REMARK SMILES IDX 71 86 72 87 73 88 49 89 50 90 59 91 51 92 52 93 58 94 60 95
REMARK SMILES IDX 53 96 54 97 55 98 56 99 57 100
REMARK H PARENT 6 10 81 50 47 61
REMARK Flexibility Score: inf
ROOT
ATOM      1  C   UNL A   1      39.700  20.848  25.885  1.00  0.00     0.202 C 
ENDROOT
BRANCH   1   2
ATOM      2  C   UNL A   1      38.260  20.456  25.385  1.00  0.00     0.261 C 
BRANCH   2   3
ATOM      3  O   UNL A   1      37.555  21.491  24.605  1.00  0.00    -0.463 OA
BRANCH   3   4
ATOM      4  C   UNL A   1      36.285  21.847  24.978  1.00  0.00     0.306 C 
ATOM      5  O   UNL A   1      35.328  21.100  24.782  1.00  0.00    -0.252 OA
BRANCH   4   6
ATOM      6  C   UNL A   1      36.049  23.301  25.566  1.00  0.00     0.132 C 
BRANCH   6   7
ATOM      7  C   UNL A   1      35.031  24.452  25.259  1.00  0.00     0.112 C 
BRANCH   7   8
ATOM      8  C   UNL A   1      33.843  24.446  24.289  1.00  0.00     0.221 C 
ATOM      9  N   UNL A   1      32.555  24.166  24.651  1.00  0.00    -0.339 N 
ATOM     10  H   UNL A   1      32.043  23.627  24.007  1.00  0.00     0.164 HD
ATOM     11  O   UNL A   1      34.037  24.619  23.081  1.00  0.00    -0.275 OA
BRANCH   9  12
ATOM     12  C   UNL A   1      31.820  24.559  25.875  1.00  0.00     0.224 C 
BRANCH  12  13
ATOM     13  C   UNL A   1      31.314  23.090  26.359  1.00  0.00     0.333 C 
ATOM     14  O   UNL A   1      31.559  22.035  25.794  1.00  0.00    -0.249 OA
BRANCH  13  15
ATOM     15  O   UNL A   1      30.521  23.080  27.478  1.00  0.00    -0.467 OA
ATOM     16  C   UNL A   1      29.144  22.631  27.409  1.00  0.00     0.282 C 
ENDBRANCH  13  15
ENDBRANCH  12  13
BRANCH  12  17
ATOM     17  C   UNL A   1      31.016  25.976  25.719  1.00  0.00    -0.007 A 
ATOM     18  C   UNL A   1      29.893  25.961  24.908  1.00  0.00     0.007 A 
ATOM     19  C   UNL A   1      31.492  27.358  25.897  1.00  0.00    -0.013 A 
ATOM     20  C   UNL A   1      29.582  26.946  23.974  1.00  0.00     0.001 A 
ATOM     21  C   UNL A   1      31.292  28.314  24.857  1.00  0.00    -0.018 A 
ATOM     22  C   UNL A   1      31.730  28.069  27.108  1.00  0.00     0.009 A 
ATOM     23  C   UNL A   1      30.390  28.049  23.850  1.00  0.00     0.009 A 
ATOM     24  C   UNL A   1      31.699  29.657  24.924  1.00  0.00     0.009 A 
ATOM     25  C   UNL A   1      31.838  29.468  27.264  1.00  0.00     0.001 A 
ATOM     26  C   UNL A   1      31.875  30.264  26.151  1.00  0.00     0.001 A 
ENDBRANCH  12  17
ENDBRANCH   9  12
ENDBRANCH   7   8
ENDBRANCH   6   7
ENDBRANCH   4   6
ENDBRANCH   3   4
ENDBRANCH   2   3
ENDBRANCH   1   2
BRANCH   1  27
ATOM     27  O   UNL A   1      39.927  21.416  27.191  1.00  0.00    -0.374 OA
BRANCH  27  28
ATOM     28  C   UNL A   1      40.341  22.764  27.215  1.00  0.00     0.202 C 
BRANCH  28  29
ATOM     29  C   UNL A   1      39.824  23.687  26.071  1.00  0.00     0.261 C 
BRANCH  29  30
ATOM     30  O   UNL A   1      39.506  24.985  26.527  1.00  0.00    -0.460 OA
BRANCH  30  31
ATOM     31  C   UNL A   1      40.518  25.854  26.366  1.00  0.00     0.338 C 
ATOM     32  O   UNL A   1      41.067  26.180  25.345  1.00  0.00    -0.246 OA
BRANCH  31  33
ATOM     33  C   UNL A   1      40.711  26.485  27.671  1.00  0.00     0.060 A 
ATOM     34  C   UNL A   1      39.815  26.075  28.653  1.00  0.00     0.016 A 
ATOM     35  C   UNL A   1      41.724  27.423  27.918  1.00  0.00     0.016 A 
ATOM     36  C   UNL A   1      39.834  26.718  29.868  1.00  0.00     0.010 A 
ATOM     37  C   UNL A   1      41.765  28.045  29.156  1.00  0.00     0.010 A 
ATOM     38  C   UNL A   1      40.761  27.747  30.086  1.00  0.00    -0.014 A 
BRANCH  38  39
ATOM     39  C   UNL A   1      40.476  28.658  31.200  1.00  0.00     0.031 A 
ATOM     40  C   UNL A   1      41.379  28.595  32.398  1.00  0.00     0.074 A 
ATOM     41  C   UNL A   1      39.543  29.604  31.037  1.00  0.00     0.049 A 
ATOM     42  N   UNL A   1      41.429  29.387  33.432  1.00  0.00    -0.248 NA
ATOM     43  C   UNL A   1      42.368  27.500  32.434  1.00  0.00     0.031 C 
ATOM     44  C   UNL A   1      38.682  29.742  29.859  1.00  0.00     0.029 A 
ATOM     45  N   UNL A   1      39.194  30.650  31.841  1.00  0.00    -0.354 N 
ATOM     46  C   UNL A   1      42.442  28.884  34.240  1.00  0.00     0.074 A 
ATOM     47  C   UNL A   1      42.958  27.697  33.601  1.00  0.00     0.031 C 
ATOM     48  C   UNL A   1      37.920  30.837  30.007  1.00  0.00     0.029 A 
ATOM     49  C   UNL A   1      38.217  31.446  31.300  1.00  0.00     0.049 A 
ATOM     50  H   UNL A   1      39.602  30.816  32.720  1.00  0.00     0.167 HD
ATOM     51  C   UNL A   1      42.901  29.386  35.408  1.00  0.00     0.037 A 
ATOM     52  C   UNL A   1      37.634  32.543  31.812  1.00  0.00     0.037 A 
ATOM     53  C   UNL A   1      42.364  30.578  36.005  1.00  0.00     0.049 A 
ATOM     54  C   UNL A   1      38.120  33.042  33.144  1.00  0.00     0.074 A 
ATOM     55  C   UNL A   1      42.746  31.203  37.175  1.00  0.00     0.029 A 
ATOM     56  N   UNL A   1      41.317  31.321  35.471  1.00  0.00    -0.354 N 
ATOM     57  N   UNL A   1      39.092  32.575  33.895  1.00  0.00    -0.248 NA
ATOM     58  C   UNL A   1      37.437  34.214  33.698  1.00  0.00     0.031 C 
ATOM     59  C   UNL A   1      41.883  32.284  37.386  1.00  0.00     0.029 A 
ATOM     60  C   UNL A   1      41.012  32.376  36.309  1.00  0.00     0.049 A 
ATOM     61  H   UNL A   1      40.861  31.124  34.621  1.00  0.00     0.167 HD
ATOM     62  C   UNL A   1      39.156  33.413  35.000  1.00  0.00     0.074 A 
ATOM     63  C   UNL A   1      38.132  34.423  34.807  1.00  0.00     0.031 C 
ATOM     64  C   UNL A   1      39.982  33.361  36.076  1.00  0.00     0.037 A 
BRANCH  51  65
ATOM     65  C   UNL A   1      43.980  28.623  36.126  1.00  0.00     0.058 A 
ATOM     66  C   UNL A   1      45.339  28.961  36.021  1.00  0.00     0.135 A 
ATOM     67  C   UNL A   1      43.642  27.531  36.942  1.00  0.00     0.135 A 
ATOM     68  F   UNL A   1      45.727  29.977  35.234  1.00  0.00    -0.206 F 
ATOM     69  C   UNL A   1      46.325  28.232  36.683  1.00  0.00     0.059 A 
ATOM     70  C   UNL A   1      44.606  26.808  37.636  1.00  0.00     0.059 A 
ATOM     71  F   UNL A   1      42.360  27.153  37.068  1.00  0.00    -0.206 F 
ATOM     72  C   UNL A   1      45.948  27.158  37.490  1.00  0.00     0.060 A 
BRANCH  72  73
ATOM     73  S   UNL A   1      47.233  26.227  38.350  1.00  0.00     0.124 S 
ATOM     74  O   UNL A   1      48.190  27.281  38.675  1.00  0.00    -0.237 OA
ATOM     75  O   UNL A   1      46.504  25.664  39.483  1.00  0.00    -0.237 OA
ATOM     76  O   UNL A   1      47.681  25.261  37.353  1.00  0.00    -0.744 OA
ENDBRANCH  72  73
ENDBRANCH  51  65
BRANCH  52  77
ATOM     77  C   UNL A   1      36.548  33.221  31.060  1.00  0.00     0.058 A 
ATOM     78  C   UNL A   1      35.208  33.101  31.450  1.00  0.00     0.135 A 
ATOM     79  C   UNL A   1      36.837  34.031  29.949  1.00  0.00     0.135 A 
ATOM     80  F   UNL A   1      34.881  32.342  32.506  1.00  0.00    -0.206 F 
ATOM     81  C   UNL A   1      34.189  33.747  30.756  1.00  0.00     0.059 A 
ATOM     82  C   UNL A   1      35.840  34.709  29.257  1.00  0.00     0.059 A 
ATOM     83  F   UNL A   1      38.108  34.196  29.547  1.00  0.00    -0.206 F 
ATOM     84  C   UNL A   1      34.516  34.551  29.663  1.00  0.00     0.060 A 
BRANCH  84  85
ATOM     85  S   UNL A   1      33.190  35.414  28.796  1.00  0.00     0.124 S 
ATOM     86  O   UNL A   1      33.943  36.337  27.953  1.00  0.00    -0.237 OA
ATOM     87  O   UNL A   1      32.516  34.320  28.103  1.00  0.00    -0.237 OA
ATOM     88  O   UNL A   1      32.424  36.028  29.876  1.00  0.00    -0.744 OA
ENDBRANCH  84  85
ENDBRANCH  52  77
BRANCH  64  89
ATOM     89  C   UNL A   1      39.828  34.444  37.105  1.00  0.00     0.058 A 
ATOM     90  C   UNL A   1      39.023  34.275  38.241  1.00  0.00     0.135 A 
ATOM     91  C   UNL A   1      40.543  35.646  36.975  1.00  0.00     0.135 A 
ATOM     92  F   UNL A   1      38.315  33.146  38.407  1.00  0.00    -0.206 F 
ATOM     93  C   UNL A   1      38.908  35.273  39.200  1.00  0.00     0.059 A 
ATOM     94  C   UNL A   1      40.472  36.643  37.941  1.00  0.00     0.059 A 
ATOM     95  F   UNL A   1      41.338  35.851  35.912  1.00  0.00    -0.206 F 
ATOM     96  C   UNL A   1      39.640  36.451  39.043  1.00  0.00     0.060 A 
BRANCH  96  97
ATOM     97  S   UNL A   1      39.508  37.725  40.314  1.00  0.00     0.124 S 
ATOM     98  O   UNL A   1      38.974  36.963  41.438  1.00  0.00    -0.237 OA
ATOM     99  O   UNL A   1      40.890  38.172  40.450  1.00  0.00    -0.237 OA
ATOM    100  O   UNL A   1      38.595  38.700  39.726  1.00  0.00    -0.744 OA
ENDBRANCH  96  97
ENDBRANCH  64  89
ENDBRANCH  38  39
ENDBRANCH  31  33
ENDBRANCH  30  31
ENDBRANCH  29  30
ENDBRANCH  28  29
ENDBRANCH  27  28
ENDBRANCH   1  27
TORSDOF 23
ENDMDL
MODEL 2
REMARK VINA RESULT:     -10.3      1.352      2.315
REMARK SMILES COC(=O)[C@@H](NC(=O)CCC(=O)OCCOCCOC(=O)c1ccc(-c2c3nc(c(-c4c(F)cc(S(=O)(=O)[O-])cc4F)c4ccc([nH]4)c(-c4c(F)cc(S(=O)(=O)[O-])cc4F)c4nc(c(-c5c(F)cc(S(=O)(=O)[O-])cc5F)c5ccc2[nH]5)C=C4)C=C3)cc1)c1cccc2ccccc12
REMARK SMILES IDX 15 1 14 2 13 3 11 4 12 5 10 6 9 7 7 8 6 9 8 11 5 12 3 13
REMARK SMILES IDX 4 14 2 15 1 16 88 17 89 18 97 19 90 20 92 21 96 22 91 23
REMARK SMILES IDX 93 24 95 25 94 26 16 27 17 28 18 29 19 30 20 31 21 32 22 33
REMARK SMILES IDX 23 34 87 35 24 36 86 37 25 38 26 39 27 40 80 41 28 42 85 43
REMARK SMILES IDX 79 44 81 45 29 46 84 47 78 48 77 49 30 51 64 52 43 53 63 54
REMARK SMILES IDX 44 55 47 56 62 57 82 58 45 59 46 60 61 62 83 63 48 64 31 65
REMARK SMILES IDX 32 66 41 67 33 68 34 69 40 70 42 71 35 72 36 73 37 74 38 75
REMARK SMILES IDX 39 76 65 77 66 78 75 79 67 80 68 81 74 82 76 83 69 84 70 85
REMARK SMILES IDX 71 86 72 87 73 88 49 89 50 90 59 91 51 92 52 93 58 94 60 95
REMARK SMILES IDX 53 96 54 97 55 98 56 99 57 100
REMARK H PARENT 6 10 81 50 47 61
REMARK Flexibility Score: inf
ROOT
ATOM      1  C   UNL A   1      42.816  21.087  26.063  1.00  0.00     0.202 C 
ENDROOT
BRANCH   1   2
ATOM      2  C   UNL A   1      41.255  20.906  26.153  1.00  0.00     0.261 C 
BRANCH   2   3
ATOM      3  O   UNL A   1      40.493  22.124  26.490  1.00  0.00    -0.463 OA
BRANCH   3   4
ATOM      4  C   UNL A   1      39.158  22.172  26.183  1.00  0.00     0.306 C 
ATOM      5  O   UNL A   1      38.583  21.210  25.677  1.00  0.00    -0.252 OA
BRANCH   4   6
ATOM      6  C   UNL A   1      38.384  23.542  26.384  1.00  0.00     0.132 C 
BRANCH   6   7
ATOM      7  C   UNL A   1      37.011  24.106  25.882  1.00  0.00     0.112 C 
BRANCH   7   8
ATOM      8  C   UNL A   1      36.069  23.526  24.820  1.00  0.00     0.221 C 
ATOM      9  N   UNL A   1      34.749  23.245  25.035  1.00  0.00    -0.339 N 
ATOM     10  H   UNL A   1      34.419  22.419  24.614  1.00  0.00     0.164 HD
ATOM     11  O   UNL A   1      36.516  23.200  23.715  1.00  0.00    -0.275 OA
BRANCH   9  12
ATOM     12  C   UNL A   1      33.743  24.007  25.809  1.00  0.00     0.224 C 
BRANCH  12  13
ATOM     13  C   UNL A   1      32.724  22.794  26.181  1.00  0.00     0.333 C 
ATOM     14  O   UNL A   1      32.726  21.686  25.668  1.00  0.00    -0.249 OA
BRANCH  13  15
ATOM     15  O   UNL A   1      31.778  23.090  27.128  1.00  0.00    -0.467 OA
ATOM     16  C   UNL A   1      30.445  23.511  26.741  1.00  0.00     0.282 C 
ENDBRANCH  13  15
ENDBRANCH  12  13
BRANCH  12  17
ATOM     17  C   UNL A   1      33.460  25.503  25.207  1.00  0.00    -0.007 A 
ATOM     18  C   UNL A   1      34.102  26.553  25.841  1.00  0.00     0.007 A 
ATOM     19  C   UNL A   1      32.319  26.007  24.423  1.00  0.00    -0.013 A 
ATOM     20  C   UNL A   1      33.499  27.767  26.162  1.00  0.00     0.001 A 
ATOM     21  C   UNL A   1      31.623  27.172  24.859  1.00  0.00    -0.018 A 
ATOM     22  C   UNL A   1      32.036  25.815  23.040  1.00  0.00     0.009 A 
ATOM     23  C   UNL A   1      32.195  27.999  25.800  1.00  0.00     0.009 A 
ATOM     24  C   UNL A   1      30.528  27.741  24.186  1.00  0.00     0.009 A 
ATOM     25  C   UNL A   1      31.157  26.578  22.241  1.00  0.00     0.001 A 
ATOM     26  C   UNL A   1      30.357  27.517  22.834  1.00  0.00     0.001 A 
ENDBRANCH  12  17
ENDBRANCH   9  12
ENDBRANCH   7   8
ENDBRANCH   6   7
ENDBRANCH   4   6
ENDBRANCH   3   4
ENDBRANCH   2   3
ENDBRANCH   1   2
BRANCH   1  27
ATOM     27  O   UNL A   1      43.449  21.696  24.919  1.00  0.00    -0.374 OA
BRANCH  27  28
ATOM     28  C   UNL A   1      43.962  22.995  25.115  1.00  0.00     0.202 C 
BRANCH  28  29
ATOM     29  C   UNL A   1      42.961  24.181  24.984  1.00  0.00     0.261 C 
BRANCH  29  30
ATOM     30  O   UNL A   1      43.087  25.113  26.038  1.00  0.00    -0.460 OA
BRANCH  30  31
ATOM     31  C   UNL A   1      42.033  25.941  26.128  1.00  0.00     0.338 C 
ATOM     32  O   UNL A   1      41.127  26.082  25.347  1.00  0.00    -0.246 OA
BRANCH  31  33
ATOM     33  C   UNL A   1      42.095  26.520  27.468  1.00  0.00     0.060 A 
ATOM     34  C   UNL A   1      41.174  25.998  28.370  1.00  0.00     0.016 A 
ATOM     35  C   UNL A   1      43.016  27.517  27.823  1.00  0.00     0.016 A 
ATOM     36  C   UNL A   1      41.068  26.580  29.611  1.00  0.00     0.010 A 
ATOM     37  C   UNL A   1      42.932  28.080  29.087  1.00  0.00     0.010 A 
ATOM     38  C   UNL A   1      41.897  27.664  29.935  1.00  0.00    -0.014 A 
BRANCH  38  39
ATOM     39  C   UNL A   1      41.475  28.495  31.067  1.00  0.00     0.031 A 
ATOM     40  C   UNL A   1      42.333  28.484  32.297  1.00  0.00     0.074 A 
ATOM     41  C   UNL A   1      40.451  29.342  30.897  1.00  0.00     0.049 A 
ATOM     42  N   UNL A   1      42.259  29.237  33.359  1.00  0.00    -0.248 NA
ATOM     43  C   UNL A   1      43.433  27.501  32.337  1.00  0.00     0.031 C 
ATOM     44  C   UNL A   1      39.625  29.432  29.690  1.00  0.00     0.029 A 
ATOM     45  N   UNL A   1      39.961  30.313  31.721  1.00  0.00    -0.354 N 
ATOM     46  C   UNL A   1      43.289  28.814  34.190  1.00  0.00     0.074 A 
ATOM     47  C   UNL A   1      43.954  27.715  33.533  1.00  0.00     0.031 C 
ATOM     48  C   UNL A   1      38.744  30.432  29.844  1.00  0.00     0.029 A 
ATOM     49  C   UNL A   1      38.925  31.021  31.168  1.00  0.00     0.049 A 
ATOM     50  H   UNL A   1      40.316  30.489  32.621  1.00  0.00     0.167 HD
ATOM     51  C   UNL A   1      43.648  29.318  35.392  1.00  0.00     0.037 A 
ATOM     52  C   UNL A   1      38.207  32.029  31.692  1.00  0.00     0.037 A 
ATOM     53  C   UNL A   1      42.964  30.423  36.007  1.00  0.00     0.049 A 
ATOM     54  C   UNL A   1      38.586  32.525  33.059  1.00  0.00     0.074 A 
ATOM     55  C   UNL A   1      43.232  31.039  37.212  1.00  0.00     0.029 A 
ATOM     56  N   UNL A   1      41.863  31.069  35.455  1.00  0.00    -0.354 N 
ATOM     57  N   UNL A   1      39.575  32.137  33.833  1.00  0.00    -0.248 NA
ATOM     58  C   UNL A   1      37.761  33.596  33.624  1.00  0.00     0.031 C 
ATOM     59  C   UNL A   1      42.250  32.013  37.424  1.00  0.00     0.029 A 
ATOM     60  C   UNL A   1      41.414  32.053  36.316  1.00  0.00     0.049 A 
ATOM     61  H   UNL A   1      41.462  30.857  34.582  1.00  0.00     0.167 HD
ATOM     62  C   UNL A   1      39.507  32.935  34.968  1.00  0.00     0.074 A 
ATOM     63  C   UNL A   1      38.387  33.836  34.767  1.00  0.00     0.031 C 
ATOM     64  C   UNL A   1      40.293  32.929  36.074  1.00  0.00     0.037 A 
BRANCH  51  65
ATOM     65  C   UNL A   1      44.775  28.648  36.128  1.00  0.00     0.058 A 
ATOM     66  C   UNL A   1      44.565  27.590  37.029  1.00  0.00     0.135 A 
ATOM     67  C   UNL A   1      46.098  29.071  35.919  1.00  0.00     0.135 A 
ATOM     68  F   UNL A   1      43.321  27.160  37.291  1.00  0.00    -0.206 F 
ATOM     69  C   UNL A   1      45.622  26.992  37.710  1.00  0.00     0.059 A 
ATOM     70  C   UNL A   1      47.172  28.468  36.565  1.00  0.00     0.059 A 
ATOM     71  F   UNL A   1      46.358  30.087  35.080  1.00  0.00    -0.206 F 
ATOM     72  C   UNL A   1      46.924  27.437  37.470  1.00  0.00     0.060 A 
BRANCH  72  73
ATOM     73  S   UNL A   1      48.286  26.648  38.353  1.00  0.00     0.124 S 
ATOM     74  O   UNL A   1      47.803  26.684  39.730  1.00  0.00    -0.237 OA
ATOM     75  O   UNL A   1      48.333  25.327  37.733  1.00  0.00    -0.237 OA
ATOM     76  O   UNL A   1      49.425  27.512  38.066  1.00  0.00    -0.744 OA
ENDBRANCH  72  73
ENDBRANCH  51  65
BRANCH  52  77
ATOM     77  C   UNL A   1      37.083  32.614  30.920  1.00  0.00     0.058 A 
ATOM     78  C   UNL A   1      37.304  33.580  29.930  1.00  0.00     0.135 A 
ATOM     79  C   UNL A   1      35.760  32.193  31.139  1.00  0.00     0.135 A 
ATOM     80  F   UNL A   1      38.549  34.013  29.680  1.00  0.00    -0.206 F 
ATOM     81  C   UNL A   1      36.254  34.121  29.194  1.00  0.00     0.059 A 
ATOM     82  C   UNL A   1      34.698  32.697  30.398  1.00  0.00     0.059 A 
ATOM     83  F   UNL A   1      35.497  31.254  32.063  1.00  0.00    -0.206 F 
ATOM     84  C   UNL A   1      34.955  33.670  29.434  1.00  0.00     0.060 A 
BRANCH  84  85
ATOM     85  S   UNL A   1      33.606  34.350  28.447  1.00  0.00     0.124 S 
ATOM     86  O   UNL A   1      34.293  35.393  27.691  1.00  0.00    -0.237 OA
ATOM     87  O   UNL A   1      33.172  33.186  27.681  1.00  0.00    -0.237 OA
ATOM     88  O   UNL A   1      32.657  34.820  29.451  1.00  0.00    -0.744 OA
ENDBRANCH  84  85
ENDBRANCH  52  77
BRANCH  64  89
ATOM     89  C   UNL A   1      39.984  33.950  37.132  1.00  0.00     0.058 A 
ATOM     90  C   UNL A   1      39.153  33.656  38.223  1.00  0.00     0.135 A 
ATOM     91  C   UNL A   1      40.577  35.223  37.078  1.00  0.00     0.135 A 
ATOM     92  F   UNL A   1      38.558  32.455  38.315  1.00  0.00    -0.206 F 
ATOM     93  C   UNL A   1      38.895  34.599  39.210  1.00  0.00     0.059 A 
ATOM     94  C   UNL A   1      40.362  36.168  38.074  1.00  0.00     0.059 A 
ATOM     95  F   UNL A   1      41.391  35.549  36.061  1.00  0.00    -0.206 F 
ATOM     96  C   UNL A   1      39.508  35.850  39.128  1.00  0.00     0.060 A 
BRANCH  96  97
ATOM     97  S   UNL A   1      39.191  37.052  40.435  1.00  0.00     0.124 S 
ATOM     98  O   UNL A   1      40.545  37.464  40.790  1.00  0.00    -0.237 OA
ATOM     99  O   UNL A   1      38.384  38.054  39.746  1.00  0.00    -0.237 OA
ATOM    100  O   UNL A   1      38.485  36.276  41.449  1.00  0.00    -0.744 OA
ENDBRANCH  96  97
ENDBRANCH  64  89
ENDBRANCH  38  39
ENDBRANCH  31  33
ENDBRANCH  30  31
ENDBRANCH  29  30
ENDBRANCH  28  29
ENDBRANCH  27  28
ENDBRANCH   1  27
TORSDOF 23
ENDMDL
MODEL 3
REMARK VINA RESULT:     -10.2      6.374     11.076
REMARK SMILES COC(=O)[C@@H](NC(=O)CCC(=O)OCCOCCOC(=O)c1ccc(-c2c3nc(c(-c4c(F)cc(S(=O)(=O)[O-])cc4F)c4ccc([nH]4)c(-c4c(F)cc(S(=O)(=O)[O-])cc4F)c4nc(c(-c5c(F)cc(S(=O)(=O)[O-])cc5F)c5ccc2[nH]5)C=C4)C=C3)cc1)c1cccc2ccccc12
REMARK SMILES IDX 15 1 14 2 13 3 11 4 12 5 10 6 9 7 7 8 6 9 8 11 5 12 3 13
REMARK SMILES IDX 4 14 2 15 1 16 88 17 89 18 97 19 90 20 92 21 96 22 91 23
REMARK SMILES IDX 93 24 95 25 94 26 16 27 17 28 18 29 19 30 20 31 21 32 22 33
REMARK SMILES IDX 23 34 87 35 24 36 86 37 25 38 26 39 27 40 80 41 28 42 85 43
REMARK SMILES IDX 79 44 81 45 29 46 84 47 78 48 77 49 30 51 64 52 43 53 63 54
REMARK SMILES IDX 44 55 47 56 62 57 82 58 45 59 46 60 61 62 83 63 48 64 31 65
REMARK SMILES IDX 32 66 41 67 33 68 34 69 40 70 42 71 35 72 36 73 37 74 38 75
REMARK SMILES IDX 39 76 65 77 66 78 75 79 67 80 68 81 74 82 76 83 69 84 70 85
REMARK SMILES IDX 71 86 72 87 73 88 49 89 50 90 59 91 51 92 52 93 58 94 60 95
REMARK SMILES IDX 53 96 54 97 55 98 56 99 57 100
REMARK H PARENT 6 10 81 50 47 61
REMARK Flexibility Score: inf
ROOT
ATOM      1  C   UNL A   1      35.974  21.400  25.669  1.00  0.00     0.202 C 
ENDROOT
BRANCH   1   2
ATOM      2  C   UNL A   1      35.458  22.791  26.196  1.00  0.00     0.261 C 
BRANCH   2   3
ATOM      3  O   UNL A   1      35.877  23.964  25.404  1.00  0.00    -0.463 OA
BRANCH   3   4
ATOM      4  C   UNL A   1      35.059  24.404  24.396  1.00  0.00     0.306 C 
ATOM      5  O   UNL A   1      35.038  23.846  23.300  1.00  0.00    -0.252 OA
BRANCH   4   6
ATOM      6  C   UNL A   1      34.218  25.728  24.628  1.00  0.00     0.132 C 
BRANCH   6   7
ATOM      7  C   UNL A   1      33.829  26.569  25.891  1.00  0.00     0.112 C 
BRANCH   7   8
ATOM      8  C   UNL A   1      32.572  27.415  26.130  1.00  0.00     0.221 C 
ATOM      9  N   UNL A   1      31.685  27.765  25.152  1.00  0.00    -0.339 N 
ATOM     10  H   UNL A   1      31.328  28.681  25.213  1.00  0.00     0.164 HD
ATOM     11  O   UNL A   1      32.361  27.897  27.247  1.00  0.00    -0.275 OA
BRANCH   9  12
ATOM     12  C   UNL A   1      31.182  26.965  24.011  1.00  0.00     0.224 C 
BRANCH  12  13
ATOM     13  C   UNL A   1      30.433  28.143  23.175  1.00  0.00     0.333 C 
ATOM     14  O   UNL A   1      30.269  28.158  21.965  1.00  0.00    -0.249 OA
BRANCH  13  15
ATOM     15  O   UNL A   1      29.996  29.207  23.922  1.00  0.00    -0.467 OA
ATOM     16  C   UNL A   1      29.347  30.341  23.292  1.00  0.00     0.282 C 
ENDBRANCH  13  15
ENDBRANCH  12  13
BRANCH  12  17
ATOM     17  C   UNL A   1      30.681  25.468  24.444  1.00  0.00    -0.007 A 
ATOM     18  C   UNL A   1      29.745  25.403  25.463  1.00  0.00     0.007 A 
ATOM     19  C   UNL A   1      31.350  24.165  24.288  1.00  0.00    -0.013 A 
ATOM     20  C   UNL A   1      29.790  24.495  26.518  1.00  0.00     0.001 A 
ATOM     21  C   UNL A   1      31.517  23.317  25.422  1.00  0.00    -0.018 A 
ATOM     22  C   UNL A   1      31.477  23.365  23.116  1.00  0.00     0.009 A 
ATOM     23  C   UNL A   1      30.787  23.552  26.566  1.00  0.00     0.009 A 
ATOM     24  C   UNL A   1      32.133  22.054  25.385  1.00  0.00     0.009 A 
ATOM     25  C   UNL A   1      31.797  21.991  23.058  1.00  0.00     0.001 A 
ATOM     26  C   UNL A   1      32.179  21.344  24.202  1.00  0.00     0.001 A 
ENDBRANCH  12  17
ENDBRANCH   9  12
ENDBRANCH   7   8
ENDBRANCH   6   7
ENDBRANCH   4   6
ENDBRANCH   3   4
ENDBRANCH   2   3
ENDBRANCH   1   2
BRANCH   1  27
ATOM     27  O   UNL A   1      37.054  21.296  24.720  1.00  0.00    -0.374 OA
BRANCH  27  28
ATOM     28  C   UNL A   1      38.195  20.593  25.158  1.00  0.00     0.202 C 
BRANCH  28  29
ATOM     29  C   UNL A   1      39.280  21.406  25.925  1.00  0.00     0.261 C 
BRANCH  29  30
ATOM     30  O   UNL A   1      39.989  20.616  26.857  1.00  0.00    -0.460 OA
BRANCH  30  31
ATOM     31  C   UNL A   1      41.120  20.101  26.347  1.00  0.00     0.338 C 
ATOM     32  O   UNL A   1      41.284  19.026  25.830  1.00  0.00    -0.246 OA
BRANCH  31  33
ATOM     33  C   UNL A   1      42.097  21.188  26.371  1.00  0.00     0.060 A 
ATOM     34  C   UNL A   1      42.388  21.682  27.638  1.00  0.00     0.016 A 
ATOM     35  C   UNL A   1      42.703  21.690  25.209  1.00  0.00     0.016 A 
ATOM     36  C   UNL A   1      43.188  22.794  27.742  1.00  0.00     0.010 A 
ATOM     37  C   UNL A   1      43.539  22.791  25.319  1.00  0.00     0.010 A 
ATOM     38  C   UNL A   1      43.699  23.384  26.577  1.00  0.00    -0.014 A 
BRANCH  38  39
ATOM     39  C   UNL A   1      44.180  24.764  26.700  1.00  0.00     0.031 A 
ATOM     40  C   UNL A   1      43.211  25.799  27.192  1.00  0.00     0.074 A 
ATOM     41  C   UNL A   1      45.486  25.009  26.530  1.00  0.00     0.049 A 
ATOM     42  N   UNL A   1      43.431  27.039  27.526  1.00  0.00    -0.248 NA
ATOM     43  C   UNL A   1      41.803  25.380  27.341  1.00  0.00     0.031 C 
ATOM     44  C   UNL A   1      46.480  24.017  26.112  1.00  0.00     0.029 A 
ATOM     45  N   UNL A   1      46.205  26.151  26.729  1.00  0.00    -0.354 N 
ATOM     46  C   UNL A   1      42.196  27.547  27.913  1.00  0.00     0.074 A 
ATOM     47  C   UNL A   1      41.221  26.498  27.739  1.00  0.00     0.031 C 
ATOM     48  C   UNL A   1      47.692  24.592  26.115  1.00  0.00     0.029 A 
ATOM     49  C   UNL A   1      47.548  25.993  26.498  1.00  0.00     0.049 A 
ATOM     50  H   UNL A   1      45.801  27.003  27.011  1.00  0.00     0.167 HD
ATOM     51  C   UNL A   1      41.916  28.783  28.383  1.00  0.00     0.037 A 
ATOM     52  C   UNL A   1      48.538  26.897  26.587  1.00  0.00     0.037 A 
ATOM     53  C   UNL A   1      42.921  29.797  28.551  1.00  0.00     0.049 A 
ATOM     54  C   UNL A   1      48.187  28.283  27.050  1.00  0.00     0.074 A 
ATOM     55  C   UNL A   1      42.776  31.083  29.030  1.00  0.00     0.029 A 
ATOM     56  N   UNL A   1      44.264  29.631  28.232  1.00  0.00    -0.354 N 
ATOM     57  N   UNL A   1      47.021  28.753  27.435  1.00  0.00    -0.248 NA
ATOM     58  C   UNL A   1      49.278  29.259  27.097  1.00  0.00     0.031 C 
ATOM     59  C   UNL A   1      44.019  31.719  28.935  1.00  0.00     0.029 A 
ATOM     60  C   UNL A   1      44.953  30.806  28.466  1.00  0.00     0.049 A 
ATOM     61  H   UNL A   1      44.665  28.799  27.889  1.00  0.00     0.167 HD
ATOM     62  C   UNL A   1      47.244  30.076  27.796  1.00  0.00     0.074 A 
ATOM     63  C   UNL A   1      48.660  30.321  27.595  1.00  0.00     0.031 C 
ATOM     64  C   UNL A   1      46.367  31.005  28.252  1.00  0.00     0.037 A 
BRANCH  51  65
ATOM     65  C   UNL A   1      40.480  29.111  28.687  1.00  0.00     0.058 A 
ATOM     66  C   UNL A   1      39.981  29.173  29.999  1.00  0.00     0.135 A 
ATOM     67  C   UNL A   1      39.584  29.375  27.638  1.00  0.00     0.135 A 
ATOM     68  F   UNL A   1      40.783  28.903  31.042  1.00  0.00    -0.206 F 
ATOM     69  C   UNL A   1      38.645  29.464  30.258  1.00  0.00     0.059 A 
ATOM     70  C   UNL A   1      38.252  29.698  27.874  1.00  0.00     0.059 A 
ATOM     71  F   UNL A   1      40.000  29.316  26.363  1.00  0.00    -0.206 F 
ATOM     72  C   UNL A   1      37.787  29.728  29.188  1.00  0.00     0.060 A 
BRANCH  72  73
ATOM     73  S   UNL A   1      36.059  30.113  29.538  1.00  0.00     0.124 S 
ATOM     74  O   UNL A   1      35.882  29.502  30.852  1.00  0.00    -0.237 OA
ATOM     75  O   UNL A   1      36.056  31.573  29.513  1.00  0.00    -0.237 OA
ATOM     76  O   UNL A   1      35.337  29.470  28.446  1.00  0.00    -0.744 OA
ENDBRANCH  72  73
ENDBRANCH  51  65
BRANCH  52  77
ATOM     77  C   UNL A   1      49.926  26.508  26.234  1.00  0.00     0.058 A 
ATOM     78  C   UNL A   1      50.411  26.645  24.927  1.00  0.00     0.135 A 
ATOM     79  C   UNL A   1      50.809  26.017  27.211  1.00  0.00     0.135 A 
ATOM     80  F   UNL A   1      49.609  27.112  23.959  1.00  0.00    -0.206 F 
ATOM     81  C   UNL A   1      51.716  26.295  24.595  1.00  0.00     0.059 A 
ATOM     82  C   UNL A   1      52.125  25.688  26.911  1.00  0.00     0.059 A 
ATOM     83  F   UNL A   1      50.400  25.886  28.484  1.00  0.00    -0.206 F 
ATOM     84  C   UNL A   1      52.566  25.820  25.596  1.00  0.00     0.060 A 
BRANCH  84  85
ATOM     85  S   UNL A   1      54.268  25.406  25.161  1.00  0.00     0.124 S 
ATOM     86  O   UNL A   1      55.007  26.001  26.270  1.00  0.00    -0.237 OA
ATOM     87  O   UNL A   1      54.228  23.947  25.129  1.00  0.00    -0.237 OA
ATOM     88  O   UNL A   1      54.451  26.050  23.864  1.00  0.00    -0.744 OA
ENDBRANCH  84  85
ENDBRANCH  52  77
BRANCH  64  89
ATOM     89  C   UNL A   1      46.925  32.358  28.593  1.00  0.00     0.058 A 
ATOM     90  C   UNL A   1      46.958  33.400  27.655  1.00  0.00     0.135 A 
ATOM     91  C   UNL A   1      47.380  32.624  29.895  1.00  0.00     0.135 A 
ATOM     92  F   UNL A   1      46.540  33.192  26.397  1.00  0.00    -0.206 F 
ATOM     93  C   UNL A   1      47.452  34.656  27.988  1.00  0.00     0.059 A 
ATOM     94  C   UNL A   1      47.842  33.883  30.259  1.00  0.00     0.059 A 
ATOM     95  F   UNL A   1      47.356  31.663  30.832  1.00  0.00    -0.206 F 
ATOM     96  C   UNL A   1      47.887  34.888  29.294  1.00  0.00     0.060 A 
BRANCH  96  97
ATOM     97  S   UNL A   1      48.494  36.532  29.721  1.00  0.00     0.124 S 
ATOM     98  O   UNL A   1      49.018  36.311  31.064  1.00  0.00    -0.237 OA
ATOM     99  O   UNL A   1      49.491  36.774  28.683  1.00  0.00    -0.237 OA
ATOM    100  O   UNL A   1      47.300  37.367  29.642  1.00  0.00    -0.744 OA
ENDBRANCH  96  97
ENDBRANCH  64  89
ENDBRANCH  38  39
ENDBRANCH  31  33
ENDBRANCH  30  31
ENDBRANCH  29  30
ENDBRANCH  28  29
ENDBRANCH  27  28
ENDBRANCH   1  27
TORSDOF 23
ENDMDL
