MODEL 1
REMARK VINA RESULT:     -11.1      0.000      0.000
REMARK SMILES C[C@H]1[C@H](C(=O)OCCOCCOC(=O)c2ccc(-c3c4nc(c(-c5c(F)cc(S(=O)(=O)[O-])cc5F)c5ccc([nH]5)c(-c5c(F)cc(S(=O)(=O)[O-])cc5F)c5nc(c(-c6c(F)cc(S(=O)(=O)[O-])cc6F)c6ccc3[nH]6)C=C5)C=C4)cc2)CCN1C(=O)NCc1ccncc1
REMARK SMILES IDX 9 1 8 2 7 3 6 4 4 5 5 6 3 7 1 8 2 9 83 10 81 11 82 12 84 13
REMARK SMILES IDX 85 14 86 15 87 17 88 18 89 19 93 20 90 21 92 22 91 23 10 24
REMARK SMILES IDX 11 25 12 26 13 27 14 28 15 29 16 30 80 31 17 32 79 33 18 34
REMARK SMILES IDX 19 35 20 36 73 37 21 38 78 39 72 40 74 41 22 42 77 43 71 44
REMARK SMILES IDX 70 45 23 47 57 48 36 49 56 50 37 51 40 52 55 53 75 54 38 55
REMARK SMILES IDX 39 56 54 58 76 59 41 60 24 61 25 62 34 63 26 64 27 65 33 66
REMARK SMILES IDX 35 67 28 68 29 69 30 70 31 71 32 72 58 73 59 74 68 75 60 76
REMARK SMILES IDX 61 77 67 78 69 79 62 80 63 81 64 82 65 83 66 84 42 85 43 86
REMARK SMILES IDX 52 87 44 88 45 89 51 90 53 91 46 92 47 93 48 94 49 95 50 96
REMARK H PARENT 86 16 74 46 40 57
REMARK Flexibility Score: inf
ROOT
ATOM      1  O   UNL A   1      42.953  22.391  26.734  1.00  0.00    -0.374 OA
ENDROOT
BRANCH   1   2
ATOM      2  C   UNL A   1      41.669  22.225  26.140  1.00  0.00     0.202 C 
BRANCH   2   3
ATOM      3  C   UNL A   1      40.450  22.703  26.939  1.00  0.00     0.261 C 
BRANCH   3   4
ATOM      4  O   UNL A   1      39.183  22.331  26.365  1.00  0.00    -0.463 OA
BRANCH   4   5
ATOM      5  C   UNL A   1      38.294  23.345  26.200  1.00  0.00     0.311 C 
ATOM      6  O   UNL A   1      38.449  24.490  26.612  1.00  0.00    -0.252 OA
BRANCH   5   7
ATOM      7  C   UNL A   1      37.027  22.933  25.485  1.00  0.00     0.123 C 
ATOM      8  C   UNL A   1      36.569  20.529  24.916  1.00  0.00     0.032 C 
ATOM      9  C   UNL A   1      36.318  21.637  25.951  1.00  0.00     0.098 C 
ATOM     10  N   UNL A   1      34.889  21.983  26.010  1.00  0.00    -0.321 N 
ATOM     11  C   UNL A   1      35.977  24.026  25.625  1.00  0.00     0.039 C 
ATOM     12  C   UNL A   1      34.682  23.284  25.388  1.00  0.00     0.122 C 
BRANCH  10  13
ATOM     13  C   UNL A   1      33.817  21.378  26.584  1.00  0.00     0.317 C 
ATOM     14  O   UNL A   1      33.417  21.719  27.703  1.00  0.00    -0.249 OA
ATOM     15  N   UNL A   1      33.111  20.389  26.022  1.00  0.00    -0.334 N 
ATOM     16  H   UNL A   1      32.489  19.976  26.663  1.00  0.00     0.165 HD
BRANCH  15  17
ATOM     17  C   UNL A   1      33.021  19.766  24.720  1.00  0.00     0.153 C 
BRANCH  17  18
ATOM     18  C   UNL A   1      33.212  18.267  24.705  1.00  0.00    -0.026 A 
ATOM     19  C   UNL A   1      34.023  17.584  23.794  1.00  0.00     0.025 A 
ATOM     20  C   UNL A   1      32.553  17.507  25.685  1.00  0.00     0.025 A 
ATOM     21  C   UNL A   1      34.099  16.199  23.872  1.00  0.00     0.111 A 
ATOM     22  C   UNL A   1      32.682  16.127  25.677  1.00  0.00     0.111 A 
ATOM     23  N   UNL A   1      33.438  15.460  24.786  1.00  0.00    -0.265 NA
ENDBRANCH  17  18
ENDBRANCH  15  17
ENDBRANCH  10  13
ENDBRANCH   5   7
ENDBRANCH   4   5
ENDBRANCH   3   4
ENDBRANCH   2   3
ENDBRANCH   1   2
BRANCH   1  24
ATOM     24  C   UNL A   1      43.918  23.172  26.038  1.00  0.00     0.202 C 
BRANCH  24  25
ATOM     25  C   UNL A   1      43.412  24.162  24.984  1.00  0.00     0.261 C 
BRANCH  25  26
ATOM     26  O   UNL A   1      43.417  25.530  25.435  1.00  0.00    -0.460 OA
BRANCH  26  27
ATOM     27  C   UNL A   1      42.201  25.969  25.855  1.00  0.00     0.338 C 
ATOM     28  O   UNL A   1      41.152  25.882  25.230  1.00  0.00    -0.246 OA
BRANCH  27  29
ATOM     29  C   UNL A   1      42.225  26.497  27.233  1.00  0.00     0.060 A 
ATOM     30  C   UNL A   1      41.173  26.119  28.076  1.00  0.00     0.016 A 
ATOM     31  C   UNL A   1      43.138  27.471  27.644  1.00  0.00     0.016 A 
ATOM     32  C   UNL A   1      40.973  26.781  29.285  1.00  0.00     0.010 A 
ATOM     33  C   UNL A   1      42.923  28.154  28.848  1.00  0.00     0.010 A 
ATOM     34  C   UNL A   1      41.810  27.845  29.647  1.00  0.00    -0.014 A 
BRANCH  34  35
ATOM     35  C   UNL A   1      41.426  28.690  30.801  1.00  0.00     0.031 A 
ATOM     36  C   UNL A   1      42.213  28.594  32.081  1.00  0.00     0.074 A 
ATOM     37  C   UNL A   1      40.424  29.577  30.685  1.00  0.00     0.049 A 
ATOM     38  N   UNL A   1      42.153  29.352  33.145  1.00  0.00    -0.248 NA
ATOM     39  C   UNL A   1      43.199  27.506  32.170  1.00  0.00     0.031 C 
ATOM     40  C   UNL A   1      39.588  29.752  29.499  1.00  0.00     0.029 A 
ATOM     41  N   UNL A   1      39.945  30.501  31.577  1.00  0.00    -0.354 N 
ATOM     42  C   UNL A   1      43.115  28.857  34.018  1.00  0.00     0.074 A 
ATOM     43  C   UNL A   1      43.714  27.706  33.376  1.00  0.00     0.031 C 
ATOM     44  C   UNL A   1      38.688  30.720  29.739  1.00  0.00     0.029 A 
ATOM     45  C   UNL A   1      38.891  31.235  31.092  1.00  0.00     0.049 A 
ATOM     46  H   UNL A   1      40.320  30.624  32.478  1.00  0.00     0.167 HD
ATOM     47  C   UNL A   1      43.472  29.327  35.238  1.00  0.00     0.037 A 
ATOM     48  C   UNL A   1      38.179  32.221  31.672  1.00  0.00     0.037 A 
ATOM     49  C   UNL A   1      42.843  30.450  35.888  1.00  0.00     0.049 A 
ATOM     50  C   UNL A   1      38.570  32.706  33.041  1.00  0.00     0.074 A 
ATOM     51  C   UNL A   1      43.146  31.022  37.111  1.00  0.00     0.029 A 
ATOM     52  N   UNL A   1      41.766  31.157  35.374  1.00  0.00    -0.354 N 
ATOM     53  N   UNL A   1      39.538  32.284  33.819  1.00  0.00    -0.248 NA
ATOM     54  C   UNL A   1      37.786  33.816  33.600  1.00  0.00     0.031 C 
ATOM     55  C   UNL A   1      42.226  32.050  37.355  1.00  0.00     0.029 A 
ATOM     56  C   UNL A   1      41.375  32.144  36.265  1.00  0.00     0.049 A 
ATOM     57  H   UNL A   1      41.340  30.984  34.503  1.00  0.00     0.167 HD
ATOM     58  C   UNL A   1      39.497  33.095  34.949  1.00  0.00     0.074 A 
ATOM     59  C   UNL A   1      38.414  34.036  34.747  1.00  0.00     0.031 C 
ATOM     60  C   UNL A   1      40.289  33.067  36.051  1.00  0.00     0.037 A 
BRANCH  47  61
ATOM     61  C   UNL A   1      44.594  28.626  35.954  1.00  0.00     0.058 A 
ATOM     62  C   UNL A   1      45.928  29.034  35.799  1.00  0.00     0.135 A 
ATOM     63  C   UNL A   1      44.332  27.565  36.835  1.00  0.00     0.135 A 
ATOM     64  F   UNL A   1      46.235  30.037  34.960  1.00  0.00    -0.206 F 
ATOM     65  C   UNL A   1      46.966  28.405  36.480  1.00  0.00     0.059 A 
ATOM     66  C   UNL A   1      45.353  26.933  37.542  1.00  0.00     0.059 A 
ATOM     67  F   UNL A   1      43.074  27.135  37.020  1.00  0.00    -0.206 F 
ATOM     68  C   UNL A   1      46.668  27.353  37.348  1.00  0.00     0.060 A 
BRANCH  68  69
ATOM     69  S   UNL A   1      48.024  26.554  38.236  1.00  0.00     0.124 S 
ATOM     70  O   UNL A   1      49.004  27.634  38.307  1.00  0.00    -0.237 OA
ATOM     71  O   UNL A   1      47.397  26.185  39.501  1.00  0.00    -0.237 OA
ATOM     72  O   UNL A   1      48.384  25.436  37.370  1.00  0.00    -0.744 OA
ENDBRANCH  68  69
ENDBRANCH  47  61
BRANCH  48  73
ATOM     73  C   UNL A   1      37.042  32.831  30.936  1.00  0.00     0.058 A 
ATOM     74  C   UNL A   1      35.716  32.573  31.305  1.00  0.00     0.135 A 
ATOM     75  C   UNL A   1      37.268  33.710  29.867  1.00  0.00     0.135 A 
ATOM     76  F   UNL A   1      35.453  31.733  32.320  1.00  0.00    -0.206 F 
ATOM     77  C   UNL A   1      34.647  33.161  30.637  1.00  0.00     0.059 A 
ATOM     78  C   UNL A   1      36.217  34.326  29.194  1.00  0.00     0.059 A 
ATOM     79  F   UNL A   1      38.522  33.998  29.485  1.00  0.00    -0.206 F 
ATOM     80  C   UNL A   1      34.909  34.040  29.584  1.00  0.00     0.060 A 
BRANCH  80  81
ATOM     81  S   UNL A   1      33.520  34.856  28.767  1.00  0.00     0.124 S 
ATOM     82  O   UNL A   1      34.114  36.130  28.380  1.00  0.00    -0.237 OA
ATOM     83  O   UNL A   1      33.217  33.933  27.678  1.00  0.00    -0.237 OA
ATOM     84  O   UNL A   1      32.509  34.922  29.819  1.00  0.00    -0.744 OA
ENDBRANCH  80  81
ENDBRANCH  48  73
BRANCH  60  85
ATOM     85  C   UNL A   1      40.020  34.100  37.109  1.00  0.00     0.058 A 
ATOM     86  C   UNL A   1      39.174  33.836  38.197  1.00  0.00     0.135 A 
ATOM     87  C   UNL A   1      40.629  35.364  37.041  1.00  0.00     0.135 A 
ATOM     88  F   UNL A   1      38.565  32.644  38.305  1.00  0.00    -0.206 F 
ATOM     89  C   UNL A   1      38.909  34.802  39.162  1.00  0.00     0.059 A 
ATOM     90  C   UNL A   1      40.396  36.337  38.008  1.00  0.00     0.059 A 
ATOM     91  F   UNL A   1      41.456  35.663  36.027  1.00  0.00    -0.206 F 
ATOM     92  C   UNL A   1      39.519  36.053  39.055  1.00  0.00     0.060 A 
BRANCH  92  93
ATOM     93  S   UNL A   1      39.170  37.304  40.309  1.00  0.00     0.124 S 
ATOM     94  O   UNL A   1      40.515  37.746  40.663  1.00  0.00    -0.237 OA
ATOM     95  O   UNL A   1      38.359  38.271  39.576  1.00  0.00    -0.237 OA
ATOM     96  O   UNL A   1      38.461  36.557  41.343  1.00  0.00    -0.744 OA
ENDBRANCH  92  93
ENDBRANCH  60  85
ENDBRANCH  34  35
ENDBRANCH  27  29
ENDBRANCH  26  27
ENDBRANCH  25  26
ENDBRANCH  24  25
ENDBRANCH   1  24
TORSDOF 20
ENDMDL
MODEL 2
REMARK VINA RESULT:     -10.4      2.031      3.550
REMARK SMILES C[C@H]1[C@H](C(=O)OCCOCCOC(=O)c2ccc(-c3c4nc(c(-c5c(F)cc(S(=O)(=O)[O-])cc5F)c5ccc([nH]5)c(-c5c(F)cc(S(=O)(=O)[O-])cc5F)c5nc(c(-c6c(F)cc(S(=O)(=O)[O-])cc6F)c6ccc3[nH]6)C=C5)C=C4)cc2)CCN1C(=O)NCc1ccncc1
REMARK SMILES IDX 9 1 8 2 7 3 6 4 4 5 5 6 3 7 1 8 2 9 83 10 81 11 82 12 84 13
REMARK SMILES IDX 85 14 86 15 87 17 88 18 89 19 93 20 90 21 92 22 91 23 10 24
REMARK SMILES IDX 11 25 12 26 13 27 14 28 15 29 16 30 80 31 17 32 79 33 18 34
REMARK SMILES IDX 19 35 20 36 73 37 21 38 78 39 72 40 74 41 22 42 77 43 71 44
REMARK SMILES IDX 70 45 23 47 57 48 36 49 56 50 37 51 40 52 55 53 75 54 38 55
REMARK SMILES IDX 39 56 54 58 76 59 41 60 24 61 25 62 34 63 26 64 27 65 33 66
REMARK SMILES IDX 35 67 28 68 29 69 30 70 31 71 32 72 58 73 59 74 68 75 60 76
REMARK SMILES IDX 61 77 67 78 69 79 62 80 63 81 64 82 65 83 66 84 42 85 43 86
REMARK SMILES IDX 52 87 44 88 45 89 51 90 53 91 46 92 47 93 48 94 49 95 50 96
REMARK H PARENT 86 16 74 46 40 57
REMARK Flexibility Score: inf
ROOT
ATOM      1  O   UNL A   1      39.359  21.836  26.483  1.00  0.00    -0.374 OA
ENDROOT
BRANCH   1   2
ATOM      2  C   UNL A   1      38.453  21.523  25.429  1.00  0.00     0.202 C 
BRANCH   2   3
ATOM      3  C   UNL A   1      36.952  21.607  25.734  1.00  0.00     0.261 C 
BRANCH   3   4
ATOM      4  O   UNL A   1      36.151  20.638  25.034  1.00  0.00    -0.463 OA
BRANCH   4   5
ATOM      5  C   UNL A   1      34.806  20.810  25.130  1.00  0.00     0.311 C 
ATOM      6  O   UNL A   1      33.967  20.129  24.550  1.00  0.00    -0.252 OA
BRANCH   5   7
ATOM      7  C   UNL A   1      34.403  21.981  25.997  1.00  0.00     0.123 C 
ATOM      8  C   UNL A   1      33.942  24.244  25.007  1.00  0.00     0.032 C 
ATOM      9  C   UNL A   1      33.297  22.928  25.471  1.00  0.00     0.098 C 
ATOM     10  N   UNL A   1      32.412  23.158  26.624  1.00  0.00    -0.321 N 
ATOM     11  C   UNL A   1      33.884  21.476  27.336  1.00  0.00     0.039 C 
ATOM     12  C   UNL A   1      33.039  22.629  27.827  1.00  0.00     0.122 C 
BRANCH  10  13
ATOM     13  C   UNL A   1      31.156  23.667  26.735  1.00  0.00     0.317 C 
ATOM     14  O   UNL A   1      30.203  22.947  27.053  1.00  0.00    -0.249 OA
ATOM     15  N   UNL A   1      30.834  24.949  26.520  1.00  0.00    -0.334 N 
ATOM     16  H   UNL A   1      29.859  25.077  26.486  1.00  0.00     0.165 HD
BRANCH  15  17
ATOM     17  C   UNL A   1      31.540  26.195  26.326  1.00  0.00     0.153 C 
BRANCH  17  18
ATOM     18  C   UNL A   1      31.296  26.877  24.999  1.00  0.00    -0.026 A 
ATOM     19  C   UNL A   1      32.226  27.692  24.349  1.00  0.00     0.025 A 
ATOM     20  C   UNL A   1      30.064  26.661  24.362  1.00  0.00     0.025 A 
ATOM     21  C   UNL A   1      31.873  28.279  23.140  1.00  0.00     0.111 A 
ATOM     22  C   UNL A   1      29.797  27.298  23.161  1.00  0.00     0.111 A 
ATOM     23  N   UNL A   1      30.676  28.107  22.543  1.00  0.00    -0.265 NA
ENDBRANCH  17  18
ENDBRANCH  15  17
ENDBRANCH  10  13
ENDBRANCH   5   7
ENDBRANCH   4   5
ENDBRANCH   3   4
ENDBRANCH   2   3
ENDBRANCH   1   2
BRANCH   1  24
ATOM     24  C   UNL A   1      40.752  21.844  26.191  1.00  0.00     0.202 C 
BRANCH  24  25
ATOM     25  C   UNL A   1      41.472  23.196  26.176  1.00  0.00     0.261 C 
BRANCH  25  26
ATOM     26  O   UNL A   1      40.575  24.322  26.125  1.00  0.00    -0.460 OA
BRANCH  26  27
ATOM     27  C   UNL A   1      41.209  25.524  26.124  1.00  0.00     0.338 C 
ATOM     28  O   UNL A   1      41.596  26.129  25.132  1.00  0.00    -0.246 OA
BRANCH  27  29
ATOM     29  C   UNL A   1      41.314  26.121  27.470  1.00  0.00     0.060 A 
ATOM     30  C   UNL A   1      40.273  25.852  28.366  1.00  0.00     0.016 A 
ATOM     31  C   UNL A   1      42.296  27.059  27.796  1.00  0.00     0.016 A 
ATOM     32  C   UNL A   1      40.156  26.587  29.544  1.00  0.00     0.010 A 
ATOM     33  C   UNL A   1      42.165  27.816  28.967  1.00  0.00     0.010 A 
ATOM     34  C   UNL A   1      41.066  27.617  29.818  1.00  0.00    -0.014 A 
BRANCH  34  35
ATOM     35  C   UNL A   1      40.774  28.543  30.937  1.00  0.00     0.031 A 
ATOM     36  C   UNL A   1      41.583  28.450  32.203  1.00  0.00     0.074 A 
ATOM     37  C   UNL A   1      39.837  29.495  30.798  1.00  0.00     0.049 A 
ATOM     38  N   UNL A   1      41.606  29.262  33.229  1.00  0.00    -0.248 NA
ATOM     39  C   UNL A   1      42.489  27.297  32.325  1.00  0.00     0.031 C 
ATOM     40  C   UNL A   1      38.987  29.675  29.622  1.00  0.00     0.029 A 
ATOM     41  N   UNL A   1      39.450  30.494  31.652  1.00  0.00    -0.354 N 
ATOM     42  C   UNL A   1      42.551  28.738  34.105  1.00  0.00     0.074 A 
ATOM     43  C   UNL A   1      43.047  27.516  33.509  1.00  0.00     0.031 C 
ATOM     44  C   UNL A   1      38.167  30.718  29.833  1.00  0.00     0.029 A 
ATOM     45  C   UNL A   1      38.442  31.282  31.154  1.00  0.00     0.049 A 
ATOM     46  H   UNL A   1      39.856  30.633  32.538  1.00  0.00     0.167 HD
ATOM     47  C   UNL A   1      42.972  29.239  35.292  1.00  0.00     0.037 A 
ATOM     48  C   UNL A   1      37.818  32.345  31.699  1.00  0.00     0.037 A 
ATOM     49  C   UNL A   1      42.443  30.435  35.898  1.00  0.00     0.049 A 
ATOM     50  C   UNL A   1      38.278  32.865  33.033  1.00  0.00     0.074 A 
ATOM     51  C   UNL A   1      42.818  31.042  37.084  1.00  0.00     0.029 A 
ATOM     52  N   UNL A   1      41.408  31.196  35.372  1.00  0.00    -0.354 N 
ATOM     53  N   UNL A   1      39.232  32.410  33.811  1.00  0.00    -0.248 NA
ATOM     54  C   UNL A   1      37.592  34.056  33.552  1.00  0.00     0.031 C 
ATOM     55  C   UNL A   1      41.982  32.146  37.296  1.00  0.00     0.029 A 
ATOM     56  C   UNL A   1      41.114  32.251  36.221  1.00  0.00     0.049 A 
ATOM     57  H   UNL A   1      40.949  31.012  34.520  1.00  0.00     0.167 HD
ATOM     58  C   UNL A   1      39.278  33.274  34.900  1.00  0.00     0.074 A 
ATOM     59  C   UNL A   1      38.263  34.283  34.674  1.00  0.00     0.031 C 
ATOM     60  C   UNL A   1      40.093  33.241  35.984  1.00  0.00     0.037 A 
BRANCH  47  61
ATOM     61  C   UNL A   1      44.056  28.491  36.018  1.00  0.00     0.058 A 
ATOM     62  C   UNL A   1      45.409  28.835  35.867  1.00  0.00     0.135 A 
ATOM     63  C   UNL A   1      43.741  27.450  36.906  1.00  0.00     0.135 A 
ATOM     64  F   UNL A   1      45.766  29.816  35.022  1.00  0.00    -0.206 F 
ATOM     65  C   UNL A   1      46.413  28.163  36.557  1.00  0.00     0.059 A 
ATOM     66  C   UNL A   1      44.728  26.776  37.621  1.00  0.00     0.059 A 
ATOM     67  F   UNL A   1      42.464  27.081  37.088  1.00  0.00    -0.206 F 
ATOM     68  C   UNL A   1      46.062  27.133  37.431  1.00  0.00     0.060 A 
BRANCH  68  69
ATOM     69  S   UNL A   1      47.375  26.277  38.331  1.00  0.00     0.124 S 
ATOM     70  O   UNL A   1      47.817  25.298  37.342  1.00  0.00    -0.237 OA
ATOM     71  O   UNL A   1      48.315  27.356  38.617  1.00  0.00    -0.237 OA
ATOM     72  O   UNL A   1      46.686  25.727  39.493  1.00  0.00    -0.744 OA
ENDBRANCH  68  69
ENDBRANCH  47  61
BRANCH  48  73
ATOM     73  C   UNL A   1      36.712  33.001  30.958  1.00  0.00     0.058 A 
ATOM     74  C   UNL A   1      35.376  32.830  31.345  1.00  0.00     0.135 A 
ATOM     75  C   UNL A   1      36.978  33.840  29.865  1.00  0.00     0.135 A 
ATOM     76  F   UNL A   1      35.075  32.032  32.382  1.00  0.00    -0.206 F 
ATOM     77  C   UNL A   1      34.337  33.462  30.671  1.00  0.00     0.059 A 
ATOM     78  C   UNL A   1      35.958  34.499  29.186  1.00  0.00     0.059 A 
ATOM     79  F   UNL A   1      38.242  34.045  29.465  1.00  0.00    -0.206 F 
ATOM     80  C   UNL A   1      34.639  34.299  29.594  1.00  0.00     0.060 A 
BRANCH  80  81
ATOM     81  S   UNL A   1      33.291  35.174  28.769  1.00  0.00     0.124 S 
ATOM     82  O   UNL A   1      32.518  35.661  29.906  1.00  0.00    -0.237 OA
ATOM     83  O   UNL A   1      34.006  36.187  28.000  1.00  0.00    -0.237 OA
ATOM     84  O   UNL A   1      32.655  34.129  27.972  1.00  0.00    -0.744 OA
ENDBRANCH  80  81
ENDBRANCH  48  73
BRANCH  60  85
ATOM     85  C   UNL A   1      39.928  34.341  36.995  1.00  0.00     0.058 A 
ATOM     86  C   UNL A   1      40.733  35.490  36.970  1.00  0.00     0.135 A 
ATOM     87  C   UNL A   1      38.942  34.250  37.992  1.00  0.00     0.135 A 
ATOM     88  F   UNL A   1      41.692  35.622  36.040  1.00  0.00    -0.206 F 
ATOM     89  C   UNL A   1      40.593  36.496  37.920  1.00  0.00     0.059 A 
ATOM     90  C   UNL A   1      38.770  35.255  38.939  1.00  0.00     0.059 A 
ATOM     91  F   UNL A   1      38.138  33.177  38.052  1.00  0.00    -0.206 F 
ATOM     92  C   UNL A   1      39.613  36.366  38.906  1.00  0.00     0.060 A 
BRANCH  92  93
ATOM     93  S   UNL A   1      39.437  37.673  40.139  1.00  0.00     0.124 S 
ATOM     94  O   UNL A   1      40.658  38.441  39.927  1.00  0.00    -0.237 OA
ATOM     95  O   UNL A   1      38.198  38.328  39.733  1.00  0.00    -0.237 OA
ATOM     96  O   UNL A   1      39.366  36.940  41.400  1.00  0.00    -0.744 OA
ENDBRANCH  92  93
ENDBRANCH  60  85
ENDBRANCH  34  35
ENDBRANCH  27  29
ENDBRANCH  26  27
ENDBRANCH  25  26
ENDBRANCH  24  25
ENDBRANCH   1  24
TORSDOF 20
ENDMDL
MODEL 3
REMARK VINA RESULT:     -10.4      5.923      8.472
REMARK SMILES C[C@H]1[C@H](C(=O)OCCOCCOC(=O)c2ccc(-c3c4nc(c(-c5c(F)cc(S(=O)(=O)[O-])cc5F)c5ccc([nH]5)c(-c5c(F)cc(S(=O)(=O)[O-])cc5F)c5nc(c(-c6c(F)cc(S(=O)(=O)[O-])cc6F)c6ccc3[nH]6)C=C5)C=C4)cc2)CCN1C(=O)NCc1ccncc1
REMARK SMILES IDX 9 1 8 2 7 3 6 4 4 5 5 6 3 7 1 8 2 9 83 10 81 11 82 12 84 13
REMARK SMILES IDX 85 14 86 15 87 17 88 18 89 19 93 20 90 21 92 22 91 23 10 24
REMARK SMILES IDX 11 25 12 26 13 27 14 28 15 29 16 30 80 31 17 32 79 33 18 34
REMARK SMILES IDX 19 35 20 36 73 37 21 38 78 39 72 40 74 41 22 42 77 43 71 44
REMARK SMILES IDX 70 45 23 47 57 48 36 49 56 50 37 51 40 52 55 53 75 54 38 55
REMARK SMILES IDX 39 56 54 58 76 59 41 60 24 61 25 62 34 63 26 64 27 65 33 66
REMARK SMILES IDX 35 67 28 68 29 69 30 70 31 71 32 72 58 73 59 74 68 75 60 76
REMARK SMILES IDX 61 77 67 78 69 79 62 80 63 81 64 82 65 83 66 84 42 85 43 86
REMARK SMILES IDX 52 87 44 88 45 89 51 90 53 91 46 92 47 93 48 94 49 95 50 96
REMARK H PARENT 86 16 74 46 40 57
REMARK Flexibility Score: inf
ROOT
ATOM      1  O   UNL A   1      37.439  22.248  24.523  1.00  0.00    -0.374 OA
ENDROOT
BRANCH   1   2
ATOM      2  C   UNL A   1      36.201  22.817  24.939  1.00  0.00     0.202 C 
BRANCH   2   3
ATOM      3  C   UNL A   1      35.731  24.091  24.225  1.00  0.00     0.261 C 
BRANCH   3   4
ATOM      4  O   UNL A   1      34.737  23.867  23.208  1.00  0.00    -0.463 OA
BRANCH   4   5
ATOM      5  C   UNL A   1      33.932  24.927  22.931  1.00  0.00     0.311 C 
ATOM      6  O   UNL A   1      34.115  25.730  22.022  1.00  0.00    -0.252 OA
BRANCH   5   7
ATOM      7  C   UNL A   1      32.777  25.081  23.894  1.00  0.00     0.123 C 
ATOM      8  C   UNL A   1      30.657  23.762  23.615  1.00  0.00     0.032 C 
ATOM      9  C   UNL A   1      32.018  23.804  24.329  1.00  0.00     0.098 C 
ATOM     10  N   UNL A   1      31.841  23.942  25.783  1.00  0.00    -0.321 N 
ATOM     11  C   UNL A   1      33.268  25.708  25.192  1.00  0.00     0.039 C 
ATOM     12  C   UNL A   1      32.211  25.290  26.189  1.00  0.00     0.122 C 
BRANCH  10  13
ATOM     13  C   UNL A   1      31.498  23.058  26.758  1.00  0.00     0.317 C 
ATOM     14  O   UNL A   1      30.467  23.213  27.423  1.00  0.00    -0.249 OA
ATOM     15  N   UNL A   1      32.211  21.974  27.086  1.00  0.00    -0.334 N 
ATOM     16  H   UNL A   1      31.887  21.565  27.920  1.00  0.00     0.165 HD
BRANCH  15  17
ATOM     17  C   UNL A   1      33.333  21.245  26.539  1.00  0.00     0.153 C 
BRANCH  17  18
ATOM     18  C   UNL A   1      32.982  20.197  25.507  1.00  0.00    -0.026 A 
ATOM     19  C   UNL A   1      32.737  20.470  24.158  1.00  0.00     0.025 A 
ATOM     20  C   UNL A   1      32.920  18.857  25.921  1.00  0.00     0.025 A 
ATOM     21  C   UNL A   1      32.403  19.419  23.313  1.00  0.00     0.111 A 
ATOM     22  C   UNL A   1      32.569  17.878  25.006  1.00  0.00     0.111 A 
ATOM     23  N   UNL A   1      32.303  18.135  23.713  1.00  0.00    -0.265 NA
ENDBRANCH  17  18
ENDBRANCH  15  17
ENDBRANCH  10  13
ENDBRANCH   5   7
ENDBRANCH   4   5
ENDBRANCH   3   4
ENDBRANCH   2   3
ENDBRANCH   1   2
BRANCH   1  24
ATOM     24  C   UNL A   1      37.996  21.205  25.315  1.00  0.00     0.202 C 
BRANCH  24  25
ATOM     25  C   UNL A   1      39.315  21.487  26.043  1.00  0.00     0.261 C 
BRANCH  25  26
ATOM     26  O   UNL A   1      39.867  20.329  26.697  1.00  0.00    -0.460 OA
BRANCH  26  27
ATOM     27  C   UNL A   1      41.128  20.023  26.290  1.00  0.00     0.338 C 
ATOM     28  O   UNL A   1      41.465  18.999  25.709  1.00  0.00    -0.246 OA
BRANCH  27  29
ATOM     29  C   UNL A   1      42.090  21.118  26.526  1.00  0.00     0.060 A 
ATOM     30  C   UNL A   1      42.330  21.475  27.858  1.00  0.00     0.016 A 
ATOM     31  C   UNL A   1      42.605  21.896  25.487  1.00  0.00     0.016 A 
ATOM     32  C   UNL A   1      43.001  22.659  28.155  1.00  0.00     0.010 A 
ATOM     33  C   UNL A   1      43.256  23.100  25.784  1.00  0.00     0.010 A 
ATOM     34  C   UNL A   1      43.411  23.509  27.118  1.00  0.00    -0.014 A 
BRANCH  34  35
ATOM     35  C   UNL A   1      43.887  24.869  27.462  1.00  0.00     0.031 A 
ATOM     36  C   UNL A   1      45.339  25.215  27.264  1.00  0.00     0.074 A 
ATOM     37  C   UNL A   1      43.019  25.801  27.888  1.00  0.00     0.049 A 
ATOM     38  N   UNL A   1      45.927  26.380  27.341  1.00  0.00    -0.248 NA
ATOM     39  C   UNL A   1      46.243  24.103  26.929  1.00  0.00     0.031 C 
ATOM     40  C   UNL A   1      41.594  25.578  28.124  1.00  0.00     0.029 A 
ATOM     41  N   UNL A   1      43.211  27.124  28.190  1.00  0.00    -0.354 N 
ATOM     42  C   UNL A   1      47.263  26.152  27.032  1.00  0.00     0.074 A 
ATOM     43  C   UNL A   1      47.407  24.729  26.808  1.00  0.00     0.031 C 
ATOM     44  C   UNL A   1      41.038  26.726  28.547  1.00  0.00     0.029 A 
ATOM     45  C   UNL A   1      42.068  27.763  28.603  1.00  0.00     0.049 A 
ATOM     46  H   UNL A   1      44.084  27.572  28.120  1.00  0.00     0.167 HD
ATOM     47  C   UNL A   1      48.274  27.050  26.933  1.00  0.00     0.037 A 
ATOM     48  C   UNL A   1      41.873  29.044  28.972  1.00  0.00     0.037 A 
ATOM     49  C   UNL A   1      48.131  28.459  27.198  1.00  0.00     0.049 A 
ATOM     50  C   UNL A   1      43.016  30.018  28.888  1.00  0.00     0.074 A 
ATOM     51  C   UNL A   1      49.085  29.458  27.102  1.00  0.00     0.029 A 
ATOM     52  N   UNL A   1      46.962  29.067  27.632  1.00  0.00    -0.354 N 
ATOM     53  N   UNL A   1      44.254  29.804  28.511  1.00  0.00    -0.248 NA
ATOM     54  C   UNL A   1      42.729  31.410  29.258  1.00  0.00     0.031 C 
ATOM     55  C   UNL A   1      48.503  30.663  27.518  1.00  0.00     0.029 A 
ATOM     56  C   UNL A   1      47.176  30.421  27.833  1.00  0.00     0.049 A 
ATOM     57  H   UNL A   1      46.105  28.604  27.777  1.00  0.00     0.167 HD
ATOM     58  C   UNL A   1      44.888  31.041  28.573  1.00  0.00     0.074 A 
ATOM     59  C   UNL A   1      43.893  31.997  29.014  1.00  0.00     0.031 C 
ATOM     60  C   UNL A   1      46.175  31.357  28.282  1.00  0.00     0.037 A 
BRANCH  47  61
ATOM     61  C   UNL A   1      49.627  26.534  26.526  1.00  0.00     0.058 A 
ATOM     62  C   UNL A   1      50.527  26.017  27.471  1.00  0.00     0.135 A 
ATOM     63  C   UNL A   1      50.012  26.515  25.176  1.00  0.00     0.135 A 
ATOM     64  F   UNL A   1      50.213  26.021  28.776  1.00  0.00    -0.206 F 
ATOM     65  C   UNL A   1      51.769  25.515  27.094  1.00  0.00     0.059 A 
ATOM     66  C   UNL A   1      51.242  26.000  24.774  1.00  0.00     0.059 A 
ATOM     67  F   UNL A   1      49.190  26.997  24.231  1.00  0.00    -0.206 F 
ATOM     68  C   UNL A   1      52.119  25.513  25.743  1.00  0.00     0.060 A 
BRANCH  68  69
ATOM     69  S   UNL A   1      53.729  24.845  25.267  1.00  0.00     0.124 S 
ATOM     70  O   UNL A   1      54.009  25.599  24.048  1.00  0.00    -0.237 OA
ATOM     71  O   UNL A   1      54.560  25.176  26.420  1.00  0.00    -0.237 OA
ATOM     72  O   UNL A   1      53.464  23.423  25.077  1.00  0.00    -0.744 OA
ENDBRANCH  68  69
ENDBRANCH  47  61
BRANCH  48  73
ATOM     73  C   UNL A   1      40.527  29.477  29.425  1.00  0.00     0.058 A 
ATOM     74  C   UNL A   1      40.251  29.692  30.781  1.00  0.00     0.135 A 
ATOM     75  C   UNL A   1      39.499  29.712  28.499  1.00  0.00     0.135 A 
ATOM     76  F   UNL A   1      41.203  29.474  31.703  1.00  0.00    -0.206 F 
ATOM     77  C   UNL A   1      38.999  30.122  31.210  1.00  0.00     0.059 A 
ATOM     78  C   UNL A   1      38.245  30.161  28.901  1.00  0.00     0.059 A 
ATOM     79  F   UNL A   1      39.719  29.532  27.188  1.00  0.00    -0.206 F 
ATOM     80  C   UNL A   1      38.003  30.358  30.260  1.00  0.00     0.060 A 
BRANCH  80  81
ATOM     81  S   UNL A   1      36.403  30.985  30.816  1.00  0.00     0.124 S 
ATOM     82  O   UNL A   1      35.595  30.837  29.612  1.00  0.00    -0.237 OA
ATOM     83  O   UNL A   1      36.083  30.083  31.917  1.00  0.00    -0.237 OA
ATOM     84  O   UNL A   1      36.704  32.358  31.211  1.00  0.00    -0.744 OA
ENDBRANCH  80  81
ENDBRANCH  48  73
BRANCH  60  85
ATOM     85  C   UNL A   1      46.568  32.802  28.416  1.00  0.00     0.058 A 
ATOM     86  C   UNL A   1      46.416  33.707  27.354  1.00  0.00     0.135 A 
ATOM     87  C   UNL A   1      47.091  33.289  29.626  1.00  0.00     0.135 A 
ATOM     88  F   UNL A   1      45.927  33.290  26.177  1.00  0.00    -0.206 F 
ATOM     89  C   UNL A   1      46.803  35.038  27.474  1.00  0.00     0.059 A 
ATOM     90  C   UNL A   1      47.462  34.621  29.775  1.00  0.00     0.059 A 
ATOM     91  F   UNL A   1      47.245  32.467  30.675  1.00  0.00    -0.206 F 
ATOM     92  C   UNL A   1      47.332  35.484  28.687  1.00  0.00     0.060 A 
BRANCH  92  93
ATOM     93  S   UNL A   1      47.834  37.212  28.836  1.00  0.00     0.124 S 
ATOM     94  O   UNL A   1      47.349  37.767  27.577  1.00  0.00    -0.237 OA
ATOM     95  O   UNL A   1      47.124  37.647  30.035  1.00  0.00    -0.237 OA
ATOM     96  O   UNL A   1      49.285  37.131  28.970  1.00  0.00    -0.744 OA
ENDBRANCH  92  93
ENDBRANCH  60  85
ENDBRANCH  34  35
ENDBRANCH  27  29
ENDBRANCH  26  27
ENDBRANCH  25  26
ENDBRANCH  24  25
ENDBRANCH   1  24
TORSDOF 20
ENDMDL
