MODEL 1
REMARK VINA RESULT:     -11.4      0.000      0.000
REMARK SMILES C[C@H]1[C@H](C(=O)OCCOCCOC(=O)c2ccc(-c3c4nc(c(-c5c(F)cc(S(=O)(=O)[O-])cc5F)c5ccc([nH]5)c(-c5c(F)cc(S(=O)(=O)[O-])cc5F)c5nc(c(-c6c(F)cc(S(=O)(=O)[O-])cc6F)c6ccc3[nH]6)C=C5)C=C4)cc2)CCN1C(=O)c1ccc2ccccc2c1
REMARK SMILES IDX 10 1 9 2 8 3 7 4 6 5 4 6 5 7 3 8 1 9 2 10 83 11 81 12 82 13
REMARK SMILES IDX 84 14 85 15 86 16 87 17 95 18 88 19 94 20 89 21 93 22 90 23
REMARK SMILES IDX 92 24 91 25 11 26 12 27 13 28 14 29 15 30 16 31 80 32 17 33
REMARK SMILES IDX 79 34 18 35 19 36 20 37 73 38 21 39 78 40 72 41 74 42 22 43
REMARK SMILES IDX 77 44 71 45 70 46 23 48 57 49 36 50 56 51 37 52 40 53 55 54
REMARK SMILES IDX 75 55 38 56 39 57 54 59 76 60 41 61 24 62 25 63 34 64 26 65
REMARK SMILES IDX 27 66 33 67 35 68 28 69 29 70 30 71 31 72 32 73 58 74 59 75
REMARK SMILES IDX 68 76 60 77 61 78 67 79 69 80 62 81 63 82 64 83 65 84 66 85
REMARK SMILES IDX 42 86 43 87 52 88 44 89 45 90 51 91 53 92 46 93 47 94 48 95
REMARK SMILES IDX 49 96 50 97
REMARK H PARENT 74 47 40 58
REMARK Flexibility Score: inf
ROOT
ATOM      1  C   UNL A   1      43.031  22.430  25.840  1.00  0.00     0.202 C 
ENDROOT
BRANCH   1   2
ATOM      2  O   UNL A   1      41.841  21.750  25.451  1.00  0.00    -0.374 OA
BRANCH   2   3
ATOM      3  C   UNL A   1      40.945  21.333  26.479  1.00  0.00     0.202 C 
BRANCH   3   4
ATOM      4  C   UNL A   1      39.741  22.238  26.759  1.00  0.00     0.261 C 
BRANCH   4   5
ATOM      5  O   UNL A   1      38.654  21.997  25.848  1.00  0.00    -0.463 OA
BRANCH   5   6
ATOM      6  C   UNL A   1      37.726  22.986  25.760  1.00  0.00     0.311 C 
ATOM      7  O   UNL A   1      37.840  24.105  26.245  1.00  0.00    -0.252 OA
BRANCH   6   8
ATOM      8  C   UNL A   1      36.472  22.556  25.036  1.00  0.00     0.123 C 
ATOM      9  C   UNL A   1      34.590  21.542  26.367  1.00  0.00     0.032 C 
ATOM     10  C   UNL A   1      35.115  22.832  25.729  1.00  0.00     0.096 C 
ATOM     11  N   UNL A   1      34.250  23.324  24.644  1.00  0.00    -0.335 N 
ATOM     12  C   UNL A   1      36.399  23.280  23.697  1.00  0.00     0.039 C 
ATOM     13  C   UNL A   1      34.927  23.257  23.363  1.00  0.00     0.121 C 
BRANCH  11  14
ATOM     14  C   UNL A   1      32.985  23.885  24.695  1.00  0.00     0.254 C 
ATOM     15  O   UNL A   1      31.988  23.337  24.228  1.00  0.00    -0.269 OA
BRANCH  14  16
ATOM     16  C   UNL A   1      32.756  25.122  25.458  1.00  0.00     0.040 A 
ATOM     17  C   UNL A   1      31.442  25.374  25.863  1.00  0.00     0.014 A 
ATOM     18  C   UNL A   1      33.743  26.100  25.594  1.00  0.00     0.022 A 
ATOM     19  C   UNL A   1      31.117  26.592  26.453  1.00  0.00     0.009 A 
ATOM     20  C   UNL A   1      33.417  27.348  26.165  1.00  0.00    -0.018 A 
ATOM     21  C   UNL A   1      32.092  27.588  26.608  1.00  0.00    -0.018 A 
ATOM     22  C   UNL A   1      34.359  28.386  26.278  1.00  0.00     0.009 A 
ATOM     23  C   UNL A   1      31.758  28.832  27.168  1.00  0.00     0.009 A 
ATOM     24  C   UNL A   1      34.011  29.619  26.835  1.00  0.00     0.001 A 
ATOM     25  C   UNL A   1      32.713  29.841  27.285  1.00  0.00     0.001 A 
ENDBRANCH  14  16
ENDBRANCH  11  14
ENDBRANCH   6   8
ENDBRANCH   5   6
ENDBRANCH   4   5
ENDBRANCH   3   4
ENDBRANCH   2   3
ENDBRANCH   1   2
BRANCH   1  26
ATOM     26  C   UNL A   1      43.177  23.900  25.428  1.00  0.00     0.261 C 
BRANCH  26  27
ATOM     27  O   UNL A   1      41.997  24.673  25.699  1.00  0.00    -0.460 OA
BRANCH  27  28
ATOM     28  C   UNL A   1      42.208  26.014  25.703  1.00  0.00     0.338 C 
ATOM     29  O   UNL A   1      42.269  26.746  24.730  1.00  0.00    -0.246 OA
BRANCH  28  30
ATOM     30  C   UNL A   1      42.196  26.545  27.080  1.00  0.00     0.060 A 
ATOM     31  C   UNL A   1      41.127  26.166  27.900  1.00  0.00     0.016 A 
ATOM     32  C   UNL A   1      43.136  27.474  27.528  1.00  0.00     0.016 A 
ATOM     33  C   UNL A   1      40.944  26.783  29.133  1.00  0.00     0.010 A 
ATOM     34  C   UNL A   1      42.952  28.096  28.770  1.00  0.00     0.010 A 
ATOM     35  C   UNL A   1      41.823  27.792  29.551  1.00  0.00    -0.014 A 
BRANCH  35  36
ATOM     36  C   UNL A   1      41.431  28.634  30.709  1.00  0.00     0.031 A 
ATOM     37  C   UNL A   1      42.258  28.571  31.968  1.00  0.00     0.074 A 
ATOM     38  C   UNL A   1      40.416  29.511  30.611  1.00  0.00     0.049 A 
ATOM     39  N   UNL A   1      42.154  29.275  33.066  1.00  0.00    -0.248 NA
ATOM     40  C   UNL A   1      43.350  27.583  31.991  1.00  0.00     0.031 C 
ATOM     41  C   UNL A   1      39.561  29.683  29.438  1.00  0.00     0.029 A 
ATOM     42  N   UNL A   1      39.943  30.431  31.512  1.00  0.00    -0.354 N 
ATOM     43  C   UNL A   1      43.164  28.819  33.907  1.00  0.00     0.074 A 
ATOM     44  C   UNL A   1      43.845  27.750  33.209  1.00  0.00     0.031 C 
ATOM     45  C   UNL A   1      38.668  30.657  29.689  1.00  0.00     0.029 A 
ATOM     46  C   UNL A   1      38.879  31.165  31.044  1.00  0.00     0.049 A 
ATOM     47  H   UNL A   1      40.327  30.554  32.410  1.00  0.00     0.167 HD
ATOM     48  C   UNL A   1      43.507  29.262  35.140  1.00  0.00     0.037 A 
ATOM     49  C   UNL A   1      38.158  32.134  31.642  1.00  0.00     0.037 A 
ATOM     50  C   UNL A   1      42.834  30.331  35.829  1.00  0.00     0.049 A 
ATOM     51  C   UNL A   1      38.535  32.586  33.028  1.00  0.00     0.074 A 
ATOM     52  C   UNL A   1      43.114  30.865  37.076  1.00  0.00     0.029 A 
ATOM     53  N   UNL A   1      41.743  31.030  35.334  1.00  0.00    -0.354 N 
ATOM     54  N   UNL A   1      39.511  32.166  33.798  1.00  0.00    -0.248 NA
ATOM     55  C   UNL A   1      37.721  33.656  33.621  1.00  0.00     0.031 C 
ATOM     56  C   UNL A   1      42.166  31.858  37.351  1.00  0.00     0.029 A 
ATOM     57  C   UNL A   1      41.326  31.976  36.255  1.00  0.00     0.049 A 
ATOM     58  H   UNL A   1      41.325  30.876  34.454  1.00  0.00     0.167 HD
ATOM     59  C   UNL A   1      39.445  32.937  34.954  1.00  0.00     0.074 A 
ATOM     60  C   UNL A   1      38.341  33.858  34.777  1.00  0.00     0.031 C 
ATOM     61  C   UNL A   1      40.227  32.889  36.062  1.00  0.00     0.037 A 
BRANCH  48  62
ATOM     62  C   UNL A   1      44.654  28.576  35.830  1.00  0.00     0.058 A 
ATOM     63  C   UNL A   1      45.978  29.021  35.683  1.00  0.00     0.135 A 
ATOM     64  C   UNL A   1      44.423  27.473  36.668  1.00  0.00     0.135 A 
ATOM     65  F   UNL A   1      46.258  30.058  34.879  1.00  0.00    -0.206 F 
ATOM     66  C   UNL A   1      47.036  28.379  36.319  1.00  0.00     0.059 A 
ATOM     67  C   UNL A   1      45.464  26.831  37.336  1.00  0.00     0.059 A 
ATOM     68  F   UNL A   1      43.178  27.005  36.843  1.00  0.00    -0.206 F 
ATOM     69  C   UNL A   1      46.769  27.283  37.142  1.00  0.00     0.060 A 
BRANCH  69  70
ATOM     70  S   UNL A   1      48.151  26.457  37.959  1.00  0.00     0.124 S 
ATOM     71  O   UNL A   1      48.671  25.624  36.879  1.00  0.00    -0.237 OA
ATOM     72  O   UNL A   1      48.996  27.579  38.356  1.00  0.00    -0.237 OA
ATOM     73  O   UNL A   1      47.515  25.735  39.057  1.00  0.00    -0.744 OA
ENDBRANCH  69  70
ENDBRANCH  48  62
BRANCH  49  74
ATOM     74  C   UNL A   1      37.010  32.753  30.925  1.00  0.00     0.058 A 
ATOM     75  C   UNL A   1      37.177  33.896  30.131  1.00  0.00     0.135 A 
ATOM     76  C   UNL A   1      35.721  32.208  31.024  1.00  0.00     0.135 A 
ATOM     77  F   UNL A   1      38.390  34.459  30.013  1.00  0.00    -0.206 F 
ATOM     78  C   UNL A   1      36.106  34.486  29.469  1.00  0.00     0.059 A 
ATOM     79  C   UNL A   1      34.637  32.765  30.352  1.00  0.00     0.059 A 
ATOM     80  F   UNL A   1      35.510  31.107  31.763  1.00  0.00    -0.206 F 
ATOM     81  C   UNL A   1      34.838  33.911  29.584  1.00  0.00     0.060 A 
BRANCH  81  82
ATOM     82  S   UNL A   1      33.462  34.653  28.680  1.00  0.00     0.124 S 
ATOM     83  O   UNL A   1      33.073  33.565  27.792  1.00  0.00    -0.237 OA
ATOM     84  O   UNL A   1      32.524  34.969  29.753  1.00  0.00    -0.237 OA
ATOM     85  O   UNL A   1      34.072  35.810  28.033  1.00  0.00    -0.744 OA
ENDBRANCH  81  82
ENDBRANCH  49  74
BRANCH  61  86
ATOM     86  C   UNL A   1      39.940  33.884  37.152  1.00  0.00     0.058 A 
ATOM     87  C   UNL A   1      39.100  33.575  38.234  1.00  0.00     0.135 A 
ATOM     88  C   UNL A   1      40.534  35.157  37.127  1.00  0.00     0.135 A 
ATOM     89  F   UNL A   1      38.505  32.375  38.305  1.00  0.00    -0.206 F 
ATOM     90  C   UNL A   1      38.830  34.506  39.233  1.00  0.00     0.059 A 
ATOM     91  C   UNL A   1      40.300  36.093  38.130  1.00  0.00     0.059 A 
ATOM     92  F   UNL A   1      41.357  35.500  36.123  1.00  0.00    -0.206 F 
ATOM     93  C   UNL A   1      39.432  35.764  39.169  1.00  0.00     0.060 A 
BRANCH  93  94
ATOM     94  S   UNL A   1      39.078  36.962  40.474  1.00  0.00     0.124 S 
ATOM     95  O   UNL A   1      38.335  36.146  41.428  1.00  0.00    -0.237 OA
ATOM     96  O   UNL A   1      40.414  37.374  40.895  1.00  0.00    -0.237 OA
ATOM     97  O   UNL A   1      38.300  37.989  39.787  1.00  0.00    -0.744 OA
ENDBRANCH  93  94
ENDBRANCH  61  86
ENDBRANCH  35  36
ENDBRANCH  28  30
ENDBRANCH  27  28
ENDBRANCH  26  27
ENDBRANCH   1  26
TORSDOF 19
ENDMDL
MODEL 2
REMARK VINA RESULT:     -11.3      6.036     11.948
REMARK SMILES C[C@H]1[C@H](C(=O)OCCOCCOC(=O)c2ccc(-c3c4nc(c(-c5c(F)cc(S(=O)(=O)[O-])cc5F)c5ccc([nH]5)c(-c5c(F)cc(S(=O)(=O)[O-])cc5F)c5nc(c(-c6c(F)cc(S(=O)(=O)[O-])cc6F)c6ccc3[nH]6)C=C5)C=C4)cc2)CCN1C(=O)c1ccc2ccccc2c1
REMARK SMILES IDX 10 1 9 2 8 3 7 4 6 5 4 6 5 7 3 8 1 9 2 10 83 11 81 12 82 13
REMARK SMILES IDX 84 14 85 15 86 16 87 17 95 18 88 19 94 20 89 21 93 22 90 23
REMARK SMILES IDX 92 24 91 25 11 26 12 27 13 28 14 29 15 30 16 31 80 32 17 33
REMARK SMILES IDX 79 34 18 35 19 36 20 37 73 38 21 39 78 40 72 41 74 42 22 43
REMARK SMILES IDX 77 44 71 45 70 46 23 48 57 49 36 50 56 51 37 52 40 53 55 54
REMARK SMILES IDX 75 55 38 56 39 57 54 59 76 60 41 61 24 62 25 63 34 64 26 65
REMARK SMILES IDX 27 66 33 67 35 68 28 69 29 70 30 71 31 72 32 73 58 74 59 75
REMARK SMILES IDX 68 76 60 77 61 78 67 79 69 80 62 81 63 82 64 83 65 84 66 85
REMARK SMILES IDX 42 86 43 87 52 88 44 89 45 90 51 91 53 92 46 93 47 94 48 95
REMARK SMILES IDX 49 96 50 97
REMARK H PARENT 74 47 40 58
REMARK Flexibility Score: inf
ROOT
ATOM      1  C   UNL A   1      34.858  32.848  29.256  1.00  0.00     0.202 C 
ENDROOT
BRANCH   1   2
ATOM      2  O   UNL A   1      33.801  32.285  28.485  1.00  0.00    -0.374 OA
BRANCH   2   3
ATOM      3  C   UNL A   1      34.100  31.155  27.666  1.00  0.00     0.202 C 
BRANCH   3   4
ATOM      4  C   UNL A   1      32.912  30.350  27.134  1.00  0.00     0.261 C 
BRANCH   4   5
ATOM      5  O   UNL A   1      33.287  29.018  26.741  1.00  0.00    -0.463 OA
BRANCH   5   6
ATOM      6  C   UNL A   1      32.264  28.191  26.400  1.00  0.00     0.311 C 
ATOM      7  O   UNL A   1      31.578  27.556  27.191  1.00  0.00    -0.252 OA
BRANCH   6   8
ATOM      8  C   UNL A   1      32.073  28.073  24.906  1.00  0.00     0.123 C 
ATOM      9  C   UNL A   1      34.031  28.538  23.392  1.00  0.00     0.032 C 
ATOM     10  C   UNL A   1      33.223  27.437  24.086  1.00  0.00     0.096 C 
ATOM     11  N   UNL A   1      32.536  26.549  23.133  1.00  0.00    -0.335 N 
ATOM     12  C   UNL A   1      30.849  27.208  24.629  1.00  0.00     0.039 C 
ATOM     13  C   UNL A   1      31.095  26.684  23.234  1.00  0.00     0.121 C 
BRANCH  11  14
ATOM     14  C   UNL A   1      33.051  25.600  22.267  1.00  0.00     0.254 C 
ATOM     15  O   UNL A   1      33.250  25.818  21.073  1.00  0.00    -0.269 OA
BRANCH  14  16
ATOM     16  C   UNL A   1      33.527  24.308  22.784  1.00  0.00     0.040 A 
ATOM     17  C   UNL A   1      32.551  23.416  23.238  1.00  0.00     0.014 A 
ATOM     18  C   UNL A   1      34.882  24.056  23.010  1.00  0.00     0.022 A 
ATOM     19  C   UNL A   1      32.928  22.240  23.882  1.00  0.00     0.009 A 
ATOM     20  C   UNL A   1      35.272  22.880  23.686  1.00  0.00    -0.018 A 
ATOM     21  C   UNL A   1      34.282  21.960  24.114  1.00  0.00    -0.018 A 
ATOM     22  C   UNL A   1      36.618  22.604  23.985  1.00  0.00     0.009 A 
ATOM     23  C   UNL A   1      34.663  20.793  24.796  1.00  0.00     0.009 A 
ATOM     24  C   UNL A   1      36.980  21.439  24.667  1.00  0.00     0.001 A 
ATOM     25  C   UNL A   1      36.004  20.532  25.068  1.00  0.00     0.001 A 
ENDBRANCH  14  16
ENDBRANCH  11  14
ENDBRANCH   6   8
ENDBRANCH   5   6
ENDBRANCH   4   5
ENDBRANCH   3   4
ENDBRANCH   2   3
ENDBRANCH   1   2
BRANCH   1  26
ATOM     26  C   UNL A   1      34.978  32.416  30.722  1.00  0.00     0.261 C 
BRANCH  26  27
ATOM     27  O   UNL A   1      35.880  31.313  30.905  1.00  0.00    -0.460 OA
BRANCH  27  28
ATOM     28  C   UNL A   1      37.138  31.684  31.255  1.00  0.00     0.338 C 
ATOM     29  O   UNL A   1      37.448  32.509  32.096  1.00  0.00    -0.246 OA
BRANCH  28  30
ATOM     30  C   UNL A   1      38.142  30.828  30.592  1.00  0.00     0.060 A 
ATOM     31  C   UNL A   1      39.142  30.277  31.400  1.00  0.00     0.016 A 
ATOM     32  C   UNL A   1      38.178  30.658  29.207  1.00  0.00     0.016 A 
ATOM     33  C   UNL A   1      40.229  29.631  30.819  1.00  0.00     0.010 A 
ATOM     34  C   UNL A   1      39.272  30.008  28.621  1.00  0.00     0.010 A 
ATOM     35  C   UNL A   1      40.329  29.543  29.423  1.00  0.00    -0.014 A 
BRANCH  35  36
ATOM     36  C   UNL A   1      41.628  29.132  28.833  1.00  0.00     0.031 A 
ATOM     37  C   UNL A   1      42.746  30.139  28.761  1.00  0.00     0.074 A 
ATOM     38  C   UNL A   1      41.840  27.858  28.456  1.00  0.00     0.049 A 
ATOM     39  N   UNL A   1      43.984  29.980  28.367  1.00  0.00    -0.248 NA
ATOM     40  C   UNL A   1      42.428  31.510  29.193  1.00  0.00     0.031 C 
ATOM     41  C   UNL A   1      40.846  26.787  28.503  1.00  0.00     0.029 A 
ATOM     42  N   UNL A   1      42.970  27.248  27.971  1.00  0.00    -0.354 N 
ATOM     43  C   UNL A   1      44.591  31.223  28.505  1.00  0.00     0.074 A 
ATOM     44  C   UNL A   1      43.575  32.138  28.981  1.00  0.00     0.031 C 
ATOM     45  C   UNL A   1      41.412  25.648  28.069  1.00  0.00     0.029 A 
ATOM     46  C   UNL A   1      42.802  25.912  27.700  1.00  0.00     0.049 A 
ATOM     47  H   UNL A   1      43.820  27.723  27.830  1.00  0.00     0.167 HD
ATOM     48  C   UNL A   1      45.879  31.570  28.276  1.00  0.00     0.037 A 
ATOM     49  C   UNL A   1      43.672  25.006  27.209  1.00  0.00     0.037 A 
ATOM     50  C   UNL A   1      46.890  30.657  27.810  1.00  0.00     0.049 A 
ATOM     51  C   UNL A   1      45.091  25.422  26.928  1.00  0.00     0.074 A 
ATOM     52  C   UNL A   1      48.229  30.905  27.561  1.00  0.00     0.029 A 
ATOM     53  N   UNL A   1      46.674  29.317  27.520  1.00  0.00    -0.354 N 
ATOM     54  N   UNL A   1      45.656  26.595  27.092  1.00  0.00    -0.248 NA
ATOM     55  C   UNL A   1      45.995  24.388  26.407  1.00  0.00     0.031 C 
ATOM     56  C   UNL A   1      48.812  29.727  27.080  1.00  0.00     0.029 A 
ATOM     57  C   UNL A   1      47.848  28.732  27.077  1.00  0.00     0.049 A 
ATOM     58  H   UNL A   1      45.811  28.851  27.615  1.00  0.00     0.167 HD
ATOM     59  C   UNL A   1      46.988  26.433  26.720  1.00  0.00     0.074 A 
ATOM     60  C   UNL A   1      47.146  25.045  26.336  1.00  0.00     0.031 C 
ATOM     61  C   UNL A   1      47.989  27.347  26.701  1.00  0.00     0.037 A 
BRANCH  48  62
ATOM     62  C   UNL A   1      46.265  33.005  28.509  1.00  0.00     0.058 A 
ATOM     63  C   UNL A   1      46.184  33.967  27.489  1.00  0.00     0.135 A 
ATOM     64  C   UNL A   1      46.700  33.428  29.775  1.00  0.00     0.135 A 
ATOM     65  F   UNL A   1      45.794  33.614  26.254  1.00  0.00    -0.206 F 
ATOM     66  C   UNL A   1      46.549  35.292  27.709  1.00  0.00     0.059 A 
ATOM     67  C   UNL A   1      47.044  34.755  30.025  1.00  0.00     0.059 A 
ATOM     68  F   UNL A   1      46.798  32.550  30.785  1.00  0.00    -0.206 F 
ATOM     69  C   UNL A   1      46.980  35.676  28.980  1.00  0.00     0.060 A 
BRANCH  69  70
ATOM     70  S   UNL A   1      47.452  37.397  29.251  1.00  0.00     0.124 S 
ATOM     71  O   UNL A   1      48.259  37.289  30.462  1.00  0.00    -0.237 OA
ATOM     72  O   UNL A   1      48.184  37.717  28.029  1.00  0.00    -0.237 OA
ATOM     73  O   UNL A   1      46.172  38.081  29.408  1.00  0.00    -0.744 OA
ENDBRANCH  69  70
ENDBRANCH  48  62
BRANCH  49  74
ATOM     74  C   UNL A   1      43.225  23.608  26.963  1.00  0.00     0.058 A 
ATOM     75  C   UNL A   1      42.950  23.148  25.668  1.00  0.00     0.135 A 
ATOM     76  C   UNL A   1      43.066  22.705  28.026  1.00  0.00     0.135 A 
ATOM     77  F   UNL A   1      43.078  23.977  24.620  1.00  0.00    -0.206 F 
ATOM     78  C   UNL A   1      42.520  21.846  25.433  1.00  0.00     0.059 A 
ATOM     79  C   UNL A   1      42.662  21.390  27.814  1.00  0.00     0.059 A 
ATOM     80  F   UNL A   1      43.328  23.093  29.284  1.00  0.00    -0.206 F 
ATOM     81  C   UNL A   1      42.381  20.973  26.514  1.00  0.00     0.060 A 
BRANCH  81  82
ATOM     82  S   UNL A   1      41.873  19.269  26.195  1.00  0.00     0.124 S 
ATOM     83  O   UNL A   1      40.436  19.423  26.003  1.00  0.00    -0.237 OA
ATOM     84  O   UNL A   1      42.645  18.937  25.002  1.00  0.00    -0.237 OA
ATOM     85  O   UNL A   1      42.278  18.567  27.408  1.00  0.00    -0.744 OA
ENDBRANCH  81  82
ENDBRANCH  49  74
BRANCH  61  86
ATOM     86  C   UNL A   1      49.353  26.868  26.285  1.00  0.00     0.058 A 
ATOM     87  C   UNL A   1      50.254  26.310  27.205  1.00  0.00     0.135 A 
ATOM     88  C   UNL A   1      49.754  26.945  24.940  1.00  0.00     0.135 A 
ATOM     89  F   UNL A   1      49.923  26.215  28.502  1.00  0.00    -0.206 F 
ATOM     90  C   UNL A   1      51.519  25.879  26.815  1.00  0.00     0.059 A 
ATOM     91  C   UNL A   1      51.002  26.494  24.523  1.00  0.00     0.059 A 
ATOM     92  F   UNL A   1      48.925  27.456  24.016  1.00  0.00    -0.206 F 
ATOM     93  C   UNL A   1      51.885  25.980  25.471  1.00  0.00     0.060 A 
BRANCH  93  94
ATOM     94  S   UNL A   1      53.527  25.415  24.974  1.00  0.00     0.124 S 
ATOM     95  O   UNL A   1      53.440  23.984  25.251  1.00  0.00    -0.237 OA
ATOM     96  O   UNL A   1      53.574  25.786  23.563  1.00  0.00    -0.237 OA
ATOM     97  O   UNL A   1      54.423  26.170  25.845  1.00  0.00    -0.744 OA
ENDBRANCH  93  94
ENDBRANCH  61  86
ENDBRANCH  35  36
ENDBRANCH  28  30
ENDBRANCH  27  28
ENDBRANCH  26  27
ENDBRANCH   1  26
TORSDOF 19
ENDMDL
MODEL 3
REMARK VINA RESULT:     -11.3      2.683      8.743
REMARK SMILES C[C@H]1[C@H](C(=O)OCCOCCOC(=O)c2ccc(-c3c4nc(c(-c5c(F)cc(S(=O)(=O)[O-])cc5F)c5ccc([nH]5)c(-c5c(F)cc(S(=O)(=O)[O-])cc5F)c5nc(c(-c6c(F)cc(S(=O)(=O)[O-])cc6F)c6ccc3[nH]6)C=C5)C=C4)cc2)CCN1C(=O)c1ccc2ccccc2c1
REMARK SMILES IDX 10 1 9 2 8 3 7 4 6 5 4 6 5 7 3 8 1 9 2 10 83 11 81 12 82 13
REMARK SMILES IDX 84 14 85 15 86 16 87 17 95 18 88 19 94 20 89 21 93 22 90 23
REMARK SMILES IDX 92 24 91 25 11 26 12 27 13 28 14 29 15 30 16 31 80 32 17 33
REMARK SMILES IDX 79 34 18 35 19 36 20 37 73 38 21 39 78 40 72 41 74 42 22 43
REMARK SMILES IDX 77 44 71 45 70 46 23 48 57 49 36 50 56 51 37 52 40 53 55 54
REMARK SMILES IDX 75 55 38 56 39 57 54 59 76 60 41 61 24 62 25 63 34 64 26 65
REMARK SMILES IDX 27 66 33 67 35 68 28 69 29 70 30 71 31 72 32 73 58 74 59 75
REMARK SMILES IDX 68 76 60 77 61 78 67 79 69 80 62 81 63 82 64 83 65 84 66 85
REMARK SMILES IDX 42 86 43 87 52 88 44 89 45 90 51 91 53 92 46 93 47 94 48 95
REMARK SMILES IDX 49 96 50 97
REMARK H PARENT 74 47 40 58
REMARK Flexibility Score: inf
ROOT
ATOM      1  C   UNL A   1      36.480  21.443  24.664  1.00  0.00     0.202 C 
ENDROOT
BRANCH   1   2
ATOM      2  O   UNL A   1      35.443  20.899  25.475  1.00  0.00    -0.374 OA
BRANCH   2   3
ATOM      3  C   UNL A   1      35.049  21.630  26.635  1.00  0.00     0.202 C 
BRANCH   3   4
ATOM      4  C   UNL A   1      33.558  21.626  26.985  1.00  0.00     0.261 C 
BRANCH   4   5
ATOM      5  O   UNL A   1      32.786  22.453  26.095  1.00  0.00    -0.463 OA
BRANCH   5   6
ATOM      6  C   UNL A   1      32.131  21.800  25.100  1.00  0.00     0.311 C 
ATOM      7  O   UNL A   1      31.677  20.666  25.181  1.00  0.00    -0.252 OA
BRANCH   6   8
ATOM      8  C   UNL A   1      32.057  22.598  23.819  1.00  0.00     0.123 C 
ATOM      9  C   UNL A   1      30.445  24.527  23.685  1.00  0.00     0.032 C 
ATOM     10  C   UNL A   1      31.903  24.134  23.942  1.00  0.00     0.096 C 
ATOM     11  N   UNL A   1      32.825  24.670  22.927  1.00  0.00    -0.335 N 
ATOM     12  C   UNL A   1      33.339  22.380  23.024  1.00  0.00     0.039 C 
ATOM     13  C   UNL A   1      33.420  23.604  22.143  1.00  0.00     0.121 C 
BRANCH  11  14
ATOM     14  C   UNL A   1      33.236  25.971  22.693  1.00  0.00     0.254 C 
ATOM     15  O   UNL A   1      33.715  26.342  21.622  1.00  0.00    -0.269 OA
BRANCH  14  16
ATOM     16  C   UNL A   1      32.976  27.019  23.691  1.00  0.00     0.040 A 
ATOM     17  C   UNL A   1      31.947  27.920  23.401  1.00  0.00     0.014 A 
ATOM     18  C   UNL A   1      33.834  27.243  24.770  1.00  0.00     0.022 A 
ATOM     19  C   UNL A   1      31.740  29.029  24.218  1.00  0.00     0.009 A 
ATOM     20  C   UNL A   1      33.650  28.378  25.587  1.00  0.00    -0.018 A 
ATOM     21  C   UNL A   1      32.584  29.271  25.312  1.00  0.00    -0.018 A 
ATOM     22  C   UNL A   1      34.517  28.678  26.653  1.00  0.00     0.009 A 
ATOM     23  C   UNL A   1      32.401  30.408  26.115  1.00  0.00     0.009 A 
ATOM     24  C   UNL A   1      34.323  29.815  27.442  1.00  0.00     0.001 A 
ATOM     25  C   UNL A   1      33.263  30.677  27.177  1.00  0.00     0.001 A 
ENDBRANCH  14  16
ENDBRANCH  11  14
ENDBRANCH   6   8
ENDBRANCH   5   6
ENDBRANCH   4   5
ENDBRANCH   3   4
ENDBRANCH   2   3
ENDBRANCH   1   2
BRANCH   1  26
ATOM     26  C   UNL A   1      37.880  21.554  25.280  1.00  0.00     0.261 C 
BRANCH  26  27
ATOM     27  O   UNL A   1      38.299  22.915  25.465  1.00  0.00    -0.460 OA
BRANCH  27  28
ATOM     28  C   UNL A   1      39.442  23.045  26.188  1.00  0.00     0.338 C 
ATOM     29  O   UNL A   1      40.389  22.278  26.199  1.00  0.00    -0.246 OA
BRANCH  28  30
ATOM     30  C   UNL A   1      39.488  24.353  26.869  1.00  0.00     0.060 A 
ATOM     31  C   UNL A   1      40.278  25.349  26.285  1.00  0.00     0.016 A 
ATOM     32  C   UNL A   1      38.871  24.572  28.103  1.00  0.00     0.016 A 
ATOM     33  C   UNL A   1      40.528  26.532  26.973  1.00  0.00     0.010 A 
ATOM     34  C   UNL A   1      39.123  25.763  28.796  1.00  0.00     0.010 A 
ATOM     35  C   UNL A   1      39.999  26.722  28.257  1.00  0.00    -0.014 A 
BRANCH  35  36
ATOM     36  C   UNL A   1      40.527  27.839  29.080  1.00  0.00     0.031 A 
ATOM     37  C   UNL A   1      39.665  29.057  29.294  1.00  0.00     0.074 A 
ATOM     38  C   UNL A   1      41.714  27.733  29.705  1.00  0.00     0.049 A 
ATOM     39  N   UNL A   1      39.885  30.109  30.040  1.00  0.00    -0.248 NA
ATOM     40  C   UNL A   1      38.382  29.093  28.573  1.00  0.00     0.031 C 
ATOM     41  C   UNL A   1      42.625  26.595  29.596  1.00  0.00     0.029 A 
ATOM     42  N   UNL A   1      42.348  28.592  30.566  1.00  0.00    -0.354 N 
ATOM     43  C   UNL A   1      38.772  30.927  29.881  1.00  0.00     0.074 A 
ATOM     44  C   UNL A   1      37.896  30.270  28.936  1.00  0.00     0.031 C 
ATOM     45  C   UNL A   1      43.702  26.824  30.368  1.00  0.00     0.029 A 
ATOM     46  C   UNL A   1      43.563  28.129  31.012  1.00  0.00     0.049 A 
ATOM     47  H   UNL A   1      41.970  29.459  30.838  1.00  0.00     0.167 HD
ATOM     48  C   UNL A   1      38.494  32.110  30.480  1.00  0.00     0.037 A 
ATOM     49  C   UNL A   1      44.459  28.696  31.844  1.00  0.00     0.037 A 
ATOM     50  C   UNL A   1      39.363  32.758  31.428  1.00  0.00     0.049 A 
ATOM     51  C   UNL A   1      44.145  30.027  32.472  1.00  0.00     0.074 A 
ATOM     52  C   UNL A   1      39.166  33.950  32.103  1.00  0.00     0.029 A 
ATOM     53  N   UNL A   1      40.598  32.271  31.832  1.00  0.00    -0.354 N 
ATOM     54  N   UNL A   1      43.075  30.775  32.334  1.00  0.00    -0.248 NA
ATOM     55  C   UNL A   1      45.155  30.588  33.381  1.00  0.00     0.031 C 
ATOM     56  C   UNL A   1      40.300  34.205  32.884  1.00  0.00     0.029 A 
ATOM     57  C   UNL A   1      41.182  33.147  32.733  1.00  0.00     0.049 A 
ATOM     58  H   UNL A   1      41.000  31.426  31.524  1.00  0.00     0.167 HD
ATOM     59  C   UNL A   1      43.271  31.879  33.158  1.00  0.00     0.074 A 
ATOM     60  C   UNL A   1      44.556  31.695  33.801  1.00  0.00     0.031 C 
ATOM     61  C   UNL A   1      42.461  32.947  33.366  1.00  0.00     0.037 A 
BRANCH  48  62
ATOM     62  C   UNL A   1      37.202  32.787  30.115  1.00  0.00     0.058 A 
ATOM     63  C   UNL A   1      37.144  33.788  29.133  1.00  0.00     0.135 A 
ATOM     64  C   UNL A   1      36.001  32.414  30.741  1.00  0.00     0.135 A 
ATOM     65  F   UNL A   1      38.265  34.198  28.517  1.00  0.00    -0.206 F 
ATOM     66  C   UNL A   1      35.947  34.416  28.803  1.00  0.00     0.059 A 
ATOM     67  C   UNL A   1      34.787  33.010  30.408  1.00  0.00     0.059 A 
ATOM     68  F   UNL A   1      36.000  31.464  31.689  1.00  0.00    -0.206 F 
ATOM     69  C   UNL A   1      34.774  34.022  29.449  1.00  0.00     0.060 A 
BRANCH  69  70
ATOM     70  S   UNL A   1      33.228  34.847  29.014  1.00  0.00     0.124 S 
ATOM     71  O   UNL A   1      32.548  34.887  30.305  1.00  0.00    -0.237 OA
ATOM     72  O   UNL A   1      33.692  36.132  28.502  1.00  0.00    -0.237 OA
ATOM     73  O   UNL A   1      32.635  33.957  28.021  1.00  0.00    -0.744 OA
ENDBRANCH  69  70
ENDBRANCH  48  62
BRANCH  49  74
ATOM     74  C   UNL A   1      45.739  27.997  32.142  1.00  0.00     0.058 A 
ATOM     75  C   UNL A   1      46.869  28.167  31.330  1.00  0.00     0.135 A 
ATOM     76  C   UNL A   1      45.853  27.143  33.250  1.00  0.00     0.135 A 
ATOM     77  F   UNL A   1      46.807  28.967  30.253  1.00  0.00    -0.206 F 
ATOM     78  C   UNL A   1      48.064  27.507  31.595  1.00  0.00     0.059 A 
ATOM     79  C   UNL A   1      47.044  26.490  33.551  1.00  0.00     0.059 A 
ATOM     80  F   UNL A   1      44.803  26.954  34.065  1.00  0.00    -0.206 F 
ATOM     81  C   UNL A   1      48.142  26.671  32.711  1.00  0.00     0.060 A 
BRANCH  81  82
ATOM     82  S   UNL A   1      49.712  25.858  33.079  1.00  0.00     0.124 S 
ATOM     83  O   UNL A   1      50.245  26.712  34.133  1.00  0.00    -0.237 OA
ATOM     84  O   UNL A   1      49.279  24.527  33.494  1.00  0.00    -0.237 OA
ATOM     85  O   UNL A   1      50.421  25.908  31.805  1.00  0.00    -0.744 OA
ENDBRANCH  81  82
ENDBRANCH  49  74
BRANCH  61  86
ATOM     86  C   UNL A   1      42.924  33.981  34.356  1.00  0.00     0.058 A 
ATOM     87  C   UNL A   1      42.639  33.873  35.727  1.00  0.00     0.135 A 
ATOM     88  C   UNL A   1      43.686  35.082  33.929  1.00  0.00     0.135 A 
ATOM     89  F   UNL A   1      41.913  32.843  36.186  1.00  0.00    -0.206 F 
ATOM     90  C   UNL A   1      43.060  34.840  36.635  1.00  0.00     0.059 A 
ATOM     91  C   UNL A   1      44.141  36.045  34.824  1.00  0.00     0.059 A 
ATOM     92  F   UNL A   1      44.000  35.226  32.632  1.00  0.00    -0.206 F 
ATOM     93  C   UNL A   1      43.808  35.925  36.172  1.00  0.00     0.060 A 
BRANCH  93  94
ATOM     94  S   UNL A   1      44.353  37.172  37.359  1.00  0.00     0.124 S 
ATOM     95  O   UNL A   1      44.646  38.302  36.484  1.00  0.00    -0.237 OA
ATOM     96  O   UNL A   1      43.183  37.322  38.219  1.00  0.00    -0.237 OA
ATOM     97  O   UNL A   1      45.513  36.551  37.993  1.00  0.00    -0.744 OA
ENDBRANCH  93  94
ENDBRANCH  61  86
ENDBRANCH  35  36
ENDBRANCH  28  30
ENDBRANCH  27  28
ENDBRANCH  26  27
ENDBRANCH   1  26
TORSDOF 19
ENDMDL
