MODEL 1
REMARK VINA RESULT:     -10.0      0.000      0.000
REMARK SMILES C[C@H](CNS(=O)(=O)c1ccc(C(=O)OCCOCCOC(=O)c2ccc(-c3c4nc(c(-c5c(F)cc(S(=O)(=O)[O-])cc5F)c5ccc([nH]5)c(-c5c(F)cc(S(=O)(=O)[O-])cc5F)c5nc(c(-c6c(F)cc(S(=O)(=O)[O-])cc6F)c6ccc3[nH]6)C=C5)C=C4)cc2)cc1F)[NH+](C)C
REMARK SMILES IDX 16 1 15 2 14 3 12 4 13 5 11 6 8 7 9 8 90 9 10 10 89 11 91 12
REMARK SMILES IDX 5 13 6 14 7 15 4 16 3 18 2 19 1 20 92 21 93 22 94 23 17 25
REMARK SMILES IDX 18 26 19 27 20 28 21 29 22 30 23 31 24 32 88 33 25 34 87 35
REMARK SMILES IDX 26 36 27 37 28 38 81 39 29 40 86 41 80 42 82 43 30 44 85 45
REMARK SMILES IDX 79 46 78 47 31 49 65 50 44 51 64 52 45 53 48 54 63 55 83 56
REMARK SMILES IDX 46 57 47 58 62 60 84 61 49 62 32 63 33 64 42 65 34 66 35 67
REMARK SMILES IDX 41 68 43 69 36 70 37 71 38 72 39 73 40 74 66 75 67 76 76 77
REMARK SMILES IDX 68 78 69 79 75 80 77 81 70 82 71 83 72 84 73 85 74 86 50 87
REMARK SMILES IDX 51 88 60 89 52 90 53 91 59 92 61 93 54 94 55 95 56 96 57 97
REMARK SMILES IDX 58 98
REMARK H PARENT 4 17 92 24 82 48 48 59
REMARK Flexibility Score: inf
ROOT
ATOM      1  C   UNL A   1      30.790  28.825  24.204  1.00  0.00     0.202 C 
ENDROOT
BRANCH   1   2
ATOM      2  C   UNL A   1      31.315  28.401  22.830  1.00  0.00     0.261 C 
BRANCH   2   3
ATOM      3  O   UNL A   1      31.789  27.042  22.857  1.00  0.00    -0.460 OA
BRANCH   3   4
ATOM      4  C   UNL A   1      33.048  26.893  23.328  1.00  0.00     0.338 C 
ATOM      5  O   UNL A   1      33.995  27.638  23.131  1.00  0.00    -0.246 OA
BRANCH   4   6
ATOM      6  C   UNL A   1      33.141  25.747  24.266  1.00  0.00     0.063 A 
ATOM      7  C   UNL A   1      33.440  23.471  25.875  1.00  0.00     0.118 A 
ATOM      8  C   UNL A   1      34.434  23.815  24.952  1.00  0.00     0.026 A 
ATOM      9  C   UNL A   1      32.309  24.274  26.000  1.00  0.00     0.144 A 
ATOM     10  C   UNL A   1      34.291  24.954  24.164  1.00  0.00     0.017 A 
ATOM     11  C   UNL A   1      32.154  25.418  25.201  1.00  0.00     0.056 A 
ATOM     12  F   UNL A   1      31.327  23.974  26.857  1.00  0.00    -0.205 F 
BRANCH   7  13
ATOM     13  S   UNL A   1      33.589  21.918  26.705  1.00  0.00     0.243 S 
ATOM     14  O   UNL A   1      33.172  22.114  28.075  1.00  0.00    -0.207 OA
ATOM     15  O   UNL A   1      34.864  21.311  26.397  1.00  0.00    -0.207 OA
BRANCH  13  16
ATOM     16  N   UNL A   1      32.449  20.932  25.957  1.00  0.00    -0.205 NA
ATOM     17  H   UNL A   1      32.386  20.080  26.514  1.00  0.00     0.141 HD
BRANCH  16  18
ATOM     18  C   UNL A   1      32.635  20.512  24.560  1.00  0.00     0.163 C 
BRANCH  18  19
ATOM     19  C   UNL A   1      32.494  18.981  24.312  1.00  0.00     0.195 C 
ATOM     20  C   UNL A   1      32.406  18.620  22.823  1.00  0.00     0.076 C 
BRANCH  19  21
ATOM     21  N   UNL A   1      33.454  18.181  25.105  1.00  0.00    -0.337 N 
ATOM     22  C   UNL A   1      32.826  17.041  25.770  1.00  0.00     0.332 C 
ATOM     23  C   UNL A   1      34.655  17.763  24.387  1.00  0.00     0.332 C 
ATOM     24  H   UNL A   1      33.775  18.836  25.819  1.00  0.00     0.347 HD
ENDBRANCH  19  21
ENDBRANCH  18  19
ENDBRANCH  16  18
ENDBRANCH  13  16
ENDBRANCH   7  13
ENDBRANCH   4   6
ENDBRANCH   3   4
ENDBRANCH   2   3
ENDBRANCH   1   2
BRANCH   1  25
ATOM     25  O   UNL A   1      31.663  29.678  24.949  1.00  0.00    -0.374 OA
BRANCH  25  26
ATOM     26  C   UNL A   1      32.006  29.241  26.266  1.00  0.00     0.202 C 
BRANCH  26  27
ATOM     27  C   UNL A   1      32.707  30.283  27.146  1.00  0.00     0.261 C 
BRANCH  27  28
ATOM     28  O   UNL A   1      33.866  29.727  27.793  1.00  0.00    -0.460 OA
BRANCH  28  29
ATOM     29  C   UNL A   1      34.717  30.645  28.315  1.00  0.00     0.338 C 
ATOM     30  O   UNL A   1      34.422  31.734  28.779  1.00  0.00    -0.246 OA
BRANCH  29  31
ATOM     31  C   UNL A   1      36.079  30.082  28.417  1.00  0.00     0.060 A 
ATOM     32  C   UNL A   1      36.480  29.621  29.677  1.00  0.00     0.016 A 
ATOM     33  C   UNL A   1      36.968  30.051  27.337  1.00  0.00     0.016 A 
ATOM     34  C   UNL A   1      37.788  29.186  29.876  1.00  0.00     0.010 A 
ATOM     35  C   UNL A   1      38.285  29.617  27.542  1.00  0.00     0.010 A 
ATOM     36  C   UNL A   1      38.710  29.219  28.821  1.00  0.00    -0.014 A 
BRANCH  36  37
ATOM     37  C   UNL A   1      40.139  28.954  29.121  1.00  0.00     0.031 A 
ATOM     38  C   UNL A   1      40.727  27.612  28.775  1.00  0.00     0.074 A 
ATOM     39  C   UNL A   1      40.927  29.932  29.604  1.00  0.00     0.049 A 
ATOM     40  N   UNL A   1      41.970  27.213  28.840  1.00  0.00    -0.248 NA
ATOM     41  C   UNL A   1      39.790  26.588  28.285  1.00  0.00     0.031 C 
ATOM     42  C   UNL A   1      40.480  31.279  29.954  1.00  0.00     0.029 A 
ATOM     43  N   UNL A   1      42.275  29.946  29.861  1.00  0.00    -0.354 N 
ATOM     44  C   UNL A   1      41.971  25.900  28.383  1.00  0.00     0.074 A 
ATOM     45  C   UNL A   1      40.598  25.556  28.084  1.00  0.00     0.031 C 
ATOM     46  C   UNL A   1      41.539  31.996  30.366  1.00  0.00     0.029 A 
ATOM     47  C   UNL A   1      42.736  31.157  30.319  1.00  0.00     0.049 A 
ATOM     48  H   UNL A   1      42.856  29.163  29.730  1.00  0.00     0.167 HD
ATOM     49  C   UNL A   1      43.022  25.064  28.210  1.00  0.00     0.037 A 
ATOM     50  C   UNL A   1      43.981  31.548  30.652  1.00  0.00     0.037 A 
ATOM     51  C   UNL A   1      44.388  25.404  28.512  1.00  0.00     0.049 A 
ATOM     52  C   UNL A   1      45.128  30.584  30.497  1.00  0.00     0.074 A 
ATOM     53  C   UNL A   1      45.523  24.626  28.360  1.00  0.00     0.029 A 
ATOM     54  N   UNL A   1      44.806  26.620  29.030  1.00  0.00    -0.354 N 
ATOM     55  N   UNL A   1      45.113  29.354  30.044  1.00  0.00    -0.248 NA
ATOM     56  C   UNL A   1      46.458  31.066  30.893  1.00  0.00     0.031 C 
ATOM     57  C   UNL A   1      46.622  25.359  28.821  1.00  0.00     0.029 A 
ATOM     58  C   UNL A   1      46.178  26.608  29.223  1.00  0.00     0.049 A 
ATOM     59  H   UNL A   1      44.215  27.382  29.231  1.00  0.00     0.167 HD
ATOM     60  C   UNL A   1      46.434  28.917  30.090  1.00  0.00     0.074 A 
ATOM     61  C   UNL A   1      47.222  30.023  30.595  1.00  0.00     0.031 C 
ATOM     62  C   UNL A   1      46.947  27.710  29.745  1.00  0.00     0.037 A 
BRANCH  49  63
ATOM     63  C   UNL A   1      42.737  23.692  27.670  1.00  0.00     0.058 A 
ATOM     64  C   UNL A   1      42.604  22.595  28.534  1.00  0.00     0.135 A 
ATOM     65  C   UNL A   1      42.643  23.454  26.289  1.00  0.00     0.135 A 
ATOM     66  F   UNL A   1      42.676  22.769  29.863  1.00  0.00    -0.206 F 
ATOM     67  C   UNL A   1      42.400  21.307  28.049  1.00  0.00     0.059 A 
ATOM     68  C   UNL A   1      42.420  22.177  25.782  1.00  0.00     0.059 A 
ATOM     69  F   UNL A   1      42.738  24.474  25.420  1.00  0.00    -0.206 F 
ATOM     70  C   UNL A   1      42.312  21.107  26.670  1.00  0.00     0.060 A 
BRANCH  70  71
ATOM     71  S   UNL A   1      42.013  19.435  26.057  1.00  0.00     0.124 S 
ATOM     72  O   UNL A   1      42.448  18.620  27.187  1.00  0.00    -0.237 OA
ATOM     73  O   UNL A   1      40.576  19.454  25.801  1.00  0.00    -0.237 OA
ATOM     74  O   UNL A   1      42.851  19.359  24.865  1.00  0.00    -0.744 OA
ENDBRANCH  70  71
ENDBRANCH  49  63
BRANCH  50  75
ATOM     75  C   UNL A   1      44.210  32.930  31.148  1.00  0.00     0.058 A 
ATOM     76  C   UNL A   1      44.557  33.965  30.268  1.00  0.00     0.135 A 
ATOM     77  C   UNL A   1      44.113  33.233  32.514  1.00  0.00     0.135 A 
ATOM     78  F   UNL A   1      44.664  33.722  28.952  1.00  0.00    -0.206 F 
ATOM     79  C   UNL A   1      44.827  35.249  30.726  1.00  0.00     0.059 A 
ATOM     80  C   UNL A   1      44.358  34.517  32.995  1.00  0.00     0.059 A 
ATOM     81  F   UNL A   1      43.767  32.279  33.391  1.00  0.00    -0.206 F 
ATOM     82  C   UNL A   1      44.734  35.513  32.093  1.00  0.00     0.060 A 
BRANCH  82  83
ATOM     83  S   UNL A   1      45.114  37.180  32.674  1.00  0.00     0.124 S 
ATOM     84  O   UNL A   1      43.779  37.761  32.777  1.00  0.00    -0.237 OA
ATOM     85  O   UNL A   1      45.793  36.918  33.939  1.00  0.00    -0.237 OA
ATOM     86  O   UNL A   1      45.956  37.722  31.612  1.00  0.00    -0.744 OA
ENDBRANCH  82  83
ENDBRANCH  50  75
BRANCH  62  87
ATOM     87  C   UNL A   1      48.429  27.519  29.906  1.00  0.00     0.058 A 
ATOM     88  C   UNL A   1      49.314  27.876  28.878  1.00  0.00     0.135 A 
ATOM     89  C   UNL A   1      48.971  26.951  31.071  1.00  0.00     0.135 A 
ATOM     90  F   UNL A   1      48.848  28.417  27.741  1.00  0.00    -0.206 F 
ATOM     91  C   UNL A   1      50.686  27.677  28.997  1.00  0.00     0.059 A 
ATOM     92  C   UNL A   1      50.341  26.764  31.221  1.00  0.00     0.059 A 
ATOM     93  F   UNL A   1      48.166  26.602  32.087  1.00  0.00    -0.206 F 
ATOM     94  C   UNL A   1      51.190  27.121  30.174  1.00  0.00     0.060 A 
BRANCH  94  95
ATOM     95  S   UNL A   1      52.978  26.921  30.341  1.00  0.00     0.124 S 
ATOM     96  O   UNL A   1      53.337  26.357  29.044  1.00  0.00    -0.237 OA
ATOM     97  O   UNL A   1      53.425  28.290  30.584  1.00  0.00    -0.237 OA
ATOM     98  O   UNL A   1      53.110  26.017  31.479  1.00  0.00    -0.744 OA
ENDBRANCH  94  95
ENDBRANCH  62  87
ENDBRANCH  36  37
ENDBRANCH  29  31
ENDBRANCH  28  29
ENDBRANCH  27  28
ENDBRANCH  26  27
ENDBRANCH  25  26
ENDBRANCH   1  25
TORSDOF 22
ENDMDL
MODEL 2
REMARK VINA RESULT:      -9.8      4.908     10.016
REMARK SMILES C[C@H](CNS(=O)(=O)c1ccc(C(=O)OCCOCCOC(=O)c2ccc(-c3c4nc(c(-c5c(F)cc(S(=O)(=O)[O-])cc5F)c5ccc([nH]5)c(-c5c(F)cc(S(=O)(=O)[O-])cc5F)c5nc(c(-c6c(F)cc(S(=O)(=O)[O-])cc6F)c6ccc3[nH]6)C=C5)C=C4)cc2)cc1F)[NH+](C)C
REMARK SMILES IDX 16 1 15 2 14 3 12 4 13 5 11 6 8 7 9 8 90 9 10 10 89 11 91 12
REMARK SMILES IDX 5 13 6 14 7 15 4 16 3 18 2 19 1 20 92 21 93 22 94 23 17 25
REMARK SMILES IDX 18 26 19 27 20 28 21 29 22 30 23 31 24 32 88 33 25 34 87 35
REMARK SMILES IDX 26 36 27 37 28 38 81 39 29 40 86 41 80 42 82 43 30 44 85 45
REMARK SMILES IDX 79 46 78 47 31 49 65 50 44 51 64 52 45 53 48 54 63 55 83 56
REMARK SMILES IDX 46 57 47 58 62 60 84 61 49 62 32 63 33 64 42 65 34 66 35 67
REMARK SMILES IDX 41 68 43 69 36 70 37 71 38 72 39 73 40 74 66 75 67 76 76 77
REMARK SMILES IDX 68 78 69 79 75 80 77 81 70 82 71 83 72 84 73 85 74 86 50 87
REMARK SMILES IDX 51 88 60 89 52 90 53 91 59 92 61 93 54 94 55 95 56 96 57 97
REMARK SMILES IDX 58 98
REMARK H PARENT 4 17 92 24 82 48 48 59
REMARK Flexibility Score: inf
ROOT
ATOM      1  C   UNL A   1      40.049  21.353  26.642  1.00  0.00     0.202 C 
ENDROOT
BRANCH   1   2
ATOM      2  C   UNL A   1      38.966  22.298  26.112  1.00  0.00     0.261 C 
BRANCH   2   3
ATOM      3  O   UNL A   1      37.696  21.627  26.026  1.00  0.00    -0.460 OA
BRANCH   3   4
ATOM      4  C   UNL A   1      36.944  21.977  24.957  1.00  0.00     0.338 C 
ATOM      5  O   UNL A   1      37.271  21.919  23.783  1.00  0.00    -0.246 OA
BRANCH   4   6
ATOM      6  C   UNL A   1      35.561  22.332  25.364  1.00  0.00     0.063 A 
ATOM      7  C   UNL A   1      32.875  22.841  25.979  1.00  0.00     0.118 A 
ATOM      8  C   UNL A   1      33.273  21.561  25.577  1.00  0.00     0.026 A 
ATOM      9  C   UNL A   1      33.822  23.855  26.086  1.00  0.00     0.144 A 
ATOM     10  C   UNL A   1      34.611  21.306  25.286  1.00  0.00     0.017 A 
ATOM     11  C   UNL A   1      35.170  23.607  25.785  1.00  0.00     0.056 A 
ATOM     12  F   UNL A   1      33.484  25.097  26.451  1.00  0.00    -0.205 F 
BRANCH   7  13
ATOM     13  S   UNL A   1      31.142  23.149  26.148  1.00  0.00     0.243 S 
ATOM     14  O   UNL A   1      30.969  24.067  27.251  1.00  0.00    -0.207 OA
ATOM     15  O   UNL A   1      30.410  21.904  26.095  1.00  0.00    -0.207 OA
BRANCH  13  16
ATOM     16  N   UNL A   1      30.721  23.959  24.734  1.00  0.00    -0.205 NA
ATOM     17  H   UNL A   1      31.448  23.753  24.049  1.00  0.00     0.141 HD
BRANCH  16  18
ATOM     18  C   UNL A   1      30.547  25.419  24.741  1.00  0.00     0.163 C 
BRANCH  18  19
ATOM     19  C   UNL A   1      31.713  26.221  24.093  1.00  0.00     0.195 C 
ATOM     20  C   UNL A   1      32.214  25.601  22.782  1.00  0.00     0.076 C 
BRANCH  19  21
ATOM     21  N   UNL A   1      31.451  27.678  24.048  1.00  0.00    -0.337 N 
ATOM     22  C   UNL A   1      31.402  28.286  25.376  1.00  0.00     0.332 C 
ATOM     23  C   UNL A   1      32.328  28.438  23.163  1.00  0.00     0.332 C 
ATOM     24  H   UNL A   1      30.521  27.738  23.630  1.00  0.00     0.347 HD
ENDBRANCH  19  21
ENDBRANCH  18  19
ENDBRANCH  16  18
ENDBRANCH  13  16
ENDBRANCH   7  13
ENDBRANCH   4   6
ENDBRANCH   3   4
ENDBRANCH   2   3
ENDBRANCH   1   2
BRANCH   1  25
ATOM     25  O   UNL A   1      41.174  21.176  25.778  1.00  0.00    -0.374 OA
BRANCH  25  26
ATOM     26  C   UNL A   1      42.425  21.676  26.255  1.00  0.00     0.202 C 
BRANCH  26  27
ATOM     27  C   UNL A   1      42.963  22.913  25.526  1.00  0.00     0.261 C 
BRANCH  27  28
ATOM     28  O   UNL A   1      42.097  24.047  25.711  1.00  0.00    -0.460 OA
BRANCH  28  29
ATOM     29  C   UNL A   1      42.737  25.239  25.810  1.00  0.00     0.338 C 
ATOM     30  O   UNL A   1      43.613  25.661  25.072  1.00  0.00    -0.246 OA
BRANCH  29  31
ATOM     31  C   UNL A   1      42.108  26.074  26.853  1.00  0.00     0.060 A 
ATOM     32  C   UNL A   1      42.613  27.369  27.018  1.00  0.00     0.016 A 
ATOM     33  C   UNL A   1      41.094  25.599  27.692  1.00  0.00     0.016 A 
ATOM     34  C   UNL A   1      42.150  28.171  28.057  1.00  0.00     0.010 A 
ATOM     35  C   UNL A   1      40.633  26.407  28.741  1.00  0.00     0.010 A 
ATOM     36  C   UNL A   1      41.187  27.681  28.950  1.00  0.00    -0.014 A 
BRANCH  36  37
ATOM     37  C   UNL A   1      40.877  28.477  30.164  1.00  0.00     0.031 A 
ATOM     38  C   UNL A   1      41.749  28.330  31.382  1.00  0.00     0.074 A 
ATOM     39  C   UNL A   1      39.893  29.393  30.145  1.00  0.00     0.049 A 
ATOM     40  N   UNL A   1      41.731  29.011  32.498  1.00  0.00    -0.248 NA
ATOM     41  C   UNL A   1      42.781  27.282  31.333  1.00  0.00     0.031 C 
ATOM     42  C   UNL A   1      38.998  29.645  29.017  1.00  0.00     0.029 A 
ATOM     43  N   UNL A   1      39.496  30.297  31.099  1.00  0.00    -0.354 N 
ATOM     44  C   UNL A   1      42.757  28.489  33.278  1.00  0.00     0.074 A 
ATOM     45  C   UNL A   1      43.351  27.406  32.524  1.00  0.00     0.031 C 
ATOM     46  C   UNL A   1      38.166  30.652  29.337  1.00  0.00     0.029 A 
ATOM     47  C   UNL A   1      38.461  31.106  30.695  1.00  0.00     0.049 A 
ATOM     48  H   UNL A   1      39.914  30.360  31.988  1.00  0.00     0.167 HD
ATOM     49  C   UNL A   1      43.178  28.888  34.501  1.00  0.00     0.037 A 
ATOM     50  C   UNL A   1      37.831  32.106  31.342  1.00  0.00     0.037 A 
ATOM     51  C   UNL A   1      42.585  29.963  35.254  1.00  0.00     0.049 A 
ATOM     52  C   UNL A   1      38.286  32.500  32.722  1.00  0.00     0.074 A 
ATOM     53  C   UNL A   1      42.950  30.447  36.498  1.00  0.00     0.029 A 
ATOM     54  N   UNL A   1      41.501  30.719  34.835  1.00  0.00    -0.354 N 
ATOM     55  N   UNL A   1      39.272  32.009  33.435  1.00  0.00    -0.248 NA
ATOM     56  C   UNL A   1      37.548  33.586  33.380  1.00  0.00     0.031 C 
ATOM     57  C   UNL A   1      42.063  31.470  36.848  1.00  0.00     0.029 A 
ATOM     58  C   UNL A   1      41.170  31.652  35.805  1.00  0.00     0.049 A 
ATOM     59  H   UNL A   1      41.034  30.609  33.975  1.00  0.00     0.167 HD
ATOM     60  C   UNL A   1      39.278  32.735  34.623  1.00  0.00     0.074 A 
ATOM     61  C   UNL A   1      38.213  33.711  34.522  1.00  0.00     0.031 C 
ATOM     62  C   UNL A   1      40.094  32.605  35.699  1.00  0.00     0.037 A 
BRANCH  49  63
ATOM     63  C   UNL A   1      44.341  28.156  35.109  1.00  0.00     0.058 A 
ATOM     64  C   UNL A   1      44.131  27.096  36.004  1.00  0.00     0.135 A 
ATOM     65  C   UNL A   1      45.666  28.536  34.840  1.00  0.00     0.135 A 
ATOM     66  F   UNL A   1      42.884  26.687  36.285  1.00  0.00    -0.206 F 
ATOM     67  C   UNL A   1      45.193  26.446  36.623  1.00  0.00     0.059 A 
ATOM     68  C   UNL A   1      46.745  27.887  35.434  1.00  0.00     0.059 A 
ATOM     69  F   UNL A   1      45.922  29.528  33.972  1.00  0.00    -0.206 F 
ATOM     70  C   UNL A   1      46.498  26.850  36.334  1.00  0.00     0.060 A 
BRANCH  70  71
ATOM     71  S   UNL A   1      47.868  25.974  37.118  1.00  0.00     0.124 S 
ATOM     72  O   UNL A   1      47.892  24.723  36.368  1.00  0.00    -0.237 OA
ATOM     73  O   UNL A   1      48.988  26.880  36.882  1.00  0.00    -0.237 OA
ATOM     74  O   UNL A   1      47.445  25.866  38.511  1.00  0.00    -0.744 OA
ENDBRANCH  70  71
ENDBRANCH  49  63
BRANCH  50  75
ATOM     75  C   UNL A   1      36.710  32.819  30.678  1.00  0.00     0.058 A 
ATOM     76  C   UNL A   1      36.953  33.818  29.724  1.00  0.00     0.135 A 
ATOM     77  C   UNL A   1      35.376  32.535  31.005  1.00  0.00     0.135 A 
ATOM     78  F   UNL A   1      38.213  34.127  29.379  1.00  0.00    -0.206 F 
ATOM     79  C   UNL A   1      35.915  34.530  29.136  1.00  0.00     0.059 A 
ATOM     80  C   UNL A   1      34.318  33.221  30.415  1.00  0.00     0.059 A 
ATOM     81  F   UNL A   1      35.095  31.575  31.900  1.00  0.00    -0.206 F 
ATOM     82  C   UNL A   1      34.600  34.230  29.495  1.00  0.00     0.060 A 
BRANCH  82  83
ATOM     83  S   UNL A   1      33.265  35.184  28.741  1.00  0.00     0.124 S 
ATOM     84  O   UNL A   1      32.530  35.633  29.919  1.00  0.00    -0.237 OA
ATOM     85  O   UNL A   1      33.997  36.219  28.017  1.00  0.00    -0.237 OA
ATOM     86  O   UNL A   1      32.580  34.203  27.907  1.00  0.00    -0.744 OA
ENDBRANCH  82  83
ENDBRANCH  50  75
BRANCH  62  87
ATOM     87  C   UNL A   1      39.863  33.536  36.856  1.00  0.00     0.058 A 
ATOM     88  C   UNL A   1      40.626  34.704  36.999  1.00  0.00     0.135 A 
ATOM     89  C   UNL A   1      38.903  33.253  37.842  1.00  0.00     0.135 A 
ATOM     90  F   UNL A   1      41.561  35.018  36.089  1.00  0.00    -0.206 F 
ATOM     91  C   UNL A   1      40.448  35.561  38.081  1.00  0.00     0.059 A 
ATOM     92  C   UNL A   1      38.692  34.108  38.919  1.00  0.00     0.059 A 
ATOM     93  F   UNL A   1      38.140  32.152  37.743  1.00  0.00    -0.206 F 
ATOM     94  C   UNL A   1      39.477  35.254  39.035  1.00  0.00     0.060 A 
BRANCH  94  95
ATOM     95  S   UNL A   1      39.214  36.404  40.404  1.00  0.00     0.124 S 
ATOM     96  O   UNL A   1      40.582  36.670  40.836  1.00  0.00    -0.237 OA
ATOM     97  O   UNL A   1      38.527  37.515  39.752  1.00  0.00    -0.237 OA
ATOM     98  O   UNL A   1      38.397  35.634  41.337  1.00  0.00    -0.744 OA
ENDBRANCH  94  95
ENDBRANCH  62  87
ENDBRANCH  36  37
ENDBRANCH  29  31
ENDBRANCH  28  29
ENDBRANCH  27  28
ENDBRANCH  26  27
ENDBRANCH  25  26
ENDBRANCH   1  25
TORSDOF 22
ENDMDL
MODEL 3
REMARK VINA RESULT:      -9.8      5.015     10.091
REMARK SMILES C[C@H](CNS(=O)(=O)c1ccc(C(=O)OCCOCCOC(=O)c2ccc(-c3c4nc(c(-c5c(F)cc(S(=O)(=O)[O-])cc5F)c5ccc([nH]5)c(-c5c(F)cc(S(=O)(=O)[O-])cc5F)c5nc(c(-c6c(F)cc(S(=O)(=O)[O-])cc6F)c6ccc3[nH]6)C=C5)C=C4)cc2)cc1F)[NH+](C)C
REMARK SMILES IDX 16 1 15 2 14 3 12 4 13 5 11 6 8 7 9 8 90 9 10 10 89 11 91 12
REMARK SMILES IDX 5 13 6 14 7 15 4 16 3 18 2 19 1 20 92 21 93 22 94 23 17 25
REMARK SMILES IDX 18 26 19 27 20 28 21 29 22 30 23 31 24 32 88 33 25 34 87 35
REMARK SMILES IDX 26 36 27 37 28 38 81 39 29 40 86 41 80 42 82 43 30 44 85 45
REMARK SMILES IDX 79 46 78 47 31 49 65 50 44 51 64 52 45 53 48 54 63 55 83 56
REMARK SMILES IDX 46 57 47 58 62 60 84 61 49 62 32 63 33 64 42 65 34 66 35 67
REMARK SMILES IDX 41 68 43 69 36 70 37 71 38 72 39 73 40 74 66 75 67 76 76 77
REMARK SMILES IDX 68 78 69 79 75 80 77 81 70 82 71 83 72 84 73 85 74 86 50 87
REMARK SMILES IDX 51 88 60 89 52 90 53 91 59 92 61 93 54 94 55 95 56 96 57 97
REMARK SMILES IDX 58 98
REMARK H PARENT 4 17 92 24 82 48 48 59
REMARK Flexibility Score: inf
ROOT
ATOM      1  C   UNL A   1      40.489  21.702  27.012  1.00  0.00     0.202 C 
ENDROOT
BRANCH   1   2
ATOM      2  C   UNL A   1      39.225  21.327  26.233  1.00  0.00     0.261 C 
BRANCH   2   3
ATOM      3  O   UNL A   1      38.809  22.408  25.378  1.00  0.00    -0.460 OA
BRANCH   3   4
ATOM      4  C   UNL A   1      37.777  23.140  25.855  1.00  0.00     0.338 C 
ATOM      5  O   UNL A   1      37.847  24.216  26.425  1.00  0.00    -0.246 OA
BRANCH   4   6
ATOM      6  C   UNL A   1      36.472  22.540  25.480  1.00  0.00     0.063 A 
ATOM      7  C   UNL A   1      33.983  21.582  24.618  1.00  0.00     0.118 A 
ATOM      8  C   UNL A   1      34.815  22.274  23.731  1.00  0.00     0.026 A 
ATOM      9  C   UNL A   1      34.405  21.359  25.926  1.00  0.00     0.144 A 
ATOM     10  C   UNL A   1      36.058  22.736  24.157  1.00  0.00     0.017 A 
ATOM     11  C   UNL A   1      35.652  21.831  26.364  1.00  0.00     0.056 A 
ATOM     12  F   UNL A   1      33.636  20.716  26.812  1.00  0.00    -0.205 F 
BRANCH   7  13
ATOM     13  S   UNL A   1      32.347  21.190  24.077  1.00  0.00     0.243 S 
ATOM     14  O   UNL A   1      32.019  22.090  22.994  1.00  0.00    -0.207 OA
ATOM     15  O   UNL A   1      31.468  21.048  25.215  1.00  0.00    -0.207 OA
BRANCH  13  16
ATOM     16  N   UNL A   1      32.477  19.640  23.435  1.00  0.00    -0.205 NA
ATOM     17  H   UNL A   1      31.660  19.498  22.841  1.00  0.00     0.141 HD
BRANCH  16  18
ATOM     18  C   UNL A   1      32.560  18.473  24.327  1.00  0.00     0.163 C 
BRANCH  18  19
ATOM     19  C   UNL A   1      33.787  17.547  24.082  1.00  0.00     0.195 C 
ATOM     20  C   UNL A   1      35.127  18.231  24.389  1.00  0.00     0.076 C 
BRANCH  19  21
ATOM     21  N   UNL A   1      33.613  16.199  24.669  1.00  0.00    -0.337 N 
ATOM     22  C   UNL A   1      34.845  15.674  25.254  1.00  0.00     0.332 C 
ATOM     23  C   UNL A   1      32.500  16.068  25.603  1.00  0.00     0.332 C 
ATOM     24  H   UNL A   1      33.366  15.621  23.864  1.00  0.00     0.347 HD
ENDBRANCH  19  21
ENDBRANCH  18  19
ENDBRANCH  16  18
ENDBRANCH  13  16
ENDBRANCH   7  13
ENDBRANCH   4   6
ENDBRANCH   3   4
ENDBRANCH   2   3
ENDBRANCH   1   2
BRANCH   1  25
ATOM     25  O   UNL A   1      41.281  22.735  26.421  1.00  0.00    -0.374 OA
BRANCH  25  26
ATOM     26  C   UNL A   1      42.421  22.310  25.670  1.00  0.00     0.202 C 
BRANCH  26  27
ATOM     27  C   UNL A   1      43.710  23.101  25.921  1.00  0.00     0.261 C 
BRANCH  27  28
ATOM     28  O   UNL A   1      43.508  24.133  26.904  1.00  0.00    -0.460 OA
BRANCH  28  29
ATOM     29  C   UNL A   1      43.296  25.370  26.391  1.00  0.00     0.338 C 
ATOM     30  O   UNL A   1      43.475  25.723  25.237  1.00  0.00    -0.246 OA
BRANCH  29  31
ATOM     31  C   UNL A   1      42.634  26.233  27.391  1.00  0.00     0.060 A 
ATOM     32  C   UNL A   1      43.210  27.486  27.627  1.00  0.00     0.016 A 
ATOM     33  C   UNL A   1      41.517  25.819  28.125  1.00  0.00     0.016 A 
ATOM     34  C   UNL A   1      42.712  28.304  28.637  1.00  0.00     0.010 A 
ATOM     35  C   UNL A   1      41.020  26.643  29.145  1.00  0.00     0.010 A 
ATOM     36  C   UNL A   1      41.640  27.871  29.430  1.00  0.00    -0.014 A 
BRANCH  36  37
ATOM     37  C   UNL A   1      41.276  28.670  30.627  1.00  0.00     0.031 A 
ATOM     38  C   UNL A   1      42.123  28.563  31.867  1.00  0.00     0.074 A 
ATOM     39  C   UNL A   1      40.264  29.554  30.575  1.00  0.00     0.049 A 
ATOM     40  N   UNL A   1      42.057  29.254  32.974  1.00  0.00    -0.248 NA
ATOM     41  C   UNL A   1      43.188  27.547  31.853  1.00  0.00     0.031 C 
ATOM     42  C   UNL A   1      39.389  29.766  29.423  1.00  0.00     0.029 A 
ATOM     43  N   UNL A   1      39.818  30.455  31.509  1.00  0.00    -0.354 N 
ATOM     44  C   UNL A   1      43.080  28.773  33.783  1.00  0.00     0.074 A 
ATOM     45  C   UNL A   1      43.725  27.701  33.056  1.00  0.00     0.031 C 
ATOM     46  C   UNL A   1      38.519  30.749  29.713  1.00  0.00     0.029 A 
ATOM     47  C   UNL A   1      38.768  31.227  31.072  1.00  0.00     0.049 A 
ATOM     48  H   UNL A   1      40.212  30.540  32.407  1.00  0.00     0.167 HD
ATOM     49  C   UNL A   1      43.460  29.198  35.012  1.00  0.00     0.037 A 
ATOM     50  C   UNL A   1      38.091  32.213  31.693  1.00  0.00     0.037 A 
ATOM     51  C   UNL A   1      42.816  30.261  35.738  1.00  0.00     0.049 A 
ATOM     52  C   UNL A   1      38.501  32.635  33.078  1.00  0.00     0.074 A 
ATOM     53  C   UNL A   1      43.136  30.769  36.985  1.00  0.00     0.029 A 
ATOM     54  N   UNL A   1      41.719  30.978  35.286  1.00  0.00    -0.354 N 
ATOM     55  N   UNL A   1      39.484  32.183  33.820  1.00  0.00    -0.248 NA
ATOM     56  C   UNL A   1      37.714  33.705  33.707  1.00  0.00     0.031 C 
ATOM     57  C   UNL A   1      42.209  31.768  37.303  1.00  0.00     0.029 A 
ATOM     58  C   UNL A   1      41.336  31.910  36.238  1.00  0.00     0.049 A 
ATOM     59  H   UNL A   1      41.276  30.845  34.416  1.00  0.00     0.167 HD
ATOM     60  C   UNL A   1      39.440  32.921  34.999  1.00  0.00     0.074 A 
ATOM     61  C   UNL A   1      38.347  33.862  34.862  1.00  0.00     0.031 C 
ATOM     62  C   UNL A   1      40.233  32.828  36.095  1.00  0.00     0.037 A 
BRANCH  49  63
ATOM     63  C   UNL A   1      44.629  28.509  35.654  1.00  0.00     0.058 A 
ATOM     64  C   UNL A   1      45.941  28.938  35.400  1.00  0.00     0.135 A 
ATOM     65  C   UNL A   1      44.454  27.391  36.486  1.00  0.00     0.135 A 
ATOM     66  F   UNL A   1      46.163  30.008  34.621  1.00  0.00    -0.206 F 
ATOM     67  C   UNL A   1      47.040  28.275  35.937  1.00  0.00     0.059 A 
ATOM     68  C   UNL A   1      45.538  26.724  37.050  1.00  0.00     0.059 A 
ATOM     69  F   UNL A   1      43.218  26.955  36.780  1.00  0.00    -0.206 F 
ATOM     70  C   UNL A   1      46.829  27.166  36.759  1.00  0.00     0.060 A 
BRANCH  70  71
ATOM     71  S   UNL A   1      48.264  26.338  37.477  1.00  0.00     0.124 S 
ATOM     72  O   UNL A   1      49.351  27.226  37.082  1.00  0.00    -0.237 OA
ATOM     73  O   UNL A   1      47.934  26.328  38.900  1.00  0.00    -0.237 OA
ATOM     74  O   UNL A   1      48.253  25.028  36.833  1.00  0.00    -0.744 OA
ENDBRANCH  70  71
ENDBRANCH  49  63
BRANCH  50  75
ATOM     75  C   UNL A   1      36.964  32.884  30.995  1.00  0.00     0.058 A 
ATOM     76  C   UNL A   1      35.634  32.543  31.279  1.00  0.00     0.135 A 
ATOM     77  C   UNL A   1      37.198  33.856  30.011  1.00  0.00     0.135 A 
ATOM     78  F   UNL A   1      35.360  31.617  32.211  1.00  0.00    -0.206 F 
ATOM     79  C   UNL A   1      34.573  33.124  30.594  1.00  0.00     0.059 A 
ATOM     80  C   UNL A   1      36.151  34.466  29.326  1.00  0.00     0.059 A 
ATOM     81  F   UNL A   1      38.454  34.225  29.718  1.00  0.00    -0.206 F 
ATOM     82  C   UNL A   1      34.842  34.078  29.612  1.00  0.00     0.060 A 
BRANCH  82  83
ATOM     83  S   UNL A   1      33.453  34.802  28.714  1.00  0.00     0.124 S 
ATOM     84  O   UNL A   1      33.125  33.731  27.779  1.00  0.00    -0.237 OA
ATOM     85  O   UNL A   1      32.483  35.032  29.781  1.00  0.00    -0.237 OA
ATOM     86  O   UNL A   1      34.026  36.004  28.120  1.00  0.00    -0.744 OA
ENDBRANCH  82  83
ENDBRANCH  50  75
BRANCH  62  87
ATOM     87  C   UNL A   1      39.946  33.763  37.236  1.00  0.00     0.058 A 
ATOM     88  C   UNL A   1      39.035  33.407  38.242  1.00  0.00     0.135 A 
ATOM     89  C   UNL A   1      40.551  35.028  37.315  1.00  0.00     0.135 A 
ATOM     90  F   UNL A   1      38.424  32.212  38.211  1.00  0.00    -0.206 F 
ATOM     91  C   UNL A   1      38.732  34.273  39.289  1.00  0.00     0.059 A 
ATOM     92  C   UNL A   1      40.281  35.900  38.365  1.00  0.00     0.059 A 
ATOM     93  F   UNL A   1      41.437  35.411  36.382  1.00  0.00    -0.206 F 
ATOM     94  C   UNL A   1      39.362  35.517  39.342  1.00  0.00     0.060 A 
BRANCH  94  95
ATOM     95  S   UNL A   1      39.006  36.609  40.737  1.00  0.00     0.124 S 
ATOM     96  O   UNL A   1      40.347  36.923  41.219  1.00  0.00    -0.237 OA
ATOM     97  O   UNL A   1      38.286  37.708  40.099  1.00  0.00    -0.237 OA
ATOM     98  O   UNL A   1      38.199  35.773  41.620  1.00  0.00    -0.744 OA
ENDBRANCH  94  95
ENDBRANCH  62  87
ENDBRANCH  36  37
ENDBRANCH  29  31
ENDBRANCH  28  29
ENDBRANCH  27  28
ENDBRANCH  26  27
ENDBRANCH  25  26
ENDBRANCH   1  25
TORSDOF 22
ENDMDL
