MODEL 1
REMARK VINA RESULT:     -10.5      0.000      0.000
REMARK SMILES C[C@@H](C(=O)OCCOCCOC(=O)c1ccc(-c2c3nc(c(-c4c(F)cc(S(=O)(=O)[O-])cc4F)c4ccc([nH]4)c(-c4c(F)cc(S(=O)(=O)[O-])cc4F)c4nc(c(-c5c(F)cc(S(=O)(=O)[O-])cc5F)c5ccc2[nH]5)C=C4)C=C3)cc1)c1ccc(Cc2cccs2)cc1F
REMARK SMILES IDX 8 1 7 2 6 3 5 4 3 5 4 6 2 7 1 8 80 9 81 10 91 11 82 12 90 13
REMARK SMILES IDX 92 14 83 15 84 16 85 17 86 18 89 19 87 20 88 21 9 22 10 23
REMARK SMILES IDX 11 24 12 25 13 26 14 27 15 28 79 29 16 30 78 31 17 32 18 33
REMARK SMILES IDX 19 34 72 35 20 36 77 37 71 38 73 39 21 40 76 41 70 42 69 43
REMARK SMILES IDX 22 45 56 46 35 47 55 48 36 49 39 50 54 51 74 52 37 53 38 54
REMARK SMILES IDX 53 56 75 57 40 58 23 59 24 60 33 61 25 62 26 63 32 64 34 65
REMARK SMILES IDX 27 66 28 67 29 68 30 69 31 70 57 71 58 72 67 73 59 74 60 75
REMARK SMILES IDX 66 76 68 77 61 78 62 79 63 80 64 81 65 82 41 83 42 84 51 85
REMARK SMILES IDX 43 86 44 87 50 88 52 89 45 90 46 91 47 92 48 93 49 94
REMARK H PARENT 73 44 39 55
REMARK Flexibility Score: inf
ROOT
ATOM      1  O   UNL A   1      36.082  33.473  28.440  1.00  0.00    -0.374 OA
ENDROOT
BRANCH   1   2
ATOM      2  C   UNL A   1      34.819  34.022  28.053  1.00  0.00     0.202 C 
BRANCH   2   3
ATOM      3  C   UNL A   1      33.649  33.035  27.969  1.00  0.00     0.261 C 
BRANCH   3   4
ATOM      4  O   UNL A   1      34.138  31.720  27.661  1.00  0.00    -0.463 OA
BRANCH   4   5
ATOM      5  C   UNL A   1      33.202  30.817  27.266  1.00  0.00     0.313 C 
ATOM      6  O   UNL A   1      32.124  31.108  26.760  1.00  0.00    -0.252 OA
BRANCH   5   7
ATOM      7  C   UNL A   1      33.682  29.376  27.452  1.00  0.00     0.129 C 
ATOM      8  C   UNL A   1      35.200  29.198  27.311  1.00  0.00     0.025 C 
BRANCH   7   9
ATOM      9  C   UNL A   1      32.931  28.349  26.606  1.00  0.00     0.002 A 
ATOM     10  C   UNL A   1      33.514  27.888  25.416  1.00  0.00     0.008 A 
ATOM     11  C   UNL A   1      31.673  27.834  26.944  1.00  0.00     0.127 A 
ATOM     12  C   UNL A   1      32.877  26.928  24.620  1.00  0.00     0.004 A 
ATOM     13  C   UNL A   1      31.025  26.887  26.149  1.00  0.00     0.043 A 
ATOM     14  F   UNL A   1      31.046  28.234  28.057  1.00  0.00    -0.207 F 
ATOM     15  C   UNL A   1      31.626  26.408  24.980  1.00  0.00    -0.040 A 
BRANCH  15  16
ATOM     16  C   UNL A   1      30.972  25.308  24.172  1.00  0.00     0.082 C 
BRANCH  16  17
ATOM     17  C   UNL A   1      31.436  23.913  24.495  1.00  0.00     0.009 A 
ATOM     18  C   UNL A   1      31.081  23.100  25.557  1.00  0.00     0.016 A 
ATOM     19  S   UNL A   1      32.488  23.089  23.415  1.00  0.00    -0.149 S 
ATOM     20  C   UNL A   1      31.664  21.803  25.475  1.00  0.00     0.012 A 
ATOM     21  C   UNL A   1      32.444  21.658  24.351  1.00  0.00     0.065 A 
ENDBRANCH  16  17
ENDBRANCH  15  16
ENDBRANCH   7   9
ENDBRANCH   5   7
ENDBRANCH   4   5
ENDBRANCH   3   4
ENDBRANCH   2   3
ENDBRANCH   1   2
BRANCH   1  22
ATOM     22  C   UNL A   1      36.535  33.748  29.766  1.00  0.00     0.202 C 
BRANCH  22  23
ATOM     23  C   UNL A   1      36.223  32.692  30.831  1.00  0.00     0.261 C 
BRANCH  23  24
ATOM     24  O   UNL A   1      36.062  31.377  30.271  1.00  0.00    -0.460 OA
BRANCH  24  25
ATOM     25  C   UNL A   1      36.711  30.398  30.945  1.00  0.00     0.338 C 
ATOM     26  O   UNL A   1      36.222  29.590  31.725  1.00  0.00    -0.246 OA
BRANCH  25  27
ATOM     27  C   UNL A   1      38.109  30.303  30.490  1.00  0.00     0.060 A 
ATOM     28  C   UNL A   1      38.331  30.247  29.108  1.00  0.00     0.016 A 
ATOM     29  C   UNL A   1      39.173  30.185  31.387  1.00  0.00     0.016 A 
ATOM     30  C   UNL A   1      39.613  30.019  28.617  1.00  0.00     0.010 A 
ATOM     31  C   UNL A   1      40.460  29.947  30.890  1.00  0.00     0.010 A 
ATOM     32  C   UNL A   1      40.679  29.826  29.506  1.00  0.00    -0.014 A 
BRANCH  32  33
ATOM     33  C   UNL A   1      41.980  29.344  28.983  1.00  0.00     0.031 A 
ATOM     34  C   UNL A   1      43.130  30.312  28.890  1.00  0.00     0.074 A 
ATOM     35  C   UNL A   1      42.148  28.056  28.638  1.00  0.00     0.049 A 
ATOM     36  N   UNL A   1      44.347  30.113  28.458  1.00  0.00    -0.248 NA
ATOM     37  C   UNL A   1      42.869  31.687  29.347  1.00  0.00     0.031 C 
ATOM     38  C   UNL A   1      41.121  27.018  28.724  1.00  0.00     0.029 A 
ATOM     39  N   UNL A   1      43.249  27.401  28.145  1.00  0.00    -0.354 N 
ATOM     40  C   UNL A   1      44.998  31.336  28.584  1.00  0.00     0.074 A 
ATOM     41  C   UNL A   1      44.031  32.277  29.106  1.00  0.00     0.031 C 
ATOM     42  C   UNL A   1      41.639  25.856  28.288  1.00  0.00     0.029 A 
ATOM     43  C   UNL A   1      43.022  26.074  27.869  1.00  0.00     0.049 A 
ATOM     44  H   UNL A   1      44.118  27.840  28.003  1.00  0.00     0.167 HD
ATOM     45  C   UNL A   1      46.286  31.642  28.299  1.00  0.00     0.037 A 
ATOM     46  C   UNL A   1      43.834  25.147  27.323  1.00  0.00     0.037 A 
ATOM     47  C   UNL A   1      47.244  30.699  27.782  1.00  0.00     0.049 A 
ATOM     48  C   UNL A   1      45.245  25.526  26.956  1.00  0.00     0.074 A 
ATOM     49  C   UNL A   1      48.578  30.906  27.480  1.00  0.00     0.029 A 
ATOM     50  N   UNL A   1      46.967  29.373  27.485  1.00  0.00    -0.354 N 
ATOM     51  N   UNL A   1      45.854  26.680  27.100  1.00  0.00    -0.248 NA
ATOM     52  C   UNL A   1      46.082  24.478  26.355  1.00  0.00     0.031 C 
ATOM     53  C   UNL A   1      49.097  29.717  26.956  1.00  0.00     0.029 A 
ATOM     54  C   UNL A   1      48.099  28.755  26.979  1.00  0.00     0.049 A 
ATOM     55  H   UNL A   1      46.096  28.935  27.616  1.00  0.00     0.167 HD
ATOM     56  C   UNL A   1      47.150  26.489  26.633  1.00  0.00     0.074 A 
ATOM     57  C   UNL A   1      47.240  25.107  26.209  1.00  0.00     0.031 C 
ATOM     58  C   UNL A   1      48.174  27.376  26.564  1.00  0.00     0.037 A 
BRANCH  45  59
ATOM     59  C   UNL A   1      46.725  33.064  28.512  1.00  0.00     0.058 A 
ATOM     60  C   UNL A   1      47.268  33.496  29.732  1.00  0.00     0.135 A 
ATOM     61  C   UNL A   1      46.621  34.003  27.473  1.00  0.00     0.135 A 
ATOM     62  F   UNL A   1      47.373  32.645  30.765  1.00  0.00    -0.206 F 
ATOM     63  C   UNL A   1      47.666  34.816  29.925  1.00  0.00     0.059 A 
ATOM     64  C   UNL A   1      47.038  35.322  27.635  1.00  0.00     0.059 A 
ATOM     65  F   UNL A   1      46.106  33.643  26.287  1.00  0.00    -0.206 F 
ATOM     66  C   UNL A   1      47.545  35.721  28.870  1.00  0.00     0.060 A 
BRANCH  66  67
ATOM     67  S   UNL A   1      48.062  37.431  29.133  1.00  0.00     0.124 S 
ATOM     68  O   UNL A   1      48.206  37.471  30.585  1.00  0.00    -0.237 OA
ATOM     69  O   UNL A   1      49.305  37.503  28.371  1.00  0.00    -0.237 OA
ATOM     70  O   UNL A   1      46.953  38.210  28.591  1.00  0.00    -0.744 OA
ENDBRANCH  66  67
ENDBRANCH  45  59
BRANCH  46  71
ATOM     71  C   UNL A   1      43.328  23.770  27.082  1.00  0.00     0.058 A 
ATOM     72  C   UNL A   1      42.893  23.367  25.811  1.00  0.00     0.135 A 
ATOM     73  C   UNL A   1      43.278  22.825  28.119  1.00  0.00     0.135 A 
ATOM     74  F   UNL A   1      42.910  24.238  24.790  1.00  0.00    -0.206 F 
ATOM     75  C   UNL A   1      42.418  22.080  25.577  1.00  0.00     0.059 A 
ATOM     76  C   UNL A   1      42.830  21.525  27.906  1.00  0.00     0.059 A 
ATOM     77  F   UNL A   1      43.692  23.158  29.352  1.00  0.00    -0.206 F 
ATOM     78  C   UNL A   1      42.394  21.166  26.631  1.00  0.00     0.060 A 
BRANCH  78  79
ATOM     79  S   UNL A   1      41.829  19.481  26.306  1.00  0.00     0.124 S 
ATOM     80  O   UNL A   1      42.211  18.801  27.538  1.00  0.00    -0.237 OA
ATOM     81  O   UNL A   1      40.397  19.673  26.099  1.00  0.00    -0.237 OA
ATOM     82  O   UNL A   1      42.580  19.100  25.114  1.00  0.00    -0.744 OA
ENDBRANCH  78  79
ENDBRANCH  46  71
BRANCH  58  83
ATOM     83  C   UNL A   1      49.492  26.876  26.040  1.00  0.00     0.058 A 
ATOM     84  C   UNL A   1      49.862  27.041  24.696  1.00  0.00     0.135 A 
ATOM     85  C   UNL A   1      50.419  26.275  26.907  1.00  0.00     0.135 A 
ATOM     86  F   UNL A   1      49.010  27.603  23.825  1.00  0.00    -0.206 F 
ATOM     87  C   UNL A   1      51.097  26.606  24.225  1.00  0.00     0.059 A 
ATOM     88  C   UNL A   1      51.670  25.858  26.463  1.00  0.00     0.059 A 
ATOM     89  F   UNL A   1      50.120  26.105  28.204  1.00  0.00    -0.206 F 
ATOM     90  C   UNL A   1      51.995  26.017  25.117  1.00  0.00     0.060 A 
BRANCH  90  91
ATOM     91  S   UNL A   1      53.609  25.490  24.501  1.00  0.00     0.124 S 
ATOM     92  O   UNL A   1      53.552  24.049  24.724  1.00  0.00    -0.237 OA
ATOM     93  O   UNL A   1      53.568  25.918  23.106  1.00  0.00    -0.237 OA
ATOM     94  O   UNL A   1      54.550  26.220  25.346  1.00  0.00    -0.744 OA
ENDBRANCH  90  91
ENDBRANCH  58  83
ENDBRANCH  32  33
ENDBRANCH  25  27
ENDBRANCH  24  25
ENDBRANCH  23  24
ENDBRANCH  22  23
ENDBRANCH   1  22
TORSDOF 20
ENDMDL
MODEL 2
REMARK VINA RESULT:     -10.2      6.329     12.275
REMARK SMILES C[C@@H](C(=O)OCCOCCOC(=O)c1ccc(-c2c3nc(c(-c4c(F)cc(S(=O)(=O)[O-])cc4F)c4ccc([nH]4)c(-c4c(F)cc(S(=O)(=O)[O-])cc4F)c4nc(c(-c5c(F)cc(S(=O)(=O)[O-])cc5F)c5ccc2[nH]5)C=C4)C=C3)cc1)c1ccc(Cc2cccs2)cc1F
REMARK SMILES IDX 8 1 7 2 6 3 5 4 3 5 4 6 2 7 1 8 80 9 81 10 91 11 82 12 90 13
REMARK SMILES IDX 92 14 83 15 84 16 85 17 86 18 89 19 87 20 88 21 9 22 10 23
REMARK SMILES IDX 11 24 12 25 13 26 14 27 15 28 79 29 16 30 78 31 17 32 18 33
REMARK SMILES IDX 19 34 72 35 20 36 77 37 71 38 73 39 21 40 76 41 70 42 69 43
REMARK SMILES IDX 22 45 56 46 35 47 55 48 36 49 39 50 54 51 74 52 37 53 38 54
REMARK SMILES IDX 53 56 75 57 40 58 23 59 24 60 33 61 25 62 26 63 32 64 34 65
REMARK SMILES IDX 27 66 28 67 29 68 30 69 31 70 57 71 58 72 67 73 59 74 60 75
REMARK SMILES IDX 66 76 68 77 61 78 62 79 63 80 64 81 65 82 41 83 42 84 51 85
REMARK SMILES IDX 43 86 44 87 50 88 52 89 45 90 46 91 47 92 48 93 49 94
REMARK H PARENT 73 44 39 55
REMARK Flexibility Score: inf
ROOT
ATOM      1  O   UNL A   1      41.903  21.079  26.320  1.00  0.00    -0.374 OA
ENDROOT
BRANCH   1   2
ATOM      2  C   UNL A   1      40.501  20.792  26.316  1.00  0.00     0.202 C 
BRANCH   2   3
ATOM      3  C   UNL A   1      39.571  21.950  26.697  1.00  0.00     0.261 C 
BRANCH   3   4
ATOM      4  O   UNL A   1      38.812  22.365  25.551  1.00  0.00    -0.463 OA
BRANCH   4   5
ATOM      5  C   UNL A   1      37.755  23.182  25.805  1.00  0.00     0.313 C 
ATOM      6  O   UNL A   1      37.796  24.168  26.533  1.00  0.00    -0.252 OA
BRANCH   5   7
ATOM      7  C   UNL A   1      36.513  22.776  25.010  1.00  0.00     0.129 C 
ATOM      8  C   UNL A   1      36.719  22.766  23.488  1.00  0.00     0.025 C 
BRANCH   7   9
ATOM      9  C   UNL A   1      35.247  23.545  25.385  1.00  0.00     0.002 A 
ATOM     10  C   UNL A   1      34.904  24.693  24.654  1.00  0.00     0.008 A 
ATOM     11  C   UNL A   1      34.395  23.176  26.434  1.00  0.00     0.127 A 
ATOM     12  C   UNL A   1      33.740  25.416  24.942  1.00  0.00     0.004 A 
ATOM     13  C   UNL A   1      33.240  23.900  26.737  1.00  0.00     0.043 A 
ATOM     14  F   UNL A   1      34.661  22.101  27.185  1.00  0.00    -0.207 F 
ATOM     15  C   UNL A   1      32.888  25.025  25.983  1.00  0.00    -0.040 A 
BRANCH  15  16
ATOM     16  C   UNL A   1      31.585  25.749  26.245  1.00  0.00     0.082 C 
BRANCH  16  17
ATOM     17  C   UNL A   1      31.695  27.247  26.351  1.00  0.00     0.009 A 
ATOM     18  C   UNL A   1      32.203  28.013  27.385  1.00  0.00     0.016 A 
ATOM     19  S   UNL A   1      31.236  28.235  25.023  1.00  0.00    -0.149 S 
ATOM     20  C   UNL A   1      32.222  29.404  27.082  1.00  0.00     0.012 A 
ATOM     21  C   UNL A   1      31.734  29.663  25.821  1.00  0.00     0.065 A 
ENDBRANCH  16  17
ENDBRANCH  15  16
ENDBRANCH   7   9
ENDBRANCH   5   7
ENDBRANCH   4   5
ENDBRANCH   3   4
ENDBRANCH   2   3
ENDBRANCH   1   2
BRANCH   1  22
ATOM     22  C   UNL A   1      42.320  22.304  25.715  1.00  0.00     0.202 C 
BRANCH  22  23
ATOM     23  C   UNL A   1      42.858  23.386  26.656  1.00  0.00     0.261 C 
BRANCH  23  24
ATOM     24  O   UNL A   1      42.973  24.667  26.013  1.00  0.00    -0.460 OA
BRANCH  24  25
ATOM     25  C   UNL A   1      41.867  25.442  26.104  1.00  0.00     0.338 C 
ATOM     26  O   UNL A   1      40.921  25.472  25.326  1.00  0.00    -0.246 OA
BRANCH  25  27
ATOM     27  C   UNL A   1      41.849  26.161  27.389  1.00  0.00     0.060 A 
ATOM     28  C   UNL A   1      40.755  25.936  28.235  1.00  0.00     0.016 A 
ATOM     29  C   UNL A   1      42.829  27.096  27.728  1.00  0.00     0.016 A 
ATOM     30  C   UNL A   1      40.608  26.684  29.399  1.00  0.00     0.010 A 
ATOM     31  C   UNL A   1      42.674  27.855  28.895  1.00  0.00     0.010 A 
ATOM     32  C   UNL A   1      41.544  27.678  29.715  1.00  0.00    -0.014 A 
BRANCH  32  33
ATOM     33  C   UNL A   1      41.250  28.627  30.815  1.00  0.00     0.031 A 
ATOM     34  C   UNL A   1      42.085  28.570  32.067  1.00  0.00     0.074 A 
ATOM     35  C   UNL A   1      40.285  29.553  30.686  1.00  0.00     0.049 A 
ATOM     36  N   UNL A   1      42.000  29.293  33.153  1.00  0.00    -0.248 NA
ATOM     37  C   UNL A   1      43.158  27.563  32.096  1.00  0.00     0.031 C 
ATOM     38  C   UNL A   1      39.440  29.732  29.505  1.00  0.00     0.029 A 
ATOM     39  N   UNL A   1      39.853  30.520  31.558  1.00  0.00    -0.354 N 
ATOM     40  C   UNL A   1      43.003  28.827  33.997  1.00  0.00     0.074 A 
ATOM     41  C   UNL A   1      43.663  27.740  33.308  1.00  0.00     0.031 C 
ATOM     42  C   UNL A   1      38.583  30.742  29.732  1.00  0.00     0.029 A 
ATOM     43  C   UNL A   1      38.800  31.263  31.080  1.00  0.00     0.049 A 
ATOM     44  H   UNL A   1      40.258  30.666  32.443  1.00  0.00     0.167 HD
ATOM     45  C   UNL A   1      43.345  29.272  35.230  1.00  0.00     0.037 A 
ATOM     46  C   UNL A   1      38.084  32.239  31.671  1.00  0.00     0.037 A 
ATOM     47  C   UNL A   1      42.685  30.356  35.908  1.00  0.00     0.049 A 
ATOM     48  C   UNL A   1      38.444  32.676  33.068  1.00  0.00     0.074 A 
ATOM     49  C   UNL A   1      42.970  30.895  37.151  1.00  0.00     0.029 A 
ATOM     50  N   UNL A   1      41.602  31.063  35.405  1.00  0.00    -0.354 N 
ATOM     51  N   UNL A   1      39.407  32.242  33.846  1.00  0.00    -0.248 NA
ATOM     52  C   UNL A   1      37.622  33.737  33.666  1.00  0.00     0.031 C 
ATOM     53  C   UNL A   1      42.031  31.896  37.418  1.00  0.00     0.029 A 
ATOM     54  C   UNL A   1      41.191  32.016  36.322  1.00  0.00     0.049 A 
ATOM     55  H   UNL A   1      41.188  30.910  34.526  1.00  0.00     0.167 HD
ATOM     56  C   UNL A   1      39.323  32.994  35.013  1.00  0.00     0.074 A 
ATOM     57  C   UNL A   1      38.221  33.916  34.836  1.00  0.00     0.031 C 
ATOM     58  C   UNL A   1      40.092  32.930  36.129  1.00  0.00     0.037 A 
BRANCH  45  59
ATOM     59  C   UNL A   1      44.468  28.563  35.936  1.00  0.00     0.058 A 
ATOM     60  C   UNL A   1      45.802  28.985  35.815  1.00  0.00     0.135 A 
ATOM     61  C   UNL A   1      44.204  27.459  36.762  1.00  0.00     0.135 A 
ATOM     62  F   UNL A   1      46.113  30.024  35.024  1.00  0.00    -0.206 F 
ATOM     63  C   UNL A   1      46.837  28.322  36.467  1.00  0.00     0.059 A 
ATOM     64  C   UNL A   1      45.220  26.796  37.444  1.00  0.00     0.059 A 
ATOM     65  F   UNL A   1      42.946  27.012  36.910  1.00  0.00    -0.206 F 
ATOM     66  C   UNL A   1      46.535  27.226  37.277  1.00  0.00     0.060 A 
BRANCH  66  67
ATOM     67  S   UNL A   1      47.887  26.371  38.114  1.00  0.00     0.124 S 
ATOM     68  O   UNL A   1      47.357  26.242  39.468  1.00  0.00    -0.237 OA
ATOM     69  O   UNL A   1      47.992  25.130  37.353  1.00  0.00    -0.237 OA
ATOM     70  O   UNL A   1      49.013  27.288  37.967  1.00  0.00    -0.744 OA
ENDBRANCH  66  67
ENDBRANCH  45  59
BRANCH  46  71
ATOM     71  C   UNL A   1      36.947  32.865  30.946  1.00  0.00     0.058 A 
ATOM     72  C   UNL A   1      37.164  33.813  29.934  1.00  0.00     0.135 A 
ATOM     73  C   UNL A   1      35.620  32.522  31.246  1.00  0.00     0.135 A 
ATOM     74  F   UNL A   1      38.414  34.182  29.620  1.00  0.00    -0.206 F 
ATOM     75  C   UNL A   1      36.105  34.404  29.251  1.00  0.00     0.059 A 
ATOM     76  C   UNL A   1      34.545  33.081  30.562  1.00  0.00     0.059 A 
ATOM     77  F   UNL A   1      35.359  31.614  32.200  1.00  0.00    -0.206 F 
ATOM     78  C   UNL A   1      34.800  34.029  29.570  1.00  0.00     0.060 A 
BRANCH  78  79
ATOM     79  S   UNL A   1      33.434  34.759  28.640  1.00  0.00     0.124 S 
ATOM     80  O   UNL A   1      34.076  35.924  28.043  1.00  0.00    -0.237 OA
ATOM     81  O   UNL A   1      33.080  33.683  27.721  1.00  0.00    -0.237 OA
ATOM     82  O   UNL A   1      32.441  35.044  29.671  1.00  0.00    -0.744 OA
ENDBRANCH  78  79
ENDBRANCH  46  71
BRANCH  58  83
ATOM     83  C   UNL A   1      39.791  33.902  37.236  1.00  0.00     0.058 A 
ATOM     84  C   UNL A   1      38.994  33.544  38.335  1.00  0.00     0.135 A 
ATOM     85  C   UNL A   1      40.355  35.188  37.225  1.00  0.00     0.135 A 
ATOM     86  F   UNL A   1      38.427  32.329  38.392  1.00  0.00    -0.206 F 
ATOM     87  C   UNL A   1      38.747  34.437  39.373  1.00  0.00     0.059 A 
ATOM     88  C   UNL A   1      40.142  36.087  38.266  1.00  0.00     0.059 A 
ATOM     89  F   UNL A   1      41.134  35.576  36.204  1.00  0.00    -0.206 F 
ATOM     90  C   UNL A   1      39.328  35.707  39.330  1.00  0.00     0.060 A 
BRANCH  90  91
ATOM     91  S   UNL A   1      39.029  36.844  40.701  1.00  0.00     0.124 S 
ATOM     92  O   UNL A   1      38.269  37.902  40.044  1.00  0.00    -0.237 OA
ATOM     93  O   UNL A   1      38.280  36.015  41.640  1.00  0.00    -0.237 OA
ATOM     94  O   UNL A   1      40.374  37.213  41.135  1.00  0.00    -0.744 OA
ENDBRANCH  90  91
ENDBRANCH  58  83
ENDBRANCH  32  33
ENDBRANCH  25  27
ENDBRANCH  24  25
ENDBRANCH  23  24
ENDBRANCH  22  23
ENDBRANCH   1  22
TORSDOF 20
ENDMDL
MODEL 3
REMARK VINA RESULT:      -9.9      5.099      7.037
REMARK SMILES C[C@@H](C(=O)OCCOCCOC(=O)c1ccc(-c2c3nc(c(-c4c(F)cc(S(=O)(=O)[O-])cc4F)c4ccc([nH]4)c(-c4c(F)cc(S(=O)(=O)[O-])cc4F)c4nc(c(-c5c(F)cc(S(=O)(=O)[O-])cc5F)c5ccc2[nH]5)C=C4)C=C3)cc1)c1ccc(Cc2cccs2)cc1F
REMARK SMILES IDX 8 1 7 2 6 3 5 4 3 5 4 6 2 7 1 8 80 9 81 10 91 11 82 12 90 13
REMARK SMILES IDX 92 14 83 15 84 16 85 17 86 18 89 19 87 20 88 21 9 22 10 23
REMARK SMILES IDX 11 24 12 25 13 26 14 27 15 28 79 29 16 30 78 31 17 32 18 33
REMARK SMILES IDX 19 34 72 35 20 36 77 37 71 38 73 39 21 40 76 41 70 42 69 43
REMARK SMILES IDX 22 45 56 46 35 47 55 48 36 49 39 50 54 51 74 52 37 53 38 54
REMARK SMILES IDX 53 56 75 57 40 58 23 59 24 60 33 61 25 62 26 63 32 64 34 65
REMARK SMILES IDX 27 66 28 67 29 68 30 69 31 70 57 71 58 72 67 73 59 74 60 75
REMARK SMILES IDX 66 76 68 77 61 78 62 79 63 80 64 81 65 82 41 83 42 84 51 85
REMARK SMILES IDX 43 86 44 87 50 88 52 89 45 90 46 91 47 92 48 93 49 94
REMARK H PARENT 73 44 39 55
REMARK Flexibility Score: inf
ROOT
ATOM      1  O   UNL A   1      32.447  27.879  23.273  1.00  0.00    -0.374 OA
ENDROOT
BRANCH   1   2
ATOM      2  C   UNL A   1      31.147  27.815  23.866  1.00  0.00     0.202 C 
BRANCH   2   3
ATOM      3  C   UNL A   1      30.482  26.434  23.896  1.00  0.00     0.261 C 
BRANCH   3   4
ATOM      4  O   UNL A   1      31.394  25.463  24.431  1.00  0.00    -0.463 OA
BRANCH   4   5
ATOM      5  C   UNL A   1      30.998  24.846  25.576  1.00  0.00     0.313 C 
ATOM      6  O   UNL A   1      30.574  25.427  26.569  1.00  0.00    -0.252 OA
BRANCH   5   7
ATOM      7  C   UNL A   1      31.064  23.322  25.459  1.00  0.00     0.129 C 
ATOM      8  C   UNL A   1      30.202  22.577  26.488  1.00  0.00     0.025 C 
BRANCH   7   9
ATOM      9  C   UNL A   1      32.482  22.755  25.421  1.00  0.00     0.002 A 
ATOM     10  C   UNL A   1      33.016  22.338  24.192  1.00  0.00     0.008 A 
ATOM     11  C   UNL A   1      33.295  22.616  26.552  1.00  0.00     0.127 A 
ATOM     12  C   UNL A   1      34.321  21.836  24.101  1.00  0.00     0.004 A 
ATOM     13  C   UNL A   1      34.592  22.104  26.472  1.00  0.00     0.043 A 
ATOM     14  F   UNL A   1      32.852  22.980  27.762  1.00  0.00    -0.207 F 
ATOM     15  C   UNL A   1      35.130  21.720  25.240  1.00  0.00    -0.040 A 
BRANCH  15  16
ATOM     16  C   UNL A   1      36.568  21.260  25.137  1.00  0.00     0.082 C 
BRANCH  16  17
ATOM     17  C   UNL A   1      37.592  22.246  25.632  1.00  0.00     0.009 A 
ATOM     18  C   UNL A   1      37.465  23.609  25.832  1.00  0.00     0.016 A 
ATOM     19  S   UNL A   1      39.142  21.695  26.127  1.00  0.00    -0.149 S 
ATOM     20  C   UNL A   1      38.633  24.194  26.400  1.00  0.00     0.012 A 
ATOM     21  C   UNL A   1      39.619  23.260  26.623  1.00  0.00     0.065 A 
ENDBRANCH  16  17
ENDBRANCH  15  16
ENDBRANCH   7   9
ENDBRANCH   5   7
ENDBRANCH   4   5
ENDBRANCH   3   4
ENDBRANCH   2   3
ENDBRANCH   1   2
BRANCH   1  22
ATOM     22  C   UNL A   1      33.532  28.265  24.117  1.00  0.00     0.202 C 
BRANCH  22  23
ATOM     23  C   UNL A   1      33.184  28.604  25.570  1.00  0.00     0.261 C 
BRANCH  23  24
ATOM     24  O   UNL A   1      34.350  28.688  26.409  1.00  0.00    -0.460 OA
BRANCH  24  25
ATOM     25  C   UNL A   1      34.433  29.825  27.140  1.00  0.00     0.338 C 
ATOM     26  O   UNL A   1      33.578  30.695  27.253  1.00  0.00    -0.246 OA
BRANCH  25  27
ATOM     27  C   UNL A   1      35.661  29.822  27.955  1.00  0.00     0.060 A 
ATOM     28  C   UNL A   1      36.865  30.113  27.300  1.00  0.00     0.016 A 
ATOM     29  C   UNL A   1      35.653  29.462  29.304  1.00  0.00     0.016 A 
ATOM     30  C   UNL A   1      38.074  29.993  27.979  1.00  0.00     0.010 A 
ATOM     31  C   UNL A   1      36.872  29.333  29.982  1.00  0.00     0.010 A 
ATOM     32  C   UNL A   1      38.087  29.562  29.312  1.00  0.00    -0.014 A 
BRANCH  32  33
ATOM     33  C   UNL A   1      39.380  29.204  29.945  1.00  0.00     0.031 A 
ATOM     34  C   UNL A   1      39.825  29.960  31.168  1.00  0.00     0.074 A 
ATOM     35  C   UNL A   1      40.125  28.194  29.463  1.00  0.00     0.049 A 
ATOM     36  N   UNL A   1      40.916  29.823  31.875  1.00  0.00    -0.248 NA
ATOM     37  C   UNL A   1      38.916  31.009  31.659  1.00  0.00     0.031 C 
ATOM     38  C   UNL A   1      39.777  27.363  28.310  1.00  0.00     0.029 A 
ATOM     39  N   UNL A   1      41.331  27.694  29.887  1.00  0.00    -0.354 N 
ATOM     40  C   UNL A   1      40.830  30.770  32.890  1.00  0.00     0.074 A 
ATOM     41  C   UNL A   1      39.594  31.494  32.689  1.00  0.00     0.031 C 
ATOM     42  C   UNL A   1      40.754  26.462  28.112  1.00  0.00     0.029 A 
ATOM     43  C   UNL A   1      41.807  26.668  29.106  1.00  0.00     0.049 A 
ATOM     44  H   UNL A   1      41.810  28.038  30.674  1.00  0.00     0.167 HD
ATOM     45  C   UNL A   1      41.699  31.007  33.902  1.00  0.00     0.037 A 
ATOM     46  C   UNL A   1      42.967  25.987  29.175  1.00  0.00     0.037 A 
ATOM     47  C   UNL A   1      42.926  30.281  34.097  1.00  0.00     0.049 A 
ATOM     48  C   UNL A   1      43.948  26.310  30.273  1.00  0.00     0.074 A 
ATOM     49  C   UNL A   1      43.866  30.432  35.103  1.00  0.00     0.029 A 
ATOM     50  N   UNL A   1      43.390  29.271  33.267  1.00  0.00    -0.354 N 
ATOM     51  N   UNL A   1      43.844  27.193  31.238  1.00  0.00    -0.248 NA
ATOM     52  C   UNL A   1      45.201  25.543  30.293  1.00  0.00     0.031 C 
ATOM     53  C   UNL A   1      44.918  29.545  34.854  1.00  0.00     0.029 A 
ATOM     54  C   UNL A   1      44.613  28.807  33.722  1.00  0.00     0.049 A 
ATOM     55  H   UNL A   1      42.918  28.934  32.472  1.00  0.00     0.167 HD
ATOM     56  C   UNL A   1      45.005  27.069  31.994  1.00  0.00     0.074 A 
ATOM     57  C   UNL A   1      45.793  26.021  31.380  1.00  0.00     0.031 C 
ATOM     58  C   UNL A   1      45.384  27.759  33.100  1.00  0.00     0.037 A 
BRANCH  45  59
ATOM     59  C   UNL A   1      41.365  32.119  34.857  1.00  0.00     0.058 A 
ATOM     60  C   UNL A   1      40.543  31.912  35.976  1.00  0.00     0.135 A 
ATOM     61  C   UNL A   1      41.893  33.406  34.662  1.00  0.00     0.135 A 
ATOM     62  F   UNL A   1      39.998  30.706  36.201  1.00  0.00    -0.206 F 
ATOM     63  C   UNL A   1      40.233  32.947  36.854  1.00  0.00     0.059 A 
ATOM     64  C   UNL A   1      41.617  34.450  35.541  1.00  0.00     0.059 A 
ATOM     65  F   UNL A   1      42.682  33.660  33.606  1.00  0.00    -0.206 F 
ATOM     66  C   UNL A   1      40.774  34.213  36.625  1.00  0.00     0.060 A 
BRANCH  66  67
ATOM     67  S   UNL A   1      40.361  35.549  37.768  1.00  0.00     0.124 S 
ATOM     68  O   UNL A   1      39.225  34.977  38.485  1.00  0.00    -0.237 OA
ATOM     69  O   UNL A   1      41.591  35.690  38.542  1.00  0.00    -0.237 OA
ATOM     70  O   UNL A   1      40.048  36.668  36.886  1.00  0.00    -0.744 OA
ENDBRANCH  66  67
ENDBRANCH  45  59
BRANCH  46  71
ATOM     71  C   UNL A   1      43.270  24.936  28.169  1.00  0.00     0.058 A 
ATOM     72  C   UNL A   1      43.921  25.247  26.965  1.00  0.00     0.135 A 
ATOM     73  C   UNL A   1      42.922  23.595  28.394  1.00  0.00     0.135 A 
ATOM     74  F   UNL A   1      44.263  26.517  26.699  1.00  0.00    -0.206 F 
ATOM     75  C   UNL A   1      44.208  24.270  26.018  1.00  0.00     0.059 A 
ATOM     76  C   UNL A   1      43.219  22.595  27.474  1.00  0.00     0.059 A 
ATOM     77  F   UNL A   1      42.305  23.243  29.534  1.00  0.00    -0.206 F 
ATOM     78  C   UNL A   1      43.855  22.946  26.283  1.00  0.00     0.060 A 
BRANCH  78  79
ATOM     79  S   UNL A   1      44.282  21.674  25.073  1.00  0.00     0.124 S 
ATOM     80  O   UNL A   1      45.648  21.346  25.461  1.00  0.00    -0.237 OA
ATOM     81  O   UNL A   1      43.278  20.649  25.339  1.00  0.00    -0.237 OA
ATOM     82  O   UNL A   1      44.136  22.365  23.796  1.00  0.00    -0.744 OA
ENDBRANCH  78  79
ENDBRANCH  46  71
BRANCH  58  83
ATOM     83  C   UNL A   1      46.692  27.383  33.739  1.00  0.00     0.058 A 
ATOM     84  C   UNL A   1      46.777  26.369  34.706  1.00  0.00     0.135 A 
ATOM     85  C   UNL A   1      47.884  28.007  33.335  1.00  0.00     0.135 A 
ATOM     86  F   UNL A   1      45.668  25.745  35.130  1.00  0.00    -0.206 F 
ATOM     87  C   UNL A   1      47.996  26.002  35.267  1.00  0.00     0.059 A 
ATOM     88  C   UNL A   1      49.117  27.637  33.865  1.00  0.00     0.059 A 
ATOM     89  F   UNL A   1      47.860  28.974  32.406  1.00  0.00    -0.206 F 
ATOM     90  C   UNL A   1      49.162  26.642  34.839  1.00  0.00     0.060 A 
BRANCH  90  91
ATOM     91  S   UNL A   1      50.742  26.132  35.549  1.00  0.00     0.124 S 
ATOM     92  O   UNL A   1      50.432  26.120  36.975  1.00  0.00    -0.237 OA
ATOM     93  O   UNL A   1      50.956  24.826  34.936  1.00  0.00    -0.237 OA
ATOM     94  O   UNL A   1      51.663  27.180  35.116  1.00  0.00    -0.744 OA
ENDBRANCH  90  91
ENDBRANCH  58  83
ENDBRANCH  32  33
ENDBRANCH  25  27
ENDBRANCH  24  25
ENDBRANCH  23  24
ENDBRANCH  22  23
ENDBRANCH   1  22
TORSDOF 20
ENDMDL
