MODEL 1
REMARK VINA RESULT:     -11.1      0.000      0.000
REMARK SMILES Cc1c(-c2nn(-c3ccccc3)cc2/C=N/O)nnn1-c1ccc(C(=O)OCCOCCOC(=O)c2ccc(-c3c4nc(c(-c5c(F)cc(S(=O)(=O)[O-])cc5F)c5ccc([nH]5)c(-c5c(F)cc(S(=O)(=O)[O-])cc5F)c5nc(c(-c6c(F)cc(S(=O)(=O)[O-])cc6F)c6ccc3[nH]6)C=C5)C=C4)cc2)cc1
REMARK SMILES IDX 29 1 28 2 27 3 25 4 26 5 24 6 21 7 22 8 103 9 23 10 102 11
REMARK SMILES IDX 20 12 1 13 2 14 3 15 18 16 19 17 4 18 5 19 14 20 6 21 13 22
REMARK SMILES IDX 15 23 16 24 17 25 7 27 8 28 12 29 9 30 11 31 10 32 30 33
REMARK SMILES IDX 31 34 32 35 33 36 34 37 35 38 36 39 37 40 101 41 38 42
REMARK SMILES IDX 100 43 39 44 40 45 41 46 94 47 42 48 99 49 93 50 95 51 43 52
REMARK SMILES IDX 98 53 92 54 91 55 44 57 78 58 57 59 77 60 58 61 61 62 76 63
REMARK SMILES IDX 96 64 59 65 60 66 75 68 97 69 62 70 45 71 46 72 55 73 47 74
REMARK SMILES IDX 48 75 54 76 56 77 49 78 50 79 51 80 52 81 53 82 79 83 80 84
REMARK SMILES IDX 89 85 81 86 82 87 88 88 90 89 83 90 84 91 85 92 86 93 87 94
REMARK SMILES IDX 63 95 64 96 73 97 65 98 66 99 72 100 74 101 67 102 68 103
REMARK SMILES IDX 69 104 70 105 71 106
REMARK H PARENT 17 26 95 56 61 67
REMARK Flexibility Score: inf
ROOT
ATOM      1  C   UNL A   1      44.784  21.304  24.956  1.00  0.00     0.202 C 
ENDROOT
BRANCH   1   2
ATOM      2  C   UNL A   1      43.281  21.029  25.041  1.00  0.00     0.261 C 
BRANCH   2   3
ATOM      3  O   UNL A   1      42.657  21.611  26.197  1.00  0.00    -0.460 OA
BRANCH   3   4
ATOM      4  C   UNL A   1      41.762  20.794  26.800  1.00  0.00     0.338 C 
ATOM      5  O   UNL A   1      42.005  19.876  27.569  1.00  0.00    -0.246 OA
BRANCH   4   6
ATOM      6  C   UNL A   1      40.377  21.228  26.535  1.00  0.00     0.060 A 
ATOM      7  C   UNL A   1      37.939  22.084  25.522  1.00  0.00     0.067 A 
ATOM      8  C   UNL A   1      38.318  20.748  25.355  1.00  0.00     0.029 A 
ATOM      9  C   UNL A   1      38.707  22.949  26.317  1.00  0.00     0.029 A 
ATOM     10  C   UNL A   1      39.556  20.334  25.834  1.00  0.00     0.018 A 
ATOM     11  C   UNL A   1      39.928  22.513  26.844  1.00  0.00     0.018 A 
BRANCH   7  12
ATOM     12  N   UNL A   1      36.836  22.556  24.772  1.00  0.00    -0.217 N 
ATOM     13  C   UNL A   1      35.205  23.184  26.650  1.00  0.00     0.069 C 
ATOM     14  C   UNL A   1      35.612  23.015  25.234  1.00  0.00     0.071 A 
ATOM     15  C   UNL A   1      34.973  23.421  24.077  1.00  0.00     0.137 A 
ATOM     16  N   UNL A   1      35.802  23.292  23.005  1.00  0.00    -0.128 NA
ATOM     17  N   UNL A   1      36.963  22.828  23.449  1.00  0.00    -0.061 NA
BRANCH  15  18
ATOM     18  C   UNL A   1      33.645  24.008  23.941  1.00  0.00     0.124 A 
ATOM     19  N   UNL A   1      33.452  25.313  23.703  1.00  0.00    -0.165 NA
ATOM     20  C   UNL A   1      32.430  23.297  24.088  1.00  0.00     0.044 A 
ATOM     21  N   UNL A   1      32.115  25.475  23.805  1.00  0.00    -0.240 N 
ATOM     22  C   UNL A   1      31.467  24.287  24.049  1.00  0.00     0.125 A 
BRANCH  20  23
ATOM     23  C   UNL A   1      32.162  21.891  24.249  1.00  0.00     0.166 C 
ATOM     24  N   UNL A   1      32.204  21.356  25.423  1.00  0.00    -0.097 NA
BRANCH  24  25
ATOM     25  O   UNL A   1      31.950  19.984  25.311  1.00  0.00    -0.411 OA
ATOM     26  H   UNL A   1      31.243  19.680  24.777  1.00  0.00     0.330 HD
ENDBRANCH  24  25
ENDBRANCH  20  23
BRANCH  21  27
ATOM     27  C   UNL A   1      31.522  26.753  23.688  1.00  0.00     0.065 A 
ATOM     28  C   UNL A   1      31.604  27.652  24.758  1.00  0.00     0.028 A 
ATOM     29  C   UNL A   1      30.855  27.113  22.511  1.00  0.00     0.028 A 
ATOM     30  C   UNL A   1      31.048  28.926  24.634  1.00  0.00     0.002 A 
ATOM     31  C   UNL A   1      30.251  28.369  22.418  1.00  0.00     0.002 A 
ATOM     32  C   UNL A   1      30.360  29.279  23.471  1.00  0.00     0.000 A 
ENDBRANCH  21  27
ENDBRANCH  15  18
ENDBRANCH   7  12
ENDBRANCH   4   6
ENDBRANCH   3   4
ENDBRANCH   2   3
ENDBRANCH   1   2
BRANCH   1  33
ATOM     33  O   UNL A   1      45.504  21.600  26.152  1.00  0.00    -0.374 OA
BRANCH  33  34
ATOM     34  C   UNL A   1      45.339  22.857  26.800  1.00  0.00     0.202 C 
BRANCH  34  35
ATOM     35  C   UNL A   1      45.453  24.134  25.982  1.00  0.00     0.261 C 
BRANCH  35  36
ATOM     36  O   UNL A   1      44.778  25.217  26.597  1.00  0.00    -0.460 OA
BRANCH  36  37
ATOM     37  C   UNL A   1      43.837  25.790  25.806  1.00  0.00     0.338 C 
ATOM     38  O   UNL A   1      43.172  25.252  24.945  1.00  0.00    -0.246 OA
BRANCH  37  39
ATOM     39  C   UNL A   1      43.852  27.235  26.059  1.00  0.00     0.060 A 
ATOM     40  C   UNL A   1      44.709  27.652  27.078  1.00  0.00     0.016 A 
ATOM     41  C   UNL A   1      42.771  28.011  25.617  1.00  0.00     0.016 A 
ATOM     42  C   UNL A   1      44.289  28.688  27.873  1.00  0.00     0.010 A 
ATOM     43  C   UNL A   1      42.343  29.028  26.425  1.00  0.00     0.010 A 
ATOM     44  C   UNL A   1      43.047  29.268  27.601  1.00  0.00    -0.014 A 
BRANCH  44  45
ATOM     45  C   UNL A   1      42.522  30.229  28.540  1.00  0.00     0.031 A 
ATOM     46  C   UNL A   1      43.468  31.342  28.738  1.00  0.00     0.074 A 
ATOM     47  C   UNL A   1      41.279  30.143  29.046  1.00  0.00     0.049 A 
ATOM     48  N   UNL A   1      44.288  31.511  29.721  1.00  0.00    -0.248 NA
ATOM     49  C   UNL A   1      43.739  32.205  27.574  1.00  0.00     0.031 C 
ATOM     50  C   UNL A   1      40.190  29.239  28.666  1.00  0.00     0.029 A 
ATOM     51  N   UNL A   1      40.697  30.942  29.978  1.00  0.00    -0.354 N 
ATOM     52  C   UNL A   1      44.974  32.676  29.406  1.00  0.00     0.074 A 
ATOM     53  C   UNL A   1      44.824  32.858  27.990  1.00  0.00     0.031 C 
ATOM     54  C   UNL A   1      39.027  29.692  29.193  1.00  0.00     0.029 A 
ATOM     55  C   UNL A   1      39.311  30.827  30.055  1.00  0.00     0.049 A 
ATOM     56  H   UNL A   1      41.213  31.552  30.552  1.00  0.00     0.167 HD
ATOM     57  C   UNL A   1      45.301  33.574  30.374  1.00  0.00     0.037 A 
ATOM     58  C   UNL A   1      38.495  31.690  30.719  1.00  0.00     0.037 A 
ATOM     59  C   UNL A   1      45.226  32.969  31.683  1.00  0.00     0.049 A 
ATOM     60  C   UNL A   1      39.354  32.419  31.698  1.00  0.00     0.074 A 
ATOM     61  C   UNL A   1      45.851  31.897  32.291  1.00  0.00     0.029 A 
ATOM     62  N   UNL A   1      44.102  33.225  32.431  1.00  0.00    -0.354 N 
ATOM     63  N   UNL A   1      39.954  31.841  32.706  1.00  0.00    -0.248 NA
ATOM     64  C   UNL A   1      39.955  33.669  31.255  1.00  0.00     0.031 C 
ATOM     65  C   UNL A   1      44.838  31.276  33.080  1.00  0.00     0.029 A 
ATOM     66  C   UNL A   1      43.673  32.040  32.976  1.00  0.00     0.049 A 
ATOM     67  H   UNL A   1      43.677  34.104  32.556  1.00  0.00     0.167 HD
ATOM     68  C   UNL A   1      41.218  32.414  32.752  1.00  0.00     0.074 A 
ATOM     69  C   UNL A   1      41.140  33.571  31.863  1.00  0.00     0.031 C 
ATOM     70  C   UNL A   1      42.287  31.738  33.271  1.00  0.00     0.037 A 
BRANCH  57  71
ATOM     71  C   UNL A   1      45.274  35.071  30.161  1.00  0.00     0.058 A 
ATOM     72  C   UNL A   1      46.415  35.825  30.503  1.00  0.00     0.135 A 
ATOM     73  C   UNL A   1      44.111  35.829  29.885  1.00  0.00     0.135 A 
ATOM     74  F   UNL A   1      47.574  35.214  30.795  1.00  0.00    -0.206 F 
ATOM     75  C   UNL A   1      46.382  37.214  30.627  1.00  0.00     0.059 A 
ATOM     76  C   UNL A   1      44.072  37.214  29.943  1.00  0.00     0.059 A 
ATOM     77  F   UNL A   1      42.919  35.275  29.637  1.00  0.00    -0.206 F 
ATOM     78  C   UNL A   1      45.200  37.897  30.355  1.00  0.00     0.060 A 
BRANCH  78  79
ATOM     79  S   UNL A   1      45.123  39.678  30.592  1.00  0.00     0.124 S 
ATOM     80  O   UNL A   1      46.097  39.869  31.661  1.00  0.00    -0.237 OA
ATOM     81  O   UNL A   1      45.509  40.172  29.275  1.00  0.00    -0.237 OA
ATOM     82  O   UNL A   1      43.728  39.907  30.958  1.00  0.00    -0.744 OA
ENDBRANCH  78  79
ENDBRANCH  57  71
BRANCH  58  83
ATOM     83  C   UNL A   1      37.179  32.225  30.263  1.00  0.00     0.058 A 
ATOM     84  C   UNL A   1      36.024  32.119  31.060  1.00  0.00     0.135 A 
ATOM     85  C   UNL A   1      37.091  33.106  29.165  1.00  0.00     0.135 A 
ATOM     86  F   UNL A   1      36.026  31.329  32.144  1.00  0.00    -0.206 F 
ATOM     87  C   UNL A   1      34.865  32.869  30.806  1.00  0.00     0.059 A 
ATOM     88  C   UNL A   1      35.947  33.857  28.889  1.00  0.00     0.059 A 
ATOM     89  F   UNL A   1      38.151  33.335  28.377  1.00  0.00    -0.206 F 
ATOM     90  C   UNL A   1      34.844  33.750  29.726  1.00  0.00     0.060 A 
BRANCH  90  91
ATOM     91  S   UNL A   1      33.415  34.835  29.479  1.00  0.00     0.124 S 
ATOM     92  O   UNL A   1      34.052  36.098  29.121  1.00  0.00    -0.237 OA
ATOM     93  O   UNL A   1      32.695  34.158  28.406  1.00  0.00    -0.237 OA
ATOM     94  O   UNL A   1      32.749  34.820  30.779  1.00  0.00    -0.744 OA
ENDBRANCH  90  91
ENDBRANCH  58  83
BRANCH  70  95
ATOM     95  C   UNL A   1      42.026  30.473  34.053  1.00  0.00     0.058 A 
ATOM     96  C   UNL A   1      41.837  29.199  33.486  1.00  0.00     0.135 A 
ATOM     97  C   UNL A   1      42.134  30.539  35.451  1.00  0.00     0.135 A 
ATOM     98  F   UNL A   1      41.821  29.034  32.155  1.00  0.00    -0.206 F 
ATOM     99  C   UNL A   1      41.726  28.050  34.277  1.00  0.00     0.059 A 
ATOM    100  C   UNL A   1      42.059  29.406  36.254  1.00  0.00     0.059 A 
ATOM    101  F   UNL A   1      42.373  31.717  36.050  1.00  0.00    -0.206 F 
ATOM    102  C   UNL A   1      41.841  28.165  35.662  1.00  0.00     0.060 A 
BRANCH 102 103
ATOM    103  S   UNL A   1      41.766  26.677  36.688  1.00  0.00     0.124 S 
ATOM    104  O   UNL A   1      42.978  26.798  37.491  1.00  0.00    -0.237 OA
ATOM    105  O   UNL A   1      40.508  26.852  37.407  1.00  0.00    -0.237 OA
ATOM    106  O   UNL A   1      41.771  25.589  35.712  1.00  0.00    -0.744 OA
ENDBRANCH 102 103
ENDBRANCH  70  95
ENDBRANCH  44  45
ENDBRANCH  37  39
ENDBRANCH  36  37
ENDBRANCH  35  36
ENDBRANCH  34  35
ENDBRANCH  33  34
ENDBRANCH   1  33
TORSDOF 22
ENDMDL
MODEL 2
REMARK VINA RESULT:     -10.7      3.803      9.729
REMARK SMILES Cc1c(-c2nn(-c3ccccc3)cc2/C=N/O)nnn1-c1ccc(C(=O)OCCOCCOC(=O)c2ccc(-c3c4nc(c(-c5c(F)cc(S(=O)(=O)[O-])cc5F)c5ccc([nH]5)c(-c5c(F)cc(S(=O)(=O)[O-])cc5F)c5nc(c(-c6c(F)cc(S(=O)(=O)[O-])cc6F)c6ccc3[nH]6)C=C5)C=C4)cc2)cc1
REMARK SMILES IDX 29 1 28 2 27 3 25 4 26 5 24 6 21 7 22 8 103 9 23 10 102 11
REMARK SMILES IDX 20 12 1 13 2 14 3 15 18 16 19 17 4 18 5 19 14 20 6 21 13 22
REMARK SMILES IDX 15 23 16 24 17 25 7 27 8 28 12 29 9 30 11 31 10 32 30 33
REMARK SMILES IDX 31 34 32 35 33 36 34 37 35 38 36 39 37 40 101 41 38 42
REMARK SMILES IDX 100 43 39 44 40 45 41 46 94 47 42 48 99 49 93 50 95 51 43 52
REMARK SMILES IDX 98 53 92 54 91 55 44 57 78 58 57 59 77 60 58 61 61 62 76 63
REMARK SMILES IDX 96 64 59 65 60 66 75 68 97 69 62 70 45 71 46 72 55 73 47 74
REMARK SMILES IDX 48 75 54 76 56 77 49 78 50 79 51 80 52 81 53 82 79 83 80 84
REMARK SMILES IDX 89 85 81 86 82 87 88 88 90 89 83 90 84 91 85 92 86 93 87 94
REMARK SMILES IDX 63 95 64 96 73 97 65 98 66 99 72 100 74 101 67 102 68 103
REMARK SMILES IDX 69 104 70 105 71 106
REMARK H PARENT 17 26 95 56 61 67
REMARK Flexibility Score: inf
ROOT
ATOM      1  C   UNL A   1      33.466  34.605  28.510  1.00  0.00     0.202 C 
ENDROOT
BRANCH   1   2
ATOM      2  C   UNL A   1      32.642  33.411  28.024  1.00  0.00     0.261 C 
BRANCH   2   3
ATOM      3  O   UNL A   1      33.351  32.561  27.108  1.00  0.00    -0.460 OA
BRANCH   3   4
ATOM      4  C   UNL A   1      33.695  31.362  27.635  1.00  0.00     0.338 C 
ATOM      5  O   UNL A   1      34.492  31.157  28.538  1.00  0.00    -0.246 OA
BRANCH   4   6
ATOM      6  C   UNL A   1      32.868  30.275  27.077  1.00  0.00     0.060 A 
ATOM      7  C   UNL A   1      31.788  28.018  25.876  1.00  0.00     0.067 A 
ATOM      8  C   UNL A   1      32.352  27.911  27.151  1.00  0.00     0.029 A 
ATOM      9  C   UNL A   1      31.633  29.275  25.268  1.00  0.00     0.029 A 
ATOM     10  C   UNL A   1      32.923  29.038  27.733  1.00  0.00     0.018 A 
ATOM     11  C   UNL A   1      32.162  30.416  25.881  1.00  0.00     0.018 A 
BRANCH   7  12
ATOM     12  N   UNL A   1      31.494  26.822  25.181  1.00  0.00    -0.217 N 
ATOM     13  C   UNL A   1      33.822  25.750  25.053  1.00  0.00     0.069 C 
ATOM     14  C   UNL A   1      32.367  25.823  24.777  1.00  0.00     0.071 A 
ATOM     15  C   UNL A   1      31.524  24.873  24.231  1.00  0.00     0.137 A 
ATOM     16  N   UNL A   1      30.223  25.247  24.381  1.00  0.00    -0.128 NA
ATOM     17  N   UNL A   1      30.212  26.407  25.026  1.00  0.00    -0.061 NA
BRANCH  15  18
ATOM     18  C   UNL A   1      31.877  23.583  23.648  1.00  0.00     0.124 A 
ATOM     19  N   UNL A   1      31.760  22.430  24.320  1.00  0.00    -0.165 NA
ATOM     20  C   UNL A   1      32.420  23.405  22.353  1.00  0.00     0.044 A 
ATOM     21  N   UNL A   1      32.328  21.512  23.507  1.00  0.00    -0.240 N 
ATOM     22  C   UNL A   1      32.749  22.063  22.320  1.00  0.00     0.125 A 
BRANCH  20  23
ATOM     23  C   UNL A   1      32.624  24.332  21.269  1.00  0.00     0.166 C 
ATOM     24  N   UNL A   1      33.197  25.467  21.490  1.00  0.00    -0.097 NA
BRANCH  24  25
ATOM     25  O   UNL A   1      33.242  26.198  20.297  1.00  0.00    -0.411 OA
ATOM     26  H   UNL A   1      33.682  27.024  20.269  1.00  0.00     0.330 HD
ENDBRANCH  24  25
ENDBRANCH  20  23
BRANCH  21  27
ATOM     27  C   UNL A   1      32.462  20.163  23.907  1.00  0.00     0.065 A 
ATOM     28  C   UNL A   1      32.207  19.142  22.985  1.00  0.00     0.028 A 
ATOM     29  C   UNL A   1      32.844  19.854  25.219  1.00  0.00     0.028 A 
ATOM     30  C   UNL A   1      32.371  17.809  23.368  1.00  0.00     0.002 A 
ATOM     31  C   UNL A   1      32.948  18.517  25.608  1.00  0.00     0.002 A 
ATOM     32  C   UNL A   1      32.726  17.497  24.681  1.00  0.00     0.000 A 
ENDBRANCH  21  27
ENDBRANCH  15  18
ENDBRANCH   7  12
ENDBRANCH   4   6
ENDBRANCH   3   4
ENDBRANCH   2   3
ENDBRANCH   1   2
BRANCH   1  33
ATOM     33  O   UNL A   1      34.797  34.775  28.023  1.00  0.00    -0.374 OA
BRANCH  33  34
ATOM     34  C   UNL A   1      35.901  34.232  28.738  1.00  0.00     0.202 C 
BRANCH  34  35
ATOM     35  C   UNL A   1      35.690  33.731  30.159  1.00  0.00     0.261 C 
BRANCH  35  36
ATOM     36  O   UNL A   1      36.452  34.468  31.097  1.00  0.00    -0.460 OA
BRANCH  36  37
ATOM     37  C   UNL A   1      36.182  34.151  32.388  1.00  0.00     0.338 C 
ATOM     38  O   UNL A   1      35.267  34.563  33.071  1.00  0.00    -0.246 OA
BRANCH  37  39
ATOM     39  C   UNL A   1      37.281  33.318  32.890  1.00  0.00     0.060 A 
ATOM     40  C   UNL A   1      38.561  33.817  32.650  1.00  0.00     0.016 A 
ATOM     41  C   UNL A   1      37.035  31.965  33.161  1.00  0.00     0.016 A 
ATOM     42  C   UNL A   1      39.548  32.909  32.356  1.00  0.00     0.010 A 
ATOM     43  C   UNL A   1      38.014  31.063  32.845  1.00  0.00     0.010 A 
ATOM     44  C   UNL A   1      39.213  31.552  32.336  1.00  0.00    -0.014 A 
BRANCH  44  45
ATOM     45  C   UNL A   1      40.196  30.614  31.852  1.00  0.00     0.031 A 
ATOM     46  C   UNL A   1      41.144  30.248  32.920  1.00  0.00     0.074 A 
ATOM     47  C   UNL A   1      40.140  30.078  30.619  1.00  0.00     0.049 A 
ATOM     48  N   UNL A   1      42.337  30.706  33.102  1.00  0.00    -0.248 NA
ATOM     49  C   UNL A   1      40.599  29.514  34.076  1.00  0.00     0.031 C 
ATOM     50  C   UNL A   1      39.069  30.166  29.624  1.00  0.00     0.029 A 
ATOM     51  N   UNL A   1      41.033  29.240  30.030  1.00  0.00    -0.354 N 
ATOM     52  C   UNL A   1      42.778  30.078  34.258  1.00  0.00     0.074 A 
ATOM     53  C   UNL A   1      41.600  29.634  34.947  1.00  0.00     0.031 C 
ATOM     54  C   UNL A   1      39.273  29.233  28.663  1.00  0.00     0.029 A 
ATOM     55  C   UNL A   1      40.551  28.584  28.900  1.00  0.00     0.049 A 
ATOM     56  H   UNL A   1      41.945  29.107  30.375  1.00  0.00     0.167 HD
ATOM     57  C   UNL A   1      44.069  29.663  34.376  1.00  0.00     0.037 A 
ATOM     58  C   UNL A   1      41.158  27.526  28.297  1.00  0.00     0.037 A 
ATOM     59  C   UNL A   1      44.909  30.314  33.399  1.00  0.00     0.049 A 
ATOM     60  C   UNL A   1      42.583  27.544  28.741  1.00  0.00     0.074 A 
ATOM     61  C   UNL A   1      45.226  31.630  33.118  1.00  0.00     0.029 A 
ATOM     62  N   UNL A   1      45.236  29.599  32.272  1.00  0.00    -0.354 N 
ATOM     63  N   UNL A   1      43.424  28.499  28.438  1.00  0.00    -0.248 NA
ATOM     64  C   UNL A   1      42.920  26.780  29.934  1.00  0.00     0.031 C 
ATOM     65  C   UNL A   1      45.281  31.702  31.694  1.00  0.00     0.029 A 
ATOM     66  C   UNL A   1      45.075  30.419  31.184  1.00  0.00     0.049 A 
ATOM     67  H   UNL A   1      45.535  28.661  32.249  1.00  0.00     0.167 HD
ATOM     68  C   UNL A   1      44.146  28.730  29.602  1.00  0.00     0.074 A 
ATOM     69  C   UNL A   1      43.823  27.602  30.475  1.00  0.00     0.031 C 
ATOM     70  C   UNL A   1      44.703  29.950  29.864  1.00  0.00     0.037 A 
BRANCH  57  71
ATOM     71  C   UNL A   1      44.470  28.386  35.080  1.00  0.00     0.058 A 
ATOM     72  C   UNL A   1      45.478  28.441  36.063  1.00  0.00     0.135 A 
ATOM     73  C   UNL A   1      44.104  27.083  34.663  1.00  0.00     0.135 A 
ATOM     74  F   UNL A   1      45.913  29.623  36.528  1.00  0.00    -0.206 F 
ATOM     75  C   UNL A   1      46.117  27.297  36.541  1.00  0.00     0.059 A 
ATOM     76  C   UNL A   1      44.685  25.930  35.170  1.00  0.00     0.059 A 
ATOM     77  F   UNL A   1      43.235  26.848  33.674  1.00  0.00    -0.206 F 
ATOM     78  C   UNL A   1      45.719  26.047  36.078  1.00  0.00     0.060 A 
BRANCH  78  79
ATOM     79  S   UNL A   1      46.592  24.573  36.625  1.00  0.00     0.124 S 
ATOM     80  O   UNL A   1      46.826  24.880  38.031  1.00  0.00    -0.237 OA
ATOM     81  O   UNL A   1      45.614  23.527  36.349  1.00  0.00    -0.237 OA
ATOM     82  O   UNL A   1      47.780  24.553  35.775  1.00  0.00    -0.744 OA
ENDBRANCH  78  79
ENDBRANCH  57  71
BRANCH  58  83
ATOM     83  C   UNL A   1      40.509  26.295  27.760  1.00  0.00     0.058 A 
ATOM     84  C   UNL A   1      39.506  25.617  28.478  1.00  0.00     0.135 A 
ATOM     85  C   UNL A   1      40.654  25.925  26.407  1.00  0.00     0.135 A 
ATOM     86  F   UNL A   1      39.275  25.926  29.763  1.00  0.00    -0.206 F 
ATOM     87  C   UNL A   1      38.673  24.658  27.881  1.00  0.00     0.059 A 
ATOM     88  C   UNL A   1      39.843  24.970  25.794  1.00  0.00     0.059 A 
ATOM     89  F   UNL A   1      41.533  26.551  25.611  1.00  0.00    -0.206 F 
ATOM     90  C   UNL A   1      38.839  24.354  26.531  1.00  0.00     0.060 A 
BRANCH  90  91
ATOM     91  S   UNL A   1      37.674  23.235  25.712  1.00  0.00     0.124 S 
ATOM     92  O   UNL A   1      36.476  23.394  26.530  1.00  0.00    -0.237 OA
ATOM     93  O   UNL A   1      37.604  23.793  24.366  1.00  0.00    -0.237 OA
ATOM     94  O   UNL A   1      38.328  21.933  25.811  1.00  0.00    -0.744 OA
ENDBRANCH  90  91
ENDBRANCH  58  83
BRANCH  70  95
ATOM     95  C   UNL A   1      44.771  30.963  28.746  1.00  0.00     0.058 A 
ATOM     96  C   UNL A   1      45.718  30.952  27.705  1.00  0.00     0.135 A 
ATOM     97  C   UNL A   1      43.724  31.891  28.645  1.00  0.00     0.135 A 
ATOM     98  F   UNL A   1      46.695  30.034  27.673  1.00  0.00    -0.206 F 
ATOM     99  C   UNL A   1      45.643  31.847  26.632  1.00  0.00     0.059 A 
ATOM    100  C   UNL A   1      43.612  32.769  27.572  1.00  0.00     0.059 A 
ATOM    101  F   UNL A   1      42.756  31.913  29.576  1.00  0.00    -0.206 F 
ATOM    102  C   UNL A   1      44.583  32.752  26.574  1.00  0.00     0.060 A 
BRANCH 102 103
ATOM    103  S   UNL A   1      44.441  33.867  25.159  1.00  0.00     0.124 S 
ATOM    104  O   UNL A   1      44.134  32.945  24.071  1.00  0.00    -0.237 OA
ATOM    105  O   UNL A   1      43.355  34.755  25.563  1.00  0.00    -0.237 OA
ATOM    106  O   UNL A   1      45.757  34.499  25.088  1.00  0.00    -0.744 OA
ENDBRANCH 102 103
ENDBRANCH  70  95
ENDBRANCH  44  45
ENDBRANCH  37  39
ENDBRANCH  36  37
ENDBRANCH  35  36
ENDBRANCH  34  35
ENDBRANCH  33  34
ENDBRANCH   1  33
TORSDOF 22
ENDMDL
MODEL 3
REMARK VINA RESULT:     -10.6      5.297      9.813
REMARK SMILES Cc1c(-c2nn(-c3ccccc3)cc2/C=N/O)nnn1-c1ccc(C(=O)OCCOCCOC(=O)c2ccc(-c3c4nc(c(-c5c(F)cc(S(=O)(=O)[O-])cc5F)c5ccc([nH]5)c(-c5c(F)cc(S(=O)(=O)[O-])cc5F)c5nc(c(-c6c(F)cc(S(=O)(=O)[O-])cc6F)c6ccc3[nH]6)C=C5)C=C4)cc2)cc1
REMARK SMILES IDX 29 1 28 2 27 3 25 4 26 5 24 6 21 7 22 8 103 9 23 10 102 11
REMARK SMILES IDX 20 12 1 13 2 14 3 15 18 16 19 17 4 18 5 19 14 20 6 21 13 22
REMARK SMILES IDX 15 23 16 24 17 25 7 27 8 28 12 29 9 30 11 31 10 32 30 33
REMARK SMILES IDX 31 34 32 35 33 36 34 37 35 38 36 39 37 40 101 41 38 42
REMARK SMILES IDX 100 43 39 44 40 45 41 46 94 47 42 48 99 49 93 50 95 51 43 52
REMARK SMILES IDX 98 53 92 54 91 55 44 57 78 58 57 59 77 60 58 61 61 62 76 63
REMARK SMILES IDX 96 64 59 65 60 66 75 68 97 69 62 70 45 71 46 72 55 73 47 74
REMARK SMILES IDX 48 75 54 76 56 77 49 78 50 79 51 80 52 81 53 82 79 83 80 84
REMARK SMILES IDX 89 85 81 86 82 87 88 88 90 89 83 90 84 91 85 92 86 93 87 94
REMARK SMILES IDX 63 95 64 96 73 97 65 98 66 99 72 100 74 101 67 102 68 103
REMARK SMILES IDX 69 104 70 105 71 106
REMARK H PARENT 17 26 95 56 61 67
REMARK Flexibility Score: inf
ROOT
ATOM      1  C   UNL A   1      42.944  22.355  25.131  1.00  0.00     0.202 C 
ENDROOT
BRANCH   1   2
ATOM      2  C   UNL A   1      44.389  22.859  25.104  1.00  0.00     0.261 C 
BRANCH   2   3
ATOM      3  O   UNL A   1      44.627  23.962  25.993  1.00  0.00    -0.460 OA
BRANCH   3   4
ATOM      4  C   UNL A   1      44.573  25.171  25.385  1.00  0.00     0.338 C 
ATOM      5  O   UNL A   1      43.569  25.795  25.077  1.00  0.00    -0.246 OA
BRANCH   4   6
ATOM      6  C   UNL A   1      45.918  25.761  25.245  1.00  0.00     0.060 A 
ATOM      7  C   UNL A   1      48.353  26.827  24.450  1.00  0.00     0.067 A 
ATOM      8  C   UNL A   1      47.209  27.629  24.406  1.00  0.00     0.029 A 
ATOM      9  C   UNL A   1      48.306  25.547  25.026  1.00  0.00     0.029 A 
ATOM     10  C   UNL A   1      45.985  27.078  24.772  1.00  0.00     0.018 A 
ATOM     11  C   UNL A   1      47.081  25.016  25.444  1.00  0.00     0.018 A 
BRANCH   7  12
ATOM     12  N   UNL A   1      49.515  27.297  23.793  1.00  0.00    -0.217 N 
ATOM     13  C   UNL A   1      48.555  27.920  21.496  1.00  0.00     0.069 C 
ATOM     14  C   UNL A   1      49.644  27.753  22.489  1.00  0.00     0.071 A 
ATOM     15  C   UNL A   1      50.964  28.158  22.429  1.00  0.00     0.137 A 
ATOM     16  N   UNL A   1      51.557  28.031  23.648  1.00  0.00    -0.128 NA
ATOM     17  N   UNL A   1      50.645  27.571  24.493  1.00  0.00    -0.061 NA
BRANCH  15  18
ATOM     18  C   UNL A   1      51.676  28.742  21.297  1.00  0.00     0.124 A 
ATOM     19  N   UNL A   1      52.221  29.965  21.340  1.00  0.00    -0.165 NA
ATOM     20  C   UNL A   1      51.830  28.122  20.035  1.00  0.00     0.044 A 
ATOM     21  N   UNL A   1      52.633  30.190  20.073  1.00  0.00    -0.240 N 
ATOM     22  C   UNL A   1      52.403  29.108  19.255  1.00  0.00     0.125 A 
BRANCH  20  23
ATOM     23  C   UNL A   1      51.498  26.797  19.576  1.00  0.00     0.166 C 
ATOM     24  N   UNL A   1      50.956  26.632  18.416  1.00  0.00    -0.097 NA
BRANCH  24  25
ATOM     25  O   UNL A   1      50.695  25.271  18.222  1.00  0.00    -0.411 OA
ATOM     26  H   UNL A   1      51.336  24.724  17.814  1.00  0.00     0.330 HD
ENDBRANCH  24  25
ENDBRANCH  20  23
BRANCH  21  27
ATOM     27  C   UNL A   1      53.204  31.427  19.698  1.00  0.00     0.065 A 
ATOM     28  C   UNL A   1      53.284  32.462  20.636  1.00  0.00     0.028 A 
ATOM     29  C   UNL A   1      53.684  31.614  18.395  1.00  0.00     0.028 A 
ATOM     30  C   UNL A   1      53.877  33.675  20.278  1.00  0.00     0.002 A 
ATOM     31  C   UNL A   1      54.222  32.849  18.030  1.00  0.00     0.002 A 
ATOM     32  C   UNL A   1      54.332  33.873  18.973  1.00  0.00     0.000 A 
ENDBRANCH  21  27
ENDBRANCH  15  18
ENDBRANCH   7  12
ENDBRANCH   4   6
ENDBRANCH   3   4
ENDBRANCH   2   3
ENDBRANCH   1   2
BRANCH   1  33
ATOM     33  O   UNL A   1      42.693  20.981  25.425  1.00  0.00    -0.374 OA
BRANCH  33  34
ATOM     34  C   UNL A   1      42.041  20.611  26.634  1.00  0.00     0.202 C 
BRANCH  34  35
ATOM     35  C   UNL A   1      40.549  20.871  26.783  1.00  0.00     0.261 C 
BRANCH  35  36
ATOM     36  O   UNL A   1      40.286  21.932  27.683  1.00  0.00    -0.460 OA
BRANCH  36  37
ATOM     37  C   UNL A   1      39.611  22.966  27.122  1.00  0.00     0.338 C 
ATOM     38  O   UNL A   1      38.494  22.944  26.648  1.00  0.00    -0.246 OA
BRANCH  37  39
ATOM     39  C   UNL A   1      40.522  24.113  27.042  1.00  0.00     0.060 A 
ATOM     40  C   UNL A   1      41.597  24.081  27.932  1.00  0.00     0.016 A 
ATOM     41  C   UNL A   1      40.067  25.299  26.449  1.00  0.00     0.016 A 
ATOM     42  C   UNL A   1      42.000  25.274  28.478  1.00  0.00     0.010 A 
ATOM     43  C   UNL A   1      40.455  26.484  27.012  1.00  0.00     0.010 A 
ATOM     44  C   UNL A   1      41.327  26.437  28.096  1.00  0.00    -0.014 A 
BRANCH  44  45
ATOM     45  C   UNL A   1      41.624  27.660  28.800  1.00  0.00     0.031 A 
ATOM     46  C   UNL A   1      42.811  28.322  28.228  1.00  0.00     0.074 A 
ATOM     47  C   UNL A   1      40.825  28.155  29.763  1.00  0.00     0.049 A 
ATOM     48  N   UNL A   1      44.018  28.301  28.683  1.00  0.00    -0.248 NA
ATOM     49  C   UNL A   1      42.699  28.814  26.843  1.00  0.00     0.031 C 
ATOM     50  C   UNL A   1      39.489  27.711  30.169  1.00  0.00     0.029 A 
ATOM     51  N   UNL A   1      41.027  29.254  30.536  1.00  0.00    -0.354 N 
ATOM     52  C   UNL A   1      44.752  29.033  27.761  1.00  0.00     0.074 A 
ATOM     53  C   UNL A   1      43.980  29.039  26.550  1.00  0.00     0.031 C 
ATOM     54  C   UNL A   1      38.916  28.666  30.942  1.00  0.00     0.029 A 
ATOM     55  C   UNL A   1      39.890  29.713  31.197  1.00  0.00     0.049 A 
ATOM     56  H   UNL A   1      41.905  29.689  30.622  1.00  0.00     0.167 HD
ATOM     57  C   UNL A   1      45.749  29.866  28.166  1.00  0.00     0.037 A 
ATOM     58  C   UNL A   1      39.785  30.920  31.816  1.00  0.00     0.037 A 
ATOM     59  C   UNL A   1      46.165  29.551  29.512  1.00  0.00     0.049 A 
ATOM     60  C   UNL A   1      41.179  31.389  32.071  1.00  0.00     0.074 A 
ATOM     61  C   UNL A   1      46.682  28.427  30.129  1.00  0.00     0.029 A 
ATOM     62  N   UNL A   1      45.678  30.345  30.524  1.00  0.00    -0.354 N 
ATOM     63  N   UNL A   1      42.010  30.785  32.880  1.00  0.00    -0.248 NA
ATOM     64  C   UNL A   1      41.803  32.213  31.045  1.00  0.00     0.031 C 
ATOM     65  C   UNL A   1      46.063  28.390  31.413  1.00  0.00     0.029 A 
ATOM     66  C   UNL A   1      45.265  29.528  31.547  1.00  0.00     0.049 A 
ATOM     67  H   UNL A   1      45.634  31.328  30.517  1.00  0.00     0.167 HD
ATOM     68  C   UNL A   1      43.235  30.807  32.224  1.00  0.00     0.074 A 
ATOM     69  C   UNL A   1      43.053  31.747  31.119  1.00  0.00     0.031 C 
ATOM     70  C   UNL A   1      44.184  29.851  32.455  1.00  0.00     0.037 A 
BRANCH  57  71
ATOM     71  C   UNL A   1      46.038  31.197  27.510  1.00  0.00     0.058 A 
ATOM     72  C   UNL A   1      47.340  31.452  27.037  1.00  0.00     0.135 A 
ATOM     73  C   UNL A   1      45.180  32.323  27.552  1.00  0.00     0.135 A 
ATOM     74  F   UNL A   1      48.244  30.462  26.962  1.00  0.00    -0.206 F 
ATOM     75  C   UNL A   1      47.774  32.734  26.700  1.00  0.00     0.059 A 
ATOM     76  C   UNL A   1      45.574  33.595  27.164  1.00  0.00     0.059 A 
ATOM     77  F   UNL A   1      43.944  32.283  28.060  1.00  0.00    -0.206 F 
ATOM     78  C   UNL A   1      46.884  33.800  26.778  1.00  0.00     0.060 A 
BRANCH  78  79
ATOM     79  S   UNL A   1      47.456  35.468  26.426  1.00  0.00     0.124 S 
ATOM     80  O   UNL A   1      46.230  36.102  25.955  1.00  0.00    -0.237 OA
ATOM     81  O   UNL A   1      47.943  35.899  27.732  1.00  0.00    -0.237 OA
ATOM     82  O   UNL A   1      48.489  35.262  25.415  1.00  0.00    -0.744 OA
ENDBRANCH  78  79
ENDBRANCH  57  71
BRANCH  58  83
ATOM     83  C   UNL A   1      38.624  31.856  31.783  1.00  0.00     0.058 A 
ATOM     84  C   UNL A   1      38.003  32.217  30.573  1.00  0.00     0.135 A 
ATOM     85  C   UNL A   1      37.921  32.189  32.959  1.00  0.00     0.135 A 
ATOM     86  F   UNL A   1      38.584  31.913  29.402  1.00  0.00    -0.206 F 
ATOM     87  C   UNL A   1      36.744  32.836  30.530  1.00  0.00     0.059 A 
ATOM     88  C   UNL A   1      36.671  32.809  32.942  1.00  0.00     0.059 A 
ATOM     89  F   UNL A   1      38.387  31.835  34.165  1.00  0.00    -0.206 F 
ATOM     90  C   UNL A   1      36.078  33.111  31.723  1.00  0.00     0.060 A 
BRANCH  90  91
ATOM     91  S   UNL A   1      34.389  33.766  31.679  1.00  0.00     0.124 S 
ATOM     92  O   UNL A   1      34.586  35.142  32.122  1.00  0.00    -0.237 OA
ATOM     93  O   UNL A   1      34.028  33.594  30.276  1.00  0.00    -0.237 OA
ATOM     94  O   UNL A   1      33.668  32.907  32.615  1.00  0.00    -0.744 OA
ENDBRANCH  90  91
ENDBRANCH  58  83
BRANCH  70  95
ATOM     95  C   UNL A   1      44.003  28.933  33.640  1.00  0.00     0.058 A 
ATOM     96  C   UNL A   1      44.489  29.184  34.937  1.00  0.00     0.135 A 
ATOM     97  C   UNL A   1      43.157  27.824  33.481  1.00  0.00     0.135 A 
ATOM     98  F   UNL A   1      45.223  30.277  35.196  1.00  0.00    -0.206 F 
ATOM     99  C   UNL A   1      44.175  28.351  36.015  1.00  0.00     0.059 A 
ATOM    100  C   UNL A   1      42.807  27.000  34.544  1.00  0.00     0.059 A 
ATOM    101  F   UNL A   1      42.614  27.563  32.281  1.00  0.00    -0.206 F 
ATOM    102  C   UNL A   1      43.329  27.261  35.809  1.00  0.00     0.060 A 
BRANCH 102 103
ATOM    103  S   UNL A   1      42.864  26.216  37.209  1.00  0.00     0.124 S 
ATOM    104  O   UNL A   1      43.753  26.700  38.260  1.00  0.00    -0.237 OA
ATOM    105  O   UNL A   1      41.449  26.529  37.381  1.00  0.00    -0.237 OA
ATOM    106  O   UNL A   1      43.142  24.863  36.733  1.00  0.00    -0.744 OA
ENDBRANCH 102 103
ENDBRANCH  70  95
ENDBRANCH  44  45
ENDBRANCH  37  39
ENDBRANCH  36  37
ENDBRANCH  35  36
ENDBRANCH  34  35
ENDBRANCH  33  34
ENDBRANCH   1  33
TORSDOF 22
ENDMDL
