MODEL 1
REMARK VINA RESULT:     -12.6      0.000      0.000
REMARK SMILES Cc1ccccc1OC1(C(=O)OCCOCCOC(=O)c2ccc(-c3c4nc(c(-c5c(F)cc(S(=O)(=O)[O-])cc5F)c5ccc([nH]5)c(-c5c(F)cc(S(=O)(=O)[O-])cc5F)c5nc(c(-c6c(F)cc(S(=O)(=O)[O-])cc6F)c6ccc3[nH]6)C=C5)C=C4)cc2)CCN(C(=O)[C@H]2CCCCO2)CC1
REMARK SMILES IDX 16 1 15 2 14 3 13 4 12 5 10 6 11 7 9 8 87 9 99 10 88 11
REMARK SMILES IDX 98 12 89 13 90 14 91 15 8 16 7 17 1 18 2 19 3 20 4 21 6 22
REMARK SMILES IDX 5 23 92 24 93 25 97 26 94 27 96 28 95 29 17 30 18 31 19 32
REMARK SMILES IDX 20 33 21 34 22 35 86 36 23 37 85 38 24 39 25 40 26 41 79 42
REMARK SMILES IDX 27 43 84 44 78 45 80 46 28 47 83 48 77 49 76 50 29 52 63 53
REMARK SMILES IDX 42 54 62 55 43 56 46 57 61 58 81 59 44 60 45 61 60 63 82 64
REMARK SMILES IDX 47 65 30 66 31 67 40 68 32 69 33 70 39 71 41 72 34 73 35 74
REMARK SMILES IDX 36 75 37 76 38 77 64 78 65 79 74 80 66 81 67 82 73 83 75 84
REMARK SMILES IDX 68 85 69 86 70 87 71 88 72 89 48 90 49 91 58 92 50 93 51 94
REMARK SMILES IDX 57 95 59 96 52 97 53 98 54 99 55 100 56 101
REMARK H PARENT 80 51 46 62
REMARK Flexibility Score: inf
ROOT
ATOM      1  C   UNL A   1      32.138  30.508  26.166  1.00  0.00     0.202 C 
ENDROOT
BRANCH   1   2
ATOM      2  O   UNL A   1      31.636  29.291  26.682  1.00  0.00    -0.374 OA
BRANCH   2   3
ATOM      3  C   UNL A   1      31.853  28.130  25.895  1.00  0.00     0.202 C 
BRANCH   3   4
ATOM      4  C   UNL A   1      31.825  26.954  26.844  1.00  0.00     0.261 C 
BRANCH   4   5
ATOM      5  O   UNL A   1      32.001  25.660  26.210  1.00  0.00    -0.460 OA
BRANCH   5   6
ATOM      6  C   UNL A   1      30.987  24.752  26.057  1.00  0.00     0.350 C 
ATOM      7  O   UNL A   1      30.017  24.644  26.790  1.00  0.00    -0.247 OA
BRANCH   6   8
ATOM      8  C   UNL A   1      31.297  23.865  24.807  1.00  0.00     0.209 C 
ATOM      9  C   UNL A   1      32.779  24.127  24.506  1.00  0.00     0.082 C 
ATOM     10  C   UNL A   1      30.857  22.441  25.178  1.00  0.00     0.082 C 
ATOM     11  C   UNL A   1      33.718  23.178  25.236  1.00  0.00     0.124 C 
ATOM     12  C   UNL A   1      31.955  21.460  25.582  1.00  0.00     0.124 C 
ATOM     13  N   UNL A   1      33.302  21.788  25.116  1.00  0.00    -0.340 N 
ATOM     14  C   UNL A   1      34.287  20.850  24.792  1.00  0.00     0.251 C 
ATOM     15  O   UNL A   1      35.436  21.205  24.505  1.00  0.00    -0.272 OA
BRANCH   8  16
ATOM     16  O   UNL A   1      30.475  24.402  23.749  1.00  0.00    -0.475 OA
BRANCH  16  17
ATOM     17  C   UNL A   1      30.359  25.692  23.310  1.00  0.00     0.123 A 
ATOM     18  C   UNL A   1      32.514  26.166  21.919  1.00  0.00     0.048 C 
ATOM     19  C   UNL A   1      31.193  26.509  22.525  1.00  0.00    -0.009 A 
ATOM     20  C   UNL A   1      30.832  27.863  22.310  1.00  0.00     0.007 A 
ATOM     21  C   UNL A   1      29.664  28.406  22.823  1.00  0.00     0.001 A 
ATOM     22  C   UNL A   1      29.175  26.269  23.812  1.00  0.00     0.047 A 
ATOM     23  C   UNL A   1      28.826  27.603  23.573  1.00  0.00     0.004 A 
ENDBRANCH  16  17
ENDBRANCH   8  16
BRANCH  14  24
ATOM     24  C   UNL A   1      33.897  19.356  24.733  1.00  0.00     0.207 C 
ATOM     25  C   UNL A   1      32.974  19.145  23.523  1.00  0.00     0.042 C 
ATOM     26  O   UNL A   1      35.087  18.568  24.594  1.00  0.00    -0.368 OA
ATOM     27  C   UNL A   1      32.725  17.670  23.239  1.00  0.00     0.006 C 
ATOM     28  C   UNL A   1      34.829  17.176  24.472  1.00  0.00     0.161 C 
ATOM     29  C   UNL A   1      34.039  16.904  23.203  1.00  0.00     0.029 C 
ENDBRANCH  14  24
ENDBRANCH   6   8
ENDBRANCH   5   6
ENDBRANCH   4   5
ENDBRANCH   3   4
ENDBRANCH   2   3
ENDBRANCH   1   2
BRANCH   1  30
ATOM     30  C   UNL A   1      32.922  31.328  27.195  1.00  0.00     0.261 C 
BRANCH  30  31
ATOM     31  O   UNL A   1      34.006  30.557  27.750  1.00  0.00    -0.460 OA
BRANCH  31  32
ATOM     32  C   UNL A   1      35.192  31.222  27.852  1.00  0.00     0.338 C 
ATOM     33  O   UNL A   1      35.326  32.412  27.623  1.00  0.00    -0.246 OA
BRANCH  32  34
ATOM     34  C   UNL A   1      36.270  30.294  28.291  1.00  0.00     0.060 A 
ATOM     35  C   UNL A   1      36.299  29.778  29.598  1.00  0.00     0.016 A 
ATOM     36  C   UNL A   1      37.351  30.077  27.439  1.00  0.00     0.016 A 
ATOM     37  C   UNL A   1      37.456  29.140  30.083  1.00  0.00     0.010 A 
ATOM     38  C   UNL A   1      38.512  29.531  27.946  1.00  0.00     0.010 A 
ATOM     39  C   UNL A   1      38.586  29.065  29.269  1.00  0.00    -0.014 A 
BRANCH  39  40
ATOM     40  C   UNL A   1      39.925  28.602  29.652  1.00  0.00     0.031 A 
ATOM     41  C   UNL A   1      40.357  27.241  29.225  1.00  0.00     0.074 A 
ATOM     42  C   UNL A   1      40.867  29.479  30.080  1.00  0.00     0.049 A 
ATOM     43  N   UNL A   1      41.506  26.731  29.511  1.00  0.00    -0.248 NA
ATOM     44  C   UNL A   1      39.518  26.311  28.465  1.00  0.00     0.031 C 
ATOM     45  C   UNL A   1      42.318  29.375  29.915  1.00  0.00     0.029 A 
ATOM     46  N   UNL A   1      40.721  30.659  30.822  1.00  0.00    -0.354 N 
ATOM     47  C   UNL A   1      41.694  25.638  28.703  1.00  0.00     0.074 A 
ATOM     48  C   UNL A   1      40.388  25.333  28.183  1.00  0.00     0.031 C 
ATOM     49  C   UNL A   1      42.928  30.244  30.734  1.00  0.00     0.029 A 
ATOM     50  C   UNL A   1      41.900  30.846  31.561  1.00  0.00     0.049 A 
ATOM     51  H   UNL A   1      39.933  31.249  30.825  1.00  0.00     0.167 HD
ATOM     52  C   UNL A   1      42.969  25.214  28.479  1.00  0.00     0.037 A 
ATOM     53  C   UNL A   1      41.889  30.901  32.921  1.00  0.00     0.037 A 
ATOM     54  C   UNL A   1      43.899  25.853  29.418  1.00  0.00     0.049 A 
ATOM     55  C   UNL A   1      42.702  29.772  33.486  1.00  0.00     0.074 A 
ATOM     56  C   UNL A   1      44.911  26.788  29.287  1.00  0.00     0.029 A 
ATOM     57  N   UNL A   1      43.658  25.728  30.788  1.00  0.00    -0.354 N 
ATOM     58  N   UNL A   1      42.988  28.708  32.784  1.00  0.00    -0.248 NA
ATOM     59  C   UNL A   1      43.324  29.750  34.804  1.00  0.00     0.031 C 
ATOM     60  C   UNL A   1      45.186  27.308  30.587  1.00  0.00     0.029 A 
ATOM     61  C   UNL A   1      44.383  26.654  31.512  1.00  0.00     0.049 A 
ATOM     62  H   UNL A   1      43.050  25.065  31.187  1.00  0.00     0.167 HD
ATOM     63  C   UNL A   1      43.814  27.894  33.490  1.00  0.00     0.074 A 
ATOM     64  C   UNL A   1      43.985  28.577  34.760  1.00  0.00     0.031 C 
ATOM     65  C   UNL A   1      44.278  26.722  32.969  1.00  0.00     0.037 A 
BRANCH  52  66
ATOM     66  C   UNL A   1      43.410  24.330  27.324  1.00  0.00     0.058 A 
ATOM     67  C   UNL A   1      43.365  22.922  27.443  1.00  0.00     0.135 A 
ATOM     68  C   UNL A   1      43.985  24.791  26.117  1.00  0.00     0.135 A 
ATOM     69  F   UNL A   1      42.892  22.339  28.555  1.00  0.00    -0.206 F 
ATOM     70  C   UNL A   1      43.822  22.053  26.444  1.00  0.00     0.059 A 
ATOM     71  C   UNL A   1      44.400  23.945  25.084  1.00  0.00     0.059 A 
ATOM     72  F   UNL A   1      44.238  26.087  25.899  1.00  0.00    -0.206 F 
ATOM     73  C   UNL A   1      44.330  22.573  25.260  1.00  0.00     0.060 A 
BRANCH  73  74
ATOM     74  S   UNL A   1      44.912  21.455  23.969  1.00  0.00     0.124 S 
ATOM     75  O   UNL A   1      46.360  21.519  24.144  1.00  0.00    -0.237 OA
ATOM     76  O   UNL A   1      44.281  20.193  24.340  1.00  0.00    -0.237 OA
ATOM     77  O   UNL A   1      44.406  22.060  22.739  1.00  0.00    -0.744 OA
ENDBRANCH  73  74
ENDBRANCH  52  66
BRANCH  53  78
ATOM     78  C   UNL A   1      40.674  31.575  33.464  1.00  0.00     0.058 A 
ATOM     79  C   UNL A   1      39.675  30.729  33.993  1.00  0.00     0.135 A 
ATOM     80  C   UNL A   1      40.717  32.890  33.951  1.00  0.00     0.135 A 
ATOM     81  F   UNL A   1      39.588  29.457  33.568  1.00  0.00    -0.206 F 
ATOM     82  C   UNL A   1      38.871  31.111  35.068  1.00  0.00     0.059 A 
ATOM     83  C   UNL A   1      39.928  33.290  35.039  1.00  0.00     0.059 A 
ATOM     84  F   UNL A   1      41.640  33.749  33.494  1.00  0.00    -0.206 F 
ATOM     85  C   UNL A   1      39.052  32.373  35.628  1.00  0.00     0.060 A 
BRANCH  85  86
ATOM     86  S   UNL A   1      38.356  32.706  37.275  1.00  0.00     0.124 S 
ATOM     87  O   UNL A   1      37.230  31.783  37.323  1.00  0.00    -0.237 OA
ATOM     88  O   UNL A   1      39.472  32.393  38.167  1.00  0.00    -0.237 OA
ATOM     89  O   UNL A   1      38.024  34.125  37.204  1.00  0.00    -0.744 OA
ENDBRANCH  85  86
ENDBRANCH  53  78
BRANCH  65  90
ATOM     90  C   UNL A   1      44.737  25.573  33.821  1.00  0.00     0.058 A 
ATOM     91  C   UNL A   1      46.092  25.217  33.957  1.00  0.00     0.135 A 
ATOM     92  C   UNL A   1      43.836  24.895  34.672  1.00  0.00     0.135 A 
ATOM     93  F   UNL A   1      47.063  25.876  33.308  1.00  0.00    -0.206 F 
ATOM     94  C   UNL A   1      46.515  24.195  34.799  1.00  0.00     0.059 A 
ATOM     95  C   UNL A   1      44.245  23.913  35.568  1.00  0.00     0.059 A 
ATOM     96  F   UNL A   1      42.526  25.182  34.676  1.00  0.00    -0.206 F 
ATOM     97  C   UNL A   1      45.582  23.543  35.597  1.00  0.00     0.060 A 
BRANCH  97  98
ATOM     98  S   UNL A   1      46.134  22.233  36.698  1.00  0.00     0.124 S 
ATOM     99  O   UNL A   1      45.407  21.086  36.162  1.00  0.00    -0.237 OA
ATOM    100  O   UNL A   1      47.579  22.218  36.483  1.00  0.00    -0.237 OA
ATOM    101  O   UNL A   1      45.709  22.698  38.012  1.00  0.00    -0.744 OA
ENDBRANCH  97  98
ENDBRANCH  65  90
ENDBRANCH  39  40
ENDBRANCH  32  34
ENDBRANCH  31  32
ENDBRANCH  30  31
ENDBRANCH   1  30
TORSDOF 20
ENDMDL
MODEL 2
REMARK VINA RESULT:     -12.0      4.098     10.704
REMARK SMILES Cc1ccccc1OC1(C(=O)OCCOCCOC(=O)c2ccc(-c3c4nc(c(-c5c(F)cc(S(=O)(=O)[O-])cc5F)c5ccc([nH]5)c(-c5c(F)cc(S(=O)(=O)[O-])cc5F)c5nc(c(-c6c(F)cc(S(=O)(=O)[O-])cc6F)c6ccc3[nH]6)C=C5)C=C4)cc2)CCN(C(=O)[C@H]2CCCCO2)CC1
REMARK SMILES IDX 16 1 15 2 14 3 13 4 12 5 10 6 11 7 9 8 87 9 99 10 88 11
REMARK SMILES IDX 98 12 89 13 90 14 91 15 8 16 7 17 1 18 2 19 3 20 4 21 6 22
REMARK SMILES IDX 5 23 92 24 93 25 97 26 94 27 96 28 95 29 17 30 18 31 19 32
REMARK SMILES IDX 20 33 21 34 22 35 86 36 23 37 85 38 24 39 25 40 26 41 79 42
REMARK SMILES IDX 27 43 84 44 78 45 80 46 28 47 83 48 77 49 76 50 29 52 63 53
REMARK SMILES IDX 42 54 62 55 43 56 46 57 61 58 81 59 44 60 45 61 60 63 82 64
REMARK SMILES IDX 47 65 30 66 31 67 40 68 32 69 33 70 39 71 41 72 34 73 35 74
REMARK SMILES IDX 36 75 37 76 38 77 64 78 65 79 74 80 66 81 67 82 73 83 75 84
REMARK SMILES IDX 68 85 69 86 70 87 71 88 72 89 48 90 49 91 58 92 50 93 51 94
REMARK SMILES IDX 57 95 59 96 52 97 53 98 54 99 55 100 56 101
REMARK H PARENT 80 51 46 62
REMARK Flexibility Score: inf
ROOT
ATOM      1  C   UNL A   1      37.755  21.399  25.333  1.00  0.00     0.202 C 
ENDROOT
BRANCH   1   2
ATOM      2  O   UNL A   1      36.778  21.777  24.386  1.00  0.00    -0.374 OA
BRANCH   2   3
ATOM      3  C   UNL A   1      36.648  23.166  24.126  1.00  0.00     0.202 C 
BRANCH   3   4
ATOM      4  C   UNL A   1      35.604  23.307  23.042  1.00  0.00     0.261 C 
BRANCH   4   5
ATOM      5  O   UNL A   1      34.550  24.261  23.338  1.00  0.00    -0.460 OA
BRANCH   5   6
ATOM      6  C   UNL A   1      33.400  24.365  22.601  1.00  0.00     0.350 C 
ATOM      7  O   UNL A   1      33.294  24.108  21.413  1.00  0.00    -0.247 OA
BRANCH   6   8
ATOM      8  C   UNL A   1      32.259  24.893  23.532  1.00  0.00     0.209 C 
ATOM      9  C   UNL A   1      32.954  25.894  24.466  1.00  0.00     0.082 C 
ATOM     10  C   UNL A   1      31.149  25.397  22.598  1.00  0.00     0.082 C 
ATOM     11  C   UNL A   1      32.971  27.313  23.918  1.00  0.00     0.124 C 
ATOM     12  C   UNL A   1      31.056  26.907  22.386  1.00  0.00     0.124 C 
ATOM     13  N   UNL A   1      31.665  27.733  23.428  1.00  0.00    -0.340 N 
ATOM     14  C   UNL A   1      31.213  28.999  23.813  1.00  0.00     0.251 C 
ATOM     15  O   UNL A   1      31.843  29.680  24.629  1.00  0.00    -0.272 OA
BRANCH   8  16
ATOM     16  O   UNL A   1      31.820  23.741  24.282  1.00  0.00    -0.475 OA
BRANCH  16  17
ATOM     17  C   UNL A   1      32.426  22.524  24.438  1.00  0.00     0.123 A 
ATOM     18  C   UNL A   1      31.868  21.170  22.279  1.00  0.00     0.048 C 
ATOM     19  C   UNL A   1      32.486  21.380  23.622  1.00  0.00    -0.009 A 
ATOM     20  C   UNL A   1      33.132  20.215  24.110  1.00  0.00     0.007 A 
ATOM     21  C   UNL A   1      33.737  20.174  25.357  1.00  0.00     0.001 A 
ATOM     22  C   UNL A   1      33.055  22.455  25.697  1.00  0.00     0.047 A 
ATOM     23  C   UNL A   1      33.705  21.303  26.153  1.00  0.00     0.004 A 
ENDBRANCH  16  17
ENDBRANCH   8  16
BRANCH  14  24
ATOM     24  C   UNL A   1      29.868  29.508  23.249  1.00  0.00     0.207 C 
ATOM     25  C   UNL A   1      29.466  30.772  24.024  1.00  0.00     0.042 C 
ATOM     26  O   UNL A   1      30.029  29.809  21.857  1.00  0.00    -0.368 OA
ATOM     27  C   UNL A   1      28.278  31.483  23.390  1.00  0.00     0.006 C 
ATOM     28  C   UNL A   1      28.856  30.342  21.257  1.00  0.00     0.161 C 
ATOM     29  C   UNL A   1      28.505  31.673  21.898  1.00  0.00     0.029 C 
ENDBRANCH  14  24
ENDBRANCH   6   8
ENDBRANCH   5   6
ENDBRANCH   4   5
ENDBRANCH   3   4
ENDBRANCH   2   3
ENDBRANCH   1   2
BRANCH   1  30
ATOM     30  C   UNL A   1      38.366  22.587  26.084  1.00  0.00     0.261 C 
BRANCH  30  31
ATOM     31  O   UNL A   1      39.519  22.178  26.846  1.00  0.00    -0.460 OA
BRANCH  31  32
ATOM     32  C   UNL A   1      40.697  22.743  26.456  1.00  0.00     0.338 C 
ATOM     33  O   UNL A   1      41.565  22.147  25.840  1.00  0.00    -0.246 OA
BRANCH  32  34
ATOM     34  C   UNL A   1      40.751  24.170  26.875  1.00  0.00     0.060 A 
ATOM     35  C   UNL A   1      41.008  25.193  25.946  1.00  0.00     0.016 A 
ATOM     36  C   UNL A   1      40.714  24.467  28.236  1.00  0.00     0.016 A 
ATOM     37  C   UNL A   1      41.335  26.488  26.389  1.00  0.00     0.010 A 
ATOM     38  C   UNL A   1      41.121  25.712  28.667  1.00  0.00     0.010 A 
ATOM     39  C   UNL A   1      41.444  26.733  27.757  1.00  0.00    -0.014 A 
BRANCH  39  40
ATOM     40  C   UNL A   1      41.939  27.956  28.402  1.00  0.00     0.031 A 
ATOM     41  C   UNL A   1      40.970  29.049  28.694  1.00  0.00     0.074 A 
ATOM     42  C   UNL A   1      43.147  27.974  29.018  1.00  0.00     0.049 A 
ATOM     43  N   UNL A   1      41.296  30.166  29.248  1.00  0.00    -0.248 NA
ATOM     44  C   UNL A   1      39.546  29.001  28.352  1.00  0.00     0.031 C 
ATOM     45  C   UNL A   1      43.542  28.783  30.173  1.00  0.00     0.029 A 
ATOM     46  N   UNL A   1      44.327  27.291  28.697  1.00  0.00    -0.354 N 
ATOM     47  C   UNL A   1      40.142  30.784  29.661  1.00  0.00     0.074 A 
ATOM     48  C   UNL A   1      39.087  30.103  28.960  1.00  0.00     0.031 C 
ATOM     49  C   UNL A   1      44.878  28.774  30.294  1.00  0.00     0.029 A 
ATOM     50  C   UNL A   1      45.406  28.073  29.140  1.00  0.00     0.049 A 
ATOM     51  H   UNL A   1      44.389  26.420  28.243  1.00  0.00     0.167 HD
ATOM     52  C   UNL A   1      40.228  31.714  30.654  1.00  0.00     0.037 A 
ATOM     53  C   UNL A   1      46.353  28.537  28.278  1.00  0.00     0.037 A 
ATOM     54  C   UNL A   1      41.626  32.096  30.884  1.00  0.00     0.049 A 
ATOM     55  C   UNL A   1      46.346  30.039  28.271  1.00  0.00     0.074 A 
ATOM     56  C   UNL A   1      42.522  31.901  31.921  1.00  0.00     0.029 A 
ATOM     57  N   UNL A   1      42.376  32.573  29.806  1.00  0.00    -0.354 N 
ATOM     58  N   UNL A   1      45.320  30.727  28.696  1.00  0.00    -0.248 NA
ATOM     59  C   UNL A   1      47.465  30.891  27.888  1.00  0.00     0.031 C 
ATOM     60  C   UNL A   1      43.831  32.150  31.411  1.00  0.00     0.029 A 
ATOM     61  C   UNL A   1      43.728  32.548  30.085  1.00  0.00     0.049 A 
ATOM     62  H   UNL A   1      41.990  32.887  28.956  1.00  0.00     0.167 HD
ATOM     63  C   UNL A   1      45.612  32.053  28.678  1.00  0.00     0.074 A 
ATOM     64  C   UNL A   1      46.962  32.113  28.146  1.00  0.00     0.031 C 
ATOM     65  C   UNL A   1      44.711  32.988  29.095  1.00  0.00     0.037 A 
BRANCH  52  66
ATOM     66  C   UNL A   1      39.070  32.182  31.520  1.00  0.00     0.058 A 
ATOM     67  C   UNL A   1      38.714  33.549  31.560  1.00  0.00     0.135 A 
ATOM     68  C   UNL A   1      38.340  31.366  32.415  1.00  0.00     0.135 A 
ATOM     69  F   UNL A   1      39.356  34.451  30.803  1.00  0.00    -0.206 F 
ATOM     70  C   UNL A   1      37.705  34.055  32.390  1.00  0.00     0.059 A 
ATOM     71  C   UNL A   1      37.294  31.838  33.215  1.00  0.00     0.059 A 
ATOM     72  F   UNL A   1      38.643  30.077  32.612  1.00  0.00    -0.206 F 
ATOM     73  C   UNL A   1      36.990  33.189  33.209  1.00  0.00     0.060 A 
BRANCH  73  74
ATOM     74  S   UNL A   1      35.685  33.837  34.273  1.00  0.00     0.124 S 
ATOM     75  O   UNL A   1      34.525  33.069  33.831  1.00  0.00    -0.237 OA
ATOM     76  O   UNL A   1      36.185  33.526  35.607  1.00  0.00    -0.237 OA
ATOM     77  O   UNL A   1      35.651  35.260  33.942  1.00  0.00    -0.744 OA
ENDBRANCH  73  74
ENDBRANCH  52  66
BRANCH  53  78
ATOM     78  C   UNL A   1      46.661  27.573  27.183  1.00  0.00     0.058 A 
ATOM     79  C   UNL A   1      47.305  26.376  27.568  1.00  0.00     0.135 A 
ATOM     80  C   UNL A   1      45.909  27.538  25.999  1.00  0.00     0.135 A 
ATOM     81  F   UNL A   1      48.036  26.348  28.695  1.00  0.00    -0.206 F 
ATOM     82  C   UNL A   1      47.079  25.167  26.910  1.00  0.00     0.059 A 
ATOM     83  C   UNL A   1      45.659  26.331  25.330  1.00  0.00     0.059 A 
ATOM     84  F   UNL A   1      45.271  28.637  25.572  1.00  0.00    -0.206 F 
ATOM     85  C   UNL A   1      46.200  25.142  25.830  1.00  0.00     0.060 A 
BRANCH  85  86
ATOM     86  S   UNL A   1      45.552  23.539  25.266  1.00  0.00     0.124 S 
ATOM     87  O   UNL A   1      46.147  23.419  23.942  1.00  0.00    -0.237 OA
ATOM     88  O   UNL A   1      46.060  22.611  26.277  1.00  0.00    -0.237 OA
ATOM     89  O   UNL A   1      44.108  23.741  25.308  1.00  0.00    -0.744 OA
ENDBRANCH  85  86
ENDBRANCH  53  78
BRANCH  65  90
ATOM     90  C   UNL A   1      44.746  34.419  28.639  1.00  0.00     0.058 A 
ATOM     91  C   UNL A   1      45.101  35.483  29.490  1.00  0.00     0.135 A 
ATOM     92  C   UNL A   1      44.590  34.750  27.275  1.00  0.00     0.135 A 
ATOM     93  F   UNL A   1      45.411  35.281  30.779  1.00  0.00    -0.206 F 
ATOM     94  C   UNL A   1      45.197  36.796  29.044  1.00  0.00     0.059 A 
ATOM     95  C   UNL A   1      44.743  36.047  26.796  1.00  0.00     0.059 A 
ATOM     96  F   UNL A   1      44.304  33.817  26.356  1.00  0.00    -0.206 F 
ATOM     97  C   UNL A   1      45.008  37.070  27.695  1.00  0.00     0.060 A 
BRANCH  97  98
ATOM     98  S   UNL A   1      45.149  38.767  27.118  1.00  0.00     0.124 S 
ATOM     99  O   UNL A   1      46.135  38.624  26.050  1.00  0.00    -0.237 OA
ATOM    100  O   UNL A   1      43.789  39.074  26.681  1.00  0.00    -0.237 OA
ATOM    101  O   UNL A   1      45.596  39.489  28.303  1.00  0.00    -0.744 OA
ENDBRANCH  97  98
ENDBRANCH  65  90
ENDBRANCH  39  40
ENDBRANCH  32  34
ENDBRANCH  31  32
ENDBRANCH  30  31
ENDBRANCH   1  30
TORSDOF 20
ENDMDL
MODEL 3
REMARK VINA RESULT:     -11.5      6.594     10.111
REMARK SMILES Cc1ccccc1OC1(C(=O)OCCOCCOC(=O)c2ccc(-c3c4nc(c(-c5c(F)cc(S(=O)(=O)[O-])cc5F)c5ccc([nH]5)c(-c5c(F)cc(S(=O)(=O)[O-])cc5F)c5nc(c(-c6c(F)cc(S(=O)(=O)[O-])cc6F)c6ccc3[nH]6)C=C5)C=C4)cc2)CCN(C(=O)[C@H]2CCCCO2)CC1
REMARK SMILES IDX 16 1 15 2 14 3 13 4 12 5 10 6 11 7 9 8 87 9 99 10 88 11
REMARK SMILES IDX 98 12 89 13 90 14 91 15 8 16 7 17 1 18 2 19 3 20 4 21 6 22
REMARK SMILES IDX 5 23 92 24 93 25 97 26 94 27 96 28 95 29 17 30 18 31 19 32
REMARK SMILES IDX 20 33 21 34 22 35 86 36 23 37 85 38 24 39 25 40 26 41 79 42
REMARK SMILES IDX 27 43 84 44 78 45 80 46 28 47 83 48 77 49 76 50 29 52 63 53
REMARK SMILES IDX 42 54 62 55 43 56 46 57 61 58 81 59 44 60 45 61 60 63 82 64
REMARK SMILES IDX 47 65 30 66 31 67 40 68 32 69 33 70 39 71 41 72 34 73 35 74
REMARK SMILES IDX 36 75 37 76 38 77 64 78 65 79 74 80 66 81 67 82 73 83 75 84
REMARK SMILES IDX 68 85 69 86 70 87 71 88 72 89 48 90 49 91 58 92 50 93 51 94
REMARK SMILES IDX 57 95 59 96 52 97 53 98 54 99 55 100 56 101
REMARK H PARENT 80 51 46 62
REMARK Flexibility Score: inf
ROOT
ATOM      1  C   UNL A   1      34.927  34.244  34.052  1.00  0.00     0.202 C 
ENDROOT
BRANCH   1   2
ATOM      2  O   UNL A   1      34.881  34.959  32.834  1.00  0.00    -0.374 OA
BRANCH   2   3
ATOM      3  C   UNL A   1      33.597  35.362  32.382  1.00  0.00     0.202 C 
BRANCH   3   4
ATOM      4  C   UNL A   1      33.690  35.489  30.878  1.00  0.00     0.261 C 
BRANCH   4   5
ATOM      5  O   UNL A   1      33.822  34.228  30.172  1.00  0.00    -0.460 OA
BRANCH   5   6
ATOM      6  C   UNL A   1      34.267  34.131  28.880  1.00  0.00     0.350 C 
ATOM      7  O   UNL A   1      34.244  35.029  28.054  1.00  0.00    -0.247 OA
BRANCH   6   8
ATOM      8  C   UNL A   1      34.782  32.674  28.640  1.00  0.00     0.209 C 
ATOM      9  C   UNL A   1      36.158  32.853  27.984  1.00  0.00     0.082 C 
ATOM     10  C   UNL A   1      34.695  31.964  29.999  1.00  0.00     0.082 C 
ATOM     11  C   UNL A   1      37.296  32.938  28.990  1.00  0.00     0.124 C 
ATOM     12  C   UNL A   1      35.997  31.810  30.783  1.00  0.00     0.124 C 
ATOM     13  N   UNL A   1      37.226  31.886  29.995  1.00  0.00    -0.340 N 
ATOM     14  C   UNL A   1      38.407  31.197  30.284  1.00  0.00     0.251 C 
ATOM     15  O   UNL A   1      39.437  31.394  29.630  1.00  0.00    -0.272 OA
BRANCH   8  16
ATOM     16  O   UNL A   1      33.855  32.097  27.695  1.00  0.00    -0.475 OA
BRANCH  16  17
ATOM     17  C   UNL A   1      33.603  30.781  27.420  1.00  0.00     0.123 A 
ATOM     18  C   UNL A   1      35.910  29.570  27.560  1.00  0.00     0.048 C 
ATOM     19  C   UNL A   1      34.433  29.648  27.345  1.00  0.00    -0.009 A 
ATOM     20  C   UNL A   1      33.878  28.408  26.941  1.00  0.00     0.007 A 
ATOM     21  C   UNL A   1      32.531  28.264  26.646  1.00  0.00     0.001 A 
ATOM     22  C   UNL A   1      32.237  30.602  27.122  1.00  0.00     0.047 A 
ATOM     23  C   UNL A   1      31.702  29.366  26.744  1.00  0.00     0.004 A 
ENDBRANCH  16  17
ENDBRANCH   8  16
BRANCH  14  24
ATOM     24  C   UNL A   1      38.387  30.129  31.401  1.00  0.00     0.207 C 
ATOM     25  C   UNL A   1      38.283  28.744  30.743  1.00  0.00     0.042 C 
ATOM     26  O   UNL A   1      39.596  30.227  32.164  1.00  0.00    -0.368 OA
ATOM     27  C   UNL A   1      38.493  27.614  31.741  1.00  0.00     0.006 C 
ATOM     28  C   UNL A   1      39.699  29.244  33.184  1.00  0.00     0.161 C 
ATOM     29  C   UNL A   1      39.750  27.857  32.565  1.00  0.00     0.029 C 
ENDBRANCH  14  24
ENDBRANCH   6   8
ENDBRANCH   5   6
ENDBRANCH   4   5
ENDBRANCH   3   4
ENDBRANCH   2   3
ENDBRANCH   1   2
BRANCH   1  30
ATOM     30  C   UNL A   1      36.295  33.613  34.335  1.00  0.00     0.261 C 
BRANCH  30  31
ATOM     31  O   UNL A   1      37.323  34.620  34.403  1.00  0.00    -0.460 OA
BRANCH  31  32
ATOM     32  C   UNL A   1      38.596  34.139  34.490  1.00  0.00     0.338 C 
ATOM     33  O   UNL A   1      39.010  33.481  35.430  1.00  0.00    -0.246 OA
BRANCH  32  34
ATOM     34  C   UNL A   1      39.377  34.519  33.282  1.00  0.00     0.060 A 
ATOM     35  C   UNL A   1      38.786  34.533  32.007  1.00  0.00     0.016 A 
ATOM     36  C   UNL A   1      40.754  34.695  33.406  1.00  0.00     0.016 A 
ATOM     37  C   UNL A   1      39.589  34.615  30.854  1.00  0.00     0.010 A 
ATOM     38  C   UNL A   1      41.542  34.685  32.274  1.00  0.00     0.010 A 
ATOM     39  C   UNL A   1      40.976  34.636  30.989  1.00  0.00    -0.014 A 
BRANCH  39  40
ATOM     40  C   UNL A   1      41.973  34.544  29.915  1.00  0.00     0.031 A 
ATOM     41  C   UNL A   1      42.723  33.267  29.748  1.00  0.00     0.074 A 
ATOM     42  C   UNL A   1      41.986  35.444  28.900  1.00  0.00     0.049 A 
ATOM     43  N   UNL A   1      43.624  33.078  28.846  1.00  0.00    -0.248 NA
ATOM     44  C   UNL A   1      42.554  32.093  30.609  1.00  0.00     0.031 C 
ATOM     45  C   UNL A   1      42.410  35.216  27.518  1.00  0.00     0.029 A 
ATOM     46  N   UNL A   1      41.661  36.806  28.908  1.00  0.00    -0.354 N 
ATOM     47  C   UNL A   1      43.862  31.729  28.764  1.00  0.00     0.074 A 
ATOM     48  C   UNL A   1      43.290  31.179  29.964  1.00  0.00     0.031 C 
ATOM     49  C   UNL A   1      42.586  36.395  26.901  1.00  0.00     0.029 A 
ATOM     50  C   UNL A   1      42.417  37.430  27.903  1.00  0.00     0.049 A 
ATOM     51  H   UNL A   1      41.019  37.247  29.510  1.00  0.00     0.167 HD
ATOM     52  C   UNL A   1      44.400  31.238  27.613  1.00  0.00     0.037 A 
ATOM     53  C   UNL A   1      43.299  38.428  28.187  1.00  0.00     0.037 A 
ATOM     54  C   UNL A   1      44.912  32.329  26.775  1.00  0.00     0.049 A 
ATOM     55  C   UNL A   1      44.690  38.005  27.813  1.00  0.00     0.074 A 
ATOM     56  C   UNL A   1      44.532  32.874  25.562  1.00  0.00     0.029 A 
ATOM     57  N   UNL A   1      45.846  33.212  27.324  1.00  0.00    -0.354 N 
ATOM     58  N   UNL A   1      45.010  36.748  27.653  1.00  0.00    -0.248 NA
ATOM     59  C   UNL A   1      45.797  38.902  27.508  1.00  0.00     0.031 C 
ATOM     60  C   UNL A   1      45.156  34.152  25.450  1.00  0.00     0.029 A 
ATOM     61  C   UNL A   1      45.957  34.360  26.565  1.00  0.00     0.049 A 
ATOM     62  H   UNL A   1      46.359  33.038  28.146  1.00  0.00     0.167 HD
ATOM     63  C   UNL A   1      46.293  36.648  27.219  1.00  0.00     0.074 A 
ATOM     64  C   UNL A   1      46.756  38.023  27.160  1.00  0.00     0.031 C 
ATOM     65  C   UNL A   1      46.865  35.439  26.956  1.00  0.00     0.037 A 
BRANCH  52  66
ATOM     66  C   UNL A   1      44.345  29.785  27.167  1.00  0.00     0.058 A 
ATOM     67  C   UNL A   1      45.509  28.984  27.196  1.00  0.00     0.135 A 
ATOM     68  C   UNL A   1      43.215  29.149  26.603  1.00  0.00     0.135 A 
ATOM     69  F   UNL A   1      46.670  29.471  27.657  1.00  0.00    -0.206 F 
ATOM     70  C   UNL A   1      45.540  27.662  26.732  1.00  0.00     0.059 A 
ATOM     71  C   UNL A   1      43.209  27.815  26.183  1.00  0.00     0.059 A 
ATOM     72  F   UNL A   1      42.073  29.804  26.367  1.00  0.00    -0.206 F 
ATOM     73  C   UNL A   1      44.381  27.079  26.237  1.00  0.00     0.060 A 
BRANCH  73  74
ATOM     74  S   UNL A   1      44.418  25.374  25.647  1.00  0.00     0.124 S 
ATOM     75  O   UNL A   1      43.115  25.249  25.002  1.00  0.00    -0.237 OA
ATOM     76  O   UNL A   1      45.574  25.376  24.756  1.00  0.00    -0.237 OA
ATOM     77  O   UNL A   1      44.584  24.594  26.871  1.00  0.00    -0.744 OA
ENDBRANCH  73  74
ENDBRANCH  52  66
BRANCH  53  78
ATOM     78  C   UNL A   1      42.829  39.319  29.287  1.00  0.00     0.058 A 
ATOM     79  C   UNL A   1      43.649  39.380  30.435  1.00  0.00     0.135 A 
ATOM     80  C   UNL A   1      42.003  40.426  29.037  1.00  0.00     0.135 A 
ATOM     81  F   UNL A   1      44.465  38.351  30.723  1.00  0.00    -0.206 F 
ATOM     82  C   UNL A   1      43.773  40.540  31.199  1.00  0.00     0.059 A 
ATOM     83  C   UNL A   1      42.121  41.606  29.785  1.00  0.00     0.059 A 
ATOM     84  F   UNL A   1      41.197  40.438  27.965  1.00  0.00    -0.206 F 
ATOM     85  C   UNL A   1      43.053  41.672  30.825  1.00  0.00     0.060 A 
BRANCH  85  86
ATOM     86  S   UNL A   1      43.539  43.285  31.511  1.00  0.00     0.124 S 
ATOM     87  O   UNL A   1      44.475  42.900  32.560  1.00  0.00    -0.237 OA
ATOM     88  O   UNL A   1      44.125  43.965  30.357  1.00  0.00    -0.237 OA
ATOM     89  O   UNL A   1      42.267  43.843  31.956  1.00  0.00    -0.744 OA
ENDBRANCH  85  86
ENDBRANCH  53  78
BRANCH  65  90
ATOM     90  C   UNL A   1      48.350  35.212  26.982  1.00  0.00     0.058 A 
ATOM     91  C   UNL A   1      49.073  35.024  28.175  1.00  0.00     0.135 A 
ATOM     92  C   UNL A   1      49.073  35.001  25.787  1.00  0.00     0.135 A 
ATOM     93  F   UNL A   1      48.475  35.059  29.375  1.00  0.00    -0.206 F 
ATOM     94  C   UNL A   1      50.435  34.747  28.187  1.00  0.00     0.059 A 
ATOM     95  C   UNL A   1      50.421  34.662  25.776  1.00  0.00     0.059 A 
ATOM     96  F   UNL A   1      48.484  35.098  24.586  1.00  0.00    -0.206 F 
ATOM     97  C   UNL A   1      51.104  34.575  26.981  1.00  0.00     0.060 A 
BRANCH  97  98
ATOM     98  S   UNL A   1      52.862  34.201  27.000  1.00  0.00     0.124 S 
ATOM     99  O   UNL A   1      53.125  33.998  25.578  1.00  0.00    -0.237 OA
ATOM    100  O   UNL A   1      53.443  35.409  27.581  1.00  0.00    -0.237 OA
ATOM    101  O   UNL A   1      52.943  33.011  27.838  1.00  0.00    -0.744 OA
ENDBRANCH  97  98
ENDBRANCH  65  90
ENDBRANCH  39  40
ENDBRANCH  32  34
ENDBRANCH  31  32
ENDBRANCH  30  31
ENDBRANCH   1  30
TORSDOF 20
ENDMDL
