MODEL 1
REMARK VINA RESULT:      -9.4      0.000      0.000
REMARK SMILES COC[C@@H](C)N(C)c1nc(C(C)C)c(C(=O)OCCOCCOC(=O)c2ccc(-c3c4nc(c(-c5c(F)cc(S(=O)(=O)[O-])cc5F)c5ccc([nH]5)c(-c5c(F)cc(S(=O)(=O)[O-])cc5F)c5nc(c(-c6c(F)cc(S(=O)(=O)[O-])cc6F)c6ccc3[nH]6)C=C5)C=C4)cc2)s1
REMARK SMILES IDX 19 1 18 2 17 3 15 4 16 5 14 6 8 7 9 8 92 9 10 10 6 11 7 12
REMARK SMILES IDX 4 13 5 14 3 15 2 16 1 17 11 18 12 19 13 20 20 21 21 22 22 23
REMARK SMILES IDX 23 24 24 25 25 26 26 27 27 28 91 29 28 30 90 31 29 32 30 33
REMARK SMILES IDX 31 34 84 35 32 36 89 37 83 38 85 39 33 40 88 41 82 42 81 43
REMARK SMILES IDX 34 45 68 46 47 47 67 48 48 49 51 50 66 51 86 52 49 53 50 54
REMARK SMILES IDX 65 56 87 57 52 58 35 59 36 60 45 61 37 62 38 63 44 64 46 65
REMARK SMILES IDX 39 66 40 67 41 68 42 69 43 70 69 71 70 72 79 73 71 74 72 75
REMARK SMILES IDX 78 76 80 77 73 78 74 79 75 80 76 81 77 82 53 83 54 84 63 85
REMARK SMILES IDX 55 86 56 87 62 88 64 89 57 90 58 91 59 92 60 93 61 94
REMARK H PARENT 85 44 51 55
REMARK Flexibility Score: inf
ROOT
ATOM      1  C   UNL A   1      38.759  23.156  26.409  1.00  0.00     0.202 C 
ENDROOT
BRANCH   1   2
ATOM      2  C   UNL A   1      37.829  22.260  25.591  1.00  0.00     0.261 C 
BRANCH   2   3
ATOM      3  O   UNL A   1      36.619  22.987  25.316  1.00  0.00    -0.459 OA
BRANCH   3   4
ATOM      4  C   UNL A   1      36.200  22.999  24.027  1.00  0.00     0.350 C 
ATOM      5  O   UNL A   1      36.931  22.790  23.064  1.00  0.00    -0.245 OA
BRANCH   4   6
ATOM      6  C   UNL A   1      34.768  23.174  23.967  1.00  0.00     0.137 A 
ATOM      7  C   UNL A   1      32.584  24.240  23.663  1.00  0.00     0.186 A 
ATOM      8  N   UNL A   1      32.448  23.008  24.085  1.00  0.00    -0.224 NA
ATOM      9  S   UNL A   1      34.215  24.697  23.380  1.00  0.00    -0.089 S 
ATOM     10  C   UNL A   1      33.674  22.356  24.221  1.00  0.00     0.071 A 
BRANCH   7  11
ATOM     11  N   UNL A   1      31.547  25.115  23.544  1.00  0.00    -0.346 N 
ATOM     12  C   UNL A   1      31.363  25.858  22.311  1.00  0.00     0.146 C 
BRANCH  11  13
ATOM     13  C   UNL A   1      30.932  25.651  24.776  1.00  0.00     0.107 C 
ATOM     14  C   UNL A   1      29.752  26.564  24.419  1.00  0.00     0.033 C 
BRANCH  13  15
ATOM     15  C   UNL A   1      31.969  26.332  25.698  1.00  0.00     0.184 C 
BRANCH  15  16
ATOM     16  O   UNL A   1      31.461  26.583  27.016  1.00  0.00    -0.383 OA
ATOM     17  C   UNL A   1      31.479  27.958  27.379  1.00  0.00     0.194 C 
ENDBRANCH  15  16
ENDBRANCH  13  15
ENDBRANCH  11  13
ENDBRANCH   7  11
BRANCH  10  18
ATOM     18  C   UNL A   1      33.572  20.909  24.656  1.00  0.00     0.034 C 
ATOM     19  C   UNL A   1      33.511  20.750  26.175  1.00  0.00     0.014 C 
ATOM     20  C   UNL A   1      32.479  20.116  23.947  1.00  0.00     0.014 C 
ENDBRANCH  10  18
ENDBRANCH   4   6
ENDBRANCH   3   4
ENDBRANCH   2   3
ENDBRANCH   1   2
BRANCH   1  21
ATOM     21  O   UNL A   1      39.836  22.434  27.016  1.00  0.00    -0.374 OA
BRANCH  21  22
ATOM     22  C   UNL A   1      40.803  21.882  26.120  1.00  0.00     0.202 C 
BRANCH  22  23
ATOM     23  C   UNL A   1      42.203  22.486  26.259  1.00  0.00     0.261 C 
BRANCH  23  24
ATOM     24  O   UNL A   1      42.198  23.871  25.873  1.00  0.00    -0.460 OA
BRANCH  24  25
ATOM     25  C   UNL A   1      43.157  24.630  26.453  1.00  0.00     0.338 C 
ATOM     26  O   UNL A   1      44.348  24.631  26.186  1.00  0.00    -0.246 OA
BRANCH  25  27
ATOM     27  C   UNL A   1      42.541  25.610  27.374  1.00  0.00     0.060 A 
ATOM     28  C   UNL A   1      43.122  26.884  27.433  1.00  0.00     0.016 A 
ATOM     29  C   UNL A   1      41.453  25.295  28.194  1.00  0.00     0.016 A 
ATOM     30  C   UNL A   1      42.661  27.821  28.353  1.00  0.00     0.010 A 
ATOM     31  C   UNL A   1      40.992  26.236  29.122  1.00  0.00     0.010 A 
ATOM     32  C   UNL A   1      41.623  27.488  29.233  1.00  0.00    -0.014 A 
BRANCH  32  33
ATOM     33  C   UNL A   1      41.328  28.392  30.371  1.00  0.00     0.031 A 
ATOM     34  C   UNL A   1      42.183  28.305  31.606  1.00  0.00     0.074 A 
ATOM     35  C   UNL A   1      40.354  29.315  30.286  1.00  0.00     0.049 A 
ATOM     36  N   UNL A   1      42.132  29.018  32.701  1.00  0.00    -0.248 NA
ATOM     37  C   UNL A   1      43.237  27.278  31.604  1.00  0.00     0.031 C 
ATOM     38  C   UNL A   1      39.474  29.513  29.136  1.00  0.00     0.029 A 
ATOM     39  N   UNL A   1      39.946  30.262  31.191  1.00  0.00    -0.354 N 
ATOM     40  C   UNL A   1      43.148  28.533  33.515  1.00  0.00     0.074 A 
ATOM     41  C   UNL A   1      43.777  27.440  32.803  1.00  0.00     0.031 C 
ATOM     42  C   UNL A   1      38.621  30.515  29.409  1.00  0.00     0.029 A 
ATOM     43  C   UNL A   1      38.886  31.020  30.755  1.00  0.00     0.049 A 
ATOM     44  H   UNL A   1      40.371  30.387  32.070  1.00  0.00     0.167 HD
ATOM     45  C   UNL A   1      43.536  28.966  34.738  1.00  0.00     0.037 A 
ATOM     46  C   UNL A   1      38.204  32.003  31.377  1.00  0.00     0.037 A 
ATOM     47  C   UNL A   1      42.908  30.046  35.451  1.00  0.00     0.049 A 
ATOM     48  C   UNL A   1      38.625  32.442  32.754  1.00  0.00     0.074 A 
ATOM     49  C   UNL A   1      43.227  30.558  36.697  1.00  0.00     0.029 A 
ATOM     50  N   UNL A   1      41.830  30.781  34.981  1.00  0.00    -0.354 N 
ATOM     51  N   UNL A   1      39.603  31.989  33.501  1.00  0.00    -0.248 NA
ATOM     52  C   UNL A   1      37.856  33.534  33.368  1.00  0.00     0.031 C 
ATOM     53  C   UNL A   1      42.321  31.584  36.993  1.00  0.00     0.029 A 
ATOM     54  C   UNL A   1      41.462  31.734  35.917  1.00  0.00     0.049 A 
ATOM     55  H   UNL A   1      41.390  30.645  34.111  1.00  0.00     0.167 HD
ATOM     56  C   UNL A   1      39.580  32.753  34.663  1.00  0.00     0.074 A 
ATOM     57  C   UNL A   1      38.498  33.704  34.517  1.00  0.00     0.031 C 
ATOM     58  C   UNL A   1      40.385  32.676  35.753  1.00  0.00     0.037 A 
BRANCH  45  59
ATOM     59  C   UNL A   1      44.687  28.250  35.385  1.00  0.00     0.058 A 
ATOM     60  C   UNL A   1      44.480  27.250  36.347  1.00  0.00     0.135 A 
ATOM     61  C   UNL A   1      46.010  28.566  35.039  1.00  0.00     0.135 A 
ATOM     62  F   UNL A   1      43.233  26.926  36.727  1.00  0.00    -0.206 F 
ATOM     63  C   UNL A   1      45.545  26.606  36.966  1.00  0.00     0.059 A 
ATOM     64  C   UNL A   1      47.091  27.919  35.630  1.00  0.00     0.059 A 
ATOM     65  F   UNL A   1      46.261  29.519  34.128  1.00  0.00    -0.206 F 
ATOM     66  C   UNL A   1      46.849  26.952  36.605  1.00  0.00     0.060 A 
BRANCH  66  67
ATOM     67  S   UNL A   1      48.226  26.121  37.425  1.00  0.00     0.124 S 
ATOM     68  O   UNL A   1      49.281  26.255  36.426  1.00  0.00    -0.237 OA
ATOM     69  O   UNL A   1      48.396  26.916  38.638  1.00  0.00    -0.237 OA
ATOM     70  O   UNL A   1      47.726  24.766  37.634  1.00  0.00    -0.744 OA
ENDBRANCH  66  67
ENDBRANCH  45  59
BRANCH  46  71
ATOM     71  C   UNL A   1      37.047  32.638  30.696  1.00  0.00     0.058 A 
ATOM     72  C   UNL A   1      35.740  32.172  30.894  1.00  0.00     0.135 A 
ATOM     73  C   UNL A   1      37.229  33.737  29.842  1.00  0.00     0.135 A 
ATOM     74  F   UNL A   1      35.518  31.118  31.694  1.00  0.00    -0.206 F 
ATOM     75  C   UNL A   1      34.652  32.768  30.264  1.00  0.00     0.059 A 
ATOM     76  C   UNL A   1      36.156  34.362  29.217  1.00  0.00     0.059 A 
ATOM     77  F   UNL A   1      38.461  34.226  29.629  1.00  0.00    -0.206 F 
ATOM     78  C   UNL A   1      34.870  33.866  29.429  1.00  0.00     0.060 A 
BRANCH  78  79
ATOM     79  S   UNL A   1      33.448  34.678  28.666  1.00  0.00     0.124 S 
ATOM     80  O   UNL A   1      34.086  35.778  27.954  1.00  0.00    -0.237 OA
ATOM     81  O   UNL A   1      32.896  33.613  27.834  1.00  0.00    -0.237 OA
ATOM     82  O   UNL A   1      32.627  35.054  29.813  1.00  0.00    -0.744 OA
ENDBRANCH  78  79
ENDBRANCH  46  71
BRANCH  58  83
ATOM     83  C   UNL A   1      40.144  33.660  36.862  1.00  0.00     0.058 A 
ATOM     84  C   UNL A   1      40.834  34.880  36.926  1.00  0.00     0.135 A 
ATOM     85  C   UNL A   1      39.172  33.403  37.842  1.00  0.00     0.135 A 
ATOM     86  F   UNL A   1      41.775  35.172  36.014  1.00  0.00    -0.206 F 
ATOM     87  C   UNL A   1      40.584  35.803  37.936  1.00  0.00     0.059 A 
ATOM     88  C   UNL A   1      38.892  34.320  38.851  1.00  0.00     0.059 A 
ATOM     89  F   UNL A   1      38.476  32.255  37.819  1.00  0.00    -0.206 F 
ATOM     90  C   UNL A   1      39.613  35.513  38.896  1.00  0.00     0.060 A 
BRANCH  90  91
ATOM     91  S   UNL A   1      39.274  36.730  40.187  1.00  0.00     0.124 S 
ATOM     92  O   UNL A   1      40.578  36.847  40.830  1.00  0.00    -0.237 OA
ATOM     93  O   UNL A   1      38.839  37.893  39.419  1.00  0.00    -0.237 OA
ATOM     94  O   UNL A   1      38.233  36.091  40.987  1.00  0.00    -0.744 OA
ENDBRANCH  90  91
ENDBRANCH  58  83
ENDBRANCH  32  33
ENDBRANCH  25  27
ENDBRANCH  24  25
ENDBRANCH  23  24
ENDBRANCH  22  23
ENDBRANCH  21  22
ENDBRANCH   1  21
TORSDOF 22
ENDMDL
MODEL 2
REMARK VINA RESULT:      -8.7      9.669     16.693
REMARK SMILES COC[C@@H](C)N(C)c1nc(C(C)C)c(C(=O)OCCOCCOC(=O)c2ccc(-c3c4nc(c(-c5c(F)cc(S(=O)(=O)[O-])cc5F)c5ccc([nH]5)c(-c5c(F)cc(S(=O)(=O)[O-])cc5F)c5nc(c(-c6c(F)cc(S(=O)(=O)[O-])cc6F)c6ccc3[nH]6)C=C5)C=C4)cc2)s1
REMARK SMILES IDX 19 1 18 2 17 3 15 4 16 5 14 6 8 7 9 8 92 9 10 10 6 11 7 12
REMARK SMILES IDX 4 13 5 14 3 15 2 16 1 17 11 18 12 19 13 20 20 21 21 22 22 23
REMARK SMILES IDX 23 24 24 25 25 26 26 27 27 28 91 29 28 30 90 31 29 32 30 33
REMARK SMILES IDX 31 34 84 35 32 36 89 37 83 38 85 39 33 40 88 41 82 42 81 43
REMARK SMILES IDX 34 45 68 46 47 47 67 48 48 49 51 50 66 51 86 52 49 53 50 54
REMARK SMILES IDX 65 56 87 57 52 58 35 59 36 60 45 61 37 62 38 63 44 64 46 65
REMARK SMILES IDX 39 66 40 67 41 68 42 69 43 70 69 71 70 72 79 73 71 74 72 75
REMARK SMILES IDX 78 76 80 77 73 78 74 79 75 80 76 81 77 82 53 83 54 84 63 85
REMARK SMILES IDX 55 86 56 87 62 88 64 89 57 90 58 91 59 92 60 93 61 94
REMARK H PARENT 85 44 51 55
REMARK Flexibility Score: inf
ROOT
ATOM      1  C   UNL A   1      46.781  40.413  24.634  1.00  0.00     0.202 C 
ENDROOT
BRANCH   1   2
ATOM      2  C   UNL A   1      45.567  41.341  24.628  1.00  0.00     0.261 C 
BRANCH   2   3
ATOM      3  O   UNL A   1      45.497  41.993  23.348  1.00  0.00    -0.459 OA
BRANCH   3   4
ATOM      4  C   UNL A   1      44.590  42.994  23.228  1.00  0.00     0.350 C 
ATOM      5  O   UNL A   1      43.953  43.462  24.167  1.00  0.00    -0.245 OA
BRANCH   4   6
ATOM      6  C   UNL A   1      44.573  43.495  21.873  1.00  0.00     0.137 A 
ATOM      7  C   UNL A   1      43.764  44.063  19.633  1.00  0.00     0.186 A 
ATOM      8  N   UNL A   1      45.038  44.341  19.754  1.00  0.00    -0.224 NA
ATOM      9  S   UNL A   1      43.046  43.473  21.076  1.00  0.00    -0.089 S 
ATOM     10  C   UNL A   1      45.519  44.075  21.037  1.00  0.00     0.071 A 
BRANCH   7  11
ATOM     11  N   UNL A   1      43.085  44.142  18.455  1.00  0.00    -0.346 N 
ATOM     12  C   UNL A   1      43.515  43.353  17.316  1.00  0.00     0.146 C 
BRANCH  11  13
ATOM     13  C   UNL A   1      42.256  45.338  18.198  1.00  0.00     0.107 C 
ATOM     14  C   UNL A   1      41.377  45.111  16.961  1.00  0.00     0.033 C 
BRANCH  13  15
ATOM     15  C   UNL A   1      43.101  46.628  18.114  1.00  0.00     0.184 C 
BRANCH  15  16
ATOM     16  O   UNL A   1      43.512  46.937  16.774  1.00  0.00    -0.383 OA
ATOM     17  C   UNL A   1      44.791  47.555  16.701  1.00  0.00     0.194 C 
ENDBRANCH  15  16
ENDBRANCH  13  15
ENDBRANCH  11  13
ENDBRANCH   7  11
BRANCH  10  18
ATOM     18  C   UNL A   1      46.975  44.429  21.249  1.00  0.00     0.034 C 
ATOM     19  C   UNL A   1      47.820  44.246  19.987  1.00  0.00     0.014 C 
ATOM     20  C   UNL A   1      47.202  45.788  21.904  1.00  0.00     0.014 C 
ENDBRANCH  10  18
ENDBRANCH   4   6
ENDBRANCH   3   4
ENDBRANCH   2   3
ENDBRANCH   1   2
BRANCH   1  21
ATOM     21  O   UNL A   1      46.595  39.257  25.458  1.00  0.00    -0.374 OA
BRANCH  21  22
ATOM     22  C   UNL A   1      47.706  38.362  25.541  1.00  0.00     0.202 C 
BRANCH  22  23
ATOM     23  C   UNL A   1      48.466  38.427  26.868  1.00  0.00     0.261 C 
BRANCH  23  24
ATOM     24  O   UNL A   1      47.757  37.711  27.894  1.00  0.00    -0.460 OA
BRANCH  24  25
ATOM     25  C   UNL A   1      48.454  36.707  28.476  1.00  0.00     0.338 C 
ATOM     26  O   UNL A   1      49.499  36.808  29.097  1.00  0.00    -0.246 OA
BRANCH  25  27
ATOM     27  C   UNL A   1      47.683  35.445  28.404  1.00  0.00     0.060 A 
ATOM     28  C   UNL A   1      47.790  34.569  29.491  1.00  0.00     0.016 A 
ATOM     29  C   UNL A   1      46.908  35.097  27.292  1.00  0.00     0.016 A 
ATOM     30  C   UNL A   1      47.178  33.319  29.445  1.00  0.00     0.010 A 
ATOM     31  C   UNL A   1      46.297  33.839  27.245  1.00  0.00     0.010 A 
ATOM     32  C   UNL A   1      46.465  32.930  28.303  1.00  0.00    -0.014 A 
BRANCH  32  33
ATOM     33  C   UNL A   1      46.051  31.513  28.164  1.00  0.00     0.031 A 
ATOM     34  C   UNL A   1      44.644  31.128  28.536  1.00  0.00     0.074 A 
ATOM     35  C   UNL A   1      46.892  30.593  27.661  1.00  0.00     0.049 A 
ATOM     36  N   UNL A   1      44.055  29.963  28.460  1.00  0.00    -0.248 NA
ATOM     37  C   UNL A   1      43.786  32.204  29.061  1.00  0.00     0.031 C 
ATOM     38  C   UNL A   1      48.270  30.845  27.244  1.00  0.00     0.029 A 
ATOM     39  N   UNL A   1      46.704  29.256  27.415  1.00  0.00    -0.354 N 
ATOM     40  C   UNL A   1      42.760  30.164  28.919  1.00  0.00     0.074 A 
ATOM     41  C   UNL A   1      42.657  31.555  29.306  1.00  0.00     0.031 C 
ATOM     42  C   UNL A   1      48.808  29.695  26.802  1.00  0.00     0.029 A 
ATOM     43  C   UNL A   1      47.818  28.625  26.916  1.00  0.00     0.049 A 
ATOM     44  H   UNL A   1      45.852  28.792  27.582  1.00  0.00     0.167 HD
ATOM     45  C   UNL A   1      41.740  29.277  28.999  1.00  0.00     0.037 A 
ATOM     46  C   UNL A   1      48.016  27.331  26.595  1.00  0.00     0.037 A 
ATOM     47  C   UNL A   1      41.841  27.892  28.622  1.00  0.00     0.049 A 
ATOM     48  C   UNL A   1      46.881  26.351  26.729  1.00  0.00     0.074 A 
ATOM     49  C   UNL A   1      40.863  26.913  28.668  1.00  0.00     0.029 A 
ATOM     50  N   UNL A   1      42.989  27.289  28.132  1.00  0.00    -0.354 N 
ATOM     51  N   UNL A   1      45.654  26.562  27.144  1.00  0.00    -0.248 NA
ATOM     52  C   UNL A   1      47.154  24.960  26.342  1.00  0.00     0.031 C 
ATOM     53  C   UNL A   1      41.431  25.709  28.232  1.00  0.00     0.029 A 
ATOM     54  C   UNL A   1      42.750  25.947  27.883  1.00  0.00     0.049 A 
ATOM     55  H   UNL A   1      43.848  27.746  27.984  1.00  0.00     0.167 HD
ATOM     56  C   UNL A   1      45.004  25.336  27.047  1.00  0.00     0.074 A 
ATOM     57  C   UNL A   1      45.970  24.390  26.527  1.00  0.00     0.031 C 
ATOM     58  C   UNL A   1      43.722  25.021  27.360  1.00  0.00     0.037 A 
BRANCH  45  59
ATOM     59  C   UNL A   1      40.430  29.784  29.531  1.00  0.00     0.058 A 
ATOM     60  C   UNL A   1      39.326  29.985  28.689  1.00  0.00     0.135 A 
ATOM     61  C   UNL A   1      40.276  30.069  30.897  1.00  0.00     0.135 A 
ATOM     62  F   UNL A   1      39.429  29.746  27.371  1.00  0.00    -0.206 F 
ATOM     63  C   UNL A   1      38.121  30.479  29.176  1.00  0.00     0.059 A 
ATOM     64  C   UNL A   1      39.073  30.544  31.410  1.00  0.00     0.059 A 
ATOM     65  F   UNL A   1      41.303  29.898  31.743  1.00  0.00    -0.206 F 
ATOM     66  C   UNL A   1      38.006  30.762  30.539  1.00  0.00     0.060 A 
BRANCH  66  67
ATOM     67  S   UNL A   1      36.443  31.418  31.159  1.00  0.00     0.124 S 
ATOM     68  O   UNL A   1      35.714  31.650  29.917  1.00  0.00    -0.237 OA
ATOM     69  O   UNL A   1      35.950  30.324  31.990  1.00  0.00    -0.237 OA
ATOM     70  O   UNL A   1      36.845  32.619  31.885  1.00  0.00    -0.744 OA
ENDBRANCH  66  67
ENDBRANCH  45  59
BRANCH  46  71
ATOM     71  C   UNL A   1      49.351  26.889  26.116  1.00  0.00     0.058 A 
ATOM     72  C   UNL A   1      49.753  27.096  24.790  1.00  0.00     0.135 A 
ATOM     73  C   UNL A   1      50.255  26.259  26.986  1.00  0.00     0.135 A 
ATOM     74  F   UNL A   1      48.918  27.685  23.920  1.00  0.00    -0.206 F 
ATOM     75  C   UNL A   1      51.004  26.690  24.337  1.00  0.00     0.059 A 
ATOM     76  C   UNL A   1      51.518  25.862  26.563  1.00  0.00     0.059 A 
ATOM     77  F   UNL A   1      49.918  26.048  28.268  1.00  0.00    -0.206 F 
ATOM     78  C   UNL A   1      51.882  26.076  25.234  1.00  0.00     0.060 A 
BRANCH  78  79
ATOM     79  S   UNL A   1      53.530  25.610  24.659  1.00  0.00     0.124 S 
ATOM     80  O   UNL A   1      54.370  26.563  25.374  1.00  0.00    -0.237 OA
ATOM     81  O   UNL A   1      53.627  24.220  25.096  1.00  0.00    -0.237 OA
ATOM     82  O   UNL A   1      53.443  25.799  23.215  1.00  0.00    -0.744 OA
ENDBRANCH  78  79
ENDBRANCH  46  71
BRANCH  58  83
ATOM     83  C   UNL A   1      43.280  23.605  27.124  1.00  0.00     0.058 A 
ATOM     84  C   UNL A   1      43.123  22.697  28.182  1.00  0.00     0.135 A 
ATOM     85  C   UNL A   1      42.958  23.166  25.830  1.00  0.00     0.135 A 
ATOM     86  F   UNL A   1      43.421  23.067  29.439  1.00  0.00    -0.206 F 
ATOM     87  C   UNL A   1      42.682  21.396  27.964  1.00  0.00     0.059 A 
ATOM     88  C   UNL A   1      42.496  21.876  25.590  1.00  0.00     0.059 A 
ATOM     89  F   UNL A   1      43.080  24.000  24.784  1.00  0.00    -0.206 F 
ATOM     90  C   UNL A   1      42.373  20.994  26.663  1.00  0.00     0.060 A 
BRANCH  90  91
ATOM     91  S   UNL A   1      41.773  19.312  26.391  1.00  0.00     0.124 S 
ATOM     92  O   UNL A   1      42.173  18.654  27.629  1.00  0.00    -0.237 OA
ATOM     93  O   UNL A   1      40.338  19.513  26.216  1.00  0.00    -0.237 OA
ATOM     94  O   UNL A   1      42.490  18.888  25.192  1.00  0.00    -0.744 OA
ENDBRANCH  90  91
ENDBRANCH  58  83
ENDBRANCH  32  33
ENDBRANCH  25  27
ENDBRANCH  24  25
ENDBRANCH  23  24
ENDBRANCH  22  23
ENDBRANCH  21  22
ENDBRANCH   1  21
TORSDOF 22
ENDMDL
MODEL 3
REMARK VINA RESULT:      -8.5      9.838     16.845
REMARK SMILES COC[C@@H](C)N(C)c1nc(C(C)C)c(C(=O)OCCOCCOC(=O)c2ccc(-c3c4nc(c(-c5c(F)cc(S(=O)(=O)[O-])cc5F)c5ccc([nH]5)c(-c5c(F)cc(S(=O)(=O)[O-])cc5F)c5nc(c(-c6c(F)cc(S(=O)(=O)[O-])cc6F)c6ccc3[nH]6)C=C5)C=C4)cc2)s1
REMARK SMILES IDX 19 1 18 2 17 3 15 4 16 5 14 6 8 7 9 8 92 9 10 10 6 11 7 12
REMARK SMILES IDX 4 13 5 14 3 15 2 16 1 17 11 18 12 19 13 20 20 21 21 22 22 23
REMARK SMILES IDX 23 24 24 25 25 26 26 27 27 28 91 29 28 30 90 31 29 32 30 33
REMARK SMILES IDX 31 34 84 35 32 36 89 37 83 38 85 39 33 40 88 41 82 42 81 43
REMARK SMILES IDX 34 45 68 46 47 47 67 48 48 49 51 50 66 51 86 52 49 53 50 54
REMARK SMILES IDX 65 56 87 57 52 58 35 59 36 60 45 61 37 62 38 63 44 64 46 65
REMARK SMILES IDX 39 66 40 67 41 68 42 69 43 70 69 71 70 72 79 73 71 74 72 75
REMARK SMILES IDX 78 76 80 77 73 78 74 79 75 80 76 81 77 82 53 83 54 84 63 85
REMARK SMILES IDX 55 86 56 87 62 88 64 89 57 90 58 91 59 92 60 93 61 94
REMARK H PARENT 85 44 51 55
REMARK Flexibility Score: inf
ROOT
ATOM      1  C   UNL A   1      46.845  40.541  24.175  1.00  0.00     0.202 C 
ENDROOT
BRANCH   1   2
ATOM      2  C   UNL A   1      46.157  41.905  24.203  1.00  0.00     0.261 C 
BRANCH   2   3
ATOM      3  O   UNL A   1      45.982  42.357  22.849  1.00  0.00    -0.459 OA
BRANCH   3   4
ATOM      4  C   UNL A   1      44.715  42.654  22.470  1.00  0.00     0.350 C 
ATOM      5  O   UNL A   1      43.723  42.457  23.166  1.00  0.00    -0.245 OA
BRANCH   4   6
ATOM      6  C   UNL A   1      44.719  43.333  21.195  1.00  0.00     0.137 A 
ATOM      7  C   UNL A   1      45.498  44.660  19.290  1.00  0.00     0.186 A 
ATOM      8  N   UNL A   1      44.238  44.334  19.148  1.00  0.00    -0.224 NA
ATOM      9  S   UNL A   1      46.227  44.004  20.699  1.00  0.00    -0.089 S 
ATOM     10  C   UNL A   1      43.776  43.535  20.194  1.00  0.00     0.071 A 
BRANCH   7  11
ATOM     11  N   UNL A   1      46.154  45.514  18.455  1.00  0.00    -0.346 N 
ATOM     12  C   UNL A   1      47.539  45.261  18.103  1.00  0.00     0.146 C 
BRANCH  11  13
ATOM     13  C   UNL A   1      45.641  46.892  18.311  1.00  0.00     0.107 C 
ATOM     14  C   UNL A   1      45.421  47.217  16.827  1.00  0.00     0.033 C 
BRANCH  13  15
ATOM     15  C   UNL A   1      46.532  47.926  19.034  1.00  0.00     0.184 C 
BRANCH  15  16
ATOM     16  O   UNL A   1      46.034  48.277  20.333  1.00  0.00    -0.383 OA
ATOM     17  C   UNL A   1      44.757  48.903  20.302  1.00  0.00     0.194 C 
ENDBRANCH  15  16
ENDBRANCH  13  15
ENDBRANCH  11  13
ENDBRANCH   7  11
BRANCH  10  18
ATOM     18  C   UNL A   1      42.338  43.082  20.054  1.00  0.00     0.034 C 
ATOM     19  C   UNL A   1      41.558  43.173  21.366  1.00  0.00     0.014 C 
ATOM     20  C   UNL A   1      41.589  43.723  18.890  1.00  0.00     0.014 C 
ENDBRANCH  10  18
ENDBRANCH   4   6
ENDBRANCH   3   4
ENDBRANCH   2   3
ENDBRANCH   1   2
BRANCH   1  21
ATOM     21  O   UNL A   1      46.651  39.794  25.380  1.00  0.00    -0.374 OA
BRANCH  21  22
ATOM     22  C   UNL A   1      47.451  38.618  25.524  1.00  0.00     0.202 C 
BRANCH  22  23
ATOM     23  C   UNL A   1      48.251  38.559  26.828  1.00  0.00     0.261 C 
BRANCH  23  24
ATOM     24  O   UNL A   1      47.575  37.743  27.800  1.00  0.00    -0.460 OA
BRANCH  24  25
ATOM     25  C   UNL A   1      48.328  36.757  28.342  1.00  0.00     0.338 C 
ATOM     26  O   UNL A   1      49.409  36.884  28.895  1.00  0.00    -0.246 OA
BRANCH  25  27
ATOM     27  C   UNL A   1      47.581  35.480  28.326  1.00  0.00     0.060 A 
ATOM     28  C   UNL A   1      47.890  34.546  29.323  1.00  0.00     0.016 A 
ATOM     29  C   UNL A   1      46.632  35.173  27.344  1.00  0.00     0.016 A 
ATOM     30  C   UNL A   1      47.303  33.284  29.306  1.00  0.00     0.010 A 
ATOM     31  C   UNL A   1      46.045  33.903  27.326  1.00  0.00     0.010 A 
ATOM     32  C   UNL A   1      46.411  32.940  28.282  1.00  0.00    -0.014 A 
BRANCH  32  33
ATOM     33  C   UNL A   1      46.006  31.521  28.130  1.00  0.00     0.031 A 
ATOM     34  C   UNL A   1      44.597  31.127  28.483  1.00  0.00     0.074 A 
ATOM     35  C   UNL A   1      46.858  30.609  27.630  1.00  0.00     0.049 A 
ATOM     36  N   UNL A   1      44.016  29.960  28.394  1.00  0.00    -0.248 NA
ATOM     37  C   UNL A   1      43.728  32.195  29.005  1.00  0.00     0.031 C 
ATOM     38  C   UNL A   1      48.239  30.871  27.230  1.00  0.00     0.029 A 
ATOM     39  N   UNL A   1      46.680  29.273  27.374  1.00  0.00    -0.354 N 
ATOM     40  C   UNL A   1      42.714  30.151  28.839  1.00  0.00     0.074 A 
ATOM     41  C   UNL A   1      42.600  31.539  29.234  1.00  0.00     0.031 C 
ATOM     42  C   UNL A   1      48.788  29.727  26.786  1.00  0.00     0.029 A 
ATOM     43  C   UNL A   1      47.802  28.651  26.883  1.00  0.00     0.049 A 
ATOM     44  H   UNL A   1      45.828  28.803  27.528  1.00  0.00     0.167 HD
ATOM     45  C   UNL A   1      41.698  29.258  28.902  1.00  0.00     0.037 A 
ATOM     46  C   UNL A   1      48.011  27.360  26.557  1.00  0.00     0.037 A 
ATOM     47  C   UNL A   1      41.811  27.876  28.518  1.00  0.00     0.049 A 
ATOM     48  C   UNL A   1      46.880  26.373  26.672  1.00  0.00     0.074 A 
ATOM     49  C   UNL A   1      40.838  26.891  28.546  1.00  0.00     0.029 A 
ATOM     50  N   UNL A   1      42.968  27.281  28.037  1.00  0.00    -0.354 N 
ATOM     51  N   UNL A   1      45.647  26.575  27.074  1.00  0.00    -0.248 NA
ATOM     52  C   UNL A   1      47.164  24.986  26.279  1.00  0.00     0.031 C 
ATOM     53  C   UNL A   1      41.417  25.693  28.110  1.00  0.00     0.029 A 
ATOM     54  C   UNL A   1      42.739  25.941  27.777  1.00  0.00     0.049 A 
ATOM     55  H   UNL A   1      43.825  27.745  27.901  1.00  0.00     0.167 HD
ATOM     56  C   UNL A   1      45.005  25.346  26.962  1.00  0.00     0.074 A 
ATOM     57  C   UNL A   1      45.981  24.409  26.447  1.00  0.00     0.031 C 
ATOM     58  C   UNL A   1      43.721  25.023  27.259  1.00  0.00     0.037 A 
BRANCH  45  59
ATOM     59  C   UNL A   1      40.380  29.754  29.423  1.00  0.00     0.058 A 
ATOM     60  C   UNL A   1      39.302  30.009  28.562  1.00  0.00     0.135 A 
ATOM     61  C   UNL A   1      40.192  29.975  30.796  1.00  0.00     0.135 A 
ATOM     62  F   UNL A   1      39.439  29.834  27.237  1.00  0.00    -0.206 F 
ATOM     63  C   UNL A   1      38.090  30.494  29.040  1.00  0.00     0.059 A 
ATOM     64  C   UNL A   1      38.980  30.439  31.299  1.00  0.00     0.059 A 
ATOM     65  F   UNL A   1      41.193  29.750  31.660  1.00  0.00    -0.206 F 
ATOM     66  C   UNL A   1      37.940  30.713  30.411  1.00  0.00     0.060 A 
BRANCH  66  67
ATOM     67  S   UNL A   1      36.368  31.357  31.021  1.00  0.00     0.124 S 
ATOM     68  O   UNL A   1      35.573  31.383  29.797  1.00  0.00    -0.237 OA
ATOM     69  O   UNL A   1      35.979  30.356  32.009  1.00  0.00    -0.237 OA
ATOM     70  O   UNL A   1      36.726  32.663  31.566  1.00  0.00    -0.744 OA
ENDBRANCH  66  67
ENDBRANCH  45  59
BRANCH  46  71
ATOM     71  C   UNL A   1      49.353  26.928  26.089  1.00  0.00     0.058 A 
ATOM     72  C   UNL A   1      49.762  27.129  24.764  1.00  0.00     0.135 A 
ATOM     73  C   UNL A   1      50.258  26.315  26.970  1.00  0.00     0.135 A 
ATOM     74  F   UNL A   1      48.927  27.702  23.884  1.00  0.00    -0.206 F 
ATOM     75  C   UNL A   1      51.020  26.732  24.323  1.00  0.00     0.059 A 
ATOM     76  C   UNL A   1      51.528  25.927  26.558  1.00  0.00     0.059 A 
ATOM     77  F   UNL A   1      49.915  26.110  28.252  1.00  0.00    -0.206 F 
ATOM     78  C   UNL A   1      51.899  26.134  25.230  1.00  0.00     0.060 A 
BRANCH  78  79
ATOM     79  S   UNL A   1      53.555  25.681  24.670  1.00  0.00     0.124 S 
ATOM     80  O   UNL A   1      53.325  25.420  23.254  1.00  0.00    -0.237 OA
ATOM     81  O   UNL A   1      54.325  26.881  24.982  1.00  0.00    -0.237 OA
ATOM     82  O   UNL A   1      53.873  24.513  25.487  1.00  0.00    -0.744 OA
ENDBRANCH  78  79
ENDBRANCH  46  71
BRANCH  58  83
ATOM     83  C   UNL A   1      43.289  23.606  27.009  1.00  0.00     0.058 A 
ATOM     84  C   UNL A   1      43.021  23.135  25.715  1.00  0.00     0.135 A 
ATOM     85  C   UNL A   1      43.193  22.694  28.072  1.00  0.00     0.135 A 
ATOM     86  F   UNL A   1      43.095  23.969  24.665  1.00  0.00    -0.206 F 
ATOM     87  C   UNL A   1      42.653  21.814  25.484  1.00  0.00     0.059 A 
ATOM     88  C   UNL A   1      42.847  21.362  27.863  1.00  0.00     0.059 A 
ATOM     89  F   UNL A   1      43.450  23.092  29.329  1.00  0.00    -0.206 F 
ATOM     90  C   UNL A   1      42.566  20.935  26.566  1.00  0.00     0.060 A 
BRANCH  90  91
ATOM     91  S   UNL A   1      42.116  19.214  26.255  1.00  0.00     0.124 S 
ATOM     92  O   UNL A   1      40.662  19.298  26.189  1.00  0.00    -0.237 OA
ATOM     93  O   UNL A   1      42.793  18.934  24.992  1.00  0.00    -0.237 OA
ATOM     94  O   UNL A   1      42.655  18.509  27.415  1.00  0.00    -0.744 OA
ENDBRANCH  90  91
ENDBRANCH  58  83
ENDBRANCH  32  33
ENDBRANCH  25  27
ENDBRANCH  24  25
ENDBRANCH  23  24
ENDBRANCH  22  23
ENDBRANCH  21  22
ENDBRANCH   1  21
TORSDOF 22
ENDMDL
