MODEL 1
REMARK VINA RESULT:     -10.0      0.000      0.000
REMARK SMILES O=C(OCCOCCOC(=O)c1sccc1[S@](=O)[O-])c1ccc(-c2c3nc(c(-c4c(F)cc(S(=O)(=O)[O-])cc4F)c4ccc([nH]4)c(-c4c(F)cc(S(=O)(=O)[O-])cc4F)c4nc(c(-c5c(F)cc(S(=O)(=O)[O-])cc5F)c5ccc2[nH]5)C=C4)C=C3)cc1
REMARK SMILES IDX 5 1 4 2 3 3 2 4 1 5 20 6 21 7 85 8 22 9 84 10 23 11 24 12
REMARK SMILES IDX 25 13 78 14 26 15 83 16 77 17 79 18 27 19 82 20 76 21 75 22
REMARK SMILES IDX 28 24 62 25 41 26 61 27 42 28 45 29 60 30 80 31 43 32 44 33
REMARK SMILES IDX 59 35 81 36 46 37 29 38 30 39 39 40 31 41 32 42 38 43 40 44
REMARK SMILES IDX 33 45 34 46 35 47 36 48 37 49 63 50 64 51 73 52 65 53 66 54
REMARK SMILES IDX 72 55 74 56 67 57 68 58 69 59 70 60 71 61 47 62 48 63 57 64
REMARK SMILES IDX 49 65 50 66 56 67 58 68 51 69 52 70 53 71 54 72 55 73 6 74
REMARK SMILES IDX 7 75 8 76 9 77 10 78 11 79 12 80 13 81 16 82 14 83 15 84
REMARK SMILES IDX 17 85 19 86 18 87
REMARK H PARENT 79 23 45 34
REMARK Flexibility Score: inf
ROOT
ATOM      1  C   UNL A   1      33.665  30.569  27.288  1.00  0.00     0.202 C 
ENDROOT
BRANCH   1   2
ATOM      2  C   UNL A   1      34.980  29.908  27.710  1.00  0.00     0.261 C 
BRANCH   2   3
ATOM      3  O   UNL A   1      35.465  30.487  28.934  1.00  0.00    -0.460 OA
BRANCH   3   4
ATOM      4  C   UNL A   1      36.385  29.984  29.793  1.00  0.00     0.338 C 
ATOM      5  O   UNL A   1      36.061  29.817  30.967  1.00  0.00    -0.246 OA
BRANCH   4   6
ATOM      6  C   UNL A   1      37.784  29.643  29.393  1.00  0.00     0.060 A 
ATOM      7  C   UNL A   1      38.256  29.672  28.083  1.00  0.00     0.016 A 
ATOM      8  C   UNL A   1      38.708  29.362  30.416  1.00  0.00     0.016 A 
ATOM      9  C   UNL A   1      39.566  29.368  27.772  1.00  0.00     0.010 A 
ATOM     10  C   UNL A   1      40.053  29.108  30.118  1.00  0.00     0.010 A 
ATOM     11  C   UNL A   1      40.477  29.100  28.786  1.00  0.00    -0.014 A 
BRANCH  11  12
ATOM     12  C   UNL A   1      41.834  28.729  28.355  1.00  0.00     0.031 A 
ATOM     13  C   UNL A   1      42.921  29.748  28.482  1.00  0.00     0.074 A 
ATOM     14  C   UNL A   1      42.091  27.436  28.080  1.00  0.00     0.049 A 
ATOM     15  N   UNL A   1      44.193  29.629  28.230  1.00  0.00    -0.248 NA
ATOM     16  C   UNL A   1      42.526  31.075  28.988  1.00  0.00     0.031 C 
ATOM     17  C   UNL A   1      41.090  26.362  28.077  1.00  0.00     0.029 A 
ATOM     18  N   UNL A   1      43.266  26.790  27.811  1.00  0.00    -0.354 N 
ATOM     19  C   UNL A   1      44.751  30.863  28.538  1.00  0.00     0.074 A 
ATOM     20  C   UNL A   1      43.679  31.726  28.977  1.00  0.00     0.031 C 
ATOM     21  C   UNL A   1      41.701  25.189  27.849  1.00  0.00     0.029 A 
ATOM     22  C   UNL A   1      43.117  25.436  27.618  1.00  0.00     0.049 A 
ATOM     23  H   UNL A   1      44.134  27.251  27.760  1.00  0.00     0.167 HD
ATOM     24  C   UNL A   1      46.050  31.230  28.460  1.00  0.00     0.037 A 
ATOM     25  C   UNL A   1      44.027  24.513  27.257  1.00  0.00     0.037 A 
ATOM     26  C   UNL A   1      47.086  30.340  28.009  1.00  0.00     0.049 A 
ATOM     27  C   UNL A   1      45.446  24.977  27.067  1.00  0.00     0.074 A 
ATOM     28  C   UNL A   1      48.421  30.610  27.780  1.00  0.00     0.029 A 
ATOM     29  N   UNL A   1      46.892  28.993  27.723  1.00  0.00    -0.354 N 
ATOM     30  N   UNL A   1      45.952  26.174  27.265  1.00  0.00    -0.248 NA
ATOM     31  C   UNL A   1      46.415  23.982  26.598  1.00  0.00     0.031 C 
ATOM     32  C   UNL A   1      49.026  29.436  27.317  1.00  0.00     0.029 A 
ATOM     33  C   UNL A   1      48.080  28.419  27.310  1.00  0.00     0.049 A 
ATOM     34  H   UNL A   1      46.034  28.517  27.804  1.00  0.00     0.167 HD
ATOM     35  C   UNL A   1      47.302  26.074  26.953  1.00  0.00     0.074 A 
ATOM     36  C   UNL A   1      47.536  24.690  26.585  1.00  0.00     0.031 C 
ATOM     37  C   UNL A   1      48.262  27.032  26.956  1.00  0.00     0.037 A 
BRANCH  24  38
ATOM     38  C   UNL A   1      46.386  32.651  28.807  1.00  0.00     0.058 A 
ATOM     39  C   UNL A   1      46.742  33.034  30.110  1.00  0.00     0.135 A 
ATOM     40  C   UNL A   1      46.321  33.653  27.826  1.00  0.00     0.135 A 
ATOM     41  F   UNL A   1      46.781  32.123  31.097  1.00  0.00    -0.206 F 
ATOM     42  C   UNL A   1      47.003  34.363  30.432  1.00  0.00     0.059 A 
ATOM     43  C   UNL A   1      46.602  34.985  28.119  1.00  0.00     0.059 A 
ATOM     44  F   UNL A   1      45.967  33.345  26.569  1.00  0.00    -0.206 F 
ATOM     45  C   UNL A   1      46.929  35.331  29.430  1.00  0.00     0.060 A 
BRANCH  45  46
ATOM     46  S   UNL A   1      47.266  37.051  29.864  1.00  0.00     0.124 S 
ATOM     47  O   UNL A   1      46.189  37.745  29.165  1.00  0.00    -0.237 OA
ATOM     48  O   UNL A   1      47.166  37.028  31.320  1.00  0.00    -0.237 OA
ATOM     49  O   UNL A   1      48.606  37.280  29.334  1.00  0.00    -0.744 OA
ENDBRANCH  45  46
ENDBRANCH  24  38
BRANCH  25  50
ATOM     50  C   UNL A   1      43.614  23.110  26.972  1.00  0.00     0.058 A 
ATOM     51  C   UNL A   1      43.250  22.219  27.992  1.00  0.00     0.135 A 
ATOM     52  C   UNL A   1      43.602  22.621  25.654  1.00  0.00     0.135 A 
ATOM     53  F   UNL A   1      43.247  22.628  29.271  1.00  0.00    -0.206 F 
ATOM     54  C   UNL A   1      42.920  20.892  27.722  1.00  0.00     0.059 A 
ATOM     55  C   UNL A   1      43.244  21.311  25.355  1.00  0.00     0.059 A 
ATOM     56  F   UNL A   1      43.929  23.428  24.632  1.00  0.00    -0.206 F 
ATOM     57  C   UNL A   1      42.925  20.446  26.398  1.00  0.00     0.060 A 
BRANCH  57  58
ATOM     58  S   UNL A   1      42.497  18.726  26.051  1.00  0.00     0.124 S 
ATOM     59  O   UNL A   1      42.750  18.096  27.341  1.00  0.00    -0.237 OA
ATOM     60  O   UNL A   1      41.097  18.831  25.653  1.00  0.00    -0.237 OA
ATOM     61  O   UNL A   1      43.419  18.361  24.980  1.00  0.00    -0.744 OA
ENDBRANCH  57  58
ENDBRANCH  25  50
BRANCH  37  62
ATOM     62  C   UNL A   1      49.647  26.598  26.578  1.00  0.00     0.058 A 
ATOM     63  C   UNL A   1      50.132  26.750  25.269  1.00  0.00     0.135 A 
ATOM     64  C   UNL A   1      50.507  26.057  27.545  1.00  0.00     0.135 A 
ATOM     65  F   UNL A   1      49.343  27.257  24.310  1.00  0.00    -0.206 F 
ATOM     66  C   UNL A   1      51.417  26.348  24.926  1.00  0.00     0.059 A 
ATOM     67  C   UNL A   1      51.806  25.679  27.231  1.00  0.00     0.059 A 
ATOM     68  F   UNL A   1      50.091  25.905  28.813  1.00  0.00    -0.206 F 
ATOM     69  C   UNL A   1      52.246  25.813  25.915  1.00  0.00     0.060 A 
BRANCH  69  70
ATOM     70  S   UNL A   1      53.919  25.315  25.461  1.00  0.00     0.124 S 
ATOM     71  O   UNL A   1      54.350  26.448  24.649  1.00  0.00    -0.237 OA
ATOM     72  O   UNL A   1      54.569  25.181  26.760  1.00  0.00    -0.237 OA
ATOM     73  O   UNL A   1      53.715  24.064  24.737  1.00  0.00    -0.744 OA
ENDBRANCH  69  70
ENDBRANCH  37  62
ENDBRANCH  11  12
ENDBRANCH   4   6
ENDBRANCH   3   4
ENDBRANCH   2   3
ENDBRANCH   1   2
BRANCH   1  74
ATOM     74  O   UNL A   1      33.747  31.967  27.007  1.00  0.00    -0.374 OA
BRANCH  74  75
ATOM     75  C   UNL A   1      33.310  32.854  28.039  1.00  0.00     0.202 C 
BRANCH  75  76
ATOM     76  C   UNL A   1      34.228  34.081  28.057  1.00  0.00     0.261 C 
BRANCH  76  77
ATOM     77  O   UNL A   1      34.647  34.317  29.413  1.00  0.00    -0.459 OA
BRANCH  77  78
ATOM     78  C   UNL A   1      33.688  34.840  30.238  1.00  0.00     0.349 C 
ATOM     79  O   UNL A   1      32.605  35.266  29.858  1.00  0.00    -0.245 OA
BRANCH  78  80
ATOM     80  C   UNL A   1      34.134  34.707  31.606  1.00  0.00     0.127 A 
ATOM     81  S   UNL A   1      34.750  33.192  32.134  1.00  0.00    -0.136 S 
ATOM     82  C   UNL A   1      34.193  35.639  32.626  1.00  0.00     0.050 A 
ATOM     83  C   UNL A   1      35.257  33.841  33.632  1.00  0.00     0.067 A 
ATOM     84  C   UNL A   1      34.859  35.150  33.786  1.00  0.00     0.029 A 
BRANCH  82  85
ATOM     85  S   UNL A   1      33.565  37.263  32.515  1.00  0.00    -0.020 S 
ATOM     86  O   UNL A   1      32.043  36.802  32.725  1.00  0.00    -0.768 OA
ATOM     87  O   UNL A   1      34.016  37.985  33.746  1.00  0.00    -0.269 OA
ENDBRANCH  82  85
ENDBRANCH  78  80
ENDBRANCH  77  78
ENDBRANCH  76  77
ENDBRANCH  75  76
ENDBRANCH  74  75
ENDBRANCH   1  74
TORSDOF 18
ENDMDL
MODEL 2
REMARK VINA RESULT:      -9.9      2.660      4.856
REMARK SMILES O=C(OCCOCCOC(=O)c1sccc1[S@](=O)[O-])c1ccc(-c2c3nc(c(-c4c(F)cc(S(=O)(=O)[O-])cc4F)c4ccc([nH]4)c(-c4c(F)cc(S(=O)(=O)[O-])cc4F)c4nc(c(-c5c(F)cc(S(=O)(=O)[O-])cc5F)c5ccc2[nH]5)C=C4)C=C3)cc1
REMARK SMILES IDX 5 1 4 2 3 3 2 4 1 5 20 6 21 7 85 8 22 9 84 10 23 11 24 12
REMARK SMILES IDX 25 13 78 14 26 15 83 16 77 17 79 18 27 19 82 20 76 21 75 22
REMARK SMILES IDX 28 24 62 25 41 26 61 27 42 28 45 29 60 30 80 31 43 32 44 33
REMARK SMILES IDX 59 35 81 36 46 37 29 38 30 39 39 40 31 41 32 42 38 43 40 44
REMARK SMILES IDX 33 45 34 46 35 47 36 48 37 49 63 50 64 51 73 52 65 53 66 54
REMARK SMILES IDX 72 55 74 56 67 57 68 58 69 59 70 60 71 61 47 62 48 63 57 64
REMARK SMILES IDX 49 65 50 66 56 67 58 68 51 69 52 70 53 71 54 72 55 73 6 74
REMARK SMILES IDX 7 75 8 76 9 77 10 78 11 79 12 80 13 81 16 82 14 83 15 84
REMARK SMILES IDX 17 85 19 86 18 87
REMARK H PARENT 79 23 45 34
REMARK Flexibility Score: inf
ROOT
ATOM      1  C   UNL A   1      34.817  31.597  27.704  1.00  0.00     0.202 C 
ENDROOT
BRANCH   1   2
ATOM      2  C   UNL A   1      34.714  31.921  29.198  1.00  0.00     0.261 C 
BRANCH   2   3
ATOM      3  O   UNL A   1      35.993  31.759  29.837  1.00  0.00    -0.460 OA
BRANCH   3   4
ATOM      4  C   UNL A   1      36.591  30.611  30.239  1.00  0.00     0.338 C 
ATOM      5  O   UNL A   1      36.006  29.900  31.054  1.00  0.00    -0.246 OA
BRANCH   4   6
ATOM      6  C   UNL A   1      37.937  30.172  29.761  1.00  0.00     0.060 A 
ATOM      7  C   UNL A   1      38.972  29.762  30.599  1.00  0.00     0.016 A 
ATOM      8  C   UNL A   1      38.142  30.079  28.373  1.00  0.00     0.016 A 
ATOM      9  C   UNL A   1      40.190  29.345  30.102  1.00  0.00     0.010 A 
ATOM     10  C   UNL A   1      39.354  29.604  27.856  1.00  0.00     0.010 A 
ATOM     11  C   UNL A   1      40.385  29.247  28.730  1.00  0.00    -0.014 A 
BRANCH  11  12
ATOM     12  C   UNL A   1      41.733  28.850  28.295  1.00  0.00     0.031 A 
ATOM     13  C   UNL A   1      42.835  29.855  28.399  1.00  0.00     0.074 A 
ATOM     14  C   UNL A   1      41.970  27.549  28.039  1.00  0.00     0.049 A 
ATOM     15  N   UNL A   1      44.104  29.714  28.141  1.00  0.00    -0.248 NA
ATOM     16  C   UNL A   1      42.462  31.195  28.887  1.00  0.00     0.031 C 
ATOM     17  C   UNL A   1      40.954  26.489  28.059  1.00  0.00     0.029 A 
ATOM     18  N   UNL A   1      43.134  26.882  27.773  1.00  0.00    -0.354 N 
ATOM     19  C   UNL A   1      44.682  30.944  28.426  1.00  0.00     0.074 A 
ATOM     20  C   UNL A   1      43.625  31.829  28.858  1.00  0.00     0.031 C 
ATOM     21  C   UNL A   1      41.547  25.304  27.847  1.00  0.00     0.029 A 
ATOM     22  C   UNL A   1      42.965  25.527  27.602  1.00  0.00     0.049 A 
ATOM     23  H   UNL A   1      44.008  27.330  27.709  1.00  0.00     0.167 HD
ATOM     24  C   UNL A   1      45.985  31.291  28.333  1.00  0.00     0.037 A 
ATOM     25  C   UNL A   1      43.860  24.586  27.249  1.00  0.00     0.037 A 
ATOM     26  C   UNL A   1      47.005  30.380  27.889  1.00  0.00     0.049 A 
ATOM     27  C   UNL A   1      45.283  25.027  27.044  1.00  0.00     0.074 A 
ATOM     28  C   UNL A   1      48.343  30.627  27.648  1.00  0.00     0.029 A 
ATOM     29  N   UNL A   1      46.791  29.032  27.627  1.00  0.00    -0.354 N 
ATOM     30  N   UNL A   1      45.808  26.219  27.219  1.00  0.00    -0.248 NA
ATOM     31  C   UNL A   1      46.235  24.011  26.584  1.00  0.00     0.031 C 
ATOM     32  C   UNL A   1      48.928  29.437  27.200  1.00  0.00     0.029 A 
ATOM     33  C   UNL A   1      47.967  28.435  27.215  1.00  0.00     0.049 A 
ATOM     34  H   UNL A   1      45.926  28.569  27.720  1.00  0.00     0.167 HD
ATOM     35  C   UNL A   1      47.154  26.095  26.900  1.00  0.00     0.074 A 
ATOM     36  C   UNL A   1      47.365  24.702  26.552  1.00  0.00     0.031 C 
ATOM     37  C   UNL A   1      48.127  27.040  26.882  1.00  0.00     0.037 A 
BRANCH  24  38
ATOM     38  C   UNL A   1      46.343  32.713  28.656  1.00  0.00     0.058 A 
ATOM     39  C   UNL A   1      46.325  33.723  27.680  1.00  0.00     0.135 A 
ATOM     40  C   UNL A   1      46.741  33.066  29.955  1.00  0.00     0.135 A 
ATOM     41  F   UNL A   1      45.991  33.434  26.412  1.00  0.00    -0.206 F 
ATOM     42  C   UNL A   1      46.707  35.028  27.978  1.00  0.00     0.059 A 
ATOM     43  C   UNL A   1      47.103  34.370  30.281  1.00  0.00     0.059 A 
ATOM     44  F   UNL A   1      46.795  32.135  30.920  1.00  0.00    -0.206 F 
ATOM     45  C   UNL A   1      47.096  35.342  29.281  1.00  0.00     0.060 A 
BRANCH  45  46
ATOM     46  S   UNL A   1      47.592  37.038  29.651  1.00  0.00     0.124 S 
ATOM     47  O   UNL A   1      46.843  37.302  30.875  1.00  0.00    -0.237 OA
ATOM     48  O   UNL A   1      49.037  36.910  29.807  1.00  0.00    -0.237 OA
ATOM     49  O   UNL A   1      47.156  37.784  28.475  1.00  0.00    -0.744 OA
ENDBRANCH  45  46
ENDBRANCH  24  38
BRANCH  25  50
ATOM     50  C   UNL A   1      43.425  23.184  26.990  1.00  0.00     0.058 A 
ATOM     51  C   UNL A   1      43.106  22.299  28.029  1.00  0.00     0.135 A 
ATOM     52  C   UNL A   1      43.346  22.692  25.675  1.00  0.00     0.135 A 
ATOM     53  F   UNL A   1      43.167  22.711  29.305  1.00  0.00    -0.206 F 
ATOM     54  C   UNL A   1      42.755  20.973  27.780  1.00  0.00     0.059 A 
ATOM     55  C   UNL A   1      42.966  21.383  25.398  1.00  0.00     0.059 A 
ATOM     56  F   UNL A   1      43.627  23.494  24.637  1.00  0.00    -0.206 F 
ATOM     57  C   UNL A   1      42.693  20.523  26.459  1.00  0.00     0.060 A 
BRANCH  57  58
ATOM     58  S   UNL A   1      42.238  18.805  26.138  1.00  0.00     0.124 S 
ATOM     59  O   UNL A   1      43.194  18.439  25.100  1.00  0.00    -0.237 OA
ATOM     60  O   UNL A   1      42.442  18.183  27.443  1.00  0.00    -0.237 OA
ATOM     61  O   UNL A   1      40.846  18.902  25.710  1.00  0.00    -0.744 OA
ENDBRANCH  57  58
ENDBRANCH  25  50
BRANCH  37  62
ATOM     62  C   UNL A   1      49.503  26.580  26.501  1.00  0.00     0.058 A 
ATOM     63  C   UNL A   1      50.384  26.034  27.449  1.00  0.00     0.135 A 
ATOM     64  C   UNL A   1      49.929  26.654  25.167  1.00  0.00     0.135 A 
ATOM     65  F   UNL A   1      50.021  25.948  28.738  1.00  0.00    -0.206 F 
ATOM     66  C   UNL A   1      51.655  25.607  27.089  1.00  0.00     0.059 A 
ATOM     67  C   UNL A   1      51.185  26.203  24.779  1.00  0.00     0.059 A 
ATOM     68  F   UNL A   1      49.116  27.157  24.223  1.00  0.00    -0.206 F 
ATOM     69  C   UNL A   1      52.046  25.696  25.751  1.00  0.00     0.060 A 
BRANCH  69  70
ATOM     70  S   UNL A   1      53.693  25.119  25.294  1.00  0.00     0.124 S 
ATOM     71  O   UNL A   1      53.858  25.724  23.975  1.00  0.00    -0.237 OA
ATOM     72  O   UNL A   1      54.525  25.675  26.356  1.00  0.00    -0.237 OA
ATOM     73  O   UNL A   1      53.559  23.666  25.307  1.00  0.00    -0.744 OA
ENDBRANCH  69  70
ENDBRANCH  37  62
ENDBRANCH  11  12
ENDBRANCH   4   6
ENDBRANCH   3   4
ENDBRANCH   2   3
ENDBRANCH   1   2
BRANCH   1  74
ATOM     74  O   UNL A   1      33.952  30.558  27.244  1.00  0.00    -0.374 OA
BRANCH  74  75
ATOM     75  C   UNL A   1      34.430  29.218  27.384  1.00  0.00     0.202 C 
BRANCH  75  76
ATOM     76  C   UNL A   1      34.014  28.414  26.149  1.00  0.00     0.261 C 
BRANCH  76  77
ATOM     77  O   UNL A   1      33.446  29.320  25.185  1.00  0.00    -0.459 OA
BRANCH  77  78
ATOM     78  C   UNL A   1      33.438  28.868  23.892  1.00  0.00     0.349 C 
ATOM     79  O   UNL A   1      34.392  28.938  23.129  1.00  0.00    -0.245 OA
BRANCH  78  80
ATOM     80  C   UNL A   1      32.170  28.224  23.637  1.00  0.00     0.127 A 
ATOM     81  S   UNL A   1      30.721  29.106  23.919  1.00  0.00    -0.136 S 
ATOM     82  C   UNL A   1      31.885  26.963  23.148  1.00  0.00     0.050 A 
ATOM     83  C   UNL A   1      29.758  27.883  23.213  1.00  0.00     0.067 A 
ATOM     84  C   UNL A   1      30.499  26.771  22.881  1.00  0.00     0.029 A 
BRANCH  82  85
ATOM     85  S   UNL A   1      33.082  25.732  22.839  1.00  0.00    -0.020 S 
ATOM     86  O   UNL A   1      32.000  24.552  22.749  1.00  0.00    -0.768 OA
ATOM     87  O   UNL A   1      33.620  25.988  21.465  1.00  0.00    -0.269 OA
ENDBRANCH  82  85
ENDBRANCH  78  80
ENDBRANCH  77  78
ENDBRANCH  76  77
ENDBRANCH  75  76
ENDBRANCH  74  75
ENDBRANCH   1  74
TORSDOF 18
ENDMDL
MODEL 3
REMARK VINA RESULT:      -9.8      1.396      2.755
REMARK SMILES O=C(OCCOCCOC(=O)c1sccc1[S@](=O)[O-])c1ccc(-c2c3nc(c(-c4c(F)cc(S(=O)(=O)[O-])cc4F)c4ccc([nH]4)c(-c4c(F)cc(S(=O)(=O)[O-])cc4F)c4nc(c(-c5c(F)cc(S(=O)(=O)[O-])cc5F)c5ccc2[nH]5)C=C4)C=C3)cc1
REMARK SMILES IDX 5 1 4 2 3 3 2 4 1 5 20 6 21 7 85 8 22 9 84 10 23 11 24 12
REMARK SMILES IDX 25 13 78 14 26 15 83 16 77 17 79 18 27 19 82 20 76 21 75 22
REMARK SMILES IDX 28 24 62 25 41 26 61 27 42 28 45 29 60 30 80 31 43 32 44 33
REMARK SMILES IDX 59 35 81 36 46 37 29 38 30 39 39 40 31 41 32 42 38 43 40 44
REMARK SMILES IDX 33 45 34 46 35 47 36 48 37 49 63 50 64 51 73 52 65 53 66 54
REMARK SMILES IDX 72 55 74 56 67 57 68 58 69 59 70 60 71 61 47 62 48 63 57 64
REMARK SMILES IDX 49 65 50 66 56 67 58 68 51 69 52 70 53 71 54 72 55 73 6 74
REMARK SMILES IDX 7 75 8 76 9 77 10 78 11 79 12 80 13 81 16 82 14 83 15 84
REMARK SMILES IDX 17 85 19 86 18 87
REMARK H PARENT 79 23 45 34
REMARK Flexibility Score: inf
ROOT
ATOM      1  C   UNL A   1      37.723  32.142  35.050  1.00  0.00     0.202 C 
ENDROOT
BRANCH   1   2
ATOM      2  C   UNL A   1      37.957  30.953  34.113  1.00  0.00     0.261 C 
BRANCH   2   3
ATOM      3  O   UNL A   1      36.982  30.946  33.055  1.00  0.00    -0.460 OA
BRANCH   3   4
ATOM      4  C   UNL A   1      37.028  30.278  31.877  1.00  0.00     0.338 C 
ATOM      5  O   UNL A   1      35.969  29.926  31.361  1.00  0.00    -0.246 OA
BRANCH   4   6
ATOM      6  C   UNL A   1      38.302  29.926  31.179  1.00  0.00     0.060 A 
ATOM      7  C   UNL A   1      39.320  29.160  31.743  1.00  0.00     0.016 A 
ATOM      8  C   UNL A   1      38.443  30.315  29.836  1.00  0.00     0.016 A 
ATOM      9  C   UNL A   1      40.468  28.845  31.045  1.00  0.00     0.010 A 
ATOM     10  C   UNL A   1      39.578  29.954  29.099  1.00  0.00     0.010 A 
ATOM     11  C   UNL A   1      40.599  29.225  29.715  1.00  0.00    -0.014 A 
BRANCH  11  12
ATOM     12  C   UNL A   1      41.881  28.896  29.072  1.00  0.00     0.031 A 
ATOM     13  C   UNL A   1      42.977  29.913  29.117  1.00  0.00     0.074 A 
ATOM     14  C   UNL A   1      42.095  27.627  28.674  1.00  0.00     0.049 A 
ATOM     15  N   UNL A   1      44.201  29.822  28.681  1.00  0.00    -0.248 NA
ATOM     16  C   UNL A   1      42.658  31.198  29.765  1.00  0.00     0.031 C 
ATOM     17  C   UNL A   1      41.102  26.548  28.736  1.00  0.00     0.029 A 
ATOM     18  N   UNL A   1      43.220  27.012  28.198  1.00  0.00    -0.354 N 
ATOM     19  C   UNL A   1      44.798  31.036  28.993  1.00  0.00     0.074 A 
ATOM     20  C   UNL A   1      43.800  31.857  29.637  1.00  0.00     0.031 C 
ATOM     21  C   UNL A   1      41.673  25.399  28.344  1.00  0.00     0.029 A 
ATOM     22  C   UNL A   1      43.044  25.673  27.933  1.00  0.00     0.049 A 
ATOM     23  H   UNL A   1      44.073  27.482  28.059  1.00  0.00     0.167 HD
ATOM     24  C   UNL A   1      46.074  31.419  28.760  1.00  0.00     0.037 A 
ATOM     25  C   UNL A   1      43.893  24.785  27.385  1.00  0.00     0.037 A 
ATOM     26  C   UNL A   1      47.035  30.572  28.106  1.00  0.00     0.049 A 
ATOM     27  C   UNL A   1      45.271  25.273  27.031  1.00  0.00     0.074 A 
ATOM     28  C   UNL A   1      48.325  30.868  27.712  1.00  0.00     0.029 A 
ATOM     29  N   UNL A   1      46.801  29.246  27.757  1.00  0.00    -0.354 N 
ATOM     30  N   UNL A   1      45.802  26.458  27.239  1.00  0.00    -0.248 NA
ATOM     31  C   UNL A   1      46.163  24.321  26.362  1.00  0.00     0.031 C 
ATOM     32  C   UNL A   1      48.857  29.734  27.088  1.00  0.00     0.029 A 
ATOM     33  C   UNL A   1      47.918  28.712  27.142  1.00  0.00     0.049 A 
ATOM     34  H   UNL A   1      45.962  28.759  27.924  1.00  0.00     0.167 HD
ATOM     35  C   UNL A   1      47.094  26.391  26.735  1.00  0.00     0.074 A 
ATOM     36  C   UNL A   1      47.272  25.037  26.242  1.00  0.00     0.031 C 
ATOM     37  C   UNL A   1      48.046  27.355  26.671  1.00  0.00     0.037 A 
BRANCH  24  38
ATOM     38  C   UNL A   1      46.457  32.816  29.154  1.00  0.00     0.058 A 
ATOM     39  C   UNL A   1      46.244  33.913  28.305  1.00  0.00     0.135 A 
ATOM     40  C   UNL A   1      47.076  33.057  30.391  1.00  0.00     0.135 A 
ATOM     41  F   UNL A   1      45.692  33.734  27.093  1.00  0.00    -0.206 F 
ATOM     42  C   UNL A   1      46.649  35.197  28.660  1.00  0.00     0.059 A 
ATOM     43  C   UNL A   1      47.466  34.336  30.777  1.00  0.00     0.059 A 
ATOM     44  F   UNL A   1      47.321  32.040  31.233  1.00  0.00    -0.206 F 
ATOM     45  C   UNL A   1      47.260  35.398  29.898  1.00  0.00     0.060 A 
BRANCH  45  46
ATOM     46  S   UNL A   1      47.783  37.068  30.342  1.00  0.00     0.124 S 
ATOM     47  O   UNL A   1      48.460  36.834  31.614  1.00  0.00    -0.237 OA
ATOM     48  O   UNL A   1      48.645  37.430  29.222  1.00  0.00    -0.237 OA
ATOM     49  O   UNL A   1      46.527  37.807  30.427  1.00  0.00    -0.744 OA
ENDBRANCH  45  46
ENDBRANCH  24  38
BRANCH  25  50
ATOM     50  C   UNL A   1      43.442  23.401  27.064  1.00  0.00     0.058 A 
ATOM     51  C   UNL A   1      43.366  22.397  28.040  1.00  0.00     0.135 A 
ATOM     52  C   UNL A   1      43.098  23.048  25.746  1.00  0.00     0.135 A 
ATOM     53  F   UNL A   1      43.686  22.674  29.314  1.00  0.00    -0.206 F 
ATOM     54  C   UNL A   1      42.998  21.091  27.719  1.00  0.00     0.059 A 
ATOM     55  C   UNL A   1      42.696  21.762  25.408  1.00  0.00     0.059 A 
ATOM     56  F   UNL A   1      43.139  23.968  24.770  1.00  0.00    -0.206 F 
ATOM     57  C   UNL A   1      42.669  20.783  26.397  1.00  0.00     0.060 A 
BRANCH  57  58
ATOM     58  S   UNL A   1      42.192  19.090  25.985  1.00  0.00     0.124 S 
ATOM     59  O   UNL A   1      40.760  19.238  25.754  1.00  0.00    -0.237 OA
ATOM     60  O   UNL A   1      43.007  18.818  24.805  1.00  0.00    -0.237 OA
ATOM     61  O   UNL A   1      42.564  18.337  27.180  1.00  0.00    -0.744 OA
ENDBRANCH  57  58
ENDBRANCH  25  50
BRANCH  37  62
ATOM     62  C   UNL A   1      49.364  26.959  26.072  1.00  0.00     0.058 A 
ATOM     63  C   UNL A   1      49.600  27.049  24.691  1.00  0.00     0.135 A 
ATOM     64  C   UNL A   1      50.411  26.521  26.896  1.00  0.00     0.135 A 
ATOM     65  F   UNL A   1      48.625  27.458  23.864  1.00  0.00    -0.206 F 
ATOM     66  C   UNL A   1      50.823  26.683  24.144  1.00  0.00     0.059 A 
ATOM     67  C   UNL A   1      51.653  26.182  26.373  1.00  0.00     0.059 A 
ATOM     68  F   UNL A   1      50.236  26.432  28.224  1.00  0.00    -0.206 F 
ATOM     69  C   UNL A   1      51.843  26.251  24.994  1.00  0.00     0.060 A 
BRANCH  69  70
ATOM     70  S   UNL A   1      53.433  25.800  24.272  1.00  0.00     0.124 S 
ATOM     71  O   UNL A   1      54.330  26.746  24.929  1.00  0.00    -0.237 OA
ATOM     72  O   UNL A   1      53.575  24.405  24.677  1.00  0.00    -0.237 OA
ATOM     73  O   UNL A   1      53.230  26.014  22.843  1.00  0.00    -0.744 OA
ENDBRANCH  69  70
ENDBRANCH  37  62
ENDBRANCH  11  12
ENDBRANCH   4   6
ENDBRANCH   3   4
ENDBRANCH   2   3
ENDBRANCH   1   2
BRANCH   1  74
ATOM     74  O   UNL A   1      36.459  32.792  34.908  1.00  0.00    -0.374 OA
BRANCH  74  75
ATOM     75  C   UNL A   1      36.486  34.180  34.571  1.00  0.00     0.202 C 
BRANCH  75  76
ATOM     76  C   UNL A   1      36.551  34.317  33.047  1.00  0.00     0.261 C 
BRANCH  76  77
ATOM     77  O   UNL A   1      35.232  34.625  32.560  1.00  0.00    -0.459 OA
BRANCH  77  78
ATOM     78  C   UNL A   1      34.626  33.628  31.844  1.00  0.00     0.349 C 
ATOM     79  O   UNL A   1      33.986  32.710  32.340  1.00  0.00    -0.245 OA
BRANCH  78  80
ATOM     80  C   UNL A   1      34.792  33.906  30.436  1.00  0.00     0.127 A 
ATOM     81  S   UNL A   1      36.054  33.117  29.578  1.00  0.00    -0.136 S 
ATOM     82  C   UNL A   1      34.059  34.716  29.588  1.00  0.00     0.050 A 
ATOM     83  C   UNL A   1      35.496  33.706  28.074  1.00  0.00     0.067 A 
ATOM     84  C   UNL A   1      34.447  34.586  28.224  1.00  0.00     0.029 A 
BRANCH  82  85
ATOM     85  S   UNL A   1      32.761  35.762  30.102  1.00  0.00    -0.020 S 
ATOM     86  O   UNL A   1      33.745  36.804  30.823  1.00  0.00    -0.768 OA
ATOM     87  O   UNL A   1      32.212  36.407  28.867  1.00  0.00    -0.269 OA
ENDBRANCH  82  85
ENDBRANCH  78  80
ENDBRANCH  77  78
ENDBRANCH  76  77
ENDBRANCH  75  76
ENDBRANCH  74  75
ENDBRANCH   1  74
TORSDOF 18
ENDMDL
