MODEL 1
REMARK VINA RESULT:     -10.2      0.000      0.000
REMARK SMILES CCC[C@@]1(C(=O)OCCOCCOC(=O)c2ccc(-c3c4nc(c(-c5c(F)cc(S(=O)(=O)[O-])cc5F)c5ccc([nH]5)c(-c5c(F)cc(S(=O)(=O)[O-])cc5F)c5nc(c(-c6c(F)cc(S(=O)(=O)[O-])cc6F)c6ccc3[nH]6)C=C5)C=C4)cc2)CCN(C(=O)[C@@H]2CC[NH2+][C@@H]2C)C1
REMARK SMILES IDX 11 1 10 2 9 3 8 4 7 5 5 6 6 7 4 8 82 9 93 10 83 11 84 12
REMARK SMILES IDX 3 13 2 14 1 15 85 16 86 17 87 18 88 19 91 20 89 21 90 22
REMARK SMILES IDX 92 23 12 26 13 27 14 28 15 29 16 30 17 31 81 32 18 33 80 34
REMARK SMILES IDX 19 35 20 36 21 37 74 38 22 39 79 40 73 41 75 42 23 43 78 44
REMARK SMILES IDX 72 45 71 46 24 48 58 49 37 50 57 51 38 52 41 53 56 54 76 55
REMARK SMILES IDX 39 56 40 57 55 59 77 60 42 61 25 62 26 63 35 64 27 65 28 66
REMARK SMILES IDX 34 67 36 68 29 69 30 70 31 71 32 72 33 73 59 74 60 75 69 76
REMARK SMILES IDX 61 77 62 78 68 79 70 80 63 81 64 82 65 83 66 84 67 85 43 86
REMARK SMILES IDX 44 87 53 88 45 89 46 90 52 91 54 92 47 93 48 94 49 95 50 96
REMARK SMILES IDX 51 97
REMARK H PARENT 90 24 90 25 75 47 41 58
REMARK Flexibility Score: inf
ROOT
ATOM      1  C   UNL A   1      34.831  32.016  27.762  1.00  0.00     0.202 C 
ENDROOT
BRANCH   1   2
ATOM      2  O   UNL A   1      34.442  30.816  27.098  1.00  0.00    -0.374 OA
BRANCH   2   3
ATOM      3  C   UNL A   1      33.143  30.316  27.423  1.00  0.00     0.202 C 
BRANCH   3   4
ATOM      4  C   UNL A   1      32.105  30.391  26.299  1.00  0.00     0.261 C 
BRANCH   4   5
ATOM      5  O   UNL A   1      31.635  29.087  25.901  1.00  0.00    -0.463 OA
BRANCH   5   6
ATOM      6  C   UNL A   1      32.280  28.490  24.867  1.00  0.00     0.314 C 
ATOM      7  O   UNL A   1      33.203  29.003  24.243  1.00  0.00    -0.252 OA
BRANCH   6   8
ATOM      8  C   UNL A   1      31.693  27.126  24.488  1.00  0.00     0.087 C 
ATOM      9  C   UNL A   1      31.433  26.426  25.850  1.00  0.00     0.042 C 
ATOM     10  C   UNL A   1      32.685  26.138  23.822  1.00  0.00     0.138 C 
ATOM     11  C   UNL A   1      32.763  25.792  26.183  1.00  0.00     0.120 C 
ATOM     12  N   UNL A   1      33.178  25.271  24.902  1.00  0.00    -0.341 N 
BRANCH   8  13
ATOM     13  C   UNL A   1      30.330  27.223  23.739  1.00  0.00     0.020 C 
BRANCH  13  14
ATOM     14  C   UNL A   1      30.115  28.312  22.685  1.00  0.00    -0.002 C 
ATOM     15  C   UNL A   1      29.101  29.369  23.076  1.00  0.00     0.004 C 
ENDBRANCH  13  14
ENDBRANCH   8  13
BRANCH  12  16
ATOM     16  C   UNL A   1      33.846  24.102  24.631  1.00  0.00     0.231 C 
ATOM     17  O   UNL A   1      35.025  24.140  24.261  1.00  0.00    -0.274 OA
BRANCH  16  18
ATOM     18  C   UNL A   1      33.162  22.732  24.746  1.00  0.00     0.142 C 
ATOM     19  C   UNL A   1      31.707  22.673  24.291  1.00  0.00     0.081 C 
ATOM     20  C   UNL A   1      33.200  22.006  26.089  1.00  0.00     0.192 C 
ATOM     21  C   UNL A   1      30.912  22.129  25.471  1.00  0.00     0.261 C 
ATOM     22  N   UNL A   1      31.823  22.020  26.602  1.00  0.00    -0.343 N 
ATOM     23  C   UNL A   1      34.167  22.530  27.140  1.00  0.00     0.076 C 
ATOM     24  H   UNL A   1      31.638  21.157  27.114  1.00  0.00     0.346 HD
ATOM     25  H   UNL A   1      31.693  22.809  27.235  1.00  0.00     0.346 HD
ENDBRANCH  16  18
ENDBRANCH  12  16
ENDBRANCH   6   8
ENDBRANCH   5   6
ENDBRANCH   4   5
ENDBRANCH   3   4
ENDBRANCH   2   3
ENDBRANCH   1   2
BRANCH   1  26
ATOM     26  C   UNL A   1      34.823  31.975  29.291  1.00  0.00     0.261 C 
BRANCH  26  27
ATOM     27  O   UNL A   1      35.814  31.068  29.784  1.00  0.00    -0.460 OA
BRANCH  27  28
ATOM     28  C   UNL A   1      36.986  31.664  30.088  1.00  0.00     0.338 C 
ATOM     29  O   UNL A   1      37.149  32.695  30.733  1.00  0.00    -0.246 OA
BRANCH  28  30
ATOM     30  C   UNL A   1      38.101  30.803  29.673  1.00  0.00     0.060 A 
ATOM     31  C   UNL A   1      39.072  30.523  30.641  1.00  0.00     0.016 A 
ATOM     32  C   UNL A   1      38.225  30.323  28.365  1.00  0.00     0.016 A 
ATOM     33  C   UNL A   1      40.222  29.839  30.281  1.00  0.00     0.010 A 
ATOM     34  C   UNL A   1      39.381  29.632  28.005  1.00  0.00     0.010 A 
ATOM     35  C   UNL A   1      40.403  29.442  28.950  1.00  0.00    -0.014 A 
BRANCH  35  36
ATOM     36  C   UNL A   1      41.746  29.003  28.524  1.00  0.00     0.031 A 
ATOM     37  C   UNL A   1      42.850  30.023  28.488  1.00  0.00     0.074 A 
ATOM     38  C   UNL A   1      41.971  27.710  28.243  1.00  0.00     0.049 A 
ATOM     39  N   UNL A   1      44.109  29.869  28.174  1.00  0.00    -0.248 NA
ATOM     40  C   UNL A   1      42.487  31.403  28.853  1.00  0.00     0.031 C 
ATOM     41  C   UNL A   1      40.958  26.654  28.282  1.00  0.00     0.029 A 
ATOM     42  N   UNL A   1      43.118  27.064  27.873  1.00  0.00    -0.354 N 
ATOM     43  C   UNL A   1      44.682  31.131  28.294  1.00  0.00     0.074 A 
ATOM     44  C   UNL A   1      43.631  32.045  28.676  1.00  0.00     0.031 C 
ATOM     45  C   UNL A   1      41.532  25.487  27.941  1.00  0.00     0.029 A 
ATOM     46  C   UNL A   1      42.940  25.723  27.636  1.00  0.00     0.049 A 
ATOM     47  H   UNL A   1      43.988  27.517  27.785  1.00  0.00     0.167 HD
ATOM     48  C   UNL A   1      45.975  31.485  28.107  1.00  0.00     0.037 A 
ATOM     49  C   UNL A   1      43.820  24.800  27.202  1.00  0.00     0.037 A 
ATOM     50  C   UNL A   1      47.002  30.548  27.730  1.00  0.00     0.049 A 
ATOM     51  C   UNL A   1      45.245  25.222  26.970  1.00  0.00     0.074 A 
ATOM     52  C   UNL A   1      48.351  30.778  27.536  1.00  0.00     0.029 A 
ATOM     53  N   UNL A   1      46.783  29.199  27.483  1.00  0.00    -0.354 N 
ATOM     54  N   UNL A   1      45.786  26.411  27.118  1.00  0.00    -0.248 NA
ATOM     55  C   UNL A   1      46.182  24.185  26.525  1.00  0.00     0.031 C 
ATOM     56  C   UNL A   1      48.938  29.578  27.120  1.00  0.00     0.029 A 
ATOM     57  C   UNL A   1      47.968  28.587  27.111  1.00  0.00     0.049 A 
ATOM     58  H   UNL A   1      45.914  28.744  27.561  1.00  0.00     0.167 HD
ATOM     59  C   UNL A   1      47.131  26.261  26.802  1.00  0.00     0.074 A 
ATOM     60  C   UNL A   1      47.322  24.861  26.472  1.00  0.00     0.031 C 
ATOM     61  C   UNL A   1      48.120  27.189  26.787  1.00  0.00     0.037 A 
BRANCH  48  62
ATOM     62  C   UNL A   1      46.337  32.936  28.272  1.00  0.00     0.058 A 
ATOM     63  C   UNL A   1      46.272  33.848  27.206  1.00  0.00     0.135 A 
ATOM     64  C   UNL A   1      46.743  33.427  29.524  1.00  0.00     0.135 A 
ATOM     65  F   UNL A   1      45.912  33.433  25.981  1.00  0.00    -0.206 F 
ATOM     66  C   UNL A   1      46.621  35.186  27.369  1.00  0.00     0.059 A 
ATOM     67  C   UNL A   1      47.069  34.766  29.717  1.00  0.00     0.059 A 
ATOM     68  F   UNL A   1      46.831  32.599  30.578  1.00  0.00    -0.206 F 
ATOM     69  C   UNL A   1      47.018  35.636  28.629  1.00  0.00     0.060 A 
BRANCH  69  70
ATOM     70  S   UNL A   1      47.463  37.376  28.825  1.00  0.00     0.124 S 
ATOM     71  O   UNL A   1      46.220  38.040  28.443  1.00  0.00    -0.237 OA
ATOM     72  O   UNL A   1      47.812  37.451  30.240  1.00  0.00    -0.237 OA
ATOM     73  O   UNL A   1      48.577  37.549  27.897  1.00  0.00    -0.744 OA
ENDBRANCH  69  70
ENDBRANCH  48  62
BRANCH  49  74
ATOM     74  C   UNL A   1      43.365  23.405  26.961  1.00  0.00     0.058 A 
ATOM     75  C   UNL A   1      43.191  22.905  25.663  1.00  0.00     0.135 A 
ATOM     76  C   UNL A   1      43.133  22.527  28.034  1.00  0.00     0.135 A 
ATOM     77  F   UNL A   1      43.395  23.704  24.604  1.00  0.00    -0.206 F 
ATOM     78  C   UNL A   1      42.797  21.590  25.435  1.00  0.00     0.059 A 
ATOM     79  C   UNL A   1      42.764  21.201  27.831  1.00  0.00     0.059 A 
ATOM     80  F   UNL A   1      43.301  22.949  29.297  1.00  0.00    -0.206 F 
ATOM     81  C   UNL A   1      42.591  20.743  26.527  1.00  0.00     0.060 A 
BRANCH  81  82
ATOM     82  S   UNL A   1      42.143  19.021  26.218  1.00  0.00     0.124 S 
ATOM     83  O   UNL A   1      42.416  18.409  27.513  1.00  0.00    -0.237 OA
ATOM     84  O   UNL A   1      40.736  19.132  25.847  1.00  0.00    -0.237 OA
ATOM     85  O   UNL A   1      43.040  18.630  25.134  1.00  0.00    -0.744 OA
ENDBRANCH  81  82
ENDBRANCH  49  74
BRANCH  61  86
ATOM     86  C   UNL A   1      49.498  26.715  26.426  1.00  0.00     0.058 A 
ATOM     87  C   UNL A   1      50.329  26.083  27.364  1.00  0.00     0.135 A 
ATOM     88  C   UNL A   1      49.969  26.842  25.108  1.00  0.00     0.135 A 
ATOM     89  F   UNL A   1      49.927  25.942  28.636  1.00  0.00    -0.206 F 
ATOM     90  C   UNL A   1      51.592  25.616  27.014  1.00  0.00     0.059 A 
ATOM     91  C   UNL A   1      51.215  26.356  24.730  1.00  0.00     0.059 A 
ATOM     92  F   UNL A   1      49.206  27.427  24.171  1.00  0.00    -0.206 F 
ATOM     93  C   UNL A   1      52.024  25.755  25.693  1.00  0.00     0.060 A 
BRANCH  93  94
ATOM     94  S   UNL A   1      53.652  25.117  25.246  1.00  0.00     0.124 S 
ATOM     95  O   UNL A   1      53.416  23.677  25.267  1.00  0.00    -0.237 OA
ATOM     96  O   UNL A   1      53.866  25.706  23.927  1.00  0.00    -0.237 OA
ATOM     97  O   UNL A   1      54.520  25.628  26.302  1.00  0.00    -0.744 OA
ENDBRANCH  93  94
ENDBRANCH  61  86
ENDBRANCH  35  36
ENDBRANCH  28  30
ENDBRANCH  27  28
ENDBRANCH  26  27
ENDBRANCH   1  26
TORSDOF 21
ENDMDL
MODEL 2
REMARK VINA RESULT:     -10.1      6.417     12.130
REMARK SMILES CCC[C@@]1(C(=O)OCCOCCOC(=O)c2ccc(-c3c4nc(c(-c5c(F)cc(S(=O)(=O)[O-])cc5F)c5ccc([nH]5)c(-c5c(F)cc(S(=O)(=O)[O-])cc5F)c5nc(c(-c6c(F)cc(S(=O)(=O)[O-])cc6F)c6ccc3[nH]6)C=C5)C=C4)cc2)CCN(C(=O)[C@@H]2CC[NH2+][C@@H]2C)C1
REMARK SMILES IDX 11 1 10 2 9 3 8 4 7 5 5 6 6 7 4 8 82 9 93 10 83 11 84 12
REMARK SMILES IDX 3 13 2 14 1 15 85 16 86 17 87 18 88 19 91 20 89 21 90 22
REMARK SMILES IDX 92 23 12 26 13 27 14 28 15 29 16 30 17 31 81 32 18 33 80 34
REMARK SMILES IDX 19 35 20 36 21 37 74 38 22 39 79 40 73 41 75 42 23 43 78 44
REMARK SMILES IDX 72 45 71 46 24 48 58 49 37 50 57 51 38 52 41 53 56 54 76 55
REMARK SMILES IDX 39 56 40 57 55 59 77 60 42 61 25 62 26 63 35 64 27 65 28 66
REMARK SMILES IDX 34 67 36 68 29 69 30 70 31 71 32 72 33 73 59 74 60 75 69 76
REMARK SMILES IDX 61 77 62 78 68 79 70 80 63 81 64 82 65 83 66 84 67 85 43 86
REMARK SMILES IDX 44 87 53 88 45 89 46 90 52 91 54 92 47 93 48 94 49 95 50 96
REMARK SMILES IDX 51 97
REMARK H PARENT 90 24 90 25 75 47 41 58
REMARK Flexibility Score: inf
ROOT
ATOM      1  C   UNL A   1      39.571  22.192  26.755  1.00  0.00     0.202 C 
ENDROOT
BRANCH   1   2
ATOM      2  O   UNL A   1      39.202  21.416  25.618  1.00  0.00    -0.374 OA
BRANCH   2   3
ATOM      3  C   UNL A   1      37.865  21.597  25.145  1.00  0.00     0.202 C 
BRANCH   3   4
ATOM      4  C   UNL A   1      37.093  22.759  25.777  1.00  0.00     0.261 C 
BRANCH   4   5
ATOM      5  O   UNL A   1      36.672  23.732  24.798  1.00  0.00    -0.463 OA
BRANCH   5   6
ATOM      6  C   UNL A   1      35.971  23.269  23.733  1.00  0.00     0.314 C 
ATOM      7  O   UNL A   1      36.477  22.933  22.667  1.00  0.00    -0.252 OA
BRANCH   6   8
ATOM      8  C   UNL A   1      34.454  23.274  23.953  1.00  0.00     0.087 C 
ATOM      9  C   UNL A   1      33.875  23.876  22.644  1.00  0.00     0.042 C 
ATOM     10  C   UNL A   1      33.940  24.286  25.009  1.00  0.00     0.138 C 
ATOM     11  C   UNL A   1      33.942  25.367  22.880  1.00  0.00     0.120 C 
ATOM     12  N   UNL A   1      33.514  25.475  24.255  1.00  0.00    -0.341 N 
BRANCH   8  13
ATOM     13  C   UNL A   1      33.846  21.849  24.125  1.00  0.00     0.020 C 
BRANCH  13  14
ATOM     14  C   UNL A   1      33.723  21.237  25.523  1.00  0.00    -0.002 C 
ATOM     15  C   UNL A   1      33.324  19.774  25.533  1.00  0.00     0.004 C 
ENDBRANCH  13  14
ENDBRANCH   8  13
BRANCH  12  16
ATOM     16  C   UNL A   1      32.742  26.450  24.835  1.00  0.00     0.231 C 
ATOM     17  O   UNL A   1      31.535  26.250  25.020  1.00  0.00    -0.274 OA
BRANCH  16  18
ATOM     18  C   UNL A   1      33.324  27.811  25.241  1.00  0.00     0.142 C 
ATOM     19  C   UNL A   1      33.017  28.271  26.663  1.00  0.00     0.081 C 
ATOM     20  C   UNL A   1      33.045  29.021  24.352  1.00  0.00     0.192 C 
ATOM     21  C   UNL A   1      32.355  29.638  26.538  1.00  0.00     0.261 C 
ATOM     22  N   UNL A   1      32.148  29.897  25.119  1.00  0.00    -0.343 N 
ATOM     23  C   UNL A   1      32.474  28.754  22.966  1.00  0.00     0.076 C 
ATOM     24  H   UNL A   1      32.360  30.873  24.911  1.00  0.00     0.346 HD
ATOM     25  H   UNL A   1      31.177  29.712  24.867  1.00  0.00     0.346 HD
ENDBRANCH  16  18
ENDBRANCH  12  16
ENDBRANCH   6   8
ENDBRANCH   5   6
ENDBRANCH   4   5
ENDBRANCH   3   4
ENDBRANCH   2   3
ENDBRANCH   1   2
BRANCH   1  26
ATOM     26  C   UNL A   1      40.627  23.274  26.522  1.00  0.00     0.261 C 
BRANCH  26  27
ATOM     27  O   UNL A   1      40.014  24.545  26.285  1.00  0.00    -0.460 OA
BRANCH  27  28
ATOM     28  C   UNL A   1      40.899  25.556  26.161  1.00  0.00     0.338 C 
ATOM     29  O   UNL A   1      41.429  25.954  25.129  1.00  0.00    -0.246 OA
BRANCH  28  30
ATOM     30  C   UNL A   1      41.033  26.257  27.444  1.00  0.00     0.060 A 
ATOM     31  C   UNL A   1      39.997  26.079  28.368  1.00  0.00     0.016 A 
ATOM     32  C   UNL A   1      42.110  27.105  27.721  1.00  0.00     0.016 A 
ATOM     33  C   UNL A   1      39.985  26.822  29.537  1.00  0.00     0.010 A 
ATOM     34  C   UNL A   1      42.099  27.849  28.900  1.00  0.00     0.010 A 
ATOM     35  C   UNL A   1      41.007  27.749  29.778  1.00  0.00    -0.014 A 
BRANCH  35  36
ATOM     36  C   UNL A   1      40.818  28.739  30.856  1.00  0.00     0.031 A 
ATOM     37  C   UNL A   1      41.728  28.675  32.050  1.00  0.00     0.074 A 
ATOM     38  C   UNL A   1      39.894  29.704  30.724  1.00  0.00     0.049 A 
ATOM     39  N   UNL A   1      41.769  29.448  33.102  1.00  0.00    -0.248 NA
ATOM     40  C   UNL A   1      42.727  27.592  32.062  1.00  0.00     0.031 C 
ATOM     41  C   UNL A   1      38.990  29.851  29.582  1.00  0.00     0.029 A 
ATOM     42  N   UNL A   1      39.563  30.742  31.552  1.00  0.00    -0.354 N 
ATOM     43  C   UNL A   1      42.787  28.940  33.903  1.00  0.00     0.074 A 
ATOM     44  C   UNL A   1      43.316  27.774  33.234  1.00  0.00     0.031 C 
ATOM     45  C   UNL A   1      38.200  30.918  29.787  1.00  0.00     0.029 A 
ATOM     46  C   UNL A   1      38.526  31.508  31.083  1.00  0.00     0.049 A 
ATOM     47  H   UNL A   1      40.025  30.921  32.403  1.00  0.00     0.167 HD
ATOM     48  C   UNL A   1      43.238  29.415  35.087  1.00  0.00     0.037 A 
ATOM     49  C   UNL A   1      37.902  32.558  31.652  1.00  0.00     0.037 A 
ATOM     50  C   UNL A   1      42.692  30.583  35.727  1.00  0.00     0.049 A 
ATOM     51  C   UNL A   1      38.400  33.050  32.984  1.00  0.00     0.074 A 
ATOM     52  C   UNL A   1      43.080  31.179  36.912  1.00  0.00     0.029 A 
ATOM     53  N   UNL A   1      41.630  31.328  35.230  1.00  0.00    -0.354 N 
ATOM     54  N   UNL A   1      39.385  32.583  33.717  1.00  0.00    -0.248 NA
ATOM     55  C   UNL A   1      37.716  34.212  33.562  1.00  0.00     0.031 C 
ATOM     56  C   UNL A   1      42.217  32.253  37.159  1.00  0.00     0.029 A 
ATOM     57  C   UNL A   1      41.330  32.363  36.098  1.00  0.00     0.049 A 
ATOM     58  H   UNL A   1      41.160  31.147  34.384  1.00  0.00     0.167 HD
ATOM     59  C   UNL A   1      39.451  33.406  34.836  1.00  0.00     0.074 A 
ATOM     60  C   UNL A   1      38.417  34.409  34.670  1.00  0.00     0.031 C 
ATOM     61  C   UNL A   1      40.289  33.343  35.901  1.00  0.00     0.037 A 
BRANCH  48  62
ATOM     62  C   UNL A   1      44.343  28.657  35.772  1.00  0.00     0.058 A 
ATOM     63  C   UNL A   1      45.699  28.940  35.539  1.00  0.00     0.135 A 
ATOM     64  C   UNL A   1      44.039  27.637  36.690  1.00  0.00     0.135 A 
ATOM     65  F   UNL A   1      46.050  29.888  34.656  1.00  0.00    -0.206 F 
ATOM     66  C   UNL A   1      46.712  28.223  36.170  1.00  0.00     0.059 A 
ATOM     67  C   UNL A   1      45.036  26.927  37.353  1.00  0.00     0.059 A 
ATOM     68  F   UNL A   1      42.761  27.318  36.947  1.00  0.00    -0.206 F 
ATOM     69  C   UNL A   1      46.370  27.217  37.076  1.00  0.00     0.060 A 
BRANCH  69  70
ATOM     70  S   UNL A   1      47.697  26.300  37.890  1.00  0.00     0.124 S 
ATOM     71  O   UNL A   1      47.009  25.069  38.270  1.00  0.00    -0.237 OA
ATOM     72  O   UNL A   1      48.685  26.171  36.825  1.00  0.00    -0.237 OA
ATOM     73  O   UNL A   1      48.082  27.170  38.998  1.00  0.00    -0.744 OA
ENDBRANCH  69  70
ENDBRANCH  48  62
BRANCH  49  74
ATOM     74  C   UNL A   1      36.748  33.193  30.961  1.00  0.00     0.058 A 
ATOM     75  C   UNL A   1      35.437  33.036  31.431  1.00  0.00     0.135 A 
ATOM     76  C   UNL A   1      36.944  34.008  29.833  1.00  0.00     0.135 A 
ATOM     77  F   UNL A   1      35.196  32.264  32.502  1.00  0.00    -0.206 F 
ATOM     78  C   UNL A   1      34.360  33.656  30.805  1.00  0.00     0.059 A 
ATOM     79  C   UNL A   1      35.886  34.659  29.206  1.00  0.00     0.059 A 
ATOM     80  F   UNL A   1      38.181  34.205  29.351  1.00  0.00    -0.206 F 
ATOM     81  C   UNL A   1      34.595  34.471  29.696  1.00  0.00     0.060 A 
BRANCH  81  82
ATOM     82  S   UNL A   1      33.198  35.323  28.931  1.00  0.00     0.124 S 
ATOM     83  O   UNL A   1      33.862  36.435  28.262  1.00  0.00    -0.237 OA
ATOM     84  O   UNL A   1      32.649  34.289  28.060  1.00  0.00    -0.237 OA
ATOM     85  O   UNL A   1      32.360  35.682  30.071  1.00  0.00    -0.744 OA
ENDBRANCH  81  82
ENDBRANCH  49  74
BRANCH  61  86
ATOM     86  C   UNL A   1      40.136  34.403  36.955  1.00  0.00     0.058 A 
ATOM     87  C   UNL A   1      40.895  35.583  36.929  1.00  0.00     0.135 A 
ATOM     88  C   UNL A   1      39.175  34.260  37.969  1.00  0.00     0.135 A 
ATOM     89  F   UNL A   1      41.830  35.765  35.983  1.00  0.00    -0.206 F 
ATOM     90  C   UNL A   1      40.725  36.575  37.888  1.00  0.00     0.059 A 
ATOM     91  C   UNL A   1      38.967  35.252  38.921  1.00  0.00     0.059 A 
ATOM     92  F   UNL A   1      38.414  33.155  38.029  1.00  0.00    -0.206 F 
ATOM     93  C   UNL A   1      39.756  36.400  38.879  1.00  0.00     0.060 A 
BRANCH  93  94
ATOM     94  S   UNL A   1      39.524  37.708  40.100  1.00  0.00     0.124 S 
ATOM     95  O   UNL A   1      38.205  38.217  39.736  1.00  0.00    -0.237 OA
ATOM     96  O   UNL A   1      39.595  36.975  41.360  1.00  0.00    -0.237 OA
ATOM     97  O   UNL A   1      40.639  38.614  39.845  1.00  0.00    -0.744 OA
ENDBRANCH  93  94
ENDBRANCH  61  86
ENDBRANCH  35  36
ENDBRANCH  28  30
ENDBRANCH  27  28
ENDBRANCH  26  27
ENDBRANCH   1  26
TORSDOF 21
ENDMDL
MODEL 3
REMARK VINA RESULT:     -10.1      4.749      5.973
REMARK SMILES CCC[C@@]1(C(=O)OCCOCCOC(=O)c2ccc(-c3c4nc(c(-c5c(F)cc(S(=O)(=O)[O-])cc5F)c5ccc([nH]5)c(-c5c(F)cc(S(=O)(=O)[O-])cc5F)c5nc(c(-c6c(F)cc(S(=O)(=O)[O-])cc6F)c6ccc3[nH]6)C=C5)C=C4)cc2)CCN(C(=O)[C@@H]2CC[NH2+][C@@H]2C)C1
REMARK SMILES IDX 11 1 10 2 9 3 8 4 7 5 5 6 6 7 4 8 82 9 93 10 83 11 84 12
REMARK SMILES IDX 3 13 2 14 1 15 85 16 86 17 87 18 88 19 91 20 89 21 90 22
REMARK SMILES IDX 92 23 12 26 13 27 14 28 15 29 16 30 17 31 81 32 18 33 80 34
REMARK SMILES IDX 19 35 20 36 21 37 74 38 22 39 79 40 73 41 75 42 23 43 78 44
REMARK SMILES IDX 72 45 71 46 24 48 58 49 37 50 57 51 38 52 41 53 56 54 76 55
REMARK SMILES IDX 39 56 40 57 55 59 77 60 42 61 25 62 26 63 35 64 27 65 28 66
REMARK SMILES IDX 34 67 36 68 29 69 30 70 31 71 32 72 33 73 59 74 60 75 69 76
REMARK SMILES IDX 61 77 62 78 68 79 70 80 63 81 64 82 65 83 66 84 67 85 43 86
REMARK SMILES IDX 44 87 53 88 45 89 46 90 52 91 54 92 47 93 48 94 49 95 50 96
REMARK SMILES IDX 51 97
REMARK H PARENT 90 24 90 25 75 47 41 58
REMARK Flexibility Score: inf
ROOT
ATOM      1  C   UNL A   1      31.819  29.140  26.866  1.00  0.00     0.202 C 
ENDROOT
BRANCH   1   2
ATOM      2  O   UNL A   1      31.333  28.111  26.008  1.00  0.00    -0.374 OA
BRANCH   2   3
ATOM      3  C   UNL A   1      31.581  26.770  26.439  1.00  0.00     0.202 C 
BRANCH   3   4
ATOM      4  C   UNL A   1      30.641  25.707  25.864  1.00  0.00     0.261 C 
BRANCH   4   5
ATOM      5  O   UNL A   1      31.352  24.686  25.133  1.00  0.00    -0.463 OA
BRANCH   5   6
ATOM      6  C   UNL A   1      31.313  24.760  23.779  1.00  0.00     0.314 C 
ATOM      7  O   UNL A   1      30.337  24.458  23.100  1.00  0.00    -0.252 OA
BRANCH   6   8
ATOM      8  C   UNL A   1      32.645  25.187  23.153  1.00  0.00     0.087 C 
ATOM      9  C   UNL A   1      32.718  24.393  21.821  1.00  0.00     0.042 C 
ATOM     10  C   UNL A   1      33.915  24.676  23.882  1.00  0.00     0.138 C 
ATOM     11  C   UNL A   1      33.306  23.063  22.232  1.00  0.00     0.120 C 
ATOM     12  N   UNL A   1      34.331  23.462  23.166  1.00  0.00    -0.341 N 
BRANCH   8  13
ATOM     13  C   UNL A   1      32.709  26.704  22.803  1.00  0.00     0.020 C 
BRANCH  13  14
ATOM     14  C   UNL A   1      33.700  27.613  23.534  1.00  0.00    -0.002 C 
ATOM     15  C   UNL A   1      34.466  28.559  22.629  1.00  0.00     0.004 C 
ENDBRANCH  13  14
ENDBRANCH   8  13
BRANCH  12  16
ATOM     16  C   UNL A   1      35.576  22.912  23.355  1.00  0.00     0.231 C 
ATOM     17  O   UNL A   1      36.511  23.242  22.616  1.00  0.00    -0.274 OA
BRANCH  16  18
ATOM     18  C   UNL A   1      35.843  21.867  24.446  1.00  0.00     0.142 C 
ATOM     19  C   UNL A   1      34.630  21.074  24.923  1.00  0.00     0.081 C 
ATOM     20  C   UNL A   1      36.568  22.305  25.717  1.00  0.00     0.192 C 
ATOM     21  C   UNL A   1      34.556  21.269  26.432  1.00  0.00     0.261 C 
ATOM     22  N   UNL A   1      35.576  22.243  26.799  1.00  0.00    -0.343 N 
ATOM     23  C   UNL A   1      37.253  23.664  25.698  1.00  0.00     0.076 C 
ATOM     24  H   UNL A   1      36.030  21.957  27.667  1.00  0.00     0.346 HD
ATOM     25  H   UNL A   1      35.151  23.160  26.939  1.00  0.00     0.346 HD
ENDBRANCH  16  18
ENDBRANCH  12  16
ENDBRANCH   6   8
ENDBRANCH   5   6
ENDBRANCH   4   5
ENDBRANCH   3   4
ENDBRANCH   2   3
ENDBRANCH   1   2
BRANCH   1  26
ATOM     26  C   UNL A   1      33.315  29.107  27.180  1.00  0.00     0.261 C 
BRANCH  26  27
ATOM     27  O   UNL A   1      33.950  30.324  26.775  1.00  0.00    -0.460 OA
BRANCH  27  28
ATOM     28  C   UNL A   1      34.554  30.981  27.788  1.00  0.00     0.338 C 
ATOM     29  O   UNL A   1      34.103  31.920  28.435  1.00  0.00    -0.246 OA
BRANCH  28  30
ATOM     30  C   UNL A   1      35.804  30.299  28.143  1.00  0.00     0.060 A 
ATOM     31  C   UNL A   1      35.858  29.704  29.408  1.00  0.00     0.016 A 
ATOM     32  C   UNL A   1      36.913  30.284  27.290  1.00  0.00     0.016 A 
ATOM     33  C   UNL A   1      37.052  29.170  29.866  1.00  0.00     0.010 A 
ATOM     34  C   UNL A   1      38.113  29.744  27.750  1.00  0.00     0.010 A 
ATOM     35  C   UNL A   1      38.195  29.240  29.059  1.00  0.00    -0.014 A 
BRANCH  35  36
ATOM     36  C   UNL A   1      39.507  28.958  29.674  1.00  0.00     0.031 A 
ATOM     37  C   UNL A   1      39.935  29.790  30.850  1.00  0.00     0.074 A 
ATOM     38  C   UNL A   1      40.254  27.938  29.220  1.00  0.00     0.049 A 
ATOM     39  N   UNL A   1      41.025  29.711  31.566  1.00  0.00    -0.248 NA
ATOM     40  C   UNL A   1      39.012  30.855  31.277  1.00  0.00     0.031 C 
ATOM     41  C   UNL A   1      39.895  27.067  28.101  1.00  0.00     0.029 A 
ATOM     42  N   UNL A   1      41.464  27.462  29.644  1.00  0.00    -0.354 N 
ATOM     43  C   UNL A   1      40.923  30.720  32.518  1.00  0.00     0.074 A 
ATOM     44  C   UNL A   1      39.683  31.419  32.270  1.00  0.00     0.031 C 
ATOM     45  C   UNL A   1      40.872  26.162  27.922  1.00  0.00     0.029 A 
ATOM     46  C   UNL A   1      41.932  26.411  28.896  1.00  0.00     0.049 A 
ATOM     47  H   UNL A   1      41.953  27.838  30.412  1.00  0.00     0.167 HD
ATOM     48  C   UNL A   1      41.789  31.025  33.513  1.00  0.00     0.037 A 
ATOM     49  C   UNL A   1      43.097  25.741  28.983  1.00  0.00     0.037 A 
ATOM     50  C   UNL A   1      43.015  30.306  33.737  1.00  0.00     0.049 A 
ATOM     51  C   UNL A   1      44.059  26.117  30.077  1.00  0.00     0.074 A 
ATOM     52  C   UNL A   1      43.962  30.501  34.725  1.00  0.00     0.029 A 
ATOM     53  N   UNL A   1      43.466  29.254  32.950  1.00  0.00    -0.354 N 
ATOM     54  N   UNL A   1      43.939  27.051  30.993  1.00  0.00    -0.248 NA
ATOM     55  C   UNL A   1      45.306  25.349  30.160  1.00  0.00     0.031 C 
ATOM     56  C   UNL A   1      45.010  29.602  34.503  1.00  0.00     0.029 A 
ATOM     57  C   UNL A   1      44.691  28.806  33.413  1.00  0.00     0.049 A 
ATOM     58  H   UNL A   1      42.984  28.881  32.176  1.00  0.00     0.167 HD
ATOM     59  C   UNL A   1      45.086  26.971  31.774  1.00  0.00     0.074 A 
ATOM     60  C   UNL A   1      45.878  25.884  31.230  1.00  0.00     0.031 C 
ATOM     61  C   UNL A   1      45.453  27.721  32.843  1.00  0.00     0.037 A 
BRANCH  48  62
ATOM     62  C   UNL A   1      41.456  32.194  34.399  1.00  0.00     0.058 A 
ATOM     63  C   UNL A   1      41.925  33.491  34.133  1.00  0.00     0.135 A 
ATOM     64  C   UNL A   1      40.640  32.018  35.528  1.00  0.00     0.135 A 
ATOM     65  F   UNL A   1      42.728  33.717  33.080  1.00  0.00    -0.206 F 
ATOM     66  C   UNL A   1      41.621  34.563  34.967  1.00  0.00     0.059 A 
ATOM     67  C   UNL A   1      40.299  33.080  36.361  1.00  0.00     0.059 A 
ATOM     68  F   UNL A   1      40.167  30.799  35.837  1.00  0.00    -0.206 F 
ATOM     69  C   UNL A   1      40.806  34.347  36.080  1.00  0.00     0.060 A 
BRANCH  69  70
ATOM     70  S   UNL A   1      40.416  35.749  37.150  1.00  0.00     0.124 S 
ATOM     71  O   UNL A   1      41.737  36.101  37.663  1.00  0.00    -0.237 OA
ATOM     72  O   UNL A   1      39.825  36.701  36.215  1.00  0.00    -0.237 OA
ATOM     73  O   UNL A   1      39.493  35.183  38.130  1.00  0.00    -0.744 OA
ENDBRANCH  69  70
ENDBRANCH  48  62
BRANCH  49  74
ATOM     74  C   UNL A   1      43.403  24.663  28.005  1.00  0.00     0.058 A 
ATOM     75  C   UNL A   1      44.121  24.923  26.830  1.00  0.00     0.135 A 
ATOM     76  C   UNL A   1      43.012  23.336  28.251  1.00  0.00     0.135 A 
ATOM     77  F   UNL A   1      44.513  26.175  26.546  1.00  0.00    -0.206 F 
ATOM     78  C   UNL A   1      44.436  23.910  25.929  1.00  0.00     0.059 A 
ATOM     79  C   UNL A   1      43.338  22.301  27.379  1.00  0.00     0.059 A 
ATOM     80  F   UNL A   1      42.337  23.029  29.369  1.00  0.00    -0.206 F 
ATOM     81  C   UNL A   1      44.045  22.600  26.216  1.00  0.00     0.060 A 
BRANCH  81  82
ATOM     82  S   UNL A   1      44.516  21.282  25.073  1.00  0.00     0.124 S 
ATOM     83  O   UNL A   1      45.862  20.962  25.531  1.00  0.00    -0.237 OA
ATOM     84  O   UNL A   1      43.494  20.273  25.333  1.00  0.00    -0.237 OA
ATOM     85  O   UNL A   1      44.430  21.927  23.766  1.00  0.00    -0.744 OA
ENDBRANCH  81  82
ENDBRANCH  49  74
BRANCH  61  86
ATOM     86  C   UNL A   1      46.755  27.374  33.507  1.00  0.00     0.058 A 
ATOM     87  C   UNL A   1      46.830  26.409  34.523  1.00  0.00     0.135 A 
ATOM     88  C   UNL A   1      47.950  27.974  33.078  1.00  0.00     0.135 A 
ATOM     89  F   UNL A   1      45.715  25.812  34.971  1.00  0.00    -0.206 F 
ATOM     90  C   UNL A   1      48.043  26.069  35.111  1.00  0.00     0.059 A 
ATOM     91  C   UNL A   1      49.178  27.627  33.631  1.00  0.00     0.059 A 
ATOM     92  F   UNL A   1      47.933  28.894  32.100  1.00  0.00    -0.206 F 
ATOM     93  C   UNL A   1      49.212  26.683  34.655  1.00  0.00     0.060 A 
BRANCH  93  94
ATOM     94  S   UNL A   1      50.784  26.209  35.404  1.00  0.00     0.124 S 
ATOM     95  O   UNL A   1      50.673  24.754  35.422  1.00  0.00    -0.237 OA
ATOM     96  O   UNL A   1      51.756  26.761  34.465  1.00  0.00    -0.237 OA
ATOM     97  O   UNL A   1      50.747  26.858  36.711  1.00  0.00    -0.744 OA
ENDBRANCH  93  94
ENDBRANCH  61  86
ENDBRANCH  35  36
ENDBRANCH  28  30
ENDBRANCH  27  28
ENDBRANCH  26  27
ENDBRANCH   1  26
TORSDOF 21
ENDMDL
