MODEL 1
REMARK VINA RESULT:     -10.6      0.000      0.000
REMARK SMILES CC(C)(C)[N@H+](CCC(=O)Nc1ccccc1F)CC(=O)OCCOCCOC(=O)c1ccc(-c2c3nc(c(-c4c(F)cc(S(=O)(=O)[O-])cc4F)c4ccc([nH]4)c(-c4c(F)cc(S(=O)(=O)[O-])cc4F)c4nc(c(-c5c(F)cc(S(=O)(=O)[O-])cc5F)c5ccc2[nH]5)C=C4)C=C3)cc1
REMARK SMILES IDX 23 1 22 2 21 3 19 4 20 5 18 6 5 7 2 9 1 10 3 11 4 12 6 13
REMARK SMILES IDX 7 14 8 15 9 16 10 17 11 19 12 20 16 21 13 22 15 23 17 24
REMARK SMILES IDX 14 25 24 26 25 27 26 28 27 29 28 30 29 31 30 32 31 33 95 34
REMARK SMILES IDX 32 35 94 36 33 37 34 38 35 39 88 40 36 41 93 42 87 43 89 44
REMARK SMILES IDX 37 45 92 46 86 47 85 48 38 50 72 51 51 52 71 53 52 54 55 55
REMARK SMILES IDX 70 56 90 57 53 58 54 59 69 61 91 62 56 63 39 64 40 65 49 66
REMARK SMILES IDX 41 67 42 68 48 69 50 70 43 71 44 72 45 73 46 74 47 75 73 76
REMARK SMILES IDX 74 77 83 78 75 79 76 80 82 81 84 82 77 83 78 84 79 85 80 86
REMARK SMILES IDX 81 87 57 88 58 89 67 90 59 91 60 92 66 93 68 94 61 95 62 96
REMARK SMILES IDX 63 97 64 98 65 99
REMARK H PARENT 5 8 10 18 89 49 55 60
REMARK Flexibility Score: inf
ROOT
ATOM      1  C   UNL A   1      38.446  22.120  25.752  1.00  0.00     0.202 C 
ENDROOT
BRANCH   1   2
ATOM      2  C   UNL A   1      37.016  21.628  25.476  1.00  0.00     0.261 C 
BRANCH   2   3
ATOM      3  O   UNL A   1      36.038  22.184  26.362  1.00  0.00    -0.459 OA
BRANCH   3   4
ATOM      4  C   UNL A   1      34.833  21.554  26.346  1.00  0.00     0.361 C 
ATOM      5  O   UNL A   1      34.246  21.150  27.346  1.00  0.00    -0.245 OA
BRANCH   4   6
ATOM      6  C   UNL A   1      34.180  21.612  24.974  1.00  0.00     0.386 C 
BRANCH   6   7
ATOM      7  N   UNL A   1      33.219  22.712  24.762  1.00  0.00    -0.321 N 
ATOM      8  H   UNL A   1      32.474  22.362  24.160  1.00  0.00     0.349 HD
BRANCH   7   9
ATOM      9  C   UNL A   1      33.844  23.851  23.998  1.00  0.00     0.090 C 
ATOM     10  C   UNL A   1      34.424  24.980  24.884  1.00  0.00     0.078 C 
ATOM     11  C   UNL A   1      32.702  24.494  23.180  1.00  0.00     0.078 C 
ATOM     12  C   UNL A   1      34.974  23.440  23.019  1.00  0.00     0.078 C 
ENDBRANCH   7   9
BRANCH   7  13
ATOM     13  C   UNL A   1      32.516  23.108  26.003  1.00  0.00     0.273 C 
BRANCH  13  14
ATOM     14  C   UNL A   1      31.020  22.814  26.158  1.00  0.00     0.161 C 
BRANCH  14  15
ATOM     15  C   UNL A   1      29.909  23.661  26.772  1.00  0.00     0.230 C 
ATOM     16  O   UNL A   1      29.197  23.110  27.629  1.00  0.00    -0.275 OA
ATOM     17  N   UNL A   1      29.662  24.978  26.605  1.00  0.00    -0.323 N 
ATOM     18  H   UNL A   1      29.079  25.347  27.307  1.00  0.00     0.170 HD
BRANCH  17  19
ATOM     19  C   UNL A   1      30.045  25.935  25.665  1.00  0.00     0.077 A 
ATOM     20  C   UNL A   1      29.238  26.056  24.526  1.00  0.00     0.029 A 
ATOM     21  C   UNL A   1      31.151  26.767  25.796  1.00  0.00     0.146 A 
ATOM     22  C   UNL A   1      29.434  27.109  23.630  1.00  0.00     0.002 A 
ATOM     23  C   UNL A   1      31.364  27.811  24.896  1.00  0.00     0.041 A 
ATOM     24  F   UNL A   1      32.040  26.571  26.780  1.00  0.00    -0.205 F 
ATOM     25  C   UNL A   1      30.484  28.003  23.829  1.00  0.00     0.003 A 
ENDBRANCH  17  19
ENDBRANCH  14  15
ENDBRANCH  13  14
ENDBRANCH   7  13
ENDBRANCH   6   7
ENDBRANCH   4   6
ENDBRANCH   3   4
ENDBRANCH   2   3
ENDBRANCH   1   2
BRANCH   1  26
ATOM     26  O   UNL A   1      39.412  21.161  26.183  1.00  0.00    -0.374 OA
BRANCH  26  27
ATOM     27  C   UNL A   1      40.554  21.621  26.910  1.00  0.00     0.202 C 
BRANCH  27  28
ATOM     28  C   UNL A   1      41.587  22.467  26.162  1.00  0.00     0.261 C 
BRANCH  28  29
ATOM     29  O   UNL A   1      41.387  23.867  26.424  1.00  0.00    -0.460 OA
BRANCH  29  30
ATOM     30  C   UNL A   1      42.246  24.385  27.332  1.00  0.00     0.338 C 
ATOM     31  O   UNL A   1      43.401  24.047  27.519  1.00  0.00    -0.246 OA
BRANCH  30  32
ATOM     32  C   UNL A   1      41.652  25.577  27.959  1.00  0.00     0.060 A 
ATOM     33  C   UNL A   1      42.482  26.685  28.155  1.00  0.00     0.016 A 
ATOM     34  C   UNL A   1      40.366  25.547  28.498  1.00  0.00     0.016 A 
ATOM     35  C   UNL A   1      42.055  27.733  28.965  1.00  0.00     0.010 A 
ATOM     36  C   UNL A   1      39.930  26.609  29.298  1.00  0.00     0.010 A 
ATOM     37  C   UNL A   1      40.802  27.670  29.592  1.00  0.00    -0.014 A 
BRANCH  37  38
ATOM     38  C   UNL A   1      40.541  28.582  30.736  1.00  0.00     0.031 A 
ATOM     39  C   UNL A   1      41.461  28.515  31.930  1.00  0.00     0.074 A 
ATOM     40  C   UNL A   1      39.592  29.533  30.667  1.00  0.00     0.049 A 
ATOM     41  N   UNL A   1      41.503  29.283  32.987  1.00  0.00    -0.248 NA
ATOM     42  C   UNL A   1      42.473  27.444  31.929  1.00  0.00     0.031 C 
ATOM     43  C   UNL A   1      38.667  29.724  29.551  1.00  0.00     0.029 A 
ATOM     44  N   UNL A   1      39.268  30.533  31.549  1.00  0.00    -0.354 N 
ATOM     45  C   UNL A   1      42.549  28.800  33.765  1.00  0.00     0.074 A 
ATOM     46  C   UNL A   1      43.086  27.643  33.086  1.00  0.00     0.031 C 
ATOM     47  C   UNL A   1      37.893  30.794  29.805  1.00  0.00     0.029 A 
ATOM     48  C   UNL A   1      38.257  31.352  31.108  1.00  0.00     0.049 A 
ATOM     49  H   UNL A   1      39.717  30.652  32.417  1.00  0.00     0.167 HD
ATOM     50  C   UNL A   1      43.040  29.289  34.927  1.00  0.00     0.037 A 
ATOM     51  C   UNL A   1      37.694  32.434  31.685  1.00  0.00     0.037 A 
ATOM     52  C   UNL A   1      42.518  30.449  35.598  1.00  0.00     0.049 A 
ATOM     53  C   UNL A   1      38.213  32.921  33.013  1.00  0.00     0.074 A 
ATOM     54  C   UNL A   1      42.955  31.025  36.778  1.00  0.00     0.029 A 
ATOM     55  N   UNL A   1      41.449  31.206  35.151  1.00  0.00    -0.354 N 
ATOM     56  N   UNL A   1      39.213  32.461  33.727  1.00  0.00    -0.248 NA
ATOM     57  C   UNL A   1      37.529  34.076  33.614  1.00  0.00     0.031 C 
ATOM     58  C   UNL A   1      42.123  32.112  37.064  1.00  0.00     0.029 A 
ATOM     59  C   UNL A   1      41.196  32.234  36.042  1.00  0.00     0.049 A 
ATOM     60  H   UNL A   1      40.944  31.039  34.323  1.00  0.00     0.167 HD
ATOM     61  C   UNL A   1      39.289  33.280  34.849  1.00  0.00     0.074 A 
ATOM     62  C   UNL A   1      38.241  34.270  34.716  1.00  0.00     0.031 C 
ATOM     63  C   UNL A   1      40.150  33.215  35.895  1.00  0.00     0.037 A 
BRANCH  50  64
ATOM     64  C   UNL A   1      44.204  28.574  35.550  1.00  0.00     0.058 A 
ATOM     65  C   UNL A   1      45.518  28.894  35.179  1.00  0.00     0.135 A 
ATOM     66  C   UNL A   1      44.015  27.534  36.474  1.00  0.00     0.135 A 
ATOM     67  F   UNL A   1      45.753  29.888  34.309  1.00  0.00    -0.206 F 
ATOM     68  C   UNL A   1      46.607  28.196  35.691  1.00  0.00     0.059 A 
ATOM     69  C   UNL A   1      45.090  26.835  37.014  1.00  0.00     0.059 A 
ATOM     70  F   UNL A   1      42.778  27.208  36.880  1.00  0.00    -0.206 F 
ATOM     71  C   UNL A   1      46.383  27.165  36.605  1.00  0.00     0.060 A 
BRANCH  71  72
ATOM     72  S   UNL A   1      47.808  26.285  37.279  1.00  0.00     0.124 S 
ATOM     73  O   UNL A   1      48.920  26.988  36.649  1.00  0.00    -0.237 OA
ATOM     74  O   UNL A   1      47.650  26.500  38.715  1.00  0.00    -0.237 OA
ATOM     75  O   UNL A   1      47.597  24.910  36.834  1.00  0.00    -0.744 OA
ENDBRANCH  71  72
ENDBRANCH  50  64
BRANCH  51  76
ATOM     76  C   UNL A   1      36.581  33.141  30.999  1.00  0.00     0.058 A 
ATOM     77  C   UNL A   1      36.812  33.902  29.844  1.00  0.00     0.135 A 
ATOM     78  C   UNL A   1      35.268  33.079  31.491  1.00  0.00     0.135 A 
ATOM     79  F   UNL A   1      38.049  33.993  29.333  1.00  0.00    -0.206 F 
ATOM     80  C   UNL A   1      35.787  34.598  29.213  1.00  0.00     0.059 A 
ATOM     81  C   UNL A   1      34.221  33.749  30.864  1.00  0.00     0.059 A 
ATOM     82  F   UNL A   1      34.996  32.348  32.583  1.00  0.00    -0.206 F 
ATOM     83  C   UNL A   1      34.494  34.520  29.734  1.00  0.00     0.060 A 
BRANCH  83  84
ATOM     84  S   UNL A   1      33.176  35.431  28.901  1.00  0.00     0.124 S 
ATOM     85  O   UNL A   1      32.558  34.380  28.100  1.00  0.00    -0.237 OA
ATOM     86  O   UNL A   1      32.385  35.923  30.024  1.00  0.00    -0.237 OA
ATOM     87  O   UNL A   1      33.896  36.455  28.149  1.00  0.00    -0.744 OA
ENDBRANCH  83  84
ENDBRANCH  51  76
BRANCH  63  88
ATOM     88  C   UNL A   1      40.014  34.243  36.983  1.00  0.00     0.058 A 
ATOM     89  C   UNL A   1      39.165  34.015  38.077  1.00  0.00     0.135 A 
ATOM     90  C   UNL A   1      40.648  35.492  36.890  1.00  0.00     0.135 A 
ATOM     91  F   UNL A   1      38.529  32.841  38.208  1.00  0.00    -0.206 F 
ATOM     92  C   UNL A   1      38.933  34.999  39.033  1.00  0.00     0.059 A 
ATOM     93  C   UNL A   1      40.447  36.482  37.847  1.00  0.00     0.059 A 
ATOM     94  F   UNL A   1      41.475  35.755  35.866  1.00  0.00    -0.206 F 
ATOM     95  C   UNL A   1      39.573  36.232  38.905  1.00  0.00     0.060 A 
BRANCH  95  96
ATOM     96  S   UNL A   1      39.261  37.499  40.154  1.00  0.00     0.124 S 
ATOM     97  O   UNL A   1      40.575  38.123  40.280  1.00  0.00    -0.237 OA
ATOM     98  O   UNL A   1      38.230  38.313  39.521  1.00  0.00    -0.237 OA
ATOM     99  O   UNL A   1      38.818  36.729  41.313  1.00  0.00    -0.744 OA
ENDBRANCH  95  96
ENDBRANCH  63  88
ENDBRANCH  37  38
ENDBRANCH  30  32
ENDBRANCH  29  30
ENDBRANCH  28  29
ENDBRANCH  27  28
ENDBRANCH  26  27
ENDBRANCH   1  26
TORSDOF 23
ENDMDL
MODEL 2
REMARK VINA RESULT:     -10.4      6.097      8.300
REMARK SMILES CC(C)(C)[N@H+](CCC(=O)Nc1ccccc1F)CC(=O)OCCOCCOC(=O)c1ccc(-c2c3nc(c(-c4c(F)cc(S(=O)(=O)[O-])cc4F)c4ccc([nH]4)c(-c4c(F)cc(S(=O)(=O)[O-])cc4F)c4nc(c(-c5c(F)cc(S(=O)(=O)[O-])cc5F)c5ccc2[nH]5)C=C4)C=C3)cc1
REMARK SMILES IDX 23 1 22 2 21 3 19 4 20 5 18 6 5 7 2 9 1 10 3 11 4 12 6 13
REMARK SMILES IDX 7 14 8 15 9 16 10 17 11 19 12 20 16 21 13 22 15 23 17 24
REMARK SMILES IDX 14 25 24 26 25 27 26 28 27 29 28 30 29 31 30 32 31 33 95 34
REMARK SMILES IDX 32 35 94 36 33 37 34 38 35 39 88 40 36 41 93 42 87 43 89 44
REMARK SMILES IDX 37 45 92 46 86 47 85 48 38 50 72 51 51 52 71 53 52 54 55 55
REMARK SMILES IDX 70 56 90 57 53 58 54 59 69 61 91 62 56 63 39 64 40 65 49 66
REMARK SMILES IDX 41 67 42 68 48 69 50 70 43 71 44 72 45 73 46 74 47 75 73 76
REMARK SMILES IDX 74 77 83 78 75 79 76 80 82 81 84 82 77 83 78 84 79 85 80 86
REMARK SMILES IDX 81 87 57 88 58 89 67 90 59 91 60 92 66 93 68 94 61 95 62 96
REMARK SMILES IDX 63 97 64 98 65 99
REMARK H PARENT 5 8 10 18 89 49 55 60
REMARK Flexibility Score: inf
ROOT
ATOM      1  C   UNL A   1      37.933  23.763  26.166  1.00  0.00     0.202 C 
ENDROOT
BRANCH   1   2
ATOM      2  C   UNL A   1      36.424  23.576  25.937  1.00  0.00     0.261 C 
BRANCH   2   3
ATOM      3  O   UNL A   1      35.959  24.132  24.702  1.00  0.00    -0.459 OA
BRANCH   3   4
ATOM      4  C   UNL A   1      35.898  23.248  23.670  1.00  0.00     0.361 C 
ATOM      5  O   UNL A   1      36.658  23.252  22.705  1.00  0.00    -0.245 OA
BRANCH   4   6
ATOM      6  C   UNL A   1      34.933  22.108  23.954  1.00  0.00     0.386 C 
BRANCH   6   7
ATOM      7  N   UNL A   1      33.498  22.452  23.921  1.00  0.00    -0.321 N 
ATOM      8  H   UNL A   1      33.321  23.117  24.673  1.00  0.00     0.349 HD
BRANCH   7   9
ATOM      9  C   UNL A   1      32.636  21.256  24.236  1.00  0.00     0.090 C 
ATOM     10  C   UNL A   1      33.395  20.065  24.869  1.00  0.00     0.078 C 
ATOM     11  C   UNL A   1      32.098  20.749  22.881  1.00  0.00     0.078 C 
ATOM     12  C   UNL A   1      31.429  21.547  25.164  1.00  0.00     0.078 C 
ENDBRANCH   7   9
BRANCH   7  13
ATOM     13  C   UNL A   1      33.113  23.191  22.698  1.00  0.00     0.273 C 
BRANCH  13  14
ATOM     14  C   UNL A   1      32.878  24.703  22.763  1.00  0.00     0.161 C 
BRANCH  14  15
ATOM     15  C   UNL A   1      32.908  25.753  21.655  1.00  0.00     0.230 C 
ATOM     16  O   UNL A   1      33.213  25.355  20.518  1.00  0.00    -0.275 OA
ATOM     17  N   UNL A   1      32.527  27.047  21.709  1.00  0.00    -0.323 N 
ATOM     18  H   UNL A   1      32.379  27.437  20.817  1.00  0.00     0.170 HD
BRANCH  17  19
ATOM     19  C   UNL A   1      32.298  27.959  22.739  1.00  0.00     0.077 A 
ATOM     20  C   UNL A   1      30.962  28.169  23.108  1.00  0.00     0.029 A 
ATOM     21  C   UNL A   1      33.297  28.648  23.417  1.00  0.00     0.146 A 
ATOM     22  C   UNL A   1      30.652  28.914  24.247  1.00  0.00     0.002 A 
ATOM     23  C   UNL A   1      32.994  29.409  24.545  1.00  0.00     0.041 A 
ATOM     24  F   UNL A   1      34.566  28.606  22.986  1.00  0.00    -0.205 F 
ATOM     25  C   UNL A   1      31.672  29.515  24.982  1.00  0.00     0.003 A 
ENDBRANCH  17  19
ENDBRANCH  14  15
ENDBRANCH  13  14
ENDBRANCH   7  13
ENDBRANCH   6   7
ENDBRANCH   4   6
ENDBRANCH   3   4
ENDBRANCH   2   3
ENDBRANCH   1   2
BRANCH   1  26
ATOM     26  O   UNL A   1      38.754  22.596  26.210  1.00  0.00    -0.374 OA
BRANCH  26  27
ATOM     27  C   UNL A   1      38.285  21.406  25.572  1.00  0.00     0.202 C 
BRANCH  27  28
ATOM     28  C   UNL A   1      39.163  20.155  25.651  1.00  0.00     0.261 C 
BRANCH  28  29
ATOM     29  O   UNL A   1      40.170  20.301  26.667  1.00  0.00    -0.460 OA
BRANCH  29  30
ATOM     30  C   UNL A   1      41.404  19.903  26.279  1.00  0.00     0.338 C 
ATOM     31  O   UNL A   1      41.681  18.901  25.644  1.00  0.00    -0.246 OA
BRANCH  30  32
ATOM     32  C   UNL A   1      42.384  20.963  26.565  1.00  0.00     0.060 A 
ATOM     33  C   UNL A   1      42.573  21.324  27.902  1.00  0.00     0.016 A 
ATOM     34  C   UNL A   1      42.972  21.702  25.538  1.00  0.00     0.016 A 
ATOM     35  C   UNL A   1      43.284  22.480  28.211  1.00  0.00     0.010 A 
ATOM     36  C   UNL A   1      43.702  22.854  25.850  1.00  0.00     0.010 A 
ATOM     37  C   UNL A   1      43.798  23.285  27.184  1.00  0.00    -0.014 A 
BRANCH  37  38
ATOM     38  C   UNL A   1      44.192  24.679  27.513  1.00  0.00     0.031 A 
ATOM     39  C   UNL A   1      45.628  25.088  27.297  1.00  0.00     0.074 A 
ATOM     40  C   UNL A   1      43.276  25.595  27.876  1.00  0.00     0.049 A 
ATOM     41  N   UNL A   1      46.177  26.270  27.402  1.00  0.00    -0.248 NA
ATOM     42  C   UNL A   1      46.569  24.025  26.902  1.00  0.00     0.031 C 
ATOM     43  C   UNL A   1      41.852  25.331  28.079  1.00  0.00     0.029 A 
ATOM     44  N   UNL A   1      43.407  26.940  28.111  1.00  0.00    -0.354 N 
ATOM     45  C   UNL A   1      47.517  26.095  27.074  1.00  0.00     0.074 A 
ATOM     46  C   UNL A   1      47.712  24.688  26.813  1.00  0.00     0.031 C 
ATOM     47  C   UNL A   1      41.236  26.486  28.388  1.00  0.00     0.029 A 
ATOM     48  C   UNL A   1      42.222  27.565  28.419  1.00  0.00     0.049 A 
ATOM     49  H   UNL A   1      44.269  27.414  28.065  1.00  0.00     0.167 HD
ATOM     50  C   UNL A   1      48.494  27.026  26.970  1.00  0.00     0.037 A 
ATOM     51  C   UNL A   1      41.963  28.861  28.687  1.00  0.00     0.037 A 
ATOM     52  C   UNL A   1      48.301  28.429  27.213  1.00  0.00     0.049 A 
ATOM     53  C   UNL A   1      43.081  29.870  28.631  1.00  0.00     0.074 A 
ATOM     54  C   UNL A   1      49.230  29.451  27.126  1.00  0.00     0.029 A 
ATOM     55  N   UNL A   1      47.100  29.008  27.590  1.00  0.00    -0.354 N 
ATOM     56  N   UNL A   1      44.339  29.690  28.304  1.00  0.00    -0.248 NA
ATOM     57  C   UNL A   1      42.745  31.259  28.979  1.00  0.00     0.031 C 
ATOM     58  C   UNL A   1      48.599  30.644  27.488  1.00  0.00     0.029 A 
ATOM     59  C   UNL A   1      47.269  30.371  27.761  1.00  0.00     0.049 A 
ATOM     60  H   UNL A   1      46.254  28.522  27.717  1.00  0.00     0.167 HD
ATOM     61  C   UNL A   1      44.938  30.943  28.389  1.00  0.00     0.074 A 
ATOM     62  C   UNL A   1      43.904  31.875  28.787  1.00  0.00     0.031 C 
ATOM     63  C   UNL A   1      46.229  31.287  28.156  1.00  0.00     0.037 A 
BRANCH  50  64
ATOM     64  C   UNL A   1      49.864  26.557  26.573  1.00  0.00     0.058 A 
ATOM     65  C   UNL A   1      50.240  26.516  25.222  1.00  0.00     0.135 A 
ATOM     66  C   UNL A   1      50.787  26.098  27.528  1.00  0.00     0.135 A 
ATOM     67  F   UNL A   1      49.401  26.955  24.272  1.00  0.00    -0.206 F 
ATOM     68  C   UNL A   1      51.479  26.020  24.828  1.00  0.00     0.059 A 
ATOM     69  C   UNL A   1      52.039  25.617  27.158  1.00  0.00     0.059 A 
ATOM     70  F   UNL A   1      50.483  26.143  28.834  1.00  0.00    -0.206 F 
ATOM     71  C   UNL A   1      52.370  25.569  25.803  1.00  0.00     0.060 A 
BRANCH  71  72
ATOM     72  S   UNL A   1      53.982  24.951  25.278  1.00  0.00     0.124 S 
ATOM     73  O   UNL A   1      54.303  25.848  24.174  1.00  0.00    -0.237 OA
ATOM     74  O   UNL A   1      54.784  25.117  26.488  1.00  0.00    -0.237 OA
ATOM     75  O   UNL A   1      53.709  23.565  24.906  1.00  0.00    -0.744 OA
ENDBRANCH  71  72
ENDBRANCH  50  64
BRANCH  51  76
ATOM     76  C   UNL A   1      40.576  29.282  29.019  1.00  0.00     0.058 A 
ATOM     77  C   UNL A   1      40.202  29.558  30.343  1.00  0.00     0.135 A 
ATOM     78  C   UNL A   1      39.596  29.405  28.022  1.00  0.00     0.135 A 
ATOM     79  F   UNL A   1      41.102  29.456  31.332  1.00  0.00    -0.206 F 
ATOM     80  C   UNL A   1      38.900  29.917  30.671  1.00  0.00     0.059 A 
ATOM     81  C   UNL A   1      38.291  29.785  28.324  1.00  0.00     0.059 A 
ATOM     82  F   UNL A   1      39.912  29.169  26.739  1.00  0.00    -0.206 F 
ATOM     83  C   UNL A   1      37.949  30.023  29.655  1.00  0.00     0.060 A 
BRANCH  83  84
ATOM     84  S   UNL A   1      36.263  30.490  30.102  1.00  0.00     0.124 S 
ATOM     85  O   UNL A   1      35.574  30.349  28.824  1.00  0.00    -0.237 OA
ATOM     86  O   UNL A   1      35.927  29.499  31.119  1.00  0.00    -0.237 OA
ATOM     87  O   UNL A   1      36.410  31.859  30.589  1.00  0.00    -0.744 OA
ENDBRANCH  83  84
ENDBRANCH  51  76
BRANCH  63  88
ATOM     88  C   UNL A   1      46.610  32.732  28.315  1.00  0.00     0.058 A 
ATOM     89  C   UNL A   1      47.086  33.213  29.544  1.00  0.00     0.135 A 
ATOM     90  C   UNL A   1      46.412  33.658  27.278  1.00  0.00     0.135 A 
ATOM     91  F   UNL A   1      47.286  32.371  30.570  1.00  0.00    -0.206 F 
ATOM     92  C   UNL A   1      47.332  34.567  29.748  1.00  0.00     0.059 A 
ATOM     93  C   UNL A   1      46.673  35.013  27.454  1.00  0.00     0.059 A 
ATOM     94  F   UNL A   1      45.966  33.245  26.081  1.00  0.00    -0.206 F 
ATOM     95  C   UNL A   1      47.115  35.461  28.698  1.00  0.00     0.060 A 
BRANCH  95  96
ATOM     96  S   UNL A   1      47.440  37.215  28.978  1.00  0.00     0.124 S 
ATOM     97  O   UNL A   1      46.465  37.537  30.016  1.00  0.00    -0.237 OA
ATOM     98  O   UNL A   1      48.837  37.210  29.400  1.00  0.00    -0.237 OA
ATOM     99  O   UNL A   1      47.190  37.818  27.672  1.00  0.00    -0.744 OA
ENDBRANCH  95  96
ENDBRANCH  63  88
ENDBRANCH  37  38
ENDBRANCH  30  32
ENDBRANCH  29  30
ENDBRANCH  28  29
ENDBRANCH  27  28
ENDBRANCH  26  27
ENDBRANCH   1  26
TORSDOF 23
ENDMDL
MODEL 3
REMARK VINA RESULT:     -10.4      1.369      2.330
REMARK SMILES CC(C)(C)[N@H+](CCC(=O)Nc1ccccc1F)CC(=O)OCCOCCOC(=O)c1ccc(-c2c3nc(c(-c4c(F)cc(S(=O)(=O)[O-])cc4F)c4ccc([nH]4)c(-c4c(F)cc(S(=O)(=O)[O-])cc4F)c4nc(c(-c5c(F)cc(S(=O)(=O)[O-])cc5F)c5ccc2[nH]5)C=C4)C=C3)cc1
REMARK SMILES IDX 23 1 22 2 21 3 19 4 20 5 18 6 5 7 2 9 1 10 3 11 4 12 6 13
REMARK SMILES IDX 7 14 8 15 9 16 10 17 11 19 12 20 16 21 13 22 15 23 17 24
REMARK SMILES IDX 14 25 24 26 25 27 26 28 27 29 28 30 29 31 30 32 31 33 95 34
REMARK SMILES IDX 32 35 94 36 33 37 34 38 35 39 88 40 36 41 93 42 87 43 89 44
REMARK SMILES IDX 37 45 92 46 86 47 85 48 38 50 72 51 51 52 71 53 52 54 55 55
REMARK SMILES IDX 70 56 90 57 53 58 54 59 69 61 91 62 56 63 39 64 40 65 49 66
REMARK SMILES IDX 41 67 42 68 48 69 50 70 43 71 44 72 45 73 46 74 47 75 73 76
REMARK SMILES IDX 74 77 83 78 75 79 76 80 82 81 84 82 77 83 78 84 79 85 80 86
REMARK SMILES IDX 81 87 57 88 58 89 67 90 59 91 60 92 66 93 68 94 61 95 62 96
REMARK SMILES IDX 63 97 64 98 65 99
REMARK H PARENT 5 8 10 18 89 49 55 60
REMARK Flexibility Score: inf
ROOT
ATOM      1  C   UNL A   1      37.872  22.999  25.706  1.00  0.00     0.202 C 
ENDROOT
BRANCH   1   2
ATOM      2  C   UNL A   1      36.373  22.728  25.910  1.00  0.00     0.261 C 
BRANCH   2   3
ATOM      3  O   UNL A   1      35.650  22.554  24.685  1.00  0.00    -0.459 OA
BRANCH   3   4
ATOM      4  C   UNL A   1      34.773  21.515  24.686  1.00  0.00     0.361 C 
ATOM      5  O   UNL A   1      35.085  20.341  24.861  1.00  0.00    -0.245 OA
BRANCH   4   6
ATOM      6  C   UNL A   1      33.329  21.991  24.680  1.00  0.00     0.386 C 
BRANCH   6   7
ATOM      7  N   UNL A   1      33.125  23.435  24.448  1.00  0.00    -0.321 N 
ATOM      8  H   UNL A   1      34.043  23.866  24.347  1.00  0.00     0.349 HD
BRANCH   7   9
ATOM      9  C   UNL A   1      32.501  24.104  25.646  1.00  0.00     0.090 C 
ATOM     10  C   UNL A   1      32.464  23.232  26.924  1.00  0.00     0.078 C 
ATOM     11  C   UNL A   1      31.028  24.370  25.267  1.00  0.00     0.078 C 
ATOM     12  C   UNL A   1      33.151  25.451  26.055  1.00  0.00     0.078 C 
ENDBRANCH   7   9
BRANCH   7  13
ATOM     13  C   UNL A   1      32.457  23.720  23.159  1.00  0.00     0.273 C 
BRANCH  13  14
ATOM     14  C   UNL A   1      33.243  24.383  22.023  1.00  0.00     0.161 C 
BRANCH  14  15
ATOM     15  C   UNL A   1      32.866  25.551  21.116  1.00  0.00     0.230 C 
ATOM     16  O   UNL A   1      32.964  25.361  19.891  1.00  0.00    -0.275 OA
ATOM     17  N   UNL A   1      32.316  26.738  21.453  1.00  0.00    -0.323 N 
ATOM     18  H   UNL A   1      31.914  27.202  20.684  1.00  0.00     0.170 HD
BRANCH  17  19
ATOM     19  C   UNL A   1      32.188  27.456  22.642  1.00  0.00     0.077 A 
ATOM     20  C   UNL A   1      33.345  28.079  23.128  1.00  0.00     0.029 A 
ATOM     21  C   UNL A   1      31.001  27.597  23.351  1.00  0.00     0.146 A 
ATOM     22  C   UNL A   1      33.270  28.969  24.202  1.00  0.00     0.002 A 
ATOM     23  C   UNL A   1      30.921  28.471  24.435  1.00  0.00     0.041 A 
ATOM     24  F   UNL A   1      29.917  26.883  23.016  1.00  0.00    -0.205 F 
ATOM     25  C   UNL A   1      32.051  29.185  24.840  1.00  0.00     0.003 A 
ENDBRANCH  17  19
ENDBRANCH  14  15
ENDBRANCH  13  14
ENDBRANCH   7  13
ENDBRANCH   6   7
ENDBRANCH   4   6
ENDBRANCH   3   4
ENDBRANCH   2   3
ENDBRANCH   1   2
BRANCH   1  26
ATOM     26  O   UNL A   1      38.757  21.879  25.671  1.00  0.00    -0.374 OA
BRANCH  26  27
ATOM     27  C   UNL A   1      39.783  21.787  26.662  1.00  0.00     0.202 C 
BRANCH  27  28
ATOM     28  C   UNL A   1      41.109  22.502  26.392  1.00  0.00     0.261 C 
BRANCH  28  29
ATOM     29  O   UNL A   1      40.986  23.914  26.632  1.00  0.00    -0.460 OA
BRANCH  29  30
ATOM     30  C   UNL A   1      41.859  24.393  27.548  1.00  0.00     0.338 C 
ATOM     31  O   UNL A   1      42.992  23.997  27.754  1.00  0.00    -0.246 OA
BRANCH  30  32
ATOM     32  C   UNL A   1      41.319  25.619  28.159  1.00  0.00     0.060 A 
ATOM     33  C   UNL A   1      42.218  26.654  28.433  1.00  0.00     0.016 A 
ATOM     34  C   UNL A   1      40.000  25.683  28.611  1.00  0.00     0.016 A 
ATOM     35  C   UNL A   1      41.820  27.720  29.235  1.00  0.00     0.010 A 
ATOM     36  C   UNL A   1      39.596  26.764  29.403  1.00  0.00     0.010 A 
ATOM     37  C   UNL A   1      40.526  27.748  29.776  1.00  0.00    -0.014 A 
BRANCH  37  38
ATOM     38  C   UNL A   1      40.262  28.659  30.919  1.00  0.00     0.031 A 
ATOM     39  C   UNL A   1      41.147  28.559  32.137  1.00  0.00     0.074 A 
ATOM     40  C   UNL A   1      39.341  29.637  30.832  1.00  0.00     0.049 A 
ATOM     41  N   UNL A   1      41.183  29.319  33.200  1.00  0.00    -0.248 NA
ATOM     42  C   UNL A   1      42.128  27.460  32.154  1.00  0.00     0.031 C 
ATOM     43  C   UNL A   1      38.452  29.861  29.693  1.00  0.00     0.029 A 
ATOM     44  N   UNL A   1      39.022  30.640  31.712  1.00  0.00    -0.354 N 
ATOM     45  C   UNL A   1      42.194  28.801  34.001  1.00  0.00     0.074 A 
ATOM     46  C   UNL A   1      42.716  27.634  33.329  1.00  0.00     0.031 C 
ATOM     47  C   UNL A   1      37.702  30.951  29.934  1.00  0.00     0.029 A 
ATOM     48  C   UNL A   1      38.047  31.491  31.249  1.00  0.00     0.049 A 
ATOM     49  H   UNL A   1      39.452  30.742  32.592  1.00  0.00     0.167 HD
ATOM     50  C   UNL A   1      42.667  29.269  35.180  1.00  0.00     0.037 A 
ATOM     51  C   UNL A   1      37.500  32.584  31.819  1.00  0.00     0.037 A 
ATOM     52  C   UNL A   1      42.161  30.439  35.845  1.00  0.00     0.049 A 
ATOM     53  C   UNL A   1      37.997  33.049  33.164  1.00  0.00     0.074 A 
ATOM     54  C   UNL A   1      42.581  30.996  37.040  1.00  0.00     0.029 A 
ATOM     55  N   UNL A   1      41.125  31.229  35.375  1.00  0.00    -0.354 N 
ATOM     56  N   UNL A   1      38.964  32.556  33.901  1.00  0.00    -0.248 NA
ATOM     57  C   UNL A   1      37.330  34.218  33.754  1.00  0.00     0.031 C 
ATOM     58  C   UNL A   1      41.773  32.103  37.311  1.00  0.00     0.029 A 
ATOM     59  C   UNL A   1      40.877  32.258  36.266  1.00  0.00     0.049 A 
ATOM     60  H   UNL A   1      40.638  31.082  34.532  1.00  0.00     0.167 HD
ATOM     61  C   UNL A   1      39.033  33.365  35.030  1.00  0.00     0.074 A 
ATOM     62  C   UNL A   1      38.018  34.386  34.876  1.00  0.00     0.031 C 
ATOM     63  C   UNL A   1      39.864  33.269  36.097  1.00  0.00     0.037 A 
BRANCH  50  64
ATOM     64  C   UNL A   1      43.793  28.517  35.828  1.00  0.00     0.058 A 
ATOM     65  C   UNL A   1      45.127  28.835  35.530  1.00  0.00     0.135 A 
ATOM     66  C   UNL A   1      43.551  27.446  36.703  1.00  0.00     0.135 A 
ATOM     67  F   UNL A   1      45.412  29.857  34.709  1.00  0.00    -0.206 F 
ATOM     68  C   UNL A   1      46.183  28.105  36.065  1.00  0.00     0.059 A 
ATOM     69  C   UNL A   1      44.593  26.715  37.265  1.00  0.00     0.059 A 
ATOM     70  F   UNL A   1      42.293  27.121  37.039  1.00  0.00    -0.206 F 
ATOM     71  C   UNL A   1      45.906  27.044  36.929  1.00  0.00     0.060 A 
BRANCH  71  72
ATOM     72  S   UNL A   1      47.289  26.122  37.633  1.00  0.00     0.124 S 
ATOM     73  O   UNL A   1      46.605  25.172  38.503  1.00  0.00    -0.237 OA
ATOM     74  O   UNL A   1      47.919  25.557  36.443  1.00  0.00    -0.237 OA
ATOM     75  O   UNL A   1      48.070  27.152  38.314  1.00  0.00    -0.744 OA
ENDBRANCH  71  72
ENDBRANCH  50  64
BRANCH  51  76
ATOM     76  C   UNL A   1      36.426  33.327  31.109  1.00  0.00     0.058 A 
ATOM     77  C   UNL A   1      35.090  33.240  31.527  1.00  0.00     0.135 A 
ATOM     78  C   UNL A   1      36.712  34.126  29.992  1.00  0.00     0.135 A 
ATOM     79  F   UNL A   1      34.764  32.490  32.590  1.00  0.00    -0.206 F 
ATOM     80  C   UNL A   1      34.071  33.901  30.849  1.00  0.00     0.059 A 
ATOM     81  C   UNL A   1      35.712  34.815  29.310  1.00  0.00     0.059 A 
ATOM     82  F   UNL A   1      37.979  34.254  29.566  1.00  0.00    -0.206 F 
ATOM     83  C   UNL A   1      34.391  34.682  29.738  1.00  0.00     0.060 A 
BRANCH  83  84
ATOM     84  S   UNL A   1      33.054  35.531  28.871  1.00  0.00     0.124 S 
ATOM     85  O   UNL A   1      32.459  34.437  28.112  1.00  0.00    -0.237 OA
ATOM     86  O   UNL A   1      32.252  36.051  29.974  1.00  0.00    -0.237 OA
ATOM     87  O   UNL A   1      33.753  36.540  28.079  1.00  0.00    -0.744 OA
ENDBRANCH  83  84
ENDBRANCH  51  76
BRANCH  63  88
ATOM     88  C   UNL A   1      39.728  34.294  37.189  1.00  0.00     0.058 A 
ATOM     89  C   UNL A   1      40.431  35.507  37.119  1.00  0.00     0.135 A 
ATOM     90  C   UNL A   1      38.979  34.033  38.347  1.00  0.00     0.135 A 
ATOM     91  F   UNL A   1      41.168  35.802  36.038  1.00  0.00    -0.206 F 
ATOM     92  C   UNL A   1      40.414  36.418  38.171  1.00  0.00     0.059 A 
ATOM     93  C   UNL A   1      38.930  34.939  39.401  1.00  0.00     0.059 A 
ATOM     94  F   UNL A   1      38.283  32.890  38.456  1.00  0.00    -0.206 F 
ATOM     95  C   UNL A   1      39.665  36.121  39.311  1.00  0.00     0.060 A 
BRANCH  95  96
ATOM     96  S   UNL A   1      39.652  37.313  40.668  1.00  0.00     0.124 S 
ATOM     97  O   UNL A   1      41.079  37.506  40.910  1.00  0.00    -0.237 OA
ATOM     98  O   UNL A   1      38.950  38.448  40.079  1.00  0.00    -0.237 OA
ATOM     99  O   UNL A   1      38.925  36.615  41.724  1.00  0.00    -0.744 OA
ENDBRANCH  95  96
ENDBRANCH  63  88
ENDBRANCH  37  38
ENDBRANCH  30  32
ENDBRANCH  29  30
ENDBRANCH  28  29
ENDBRANCH  27  28
ENDBRANCH  26  27
ENDBRANCH   1  26
TORSDOF 23
ENDMDL
