MODEL 1
REMARK VINA RESULT:      -9.2      0.000      0.000
REMARK SMILES CS(=O)(=O)c1ccc(C(=O)N2C[C@@H](C(=O)OCCOCCOC(=O)c3ccc(-c4c5nc(c(-c6c(F)cc(S(=O)(=O)[O-])cc6F)c6ccc([nH]6)c(-c6c(F)cc(S(=O)(=O)[O-])cc6F)c6nc(c(-c7c(F)cc(S(=O)(=O)[O-])cc7F)c7ccc4[nH]7)C=C6)C=C5)cc3)[C@H](c3ccncc3)C2)cc1
REMARK SMILES IDX 19 1 18 2 17 3 16 4 14 5 15 6 13 7 11 8 12 9 98 10 91 11
REMARK SMILES IDX 9 12 10 13 8 14 5 15 6 16 100 17 7 18 99 19 2 20 1 21 3 22
REMARK SMILES IDX 4 23 92 24 93 25 97 26 94 27 96 28 95 29 20 30 21 31 22 32
REMARK SMILES IDX 23 33 24 34 25 35 26 36 90 37 27 38 89 39 28 40 29 41 30 42
REMARK SMILES IDX 83 43 31 44 88 45 82 46 84 47 32 48 87 49 81 50 80 51 33 53
REMARK SMILES IDX 67 54 46 55 66 56 47 57 50 58 65 59 85 60 48 61 49 62 64 64
REMARK SMILES IDX 86 65 51 66 34 67 35 68 44 69 36 70 37 71 43 72 45 73 38 74
REMARK SMILES IDX 39 75 40 76 41 77 42 78 68 79 69 80 78 81 70 82 71 83 77 84
REMARK SMILES IDX 79 85 72 86 73 87 74 88 75 89 76 90 52 91 53 92 62 93 54 94
REMARK SMILES IDX 55 95 61 96 63 97 56 98 57 99 58 100 59 101 60 102
REMARK H PARENT 84 52 50 63
REMARK Flexibility Score: inf
ROOT
ATOM      1  O   UNL A   1      48.215  22.780  39.864  1.00  0.00    -0.374 OA
ENDROOT
BRANCH   1   2
ATOM      2  C   UNL A   1      49.362  22.804  39.011  1.00  0.00     0.202 C 
BRANCH   2   3
ATOM      3  C   UNL A   1      49.309  21.912  37.767  1.00  0.00     0.261 C 
BRANCH   3   4
ATOM      4  O   UNL A   1      48.893  20.573  38.107  1.00  0.00    -0.463 OA
BRANCH   4   5
ATOM      5  C   UNL A   1      47.723  20.158  37.565  1.00  0.00     0.311 C 
ATOM      6  O   UNL A   1      47.107  19.157  37.912  1.00  0.00    -0.252 OA
BRANCH   5   7
ATOM      7  C   UNL A   1      47.200  21.083  36.495  1.00  0.00     0.128 C 
ATOM      8  N   UNL A   1      45.409  21.996  35.384  1.00  0.00    -0.337 N 
ATOM      9  C   UNL A   1      45.697  21.291  36.614  1.00  0.00     0.135 C 
ATOM     10  C   UNL A   1      46.198  21.432  34.305  1.00  0.00     0.129 C 
ATOM     11  C   UNL A   1      47.394  20.702  34.998  1.00  0.00     0.055 C 
BRANCH   8  12
ATOM     12  C   UNL A   1      44.737  23.188  35.179  1.00  0.00     0.253 C 
ATOM     13  O   UNL A   1      43.742  23.489  35.837  1.00  0.00    -0.269 OA
BRANCH  12  14
ATOM     14  C   UNL A   1      45.096  24.056  34.019  1.00  0.00     0.040 A 
ATOM     15  C   UNL A   1      45.953  25.393  31.711  1.00  0.00     0.067 A 
ATOM     16  C   UNL A   1      44.800  24.601  31.668  1.00  0.00     0.021 A 
ATOM     17  C   UNL A   1      46.674  25.532  32.892  1.00  0.00     0.021 A 
ATOM     18  C   UNL A   1      44.376  23.932  32.824  1.00  0.00     0.015 A 
ATOM     19  C   UNL A   1      46.259  24.840  34.025  1.00  0.00     0.015 A 
BRANCH  15  20
ATOM     20  S   UNL A   1      46.535  26.209  30.248  1.00  0.00     0.175 S 
ATOM     21  C   UNL A   1      46.217  25.035  28.960  1.00  0.00     0.163 C 
ATOM     22  O   UNL A   1      47.977  26.341  30.359  1.00  0.00    -0.224 OA
ATOM     23  O   UNL A   1      45.690  27.365  30.036  1.00  0.00    -0.224 OA
ENDBRANCH  15  20
ENDBRANCH  12  14
ENDBRANCH   8  12
BRANCH  11  24
ATOM     24  C   UNL A   1      48.785  21.000  34.432  1.00  0.00    -0.039 A 
ATOM     25  C   UNL A   1      49.695  19.960  34.193  1.00  0.00     0.024 A 
ATOM     26  C   UNL A   1      49.207  22.282  34.055  1.00  0.00     0.024 A 
ATOM     27  C   UNL A   1      50.930  20.228  33.612  1.00  0.00     0.111 A 
ATOM     28  C   UNL A   1      50.471  22.460  33.500  1.00  0.00     0.111 A 
ATOM     29  N   UNL A   1      51.341  21.462  33.264  1.00  0.00    -0.265 NA
ENDBRANCH  11  24
ENDBRANCH   5   7
ENDBRANCH   4   5
ENDBRANCH   3   4
ENDBRANCH   2   3
ENDBRANCH   1   2
BRANCH   1  30
ATOM     30  C   UNL A   1      47.181  23.716  39.585  1.00  0.00     0.202 C 
BRANCH  30  31
ATOM     31  C   UNL A   1      47.122  24.328  38.182  1.00  0.00     0.261 C 
BRANCH  31  32
ATOM     32  O   UNL A   1      47.027  25.756  38.218  1.00  0.00    -0.460 OA
BRANCH  32  33
ATOM     33  C   UNL A   1      47.358  26.344  37.044  1.00  0.00     0.338 C 
ATOM     34  O   UNL A   1      48.283  26.040  36.303  1.00  0.00    -0.246 OA
BRANCH  33  35
ATOM     35  C   UNL A   1      46.316  27.307  36.653  1.00  0.00     0.060 A 
ATOM     36  C   UNL A   1      45.002  27.003  37.030  1.00  0.00     0.016 A 
ATOM     37  C   UNL A   1      46.599  28.446  35.896  1.00  0.00     0.016 A 
ATOM     38  C   UNL A   1      43.953  27.800  36.591  1.00  0.00     0.010 A 
ATOM     39  C   UNL A   1      45.541  29.242  35.449  1.00  0.00     0.010 A 
ATOM     40  C   UNL A   1      44.214  28.893  35.757  1.00  0.00    -0.014 A 
BRANCH  40  41
ATOM     41  C   UNL A   1      43.082  29.557  35.072  1.00  0.00     0.031 A 
ATOM     42  C   UNL A   1      42.668  29.059  33.715  1.00  0.00     0.074 A 
ATOM     43  C   UNL A   1      42.402  30.546  35.679  1.00  0.00     0.049 A 
ATOM     44  N   UNL A   1      41.721  29.494  32.926  1.00  0.00    -0.248 NA
ATOM     45  C   UNL A   1      43.424  27.916  33.174  1.00  0.00     0.031 C 
ATOM     46  C   UNL A   1      42.688  31.071  37.015  1.00  0.00     0.029 A 
ATOM     47  N   UNL A   1      41.331  31.285  35.249  1.00  0.00    -0.354 N 
ATOM     48  C   UNL A   1      41.772  28.687  31.794  1.00  0.00     0.074 A 
ATOM     49  C   UNL A   1      42.864  27.758  31.985  1.00  0.00     0.031 C 
ATOM     50  C   UNL A   1      41.816  32.055  37.291  1.00  0.00     0.029 A 
ATOM     51  C   UNL A   1      40.937  32.253  36.140  1.00  0.00     0.049 A 
ATOM     52  H   UNL A   1      40.886  31.136  34.383  1.00  0.00     0.167 HD
ATOM     53  C   UNL A   1      40.975  28.716  30.702  1.00  0.00     0.037 A 
ATOM     54  C   UNL A   1      39.990  33.205  36.027  1.00  0.00     0.037 A 
ATOM     55  C   UNL A   1      39.889  29.646  30.530  1.00  0.00     0.049 A 
ATOM     56  C   UNL A   1      39.160  33.263  34.772  1.00  0.00     0.074 A 
ATOM     57  C   UNL A   1      39.008  29.753  29.469  1.00  0.00     0.029 A 
ATOM     58  N   UNL A   1      39.543  30.636  31.439  1.00  0.00    -0.354 N 
ATOM     59  N   UNL A   1      39.206  32.484  33.716  1.00  0.00    -0.248 NA
ATOM     60  C   UNL A   1      38.147  34.324  34.691  1.00  0.00     0.031 C 
ATOM     61  C   UNL A   1      38.166  30.843  29.709  1.00  0.00     0.029 A 
ATOM     62  C   UNL A   1      38.480  31.377  30.950  1.00  0.00     0.049 A 
ATOM     63  H   UNL A   1      39.988  30.789  32.303  1.00  0.00     0.167 HD
ATOM     64  C   UNL A   1      38.210  32.943  32.859  1.00  0.00     0.074 A 
ATOM     65  C   UNL A   1      37.572  34.060  33.526  1.00  0.00     0.031 C 
ATOM     66  C   UNL A   1      37.854  32.482  31.634  1.00  0.00     0.037 A 
BRANCH  53  67
ATOM     67  C   UNL A   1      41.263  27.736  29.597  1.00  0.00     0.058 A 
ATOM     68  C   UNL A   1      42.400  27.847  28.780  1.00  0.00     0.135 A 
ATOM     69  C   UNL A   1      40.402  26.648  29.372  1.00  0.00     0.135 A 
ATOM     70  F   UNL A   1      43.246  28.878  28.937  1.00  0.00    -0.206 F 
ATOM     71  C   UNL A   1      42.660  26.931  27.766  1.00  0.00     0.059 A 
ATOM     72  C   UNL A   1      40.659  25.704  28.383  1.00  0.00     0.059 A 
ATOM     73  F   UNL A   1      39.298  26.496  30.119  1.00  0.00    -0.206 F 
ATOM     74  C   UNL A   1      41.784  25.862  27.576  1.00  0.00     0.060 A 
BRANCH  74  75
ATOM     75  S   UNL A   1      42.140  24.677  26.260  1.00  0.00     0.124 S 
ATOM     76  O   UNL A   1      43.510  24.287  26.584  1.00  0.00    -0.237 OA
ATOM     77  O   UNL A   1      41.122  23.656  26.478  1.00  0.00    -0.237 OA
ATOM     78  O   UNL A   1      41.986  25.465  25.042  1.00  0.00    -0.744 OA
ENDBRANCH  74  75
ENDBRANCH  53  67
BRANCH  54  79
ATOM     79  C   UNL A   1      39.790  34.187  37.126  1.00  0.00     0.058 A 
ATOM     80  C   UNL A   1      40.408  35.446  37.099  1.00  0.00     0.135 A 
ATOM     81  C   UNL A   1      38.968  33.887  38.225  1.00  0.00     0.135 A 
ATOM     82  F   UNL A   1      41.210  35.778  36.077  1.00  0.00    -0.206 F 
ATOM     83  C   UNL A   1      40.229  36.367  38.127  1.00  0.00     0.059 A 
ATOM     84  C   UNL A   1      38.751  34.802  39.250  1.00  0.00     0.059 A 
ATOM     85  F   UNL A   1      38.343  32.701  38.293  1.00  0.00    -0.206 F 
ATOM     86  C   UNL A   1      39.395  36.037  39.197  1.00  0.00     0.060 A 
BRANCH  86  87
ATOM     87  S   UNL A   1      39.131  37.259  40.499  1.00  0.00     0.124 S 
ATOM     88  O   UNL A   1      38.622  36.428  41.583  1.00  0.00    -0.237 OA
ATOM     89  O   UNL A   1      40.474  37.800  40.683  1.00  0.00    -0.237 OA
ATOM     90  O   UNL A   1      38.168  38.181  39.902  1.00  0.00    -0.744 OA
ENDBRANCH  86  87
ENDBRANCH  54  79
BRANCH  66  91
ATOM     91  C   UNL A   1      36.697  33.157  30.947  1.00  0.00     0.058 A 
ATOM     92  C   UNL A   1      35.373  32.973  31.375  1.00  0.00     0.135 A 
ATOM     93  C   UNL A   1      36.925  34.046  29.884  1.00  0.00     0.135 A 
ATOM     94  F   UNL A   1      35.098  32.130  32.383  1.00  0.00    -0.206 F 
ATOM     95  C   UNL A   1      34.313  33.630  30.758  1.00  0.00     0.059 A 
ATOM     96  C   UNL A   1      35.884  34.738  29.273  1.00  0.00     0.059 A 
ATOM     97  F   UNL A   1      38.174  34.268  29.443  1.00  0.00    -0.206 F 
ATOM     98  C   UNL A   1      34.580  34.514  29.710  1.00  0.00     0.060 A 
BRANCH  98  99
ATOM     99  S   UNL A   1      33.198  35.387  28.943  1.00  0.00     0.124 S 
ATOM    100  O   UNL A   1      32.628  34.347  28.094  1.00  0.00    -0.237 OA
ATOM    101  O   UNL A   1      32.395  35.775  30.099  1.00  0.00    -0.237 OA
ATOM    102  O   UNL A   1      33.843  36.490  28.236  1.00  0.00    -0.744 OA
ENDBRANCH  98  99
ENDBRANCH  66  91
ENDBRANCH  40  41
ENDBRANCH  33  35
ENDBRANCH  32  33
ENDBRANCH  31  32
ENDBRANCH  30  31
ENDBRANCH   1  30
TORSDOF 21
ENDMDL
MODEL 2
REMARK VINA RESULT:      -8.9     10.242     18.286
REMARK SMILES CS(=O)(=O)c1ccc(C(=O)N2C[C@@H](C(=O)OCCOCCOC(=O)c3ccc(-c4c5nc(c(-c6c(F)cc(S(=O)(=O)[O-])cc6F)c6ccc([nH]6)c(-c6c(F)cc(S(=O)(=O)[O-])cc6F)c6nc(c(-c7c(F)cc(S(=O)(=O)[O-])cc7F)c7ccc4[nH]7)C=C6)C=C5)cc3)[C@H](c3ccncc3)C2)cc1
REMARK SMILES IDX 19 1 18 2 17 3 16 4 14 5 15 6 13 7 11 8 12 9 98 10 91 11
REMARK SMILES IDX 9 12 10 13 8 14 5 15 6 16 100 17 7 18 99 19 2 20 1 21 3 22
REMARK SMILES IDX 4 23 92 24 93 25 97 26 94 27 96 28 95 29 20 30 21 31 22 32
REMARK SMILES IDX 23 33 24 34 25 35 26 36 90 37 27 38 89 39 28 40 29 41 30 42
REMARK SMILES IDX 83 43 31 44 88 45 82 46 84 47 32 48 87 49 81 50 80 51 33 53
REMARK SMILES IDX 67 54 46 55 66 56 47 57 50 58 65 59 85 60 48 61 49 62 64 64
REMARK SMILES IDX 86 65 51 66 34 67 35 68 44 69 36 70 37 71 43 72 45 73 38 74
REMARK SMILES IDX 39 75 40 76 41 77 42 78 68 79 69 80 78 81 70 82 71 83 77 84
REMARK SMILES IDX 79 85 72 86 73 87 74 88 75 89 76 90 52 91 53 92 62 93 54 94
REMARK SMILES IDX 55 95 61 96 63 97 56 98 57 99 58 100 59 101 60 102
REMARK H PARENT 84 52 50 63
REMARK Flexibility Score: inf
ROOT
ATOM      1  O   UNL A   1      43.935  39.853  25.811  1.00  0.00    -0.374 OA
ENDROOT
BRANCH   1   2
ATOM      2  C   UNL A   1      43.301  41.132  25.734  1.00  0.00     0.202 C 
BRANCH   2   3
ATOM      3  C   UNL A   1      44.087  42.246  25.037  1.00  0.00     0.261 C 
BRANCH   3   4
ATOM      4  O   UNL A   1      43.920  42.178  23.605  1.00  0.00    -0.463 OA
BRANCH   4   5
ATOM      5  C   UNL A   1      43.285  43.228  23.030  1.00  0.00     0.311 C 
ATOM      6  O   UNL A   1      42.316  43.806  23.508  1.00  0.00    -0.252 OA
BRANCH   5   7
ATOM      7  C   UNL A   1      43.916  43.670  21.734  1.00  0.00     0.128 C 
ATOM      8  N   UNL A   1      44.033  43.511  19.445  1.00  0.00    -0.337 N 
ATOM      9  C   UNL A   1      43.133  43.174  20.527  1.00  0.00     0.135 C 
ATOM     10  C   UNL A   1      45.400  43.248  19.852  1.00  0.00     0.129 C 
ATOM     11  C   UNL A   1      45.378  43.243  21.415  1.00  0.00     0.055 C 
BRANCH   8  12
ATOM     12  C   UNL A   1      43.798  44.224  18.283  1.00  0.00     0.253 C 
ATOM     13  O   UNL A   1      43.465  43.665  17.239  1.00  0.00    -0.269 OA
BRANCH  12  14
ATOM     14  C   UNL A   1      44.128  45.679  18.221  1.00  0.00     0.040 A 
ATOM     15  C   UNL A   1      44.437  48.461  18.297  1.00  0.00     0.067 A 
ATOM     16  C   UNL A   1      44.883  47.683  19.371  1.00  0.00     0.021 A 
ATOM     17  C   UNL A   1      43.850  47.867  17.186  1.00  0.00     0.021 A 
ATOM     18  C   UNL A   1      44.724  46.291  19.330  1.00  0.00     0.015 A 
ATOM     19  C   UNL A   1      43.672  46.487  17.170  1.00  0.00     0.015 A 
BRANCH  15  20
ATOM     20  S   UNL A   1      44.584  50.228  18.350  1.00  0.00     0.175 S 
ATOM     21  C   UNL A   1      44.540  50.702  16.643  1.00  0.00     0.163 C 
ATOM     22  O   UNL A   1      45.910  50.546  18.847  1.00  0.00    -0.224 OA
ATOM     23  O   UNL A   1      43.396  50.740  19.000  1.00  0.00    -0.224 OA
ENDBRANCH  15  20
ENDBRANCH  12  14
ENDBRANCH   8  12
BRANCH  11  24
ATOM     24  C   UNL A   1      46.459  44.078  22.107  1.00  0.00    -0.039 A 
ATOM     25  C   UNL A   1      47.257  43.517  23.115  1.00  0.00     0.024 A 
ATOM     26  C   UNL A   1      46.768  45.396  21.744  1.00  0.00     0.024 A 
ATOM     27  C   UNL A   1      48.285  44.257  23.690  1.00  0.00     0.111 A 
ATOM     28  C   UNL A   1      47.801  46.069  22.391  1.00  0.00     0.111 A 
ATOM     29  N   UNL A   1      48.571  45.528  23.352  1.00  0.00    -0.265 NA
ENDBRANCH  11  24
ENDBRANCH   5   7
ENDBRANCH   4   5
ENDBRANCH   3   4
ENDBRANCH   2   3
ENDBRANCH   1   2
BRANCH   1  30
ATOM     30  C   UNL A   1      44.409  39.441  27.088  1.00  0.00     0.202 C 
BRANCH  30  31
ATOM     31  C   UNL A   1      45.575  38.450  27.139  1.00  0.00     0.261 C 
BRANCH  31  32
ATOM     32  O   UNL A   1      45.476  37.553  28.251  1.00  0.00    -0.460 OA
BRANCH  32  33
ATOM     33  C   UNL A   1      46.670  37.045  28.637  1.00  0.00     0.338 C 
ATOM     34  O   UNL A   1      47.593  37.652  29.163  1.00  0.00    -0.246 OA
BRANCH  33  35
ATOM     35  C   UNL A   1      46.654  35.578  28.521  1.00  0.00     0.060 A 
ATOM     36  C   UNL A   1      46.617  35.048  27.225  1.00  0.00     0.016 A 
ATOM     37  C   UNL A   1      46.622  34.742  29.639  1.00  0.00     0.016 A 
ATOM     38  C   UNL A   1      46.476  33.679  27.040  1.00  0.00     0.010 A 
ATOM     39  C   UNL A   1      46.473  33.366  29.450  1.00  0.00     0.010 A 
ATOM     40  C   UNL A   1      46.353  32.838  28.152  1.00  0.00    -0.014 A 
BRANCH  40  41
ATOM     41  C   UNL A   1      45.924  31.436  27.944  1.00  0.00     0.031 A 
ATOM     42  C   UNL A   1      44.485  31.078  28.200  1.00  0.00     0.074 A 
ATOM     43  C   UNL A   1      46.789  30.519  27.480  1.00  0.00     0.049 A 
ATOM     44  N   UNL A   1      43.890  29.918  28.101  1.00  0.00    -0.248 NA
ATOM     45  C   UNL A   1      43.599  32.174  28.626  1.00  0.00     0.031 C 
ATOM     46  C   UNL A   1      48.192  30.772  27.152  1.00  0.00     0.029 A 
ATOM     47  N   UNL A   1      46.615  29.187  27.205  1.00  0.00    -0.354 N 
ATOM     48  C   UNL A   1      42.566  30.142  28.459  1.00  0.00     0.074 A 
ATOM     49  C   UNL A   1      42.451  31.541  28.809  1.00  0.00     0.031 C 
ATOM     50  C   UNL A   1      48.753  29.628  26.727  1.00  0.00     0.029 A 
ATOM     51  C   UNL A   1      47.761  28.556  26.787  1.00  0.00     0.049 A 
ATOM     52  H   UNL A   1      45.749  28.727  27.298  1.00  0.00     0.167 HD
ATOM     53  C   UNL A   1      41.539  29.261  28.484  1.00  0.00     0.037 A 
ATOM     54  C   UNL A   1      47.987  27.257  26.510  1.00  0.00     0.037 A 
ATOM     55  C   UNL A   1      41.669  27.872  28.128  1.00  0.00     0.049 A 
ATOM     56  C   UNL A   1      46.844  26.280  26.613  1.00  0.00     0.074 A 
ATOM     57  C   UNL A   1      40.691  26.895  28.103  1.00  0.00     0.029 A 
ATOM     58  N   UNL A   1      42.855  27.261  27.744  1.00  0.00    -0.354 N 
ATOM     59  N   UNL A   1      45.592  26.507  26.935  1.00  0.00    -0.248 NA
ATOM     60  C   UNL A   1      47.141  24.874  26.310  1.00  0.00     0.031 C 
ATOM     61  C   UNL A   1      41.295  25.681  27.760  1.00  0.00     0.029 A 
ATOM     62  C   UNL A   1      42.639  25.913  27.508  1.00  0.00     0.049 A 
ATOM     63  H   UNL A   1      43.722  27.718  27.653  1.00  0.00     0.167 HD
ATOM     64  C   UNL A   1      44.947  25.278  26.846  1.00  0.00     0.074 A 
ATOM     65  C   UNL A   1      45.945  24.314  26.428  1.00  0.00     0.031 C 
ATOM     66  C   UNL A   1      43.646  24.972  27.086  1.00  0.00     0.037 A 
BRANCH  53  67
ATOM     67  C   UNL A   1      40.195  29.763  28.937  1.00  0.00     0.058 A 
ATOM     68  C   UNL A   1      39.122  29.929  28.047  1.00  0.00     0.135 A 
ATOM     69  C   UNL A   1      39.969  30.056  30.293  1.00  0.00     0.135 A 
ATOM     70  F   UNL A   1      39.287  29.685  26.737  1.00  0.00    -0.206 F 
ATOM     71  C   UNL A   1      37.881  30.387  28.479  1.00  0.00     0.059 A 
ATOM     72  C   UNL A   1      38.728  30.487  30.752  1.00  0.00     0.059 A 
ATOM     73  F   UNL A   1      40.960  29.921  31.187  1.00  0.00    -0.206 F 
ATOM     74  C   UNL A   1      37.694  30.662  29.835  1.00  0.00     0.060 A 
BRANCH  74  75
ATOM     75  S   UNL A   1      36.076  31.250  30.381  1.00  0.00     0.124 S 
ATOM     76  O   UNL A   1      36.287  32.694  30.415  1.00  0.00    -0.237 OA
ATOM     77  O   UNL A   1      35.196  30.763  29.324  1.00  0.00    -0.237 OA
ATOM     78  O   UNL A   1      35.903  30.612  31.682  1.00  0.00    -0.744 OA
ENDBRANCH  74  75
ENDBRANCH  53  67
BRANCH  54  79
ATOM     79  C   UNL A   1      49.351  26.806  26.127  1.00  0.00     0.058 A 
ATOM     80  C   UNL A   1      50.192  26.166  27.048  1.00  0.00     0.135 A 
ATOM     81  C   UNL A   1      49.838  27.001  24.823  1.00  0.00     0.135 A 
ATOM     82  F   UNL A   1      49.778  25.966  28.308  1.00  0.00    -0.206 F 
ATOM     83  C   UNL A   1      51.472  25.747  26.697  1.00  0.00     0.059 A 
ATOM     84  C   UNL A   1      51.102  26.565  24.441  1.00  0.00     0.059 A 
ATOM     85  F   UNL A   1      49.068  27.596  23.899  1.00  0.00    -0.206 F 
ATOM     86  C   UNL A   1      51.916  25.947  25.389  1.00  0.00     0.060 A 
BRANCH  86  87
ATOM     87  S   UNL A   1      53.559  25.353  24.931  1.00  0.00     0.124 S 
ATOM     88  O   UNL A   1      53.564  25.582  23.491  1.00  0.00    -0.237 OA
ATOM     89  O   UNL A   1      54.425  26.222  25.721  1.00  0.00    -0.237 OA
ATOM     90  O   UNL A   1      53.537  23.954  25.350  1.00  0.00    -0.744 OA
ENDBRANCH  86  87
ENDBRANCH  54  79
BRANCH  66  91
ATOM     91  C   UNL A   1      43.216  23.547  26.865  1.00  0.00     0.058 A 
ATOM     92  C   UNL A   1      43.087  23.003  25.577  1.00  0.00     0.135 A 
ATOM     93  C   UNL A   1      42.986  22.698  27.961  1.00  0.00     0.135 A 
ATOM     94  F   UNL A   1      43.289  23.772  24.495  1.00  0.00    -0.206 F 
ATOM     95  C   UNL A   1      42.724  21.674  25.383  1.00  0.00     0.059 A 
ATOM     96  C   UNL A   1      42.654  21.359  27.791  1.00  0.00     0.059 A 
ATOM     97  F   UNL A   1      43.107  23.164  29.214  1.00  0.00    -0.206 F 
ATOM     98  C   UNL A   1      42.513  20.859  26.497  1.00  0.00     0.060 A 
BRANCH  98  99
ATOM     99  S   UNL A   1      42.078  19.127  26.230  1.00  0.00     0.124 S 
ATOM    100  O   UNL A   1      42.881  18.800  25.056  1.00  0.00    -0.237 OA
ATOM    101  O   UNL A   1      42.499  18.504  27.481  1.00  0.00    -0.237 OA
ATOM    102  O   UNL A   1      40.635  19.169  26.011  1.00  0.00    -0.744 OA
ENDBRANCH  98  99
ENDBRANCH  66  91
ENDBRANCH  40  41
ENDBRANCH  33  35
ENDBRANCH  32  33
ENDBRANCH  31  32
ENDBRANCH  30  31
ENDBRANCH   1  30
TORSDOF 21
ENDMDL
MODEL 3
REMARK VINA RESULT:      -8.8      3.338      9.317
REMARK SMILES CS(=O)(=O)c1ccc(C(=O)N2C[C@@H](C(=O)OCCOCCOC(=O)c3ccc(-c4c5nc(c(-c6c(F)cc(S(=O)(=O)[O-])cc6F)c6ccc([nH]6)c(-c6c(F)cc(S(=O)(=O)[O-])cc6F)c6nc(c(-c7c(F)cc(S(=O)(=O)[O-])cc7F)c7ccc4[nH]7)C=C6)C=C5)cc3)[C@H](c3ccncc3)C2)cc1
REMARK SMILES IDX 19 1 18 2 17 3 16 4 14 5 15 6 13 7 11 8 12 9 98 10 91 11
REMARK SMILES IDX 9 12 10 13 8 14 5 15 6 16 100 17 7 18 99 19 2 20 1 21 3 22
REMARK SMILES IDX 4 23 92 24 93 25 97 26 94 27 96 28 95 29 20 30 21 31 22 32
REMARK SMILES IDX 23 33 24 34 25 35 26 36 90 37 27 38 89 39 28 40 29 41 30 42
REMARK SMILES IDX 83 43 31 44 88 45 82 46 84 47 32 48 87 49 81 50 80 51 33 53
REMARK SMILES IDX 67 54 46 55 66 56 47 57 50 58 65 59 85 60 48 61 49 62 64 64
REMARK SMILES IDX 86 65 51 66 34 67 35 68 44 69 36 70 37 71 43 72 45 73 38 74
REMARK SMILES IDX 39 75 40 76 41 77 42 78 68 79 69 80 78 81 70 82 71 83 77 84
REMARK SMILES IDX 79 85 72 86 73 87 74 88 75 89 76 90 52 91 53 92 62 93 54 94
REMARK SMILES IDX 55 95 61 96 63 97 56 98 57 99 58 100 59 101 60 102
REMARK H PARENT 84 52 50 63
REMARK Flexibility Score: inf
ROOT
ATOM      1  O   UNL A   1      45.194  23.145  25.836  1.00  0.00    -0.374 OA
ENDROOT
BRANCH   1   2
ATOM      2  C   UNL A   1      45.338  22.974  27.248  1.00  0.00     0.202 C 
BRANCH   2   3
ATOM      3  C   UNL A   1      45.158  24.226  28.112  1.00  0.00     0.261 C 
BRANCH   3   4
ATOM      4  O   UNL A   1      46.378  24.554  28.809  1.00  0.00    -0.463 OA
BRANCH   4   5
ATOM      5  C   UNL A   1      47.352  25.131  28.065  1.00  0.00     0.311 C 
ATOM      6  O   UNL A   1      48.248  24.523  27.493  1.00  0.00    -0.252 OA
BRANCH   5   7
ATOM      7  C   UNL A   1      47.211  26.629  27.956  1.00  0.00     0.128 C 
ATOM      8  N   UNL A   1      47.157  28.512  26.642  1.00  0.00    -0.337 N 
ATOM      9  C   UNL A   1      47.036  27.076  26.513  1.00  0.00     0.135 C 
ATOM     10  C   UNL A   1      48.197  28.825  27.604  1.00  0.00     0.129 C 
ATOM     11  C   UNL A   1      48.360  27.541  28.479  1.00  0.00     0.055 C 
BRANCH   8  12
ATOM     12  C   UNL A   1      46.316  29.519  26.203  1.00  0.00     0.253 C 
ATOM     13  O   UNL A   1      46.357  29.934  25.046  1.00  0.00    -0.269 OA
BRANCH  12  14
ATOM     14  C   UNL A   1      45.464  30.258  27.181  1.00  0.00     0.040 A 
ATOM     15  C   UNL A   1      44.174  31.815  29.119  1.00  0.00     0.067 A 
ATOM     16  C   UNL A   1      44.400  32.342  27.842  1.00  0.00     0.021 A 
ATOM     17  C   UNL A   1      44.574  30.521  29.434  1.00  0.00     0.021 A 
ATOM     18  C   UNL A   1      45.048  31.560  26.876  1.00  0.00     0.015 A 
ATOM     19  C   UNL A   1      45.241  29.766  28.474  1.00  0.00     0.015 A 
BRANCH  15  20
ATOM     20  S   UNL A   1      43.400  32.803  30.371  1.00  0.00     0.175 S 
ATOM     21  C   UNL A   1      43.988  32.096  31.886  1.00  0.00     0.163 C 
ATOM     22  O   UNL A   1      41.971  32.554  30.310  1.00  0.00    -0.224 OA
ATOM     23  O   UNL A   1      43.933  34.144  30.252  1.00  0.00    -0.224 OA
ENDBRANCH  15  20
ENDBRANCH  12  14
ENDBRANCH   8  12
BRANCH  11  24
ATOM     24  C   UNL A   1      48.374  27.754  29.995  1.00  0.00    -0.039 A 
ATOM     25  C   UNL A   1      47.240  27.459  30.767  1.00  0.00     0.024 A 
ATOM     26  C   UNL A   1      49.506  28.174  30.706  1.00  0.00     0.024 A 
ATOM     27  C   UNL A   1      47.282  27.587  32.152  1.00  0.00     0.111 A 
ATOM     28  C   UNL A   1      49.450  28.294  32.092  1.00  0.00     0.111 A 
ATOM     29  N   UNL A   1      48.365  28.005  32.832  1.00  0.00    -0.265 NA
ENDBRANCH  11  24
ENDBRANCH   5   7
ENDBRANCH   4   5
ENDBRANCH   3   4
ENDBRANCH   2   3
ENDBRANCH   1   2
BRANCH   1  30
ATOM     30  C   UNL A   1      44.185  24.044  25.392  1.00  0.00     0.202 C 
BRANCH  30  31
ATOM     31  C   UNL A   1      42.746  23.528  25.308  1.00  0.00     0.261 C 
BRANCH  31  32
ATOM     32  O   UNL A   1      41.918  24.057  26.351  1.00  0.00    -0.460 OA
BRANCH  32  33
ATOM     33  C   UNL A   1      41.571  25.351  26.153  1.00  0.00     0.338 C 
ATOM     34  O   UNL A   1      41.124  25.845  25.126  1.00  0.00    -0.246 OA
BRANCH  33  35
ATOM     35  C   UNL A   1      41.614  26.084  27.428  1.00  0.00     0.060 A 
ATOM     36  C   UNL A   1      40.507  25.945  28.273  1.00  0.00     0.016 A 
ATOM     37  C   UNL A   1      42.676  26.924  27.769  1.00  0.00     0.016 A 
ATOM     38  C   UNL A   1      40.422  26.702  29.434  1.00  0.00     0.010 A 
ATOM     39  C   UNL A   1      42.586  27.690  28.934  1.00  0.00     0.010 A 
ATOM     40  C   UNL A   1      41.437  27.614  29.744  1.00  0.00    -0.014 A 
BRANCH  40  41
ATOM     41  C   UNL A   1      41.205  28.606  30.817  1.00  0.00     0.031 A 
ATOM     42  C   UNL A   1      42.093  28.575  32.031  1.00  0.00     0.074 A 
ATOM     43  C   UNL A   1      40.259  29.551  30.681  1.00  0.00     0.049 A 
ATOM     44  N   UNL A   1      42.065  29.331  33.097  1.00  0.00    -0.248 NA
ATOM     45  C   UNL A   1      43.153  27.553  32.046  1.00  0.00     0.031 C 
ATOM     46  C   UNL A   1      39.378  29.703  29.523  1.00  0.00     0.029 A 
ATOM     47  N   UNL A   1      39.881  30.562  31.526  1.00  0.00    -0.354 N 
ATOM     48  C   UNL A   1      43.095  28.873  33.912  1.00  0.00     0.074 A 
ATOM     49  C   UNL A   1      43.707  27.753  33.231  1.00  0.00     0.031 C 
ATOM     50  C   UNL A   1      38.555  30.743  29.735  1.00  0.00     0.029 A 
ATOM     51  C   UNL A   1      38.826  31.307  31.056  1.00  0.00     0.049 A 
ATOM     52  H   UNL A   1      40.323  30.739  32.387  1.00  0.00     0.167 HD
ATOM     53  C   UNL A   1      43.497  29.351  35.112  1.00  0.00     0.037 A 
ATOM     54  C   UNL A   1      38.144  32.312  31.639  1.00  0.00     0.037 A 
ATOM     55  C   UNL A   1      42.878  30.470  35.774  1.00  0.00     0.049 A 
ATOM     56  C   UNL A   1      38.564  32.782  33.007  1.00  0.00     0.074 A 
ATOM     57  C   UNL A   1      43.214  31.046  36.986  1.00  0.00     0.029 A 
ATOM     58  N   UNL A   1      41.788  31.176  35.284  1.00  0.00    -0.354 N 
ATOM     59  N   UNL A   1      39.551  32.352  33.760  1.00  0.00    -0.248 NA
ATOM     60  C   UNL A   1      37.784  33.873  33.605  1.00  0.00     0.031 C 
ATOM     61  C   UNL A   1      42.293  32.064  37.255  1.00  0.00     0.029 A 
ATOM     62  C   UNL A   1      41.421  32.164  36.182  1.00  0.00     0.049 A 
ATOM     63  H   UNL A   1      41.342  31.000  34.424  1.00  0.00     0.167 HD
ATOM     64  C   UNL A   1      39.527  33.140  34.906  1.00  0.00     0.074 A 
ATOM     65  C   UNL A   1      38.436  34.079  34.742  1.00  0.00     0.031 C 
ATOM     66  C   UNL A   1      40.335  33.094  35.995  1.00  0.00     0.037 A 
BRANCH  53  67
ATOM     67  C   UNL A   1      44.636  28.649  35.801  1.00  0.00     0.058 A 
ATOM     68  C   UNL A   1      45.975  29.011  35.584  1.00  0.00     0.135 A 
ATOM     69  C   UNL A   1      44.380  27.614  36.717  1.00  0.00     0.135 A 
ATOM     70  F   UNL A   1      46.279  29.979  34.703  1.00  0.00    -0.206 F 
ATOM     71  C   UNL A   1      47.020  28.360  36.232  1.00  0.00     0.059 A 
ATOM     72  C   UNL A   1      45.408  26.969  37.398  1.00  0.00     0.059 A 
ATOM     73  F   UNL A   1      43.120  27.223  36.959  1.00  0.00    -0.206 F 
ATOM     74  C   UNL A   1      46.726  27.341  37.139  1.00  0.00     0.060 A 
BRANCH  74  75
ATOM     75  S   UNL A   1      48.093  26.510  37.976  1.00  0.00     0.124 S 
ATOM     76  O   UNL A   1      47.546  25.170  38.167  1.00  0.00    -0.237 OA
ATOM     77  O   UNL A   1      49.170  26.621  36.999  1.00  0.00    -0.237 OA
ATOM     78  O   UNL A   1      48.271  27.292  39.195  1.00  0.00    -0.744 OA
ENDBRANCH  74  75
ENDBRANCH  53  67
BRANCH  54  79
ATOM     79  C   UNL A   1      36.986  32.928  30.938  1.00  0.00     0.058 A 
ATOM     80  C   UNL A   1      37.165  33.955  30.000  1.00  0.00     0.135 A 
ATOM     81  C   UNL A   1      35.673  32.493  31.188  1.00  0.00     0.135 A 
ATOM     82  F   UNL A   1      38.397  34.412  29.733  1.00  0.00    -0.206 F 
ATOM     83  C   UNL A   1      36.085  34.539  29.345  1.00  0.00     0.059 A 
ATOM     84  C   UNL A   1      34.581  33.042  30.524  1.00  0.00     0.059 A 
ATOM     85  F   UNL A   1      35.449  31.504  32.066  1.00  0.00    -0.206 F 
ATOM     86  C   UNL A   1      34.796  34.072  29.611  1.00  0.00     0.060 A 
BRANCH  86  87
ATOM     87  S   UNL A   1      33.408  34.803  28.717  1.00  0.00     0.124 S 
ATOM     88  O   UNL A   1      33.026  33.714  27.827  1.00  0.00    -0.237 OA
ATOM     89  O   UNL A   1      32.476  35.102  29.799  1.00  0.00    -0.237 OA
ATOM     90  O   UNL A   1      34.003  35.969  28.072  1.00  0.00    -0.744 OA
ENDBRANCH  86  87
ENDBRANCH  54  79
BRANCH  66  91
ATOM     91  C   UNL A   1      40.098  34.111  37.080  1.00  0.00     0.058 A 
ATOM     92  C   UNL A   1      40.628  35.409  37.006  1.00  0.00     0.135 A 
ATOM     93  C   UNL A   1      39.279  33.798  38.177  1.00  0.00     0.135 A 
ATOM     94  F   UNL A   1      41.422  35.758  35.982  1.00  0.00    -0.206 F 
ATOM     95  C   UNL A   1      40.373  36.353  37.995  1.00  0.00     0.059 A 
ATOM     96  C   UNL A   1      38.985  34.736  39.161  1.00  0.00     0.059 A 
ATOM     97  F   UNL A   1      38.737  32.575  38.290  1.00  0.00    -0.206 F 
ATOM     98  C   UNL A   1      39.547  36.009  39.067  1.00  0.00     0.060 A 
BRANCH  98  99
ATOM     99  S   UNL A   1      39.195  37.257  40.323  1.00  0.00     0.124 S 
ATOM    100  O   UNL A   1      38.653  36.441  41.404  1.00  0.00    -0.237 OA
ATOM    101  O   UNL A   1      40.514  37.835  40.565  1.00  0.00    -0.237 OA
ATOM    102  O   UNL A   1      38.239  38.142  39.665  1.00  0.00    -0.744 OA
ENDBRANCH  98  99
ENDBRANCH  66  91
ENDBRANCH  40  41
ENDBRANCH  33  35
ENDBRANCH  32  33
ENDBRANCH  31  32
ENDBRANCH  30  31
ENDBRANCH   1  30
TORSDOF 21
ENDMDL
