MODEL 1
REMARK VINA RESULT:      -8.1      0.000      0.000
REMARK SMILES CCCC[C@@H](Sc1nc(OCCC2CCCCC2)cc(OCCC2CCCCC2)n1)C(=O)OCCOCCOC(=O)c1ccc(-c2c3nc(c(-c4c(F)cc(S(=O)(=O)[O-])cc4F)c4ccc([nH]4)c(-c4c(F)cc(S(=O)(=O)[O-])cc4F)c4nc(c(-c5c(F)cc(S(=O)(=O)[O-])cc5F)c5ccc2[nH]5)C=C4)C=C3)cc1
REMARK SMILES IDX 34 1 33 2 31 3 32 4 5 5 4 6 3 7 2 8 1 9 6 10 7 11 8 12 30 13
REMARK SMILES IDX 9 14 20 15 19 16 10 17 11 18 12 19 13 20 14 21 18 22 15 23
REMARK SMILES IDX 17 24 16 25 21 26 22 27 23 28 24 29 25 30 29 31 26 32 28 33
REMARK SMILES IDX 27 34 35 35 36 36 37 37 38 38 39 39 40 40 41 41 42 42 43 43
REMARK SMILES IDX 107 44 44 45 106 46 45 47 46 48 47 49 100 50 48 51 105 52
REMARK SMILES IDX 99 53 101 54 49 55 104 56 98 57 97 58 50 60 84 61 63 62
REMARK SMILES IDX 83 63 64 64 67 65 82 66 102 67 65 68 66 69 81 71 103 72
REMARK SMILES IDX 68 73 51 74 52 75 61 76 53 77 54 78 60 79 62 80 55 81 56 82
REMARK SMILES IDX 57 83 58 84 59 85 85 86 86 87 95 88 87 89 88 90 94 91 96 92
REMARK SMILES IDX 89 93 90 94 91 95 92 96 93 97 69 98 70 99 79 100 71 101
REMARK SMILES IDX 72 102 78 103 80 104 73 105 74 106 75 107 76 108 77 109
REMARK H PARENT 101 59 67 70
REMARK Flexibility Score: inf
ROOT
ATOM      1  C   UNL A   1      44.515  22.824  27.318  1.00  0.00     0.261 C 
ENDROOT
BRANCH   1   2
ATOM      2  O   UNL A   1      44.785  24.156  27.767  1.00  0.00    -0.462 OA
BRANCH   2   3
ATOM      3  C   UNL A   1      46.105  24.480  27.873  1.00  0.00     0.319 C 
ATOM      4  O   UNL A   1      47.031  23.822  27.413  1.00  0.00    -0.251 OA
BRANCH   3   5
ATOM      5  C   UNL A   1      46.313  25.753  28.685  1.00  0.00     0.164 C 
BRANCH   5   6
ATOM      6  C   UNL A   1      45.448  25.778  29.973  1.00  0.00     0.027 C 
BRANCH   6   7
ATOM      7  C   UNL A   1      46.140  25.657  31.344  1.00  0.00     0.001 C 
BRANCH   7   8
ATOM      8  C   UNL A   1      45.281  25.171  32.520  1.00  0.00    -0.003 C 
ATOM      9  C   UNL A   1      44.435  23.953  32.192  1.00  0.00     0.004 C 
ENDBRANCH   7   8
ENDBRANCH   6   7
ENDBRANCH   5   6
BRANCH   5  10
ATOM     10  S   UNL A   1      48.135  25.769  28.914  1.00  0.00    -0.071 SA
BRANCH  10  11
ATOM     11  C   UNL A   1      48.521  27.349  28.241  1.00  0.00     0.195 A 
ATOM     12  N   UNL A   1      48.302  28.409  29.029  1.00  0.00    -0.187 NA
ATOM     13  N   UNL A   1      48.629  27.388  26.914  1.00  0.00    -0.187 NA
ATOM     14  C   UNL A   1      47.914  29.523  28.407  1.00  0.00     0.221 A 
ATOM     15  C   UNL A   1      48.192  28.490  26.331  1.00  0.00     0.221 A 
ATOM     16  C   UNL A   1      47.695  29.535  27.057  1.00  0.00     0.136 A 
BRANCH  14  17
ATOM     17  O   UNL A   1      47.780  30.607  29.232  1.00  0.00    -0.477 OA
BRANCH  17  18
ATOM     18  C   UNL A   1      46.568  31.360  29.212  1.00  0.00     0.231 C 
BRANCH  18  19
ATOM     19  C   UNL A   1      46.714  32.843  29.619  1.00  0.00     0.045 C 
BRANCH  19  20
ATOM     20  C   UNL A   1      45.516  33.756  29.300  1.00  0.00    -0.008 C 
ATOM     21  C   UNL A   1      44.726  33.306  28.062  1.00  0.00     0.004 C 
ATOM     22  C   UNL A   1      44.561  33.902  30.491  1.00  0.00     0.004 C 
ATOM     23  C   UNL A   1      43.624  34.313  27.724  1.00  0.00     0.000 C 
ATOM     24  C   UNL A   1      43.484  34.942  30.193  1.00  0.00     0.000 C 
ATOM     25  C   UNL A   1      42.715  34.620  28.914  1.00  0.00     0.000 C 
ENDBRANCH  19  20
ENDBRANCH  18  19
ENDBRANCH  17  18
ENDBRANCH  14  17
BRANCH  15  26
ATOM     26  O   UNL A   1      48.061  28.419  24.970  1.00  0.00    -0.477 OA
BRANCH  26  27
ATOM     27  C   UNL A   1      48.876  27.415  24.355  1.00  0.00     0.231 C 
BRANCH  27  28
ATOM     28  C   UNL A   1      48.324  27.062  22.954  1.00  0.00     0.045 C 
BRANCH  28  29
ATOM     29  C   UNL A   1      49.404  27.110  21.864  1.00  0.00    -0.008 C 
ATOM     30  C   UNL A   1      49.079  26.226  20.659  1.00  0.00     0.004 C 
ATOM     31  C   UNL A   1      49.716  28.496  21.292  1.00  0.00     0.004 C 
ATOM     32  C   UNL A   1      50.394  25.944  19.941  1.00  0.00     0.000 C 
ATOM     33  C   UNL A   1      50.956  28.409  20.382  1.00  0.00     0.000 C 
ATOM     34  C   UNL A   1      50.942  27.249  19.371  1.00  0.00     0.000 C 
ENDBRANCH  28  29
ENDBRANCH  27  28
ENDBRANCH  26  27
ENDBRANCH  15  26
ENDBRANCH  10  11
ENDBRANCH   5  10
ENDBRANCH   3   5
ENDBRANCH   2   3
ENDBRANCH   1   2
BRANCH   1  35
ATOM     35  C   UNL A   1      44.528  22.713  25.792  1.00  0.00     0.202 C 
BRANCH  35  36
ATOM     36  O   UNL A   1      43.307  22.355  25.149  1.00  0.00    -0.374 OA
BRANCH  36  37
ATOM     37  C   UNL A   1      42.090  22.918  25.635  1.00  0.00     0.202 C 
BRANCH  37  38
ATOM     38  C   UNL A   1      41.947  24.443  25.607  1.00  0.00     0.261 C 
BRANCH  38  39
ATOM     39  O   UNL A   1      41.493  24.988  26.860  1.00  0.00    -0.460 OA
BRANCH  39  40
ATOM     40  C   UNL A   1      40.179  25.309  26.895  1.00  0.00     0.338 C 
ATOM     41  O   UNL A   1      39.261  24.716  26.332  1.00  0.00    -0.246 OA
BRANCH  40  42
ATOM     42  C   UNL A   1      39.930  26.396  27.853  1.00  0.00     0.060 A 
ATOM     43  C   UNL A   1      40.663  27.581  27.706  1.00  0.00     0.016 A 
ATOM     44  C   UNL A   1      39.095  26.208  28.957  1.00  0.00     0.016 A 
ATOM     45  C   UNL A   1      40.607  28.565  28.693  1.00  0.00     0.010 A 
ATOM     46  C   UNL A   1      39.053  27.190  29.951  1.00  0.00     0.010 A 
ATOM     47  C   UNL A   1      39.839  28.351  29.843  1.00  0.00    -0.014 A 
BRANCH  47  48
ATOM     48  C   UNL A   1      39.993  29.243  31.018  1.00  0.00     0.031 A 
ATOM     49  C   UNL A   1      41.142  28.998  31.959  1.00  0.00     0.074 A 
ATOM     50  C   UNL A   1      39.131  30.250  31.246  1.00  0.00     0.049 A 
ATOM     51  N   UNL A   1      41.397  29.543  33.119  1.00  0.00    -0.248 NA
ATOM     52  C   UNL A   1      42.139  28.002  31.529  1.00  0.00     0.031 C 
ATOM     53  C   UNL A   1      38.024  30.632  30.370  1.00  0.00     0.029 A 
ATOM     54  N   UNL A   1      39.046  31.127  32.299  1.00  0.00    -0.354 N 
ATOM     55  C   UNL A   1      42.570  28.948  33.566  1.00  0.00     0.074 A 
ATOM     56  C   UNL A   1      42.971  27.988  32.560  1.00  0.00     0.031 C 
ATOM     57  C   UNL A   1      37.356  31.653  30.934  1.00  0.00     0.029 A 
ATOM     58  C   UNL A   1      37.959  31.966  32.229  1.00  0.00     0.049 A 
ATOM     59  H   UNL A   1      39.700  31.152  33.034  1.00  0.00     0.167 HD
ATOM     60  C   UNL A   1      43.252  29.182  34.713  1.00  0.00     0.037 A 
ATOM     61  C   UNL A   1      37.489  32.856  33.125  1.00  0.00     0.037 A 
ATOM     62  C   UNL A   1      42.845  30.136  35.709  1.00  0.00     0.049 A 
ATOM     63  C   UNL A   1      38.213  33.037  34.434  1.00  0.00     0.074 A 
ATOM     64  C   UNL A   1      43.449  30.431  36.918  1.00  0.00     0.029 A 
ATOM     65  N   UNL A   1      41.731  30.956  35.607  1.00  0.00    -0.354 N 
ATOM     66  N   UNL A   1      39.305  32.447  34.863  1.00  0.00    -0.248 NA
ATOM     67  C   UNL A   1      37.641  33.999  35.388  1.00  0.00     0.031 C 
ATOM     68  C   UNL A   1      42.680  31.404  37.564  1.00  0.00     0.029 A 
ATOM     69  C   UNL A   1      41.625  31.750  36.735  1.00  0.00     0.049 A 
ATOM     70  H   UNL A   1      41.107  30.970  34.845  1.00  0.00     0.167 HD
ATOM     71  C   UNL A   1      39.571  32.996  36.113  1.00  0.00     0.074 A 
ATOM     72  C   UNL A   1      38.524  33.960  36.377  1.00  0.00     0.031 C 
ATOM     73  C   UNL A   1      40.594  32.732  36.962  1.00  0.00     0.037 A 
BRANCH  60  74
ATOM     74  C   UNL A   1      44.494  28.373  34.961  1.00  0.00     0.058 A 
ATOM     75  C   UNL A   1      45.763  28.836  34.581  1.00  0.00     0.135 A 
ATOM     76  C   UNL A   1      44.417  27.134  35.617  1.00  0.00     0.135 A 
ATOM     77  F   UNL A   1      45.891  30.005  33.934  1.00  0.00    -0.206 F 
ATOM     78  C   UNL A   1      46.912  28.088  34.822  1.00  0.00     0.059 A 
ATOM     79  C   UNL A   1      45.555  26.380  35.890  1.00  0.00     0.059 A 
ATOM     80  F   UNL A   1      43.227  26.644  35.999  1.00  0.00    -0.206 F 
ATOM     81  C   UNL A   1      46.796  26.860  35.476  1.00  0.00     0.060 A 
BRANCH  81  82
ATOM     82  S   UNL A   1      48.295  25.902  35.786  1.00  0.00     0.124 S 
ATOM     83  O   UNL A   1      49.169  26.912  36.374  1.00  0.00    -0.237 OA
ATOM     84  O   UNL A   1      47.822  24.865  36.698  1.00  0.00    -0.237 OA
ATOM     85  O   UNL A   1      48.680  25.434  34.458  1.00  0.00    -0.744 OA
ENDBRANCH  81  82
ENDBRANCH  60  74
BRANCH  61  86
ATOM     86  C   UNL A   1      36.253  33.630  32.833  1.00  0.00     0.058 A 
ATOM     87  C   UNL A   1      36.310  34.998  32.529  1.00  0.00     0.135 A 
ATOM     88  C   UNL A   1      34.987  33.022  32.870  1.00  0.00     0.135 A 
ATOM     89  F   UNL A   1      37.496  35.626  32.492  1.00  0.00    -0.206 F 
ATOM     90  C   UNL A   1      35.159  35.742  32.293  1.00  0.00     0.059 A 
ATOM     91  C   UNL A   1      33.823  33.740  32.614  1.00  0.00     0.059 A 
ATOM     92  F   UNL A   1      34.877  31.714  33.148  1.00  0.00    -0.206 F 
ATOM     93  C   UNL A   1      33.918  35.103  32.340  1.00  0.00     0.060 A 
BRANCH  93  94
ATOM     94  S   UNL A   1      32.430  36.072  32.010  1.00  0.00     0.124 S 
ATOM     95  O   UNL A   1      32.406  36.082  30.552  1.00  0.00    -0.237 OA
ATOM     96  O   UNL A   1      31.394  35.275  32.660  1.00  0.00    -0.237 OA
ATOM     97  O   UNL A   1      32.718  37.353  32.646  1.00  0.00    -0.744 OA
ENDBRANCH  93  94
ENDBRANCH  61  86
BRANCH  73  98
ATOM     98  C   UNL A   1      40.684  33.538  38.227  1.00  0.00     0.058 A 
ATOM     99  C   UNL A   1      41.497  34.676  38.326  1.00  0.00     0.135 A 
ATOM    100  C   UNL A   1      39.862  33.219  39.321  1.00  0.00     0.135 A 
ATOM    101  F   UNL A   1      42.305  35.019  37.310  1.00  0.00    -0.206 F 
ATOM    102  C   UNL A   1      41.496  35.470  39.467  1.00  0.00     0.059 A 
ATOM    103  C   UNL A   1      39.829  34.011  40.464  1.00  0.00     0.059 A 
ATOM    104  F   UNL A   1      39.058  32.146  39.272  1.00  0.00    -0.206 F 
ATOM    105  C   UNL A   1      40.652  35.134  40.529  1.00  0.00     0.060 A 
BRANCH 105 106
ATOM    106  S   UNL A   1      40.605  36.214  41.975  1.00  0.00     0.124 S 
ATOM    107  O   UNL A   1      41.600  37.221  41.624  1.00  0.00    -0.237 OA
ATOM    108  O   UNL A   1      39.218  36.668  41.983  1.00  0.00    -0.237 OA
ATOM    109  O   UNL A   1      40.972  35.325  43.075  1.00  0.00    -0.744 OA
ENDBRANCH 105 106
ENDBRANCH  73  98
ENDBRANCH  47  48
ENDBRANCH  40  42
ENDBRANCH  39  40
ENDBRANCH  38  39
ENDBRANCH  37  38
ENDBRANCH  36  37
ENDBRANCH  35  36
ENDBRANCH   1  35
TORSDOF 30
ENDMDL
MODEL 2
REMARK VINA RESULT:      -8.1      8.705     15.959
REMARK SMILES CCCC[C@@H](Sc1nc(OCCC2CCCCC2)cc(OCCC2CCCCC2)n1)C(=O)OCCOCCOC(=O)c1ccc(-c2c3nc(c(-c4c(F)cc(S(=O)(=O)[O-])cc4F)c4ccc([nH]4)c(-c4c(F)cc(S(=O)(=O)[O-])cc4F)c4nc(c(-c5c(F)cc(S(=O)(=O)[O-])cc5F)c5ccc2[nH]5)C=C4)C=C3)cc1
REMARK SMILES IDX 34 1 33 2 31 3 32 4 5 5 4 6 3 7 2 8 1 9 6 10 7 11 8 12 30 13
REMARK SMILES IDX 9 14 20 15 19 16 10 17 11 18 12 19 13 20 14 21 18 22 15 23
REMARK SMILES IDX 17 24 16 25 21 26 22 27 23 28 24 29 25 30 29 31 26 32 28 33
REMARK SMILES IDX 27 34 35 35 36 36 37 37 38 38 39 39 40 40 41 41 42 42 43 43
REMARK SMILES IDX 107 44 44 45 106 46 45 47 46 48 47 49 100 50 48 51 105 52
REMARK SMILES IDX 99 53 101 54 49 55 104 56 98 57 97 58 50 60 84 61 63 62
REMARK SMILES IDX 83 63 64 64 67 65 82 66 102 67 65 68 66 69 81 71 103 72
REMARK SMILES IDX 68 73 51 74 52 75 61 76 53 77 54 78 60 79 62 80 55 81 56 82
REMARK SMILES IDX 57 83 58 84 59 85 85 86 86 87 95 88 87 89 88 90 94 91 96 92
REMARK SMILES IDX 89 93 90 94 91 95 92 96 93 97 69 98 70 99 79 100 71 101
REMARK SMILES IDX 72 102 78 103 80 104 73 105 74 106 75 107 76 108 77 109
REMARK H PARENT 101 59 67 70
REMARK Flexibility Score: inf
ROOT
ATOM      1  C   UNL A   1      44.550  42.284  28.544  1.00  0.00     0.261 C 
ENDROOT
BRANCH   1   2
ATOM      2  O   UNL A   1      44.030  42.077  27.227  1.00  0.00    -0.462 OA
BRANCH   2   3
ATOM      3  C   UNL A   1      44.931  41.629  26.307  1.00  0.00     0.319 C 
ATOM      4  O   UNL A   1      45.309  40.467  26.199  1.00  0.00    -0.251 OA
BRANCH   3   5
ATOM      5  C   UNL A   1      45.467  42.760  25.438  1.00  0.00     0.164 C 
BRANCH   5   6
ATOM      6  C   UNL A   1      46.063  43.918  26.282  1.00  0.00     0.027 C 
BRANCH   6   7
ATOM      7  C   UNL A   1      47.229  44.743  25.706  1.00  0.00     0.001 C 
BRANCH   7   8
ATOM      8  C   UNL A   1      48.236  45.326  26.708  1.00  0.00    -0.003 C 
ATOM      9  C   UNL A   1      47.593  46.181  27.787  1.00  0.00     0.004 C 
ENDBRANCH   7   8
ENDBRANCH   6   7
ENDBRANCH   5   6
BRANCH   5  10
ATOM     10  S   UNL A   1      46.623  41.873  24.321  1.00  0.00    -0.071 SA
BRANCH  10  11
ATOM     11  C   UNL A   1      46.174  42.588  22.776  1.00  0.00     0.195 A 
ATOM     12  N   UNL A   1      46.856  43.677  22.396  1.00  0.00    -0.187 NA
ATOM     13  N   UNL A   1      44.978  42.230  22.312  1.00  0.00    -0.187 NA
ATOM     14  C   UNL A   1      46.163  44.581  21.702  1.00  0.00     0.221 A 
ATOM     15  C   UNL A   1      44.304  43.167  21.669  1.00  0.00     0.221 A 
ATOM     16  C   UNL A   1      44.827  44.412  21.466  1.00  0.00     0.136 A 
BRANCH  14  17
ATOM     17  O   UNL A   1      46.910  45.638  21.259  1.00  0.00    -0.477 OA
BRANCH  17  18
ATOM     18  C   UNL A   1      48.243  45.414  20.803  1.00  0.00     0.231 C 
BRANCH  18  19
ATOM     19  C   UNL A   1      49.304  46.372  21.391  1.00  0.00     0.045 C 
BRANCH  19  20
ATOM     20  C   UNL A   1      49.407  47.759  20.730  1.00  0.00    -0.008 C 
ATOM     21  C   UNL A   1      48.607  47.867  19.424  1.00  0.00     0.004 C 
ATOM     22  C   UNL A   1      48.991  48.889  21.680  1.00  0.00     0.004 C 
ATOM     23  C   UNL A   1      48.842  49.223  18.753  1.00  0.00     0.000 C 
ATOM     24  C   UNL A   1      49.267  50.252  21.048  1.00  0.00     0.000 C 
ATOM     25  C   UNL A   1      48.586  50.402  19.691  1.00  0.00     0.000 C 
ENDBRANCH  19  20
ENDBRANCH  18  19
ENDBRANCH  17  18
ENDBRANCH  14  17
BRANCH  15  26
ATOM     26  O   UNL A   1      42.987  42.879  21.431  1.00  0.00    -0.477 OA
BRANCH  26  27
ATOM     27  C   UNL A   1      42.712  42.457  20.090  1.00  0.00     0.231 C 
BRANCH  27  28
ATOM     28  C   UNL A   1      41.620  43.352  19.461  1.00  0.00     0.045 C 
BRANCH  28  29
ATOM     29  C   UNL A   1      42.150  44.202  18.298  1.00  0.00    -0.008 C 
ATOM     30  C   UNL A   1      41.651  45.648  18.336  1.00  0.00     0.004 C 
ATOM     31  C   UNL A   1      43.673  44.290  18.175  1.00  0.00     0.004 C 
ATOM     32  C   UNL A   1      41.787  46.207  16.925  1.00  0.00     0.000 C 
ATOM     33  C   UNL A   1      44.042  44.985  16.850  1.00  0.00     0.000 C 
ATOM     34  C   UNL A   1      43.266  46.281  16.556  1.00  0.00     0.000 C 
ENDBRANCH  28  29
ENDBRANCH  27  28
ENDBRANCH  26  27
ENDBRANCH  15  26
ENDBRANCH  10  11
ENDBRANCH   5  10
ENDBRANCH   3   5
ENDBRANCH   2   3
ENDBRANCH   1   2
BRANCH   1  35
ATOM     35  C   UNL A   1      45.010  40.980  29.197  1.00  0.00     0.202 C 
BRANCH  35  36
ATOM     36  O   UNL A   1      44.007  40.130  29.748  1.00  0.00    -0.374 OA
BRANCH  36  37
ATOM     37  C   UNL A   1      43.738  38.887  29.103  1.00  0.00     0.202 C 
BRANCH  37  38
ATOM     38  C   UNL A   1      44.576  37.671  29.516  1.00  0.00     0.261 C 
BRANCH  38  39
ATOM     39  O   UNL A   1      45.935  37.740  29.044  1.00  0.00    -0.460 OA
BRANCH  39  40
ATOM     40  C   UNL A   1      46.837  37.104  29.826  1.00  0.00     0.338 C 
ATOM     41  O   UNL A   1      47.462  37.584  30.770  1.00  0.00    -0.246 OA
BRANCH  40  42
ATOM     42  C   UNL A   1      46.877  35.666  29.519  1.00  0.00     0.060 A 
ATOM     43  C   UNL A   1      46.983  35.285  28.174  1.00  0.00     0.016 A 
ATOM     44  C   UNL A   1      46.674  34.710  30.516  1.00  0.00     0.016 A 
ATOM     45  C   UNL A   1      46.833  33.947  27.813  1.00  0.00     0.010 A 
ATOM     46  C   UNL A   1      46.510  33.371  30.149  1.00  0.00     0.010 A 
ATOM     47  C   UNL A   1      46.547  32.991  28.795  1.00  0.00    -0.014 A 
BRANCH  47  48
ATOM     48  C   UNL A   1      46.103  31.631  28.403  1.00  0.00     0.031 A 
ATOM     49  C   UNL A   1      44.680  31.231  28.692  1.00  0.00     0.074 A 
ATOM     50  C   UNL A   1      46.942  30.769  27.803  1.00  0.00     0.049 A 
ATOM     51  N   UNL A   1      44.108  30.061  28.580  1.00  0.00    -0.248 NA
ATOM     52  C   UNL A   1      43.785  32.297  29.174  1.00  0.00     0.031 C 
ATOM     53  C   UNL A   1      48.318  31.066  27.406  1.00  0.00     0.029 A 
ATOM     54  N   UNL A   1      46.761  29.459  27.438  1.00  0.00    -0.354 N 
ATOM     55  C   UNL A   1      42.792  30.245  28.990  1.00  0.00     0.074 A 
ATOM     56  C   UNL A   1      42.654  31.634  29.368  1.00  0.00     0.031 C 
ATOM     57  C   UNL A   1      48.864  29.960  26.872  1.00  0.00     0.029 A 
ATOM     58  C   UNL A   1      47.894  28.868  26.932  1.00  0.00     0.049 A 
ATOM     59  H   UNL A   1      45.902  28.987  27.531  1.00  0.00     0.167 HD
ATOM     60  C   UNL A   1      41.790  29.335  29.045  1.00  0.00     0.037 A 
ATOM     61  C   UNL A   1      48.127  27.585  26.591  1.00  0.00     0.037 A 
ATOM     62  C   UNL A   1      41.938  27.954  28.669  1.00  0.00     0.049 A 
ATOM     63  C   UNL A   1      47.023  26.569  26.744  1.00  0.00     0.074 A 
ATOM     64  C   UNL A   1      40.993  26.944  28.712  1.00  0.00     0.029 A 
ATOM     65  N   UNL A   1      43.105  27.392  28.173  1.00  0.00    -0.354 N 
ATOM     66  N   UNL A   1      45.791  26.745  27.162  1.00  0.00    -0.248 NA
ATOM     67  C   UNL A   1      47.340  25.178  26.385  1.00  0.00     0.031 C 
ATOM     68  C   UNL A   1      41.600  25.761  28.277  1.00  0.00     0.029 A 
ATOM     69  C   UNL A   1      42.907  26.047  27.916  1.00  0.00     0.049 A 
ATOM     70  H   UNL A   1      43.949  27.878  28.029  1.00  0.00     0.167 HD
ATOM     71  C   UNL A   1      45.177  25.499  27.077  1.00  0.00     0.074 A 
ATOM     72  C   UNL A   1      46.173  24.576  26.575  1.00  0.00     0.031 C 
ATOM     73  C   UNL A   1      43.903  25.153  27.380  1.00  0.00     0.037 A 
BRANCH  60  74
ATOM     74  C   UNL A   1      40.455  29.800  29.554  1.00  0.00     0.058 A 
ATOM     75  C   UNL A   1      39.354  29.957  28.697  1.00  0.00     0.135 A 
ATOM     76  C   UNL A   1      40.265  30.061  30.920  1.00  0.00     0.135 A 
ATOM     77  F   UNL A   1      39.486  29.740  27.380  1.00  0.00    -0.206 F 
ATOM     78  C   UNL A   1      38.117  30.379  29.174  1.00  0.00     0.059 A 
ATOM     79  C   UNL A   1      39.031  30.460  31.423  1.00  0.00     0.059 A 
ATOM     80  F   UNL A   1      41.287  29.929  31.781  1.00  0.00    -0.206 F 
ATOM     81  C   UNL A   1      37.966  30.629  30.540  1.00  0.00     0.060 A 
BRANCH  81  82
ATOM     82  S   UNL A   1      36.354  31.172  31.146  1.00  0.00     0.124 S 
ATOM     83  O   UNL A   1      35.577  31.209  29.911  1.00  0.00    -0.237 OA
ATOM     84  O   UNL A   1      36.000  30.113  32.087  1.00  0.00    -0.237 OA
ATOM     85  O   UNL A   1      36.637  32.471  31.749  1.00  0.00    -0.744 OA
ENDBRANCH  81  82
ENDBRANCH  60  74
BRANCH  61  86
ATOM     86  C   UNL A   1      49.468  27.173  26.095  1.00  0.00     0.058 A 
ATOM     87  C   UNL A   1      49.761  27.165  24.724  1.00  0.00     0.135 A 
ATOM     88  C   UNL A   1      50.477  26.763  26.981  1.00  0.00     0.135 A 
ATOM     89  F   UNL A   1      48.826  27.539  23.837  1.00  0.00    -0.206 F 
ATOM     90  C   UNL A   1      50.997  26.745  24.245  1.00  0.00     0.059 A 
ATOM     91  C   UNL A   1      51.730  26.361  26.528  1.00  0.00     0.059 A 
ATOM     92  F   UNL A   1      50.251  26.760  28.304  1.00  0.00    -0.206 F 
ATOM     93  C   UNL A   1      51.976  26.342  25.156  1.00  0.00     0.060 A 
BRANCH  93  94
ATOM     94  S   UNL A   1      53.586  25.820  24.527  1.00  0.00     0.124 S 
ATOM     95  O   UNL A   1      54.490  26.654  25.311  1.00  0.00    -0.237 OA
ATOM     96  O   UNL A   1      53.594  24.395  24.846  1.00  0.00    -0.237 OA
ATOM     97  O   UNL A   1      53.508  26.137  23.105  1.00  0.00    -0.744 OA
ENDBRANCH  93  94
ENDBRANCH  61  86
BRANCH  73  98
ATOM     98  C   UNL A   1      43.477  23.736  27.115  1.00  0.00     0.058 A 
ATOM     99  C   UNL A   1      43.507  22.753  28.115  1.00  0.00     0.135 A 
ATOM    100  C   UNL A   1      42.938  23.388  25.865  1.00  0.00     0.135 A 
ATOM    101  F   UNL A   1      44.019  23.034  29.324  1.00  0.00    -0.206 F 
ATOM    102  C   UNL A   1      43.018  21.471  27.885  1.00  0.00     0.059 A 
ATOM    103  C   UNL A   1      42.423  22.119  25.620  1.00  0.00     0.059 A 
ATOM    104  F   UNL A   1      42.878  24.296  24.879  1.00  0.00    -0.206 F 
ATOM    105  C   UNL A   1      42.470  21.166  26.636  1.00  0.00     0.060 A 
BRANCH 105 106
ATOM    106  S   UNL A   1      41.771  19.521  26.374  1.00  0.00     0.124 S 
ATOM    107  O   UNL A   1      40.341  19.792  26.464  1.00  0.00    -0.237 OA
ATOM    108  O   UNL A   1      42.270  19.177  25.046  1.00  0.00    -0.237 OA
ATOM    109  O   UNL A   1      42.332  18.735  27.470  1.00  0.00    -0.744 OA
ENDBRANCH 105 106
ENDBRANCH  73  98
ENDBRANCH  47  48
ENDBRANCH  40  42
ENDBRANCH  39  40
ENDBRANCH  38  39
ENDBRANCH  37  38
ENDBRANCH  36  37
ENDBRANCH  35  36
ENDBRANCH   1  35
TORSDOF 30
ENDMDL
MODEL 3
REMARK VINA RESULT:      -7.8      4.372     11.943
REMARK SMILES CCCC[C@@H](Sc1nc(OCCC2CCCCC2)cc(OCCC2CCCCC2)n1)C(=O)OCCOCCOC(=O)c1ccc(-c2c3nc(c(-c4c(F)cc(S(=O)(=O)[O-])cc4F)c4ccc([nH]4)c(-c4c(F)cc(S(=O)(=O)[O-])cc4F)c4nc(c(-c5c(F)cc(S(=O)(=O)[O-])cc5F)c5ccc2[nH]5)C=C4)C=C3)cc1
REMARK SMILES IDX 34 1 33 2 31 3 32 4 5 5 4 6 3 7 2 8 1 9 6 10 7 11 8 12 30 13
REMARK SMILES IDX 9 14 20 15 19 16 10 17 11 18 12 19 13 20 14 21 18 22 15 23
REMARK SMILES IDX 17 24 16 25 21 26 22 27 23 28 24 29 25 30 29 31 26 32 28 33
REMARK SMILES IDX 27 34 35 35 36 36 37 37 38 38 39 39 40 40 41 41 42 42 43 43
REMARK SMILES IDX 107 44 44 45 106 46 45 47 46 48 47 49 100 50 48 51 105 52
REMARK SMILES IDX 99 53 101 54 49 55 104 56 98 57 97 58 50 60 84 61 63 62
REMARK SMILES IDX 83 63 64 64 67 65 82 66 102 67 65 68 66 69 81 71 103 72
REMARK SMILES IDX 68 73 51 74 52 75 61 76 53 77 54 78 60 79 62 80 55 81 56 82
REMARK SMILES IDX 57 83 58 84 59 85 85 86 86 87 95 88 87 89 88 90 94 91 96 92
REMARK SMILES IDX 89 93 90 94 91 95 92 96 93 97 69 98 70 99 79 100 71 101
REMARK SMILES IDX 72 102 78 103 80 104 73 105 74 106 75 107 76 108 77 109
REMARK H PARENT 101 59 67 70
REMARK Flexibility Score: inf
ROOT
ATOM      1  C   UNL A   1      38.989  30.518  35.086  1.00  0.00     0.261 C 
ENDROOT
BRANCH   1   2
ATOM      2  O   UNL A   1      37.967  30.604  34.088  1.00  0.00    -0.462 OA
BRANCH   2   3
ATOM      3  C   UNL A   1      37.991  29.623  33.141  1.00  0.00     0.319 C 
ATOM      4  O   UNL A   1      37.282  28.622  33.146  1.00  0.00    -0.251 OA
BRANCH   3   5
ATOM      5  C   UNL A   1      39.050  29.886  32.078  1.00  0.00     0.164 C 
BRANCH   5   6
ATOM      6  C   UNL A   1      39.028  28.821  30.949  1.00  0.00     0.027 C 
BRANCH   6   7
ATOM      7  C   UNL A   1      38.857  29.278  29.489  1.00  0.00     0.001 C 
BRANCH   7   8
ATOM      8  C   UNL A   1      37.508  28.982  28.817  1.00  0.00    -0.003 C 
ATOM      9  C   UNL A   1      36.340  29.724  29.446  1.00  0.00     0.004 C 
ENDBRANCH   7   8
ENDBRANCH   6   7
ENDBRANCH   5   6
BRANCH   5  10
ATOM     10  S   UNL A   1      38.682  31.616  31.586  1.00  0.00    -0.071 SA
BRANCH  10  11
ATOM     11  C   UNL A   1      40.313  32.273  31.507  1.00  0.00     0.195 A 
ATOM     12  N   UNL A   1      40.430  33.547  31.113  1.00  0.00    -0.187 NA
ATOM     13  N   UNL A   1      41.288  31.366  31.473  1.00  0.00    -0.187 NA
ATOM     14  C   UNL A   1      41.523  33.837  30.405  1.00  0.00     0.221 A 
ATOM     15  C   UNL A   1      42.334  31.670  30.725  1.00  0.00     0.221 A 
ATOM     16  C   UNL A   1      42.416  32.860  30.061  1.00  0.00     0.136 A 
BRANCH  14  17
ATOM     17  O   UNL A   1      41.652  35.162  30.091  1.00  0.00    -0.477 OA
BRANCH  17  18
ATOM     18  C   UNL A   1      41.328  35.607  28.774  1.00  0.00     0.231 C 
BRANCH  18  19
ATOM     19  C   UNL A   1      42.543  35.857  27.852  1.00  0.00     0.045 C 
BRANCH  19  20
ATOM     20  C   UNL A   1      43.144  34.614  27.170  1.00  0.00    -0.008 C 
ATOM     21  C   UNL A   1      43.477  34.839  25.688  1.00  0.00     0.004 C 
ATOM     22  C   UNL A   1      44.389  34.093  27.900  1.00  0.00     0.004 C 
ATOM     23  C   UNL A   1      43.957  33.540  25.035  1.00  0.00     0.000 C 
ATOM     24  C   UNL A   1      44.852  32.770  27.296  1.00  0.00     0.000 C 
ATOM     25  C   UNL A   1      45.108  32.883  25.796  1.00  0.00     0.000 C 
ENDBRANCH  19  20
ENDBRANCH  18  19
ENDBRANCH  17  18
ENDBRANCH  14  17
BRANCH  15  26
ATOM     26  O   UNL A   1      43.199  30.637  30.485  1.00  0.00    -0.477 OA
BRANCH  26  27
ATOM     27  C   UNL A   1      42.633  29.561  29.728  1.00  0.00     0.231 C 
BRANCH  27  28
ATOM     28  C   UNL A   1      43.386  29.396  28.388  1.00  0.00     0.045 C 
BRANCH  28  29
ATOM     29  C   UNL A   1      42.615  28.533  27.379  1.00  0.00    -0.008 C 
ATOM     30  C   UNL A   1      43.518  27.586  26.586  1.00  0.00     0.004 C 
ATOM     31  C   UNL A   1      41.503  27.657  27.962  1.00  0.00     0.004 C 
ATOM     32  C   UNL A   1      42.765  27.206  25.316  1.00  0.00     0.000 C 
ATOM     33  C   UNL A   1      40.689  27.028  26.814  1.00  0.00     0.000 C 
ATOM     34  C   UNL A   1      41.529  26.394  25.692  1.00  0.00     0.000 C 
ENDBRANCH  28  29
ENDBRANCH  27  28
ENDBRANCH  26  27
ENDBRANCH  15  26
ENDBRANCH  10  11
ENDBRANCH   5  10
ENDBRANCH   3   5
ENDBRANCH   2   3
ENDBRANCH   1   2
BRANCH   1  35
ATOM     35  C   UNL A   1      38.456  30.815  36.489  1.00  0.00     0.202 C 
BRANCH  35  36
ATOM     36  O   UNL A   1      37.465  31.831  36.615  1.00  0.00    -0.374 OA
BRANCH  36  37
ATOM     37  C   UNL A   1      37.866  33.121  37.073  1.00  0.00     0.202 C 
BRANCH  37  38
ATOM     38  C   UNL A   1      38.710  33.984  36.128  1.00  0.00     0.261 C 
BRANCH  38  39
ATOM     39  O   UNL A   1      38.567  35.395  36.378  1.00  0.00    -0.460 OA
BRANCH  39  40
ATOM     40  C   UNL A   1      39.674  35.998  36.867  1.00  0.00     0.338 C 
ATOM     41  O   UNL A   1      39.769  36.620  37.925  1.00  0.00    -0.246 OA
BRANCH  40  42
ATOM     42  C   UNL A   1      40.851  35.683  36.044  1.00  0.00     0.060 A 
ATOM     43  C   UNL A   1      40.667  35.544  34.662  1.00  0.00     0.016 A 
ATOM     44  C   UNL A   1      42.084  35.390  36.631  1.00  0.00     0.016 A 
ATOM     45  C   UNL A   1      41.702  35.060  33.863  1.00  0.00     0.010 A 
ATOM     46  C   UNL A   1      43.115  34.892  35.829  1.00  0.00     0.010 A 
ATOM     47  C   UNL A   1      42.916  34.686  34.452  1.00  0.00    -0.014 A 
BRANCH  47  48
ATOM     48  C   UNL A   1      43.911  33.908  33.676  1.00  0.00     0.031 A 
ATOM     49  C   UNL A   1      44.799  34.645  32.707  1.00  0.00     0.074 A 
ATOM     50  C   UNL A   1      44.027  32.577  33.825  1.00  0.00     0.049 A 
ATOM     51  N   UNL A   1      45.632  34.171  31.819  1.00  0.00    -0.248 NA
ATOM     52  C   UNL A   1      44.735  36.116  32.749  1.00  0.00     0.031 C 
ATOM     53  C   UNL A   1      43.277  31.765  34.782  1.00  0.00     0.029 A 
ATOM     54  N   UNL A   1      44.813  31.672  33.158  1.00  0.00    -0.354 N 
ATOM     55  C   UNL A   1      46.180  35.280  31.186  1.00  0.00     0.074 A 
ATOM     56  C   UNL A   1      45.574  36.452  31.780  1.00  0.00     0.031 C 
ATOM     57  C   UNL A   1      43.623  30.476  34.623  1.00  0.00     0.029 A 
ATOM     58  C   UNL A   1      44.583  30.367  33.526  1.00  0.00     0.049 A 
ATOM     59  H   UNL A   1      45.478  31.931  32.479  1.00  0.00     0.167 HD
ATOM     60  C   UNL A   1      47.107  35.317  30.198  1.00  0.00     0.037 A 
ATOM     61  C   UNL A   1      45.066  29.220  33.010  1.00  0.00     0.037 A 
ATOM     62  C   UNL A   1      47.702  34.146  29.612  1.00  0.00     0.049 A 
ATOM     63  C   UNL A   1      46.029  29.281  31.851  1.00  0.00     0.074 A 
ATOM     64  C   UNL A   1      48.630  34.073  28.588  1.00  0.00     0.029 A 
ATOM     65  N   UNL A   1      47.432  32.843  30.004  1.00  0.00    -0.354 N 
ATOM     66  N   UNL A   1      46.518  30.334  31.237  1.00  0.00    -0.248 NA
ATOM     67  C   UNL A   1      46.503  27.999  31.308  1.00  0.00     0.031 C 
ATOM     68  C   UNL A   1      48.894  32.722  28.336  1.00  0.00     0.029 A 
ATOM     69  C   UNL A   1      48.168  31.959  29.235  1.00  0.00     0.049 A 
ATOM     70  H   UNL A   1      46.808  32.587  30.720  1.00  0.00     0.167 HD
ATOM     71  C   UNL A   1      47.386  29.842  30.267  1.00  0.00     0.074 A 
ATOM     72  C   UNL A   1      47.351  28.398  30.368  1.00  0.00     0.031 C 
ATOM     73  C   UNL A   1      48.147  30.524  29.378  1.00  0.00     0.037 A 
BRANCH  60  74
ATOM     74  C   UNL A   1      47.511  36.666  29.674  1.00  0.00     0.058 A 
ATOM     75  C   UNL A   1      48.596  37.372  30.216  1.00  0.00     0.135 A 
ATOM     76  C   UNL A   1      46.825  37.245  28.594  1.00  0.00     0.135 A 
ATOM     77  F   UNL A   1      49.273  36.873  31.261  1.00  0.00    -0.206 F 
ATOM     78  C   UNL A   1      48.973  38.617  29.721  1.00  0.00     0.059 A 
ATOM     79  C   UNL A   1      47.200  38.477  28.067  1.00  0.00     0.059 A 
ATOM     80  F   UNL A   1      45.778  36.612  28.042  1.00  0.00    -0.206 F 
ATOM     81  C   UNL A   1      48.267  39.161  28.646  1.00  0.00     0.060 A 
BRANCH  81  82
ATOM     82  S   UNL A   1      48.770  40.775  28.011  1.00  0.00     0.124 S 
ATOM     83  O   UNL A   1      48.026  40.838  26.757  1.00  0.00    -0.237 OA
ATOM     84  O   UNL A   1      48.319  41.681  29.063  1.00  0.00    -0.237 OA
ATOM     85  O   UNL A   1      50.218  40.651  27.876  1.00  0.00    -0.744 OA
ENDBRANCH  81  82
ENDBRANCH  60  74
BRANCH  61  86
ATOM     86  C   UNL A   1      44.632  27.909  33.562  1.00  0.00     0.058 A 
ATOM     87  C   UNL A   1      45.351  27.284  34.591  1.00  0.00     0.135 A 
ATOM     88  C   UNL A   1      43.500  27.247  33.061  1.00  0.00     0.135 A 
ATOM     89  F   UNL A   1      46.446  27.872  35.096  1.00  0.00    -0.206 F 
ATOM     90  C   UNL A   1      44.979  26.039  35.089  1.00  0.00     0.059 A 
ATOM     91  C   UNL A   1      43.094  26.013  33.559  1.00  0.00     0.059 A 
ATOM     92  F   UNL A   1      42.772  27.806  32.081  1.00  0.00    -0.206 F 
ATOM     93  C   UNL A   1      43.848  25.411  34.564  1.00  0.00     0.060 A 
BRANCH  93  94
ATOM     94  S   UNL A   1      43.358  23.806  35.232  1.00  0.00     0.124 S 
ATOM     95  O   UNL A   1      44.448  23.532  36.162  1.00  0.00    -0.237 OA
ATOM     96  O   UNL A   1      42.063  24.106  35.837  1.00  0.00    -0.237 OA
ATOM     97  O   UNL A   1      43.307  22.953  34.050  1.00  0.00    -0.744 OA
ENDBRANCH  93  94
ENDBRANCH  61  86
BRANCH  73  98
ATOM     98  C   UNL A   1      49.064  29.735  28.486  1.00  0.00     0.058 A 
ATOM     99  C   UNL A   1      48.662  29.286  27.220  1.00  0.00     0.135 A 
ATOM    100  C   UNL A   1      50.398  29.516  28.870  1.00  0.00     0.135 A 
ATOM    101  F   UNL A   1      47.396  29.466  26.810  1.00  0.00    -0.206 F 
ATOM    102  C   UNL A   1      49.550  28.643  26.364  1.00  0.00     0.059 A 
ATOM    103  C   UNL A   1      51.308  28.895  28.021  1.00  0.00     0.059 A 
ATOM    104  F   UNL A   1      50.834  29.935  30.068  1.00  0.00    -0.206 F 
ATOM    105  C   UNL A   1      50.874  28.459  26.771  1.00  0.00     0.060 A 
BRANCH 105 106
ATOM    106  S   UNL A   1      52.035  27.690  25.621  1.00  0.00     0.124 S 
ATOM    107  O   UNL A   1      51.205  26.659  25.009  1.00  0.00    -0.237 OA
ATOM    108  O   UNL A   1      52.404  28.805  24.755  1.00  0.00    -0.237 OA
ATOM    109  O   UNL A   1      53.102  27.202  26.492  1.00  0.00    -0.744 OA
ENDBRANCH 105 106
ENDBRANCH  73  98
ENDBRANCH  47  48
ENDBRANCH  40  42
ENDBRANCH  39  40
ENDBRANCH  38  39
ENDBRANCH  37  38
ENDBRANCH  36  37
ENDBRANCH  35  36
ENDBRANCH   1  35
TORSDOF 30
ENDMDL
