MODEL 1
REMARK VINA RESULT:     -11.1      0.000      0.000
REMARK SMILES CCCN1CCC[C@@]2(CCN(c3ccc(C(=O)OCCOCCOC(=O)c4ccc(-c5c6nc(c(-c7c(F)cc(S(=O)(=O)[O-])cc7F)c7ccc([nH]7)c(-c7c(F)cc(S(=O)(=O)[O-])cc7F)c7nc(c(-c8c(F)cc(S(=O)(=O)[O-])cc8F)c8ccc5[nH]8)C=C7)C=C6)cc4)cn3)C2)C1=O
REMARK SMILES IDX 21 1 20 2 19 3 18 4 16 5 17 6 15 7 12 8 13 9 94 10 14 11
REMARK SMILES IDX 93 12 11 13 4 14 5 15 96 16 6 17 8 18 97 19 7 20 9 21 95 22
REMARK SMILES IDX 10 23 3 24 2 25 1 26 22 27 23 28 24 29 25 30 26 31 27 32
REMARK SMILES IDX 28 33 92 34 29 35 91 36 30 37 31 38 32 39 85 40 33 41 90 42
REMARK SMILES IDX 84 43 86 44 34 45 89 46 83 47 82 48 35 50 69 51 48 52 68 53
REMARK SMILES IDX 49 54 52 55 67 56 87 57 50 58 51 59 66 61 88 62 53 63 36 64
REMARK SMILES IDX 37 65 46 66 38 67 39 68 45 69 47 70 40 71 41 72 42 73 43 74
REMARK SMILES IDX 44 75 70 76 71 77 80 78 72 79 73 80 79 81 81 82 74 83 75 84
REMARK SMILES IDX 76 85 77 86 78 87 54 88 55 89 64 90 56 91 57 92 63 93 65 94
REMARK SMILES IDX 58 95 59 96 60 97 61 98 62 99
REMARK H PARENT 86 49 52 60
REMARK Flexibility Score: inf
ROOT
ATOM      1  O   UNL A   1      41.639  20.584  25.811  1.00  0.00    -0.374 OA
ENDROOT
BRANCH   1   2
ATOM      2  C   UNL A   1      40.286  20.177  26.009  1.00  0.00     0.202 C 
BRANCH   2   3
ATOM      3  C   UNL A   1      39.244  21.287  26.185  1.00  0.00     0.261 C 
BRANCH   3   4
ATOM      4  O   UNL A   1      38.467  21.481  24.993  1.00  0.00    -0.460 OA
BRANCH   4   5
ATOM      5  C   UNL A   1      37.306  20.787  24.942  1.00  0.00     0.339 C 
ATOM      6  O   UNL A   1      37.174  19.575  24.851  1.00  0.00    -0.246 OA
BRANCH   5   7
ATOM      7  C   UNL A   1      36.173  21.694  25.182  1.00  0.00     0.078 A 
ATOM      8  C   UNL A   1      33.987  23.242  25.833  1.00  0.00     0.128 A 
ATOM      9  C   UNL A   1      34.599  23.388  24.583  1.00  0.00     0.048 A 
ATOM     10  N   UNL A   1      34.483  22.404  26.764  1.00  0.00    -0.238 NA
ATOM     11  C   UNL A   1      35.713  22.618  24.254  1.00  0.00     0.021 A 
ATOM     12  C   UNL A   1      35.543  21.635  26.416  1.00  0.00     0.129 A 
BRANCH   8  13
ATOM     13  N   UNL A   1      32.786  23.885  26.068  1.00  0.00    -0.356 N 
ATOM     14  N   UNL A   1      30.824  26.590  23.175  1.00  0.00    -0.342 N 
ATOM     15  C   UNL A   1      30.507  27.845  23.832  1.00  0.00     0.119 C 
ATOM     16  C   UNL A   1      30.648  25.398  23.879  1.00  0.00     0.230 C 
ATOM     17  C   UNL A   1      31.246  27.964  25.149  1.00  0.00     0.023 C 
ATOM     18  C   UNL A   1      31.112  25.440  25.347  1.00  0.00     0.069 C 
ATOM     19  O   UNL A   1      30.349  24.346  23.316  1.00  0.00    -0.274 OA
ATOM     20  C   UNL A   1      30.830  26.789  26.031  1.00  0.00     0.021 C 
ATOM     21  C   UNL A   1      30.511  24.268  26.151  1.00  0.00     0.040 C 
ATOM     22  C   UNL A   1      32.635  25.146  25.338  1.00  0.00     0.135 C 
ATOM     23  C   UNL A   1      31.537  23.145  26.005  1.00  0.00     0.119 C 
BRANCH  14  24
ATOM     24  C   UNL A   1      31.525  26.509  21.892  1.00  0.00     0.119 C 
BRANCH  24  25
ATOM     25  C   UNL A   1      33.052  26.438  21.890  1.00  0.00     0.018 C 
ATOM     26  C   UNL A   1      33.721  27.473  22.789  1.00  0.00     0.006 C 
ENDBRANCH  24  25
ENDBRANCH  14  24
ENDBRANCH   8  13
ENDBRANCH   5   7
ENDBRANCH   4   5
ENDBRANCH   3   4
ENDBRANCH   2   3
ENDBRANCH   1   2
BRANCH   1  27
ATOM     27  C   UNL A   1      42.141  21.637  26.634  1.00  0.00     0.202 C 
BRANCH  27  28
ATOM     28  C   UNL A   1      42.396  22.998  25.974  1.00  0.00     0.261 C 
BRANCH  28  29
ATOM     29  O   UNL A   1      41.410  23.983  26.327  1.00  0.00    -0.460 OA
BRANCH  29  30
ATOM     30  C   UNL A   1      41.772  25.262  26.060  1.00  0.00     0.338 C 
ATOM     31  O   UNL A   1      41.956  25.761  24.960  1.00  0.00    -0.246 OA
BRANCH  30  32
ATOM     32  C   UNL A   1      41.748  26.062  27.298  1.00  0.00     0.060 A 
ATOM     33  C   UNL A   1      40.686  25.851  28.186  1.00  0.00     0.016 A 
ATOM     34  C   UNL A   1      42.702  27.048  27.554  1.00  0.00     0.016 A 
ATOM     35  C   UNL A   1      40.549  26.658  29.314  1.00  0.00     0.010 A 
ATOM     36  C   UNL A   1      42.559  27.861  28.684  1.00  0.00     0.010 A 
ATOM     37  C   UNL A   1      41.465  27.690  29.552  1.00  0.00    -0.014 A 
BRANCH  37  38
ATOM     38  C   UNL A   1      41.213  28.662  30.647  1.00  0.00     0.031 A 
ATOM     39  C   UNL A   1      42.061  28.603  31.889  1.00  0.00     0.074 A 
ATOM     40  C   UNL A   1      40.250  29.595  30.525  1.00  0.00     0.049 A 
ATOM     41  N   UNL A   1      41.978  29.319  32.981  1.00  0.00    -0.248 NA
ATOM     42  C   UNL A   1      43.144  27.606  31.906  1.00  0.00     0.031 C 
ATOM     43  C   UNL A   1      39.389  29.771  29.355  1.00  0.00     0.029 A 
ATOM     44  N   UNL A   1      39.830  30.565  31.400  1.00  0.00    -0.354 N 
ATOM     45  C   UNL A   1      42.985  28.852  33.818  1.00  0.00     0.074 A 
ATOM     46  C   UNL A   1      43.652  27.776  33.119  1.00  0.00     0.031 C 
ATOM     47  C   UNL A   1      38.535  30.782  29.591  1.00  0.00     0.029 A 
ATOM     48  C   UNL A   1      38.763  31.300  30.938  1.00  0.00     0.049 A 
ATOM     49  H   UNL A   1      40.252  30.721  32.275  1.00  0.00     0.167 HD
ATOM     50  C   UNL A   1      43.324  29.286  35.056  1.00  0.00     0.037 A 
ATOM     51  C   UNL A   1      38.037  32.260  31.545  1.00  0.00     0.037 A 
ATOM     52  C   UNL A   1      42.666  30.370  35.740  1.00  0.00     0.049 A 
ATOM     53  C   UNL A   1      38.399  32.683  32.946  1.00  0.00     0.074 A 
ATOM     54  C   UNL A   1      42.964  30.909  36.979  1.00  0.00     0.029 A 
ATOM     55  N   UNL A   1      41.577  31.074  35.249  1.00  0.00    -0.354 N 
ATOM     56  N   UNL A   1      39.377  32.256  33.711  1.00  0.00    -0.248 NA
ATOM     57  C   UNL A   1      37.563  33.719  33.567  1.00  0.00     0.031 C 
ATOM     58  C   UNL A   1      42.019  31.899  37.264  1.00  0.00     0.029 A 
ATOM     59  C   UNL A   1      41.171  32.020  36.175  1.00  0.00     0.049 A 
ATOM     60  H   UNL A   1      41.156  30.924  34.372  1.00  0.00     0.167 HD
ATOM     61  C   UNL A   1      39.292  32.996  34.887  1.00  0.00     0.074 A 
ATOM     62  C   UNL A   1      38.175  33.904  34.728  1.00  0.00     0.031 C 
ATOM     63  C   UNL A   1      40.067  32.930  35.998  1.00  0.00     0.037 A 
BRANCH  50  64
ATOM     64  C   UNL A   1      44.445  28.584  35.772  1.00  0.00     0.058 A 
ATOM     65  C   UNL A   1      44.213  27.487  36.617  1.00  0.00     0.135 A 
ATOM     66  C   UNL A   1      45.777  28.964  35.542  1.00  0.00     0.135 A 
ATOM     67  F   UNL A   1      42.960  27.093  36.886  1.00  0.00    -0.206 F 
ATOM     68  C   UNL A   1      45.264  26.795  37.213  1.00  0.00     0.059 A 
ATOM     69  C   UNL A   1      46.844  28.270  36.106  1.00  0.00     0.059 A 
ATOM     70  F   UNL A   1      46.055  30.009  34.746  1.00  0.00    -0.206 F 
ATOM     71  C   UNL A   1      46.576  27.190  36.945  1.00  0.00     0.060 A 
BRANCH  71  72
ATOM     72  S   UNL A   1      47.928  26.253  37.690  1.00  0.00     0.124 S 
ATOM     73  O   UNL A   1      47.308  24.945  37.879  1.00  0.00    -0.237 OA
ATOM     74  O   UNL A   1      48.959  26.322  36.658  1.00  0.00    -0.237 OA
ATOM     75  O   UNL A   1      48.221  26.991  38.915  1.00  0.00    -0.744 OA
ENDBRANCH  71  72
ENDBRANCH  50  64
BRANCH  51  76
ATOM     76  C   UNL A   1      36.876  32.878  30.848  1.00  0.00     0.058 A 
ATOM     77  C   UNL A   1      37.056  33.894  29.897  1.00  0.00     0.135 A 
ATOM     78  C   UNL A   1      35.559  32.491  31.146  1.00  0.00     0.135 A 
ATOM     79  F   UNL A   1      38.293  34.308  29.583  1.00  0.00    -0.206 F 
ATOM     80  C   UNL A   1      35.974  34.526  29.290  1.00  0.00     0.059 A 
ATOM     81  C   UNL A   1      34.463  33.086  30.530  1.00  0.00     0.059 A 
ATOM     82  F   UNL A   1      35.330  31.516  32.039  1.00  0.00    -0.206 F 
ATOM     83  C   UNL A   1      34.680  34.115  29.616  1.00  0.00     0.060 A 
BRANCH  83  84
ATOM     84  S   UNL A   1      33.283  34.929  28.813  1.00  0.00     0.124 S 
ATOM     85  O   UNL A   1      32.834  33.895  27.887  1.00  0.00    -0.237 OA
ATOM     86  O   UNL A   1      32.399  35.204  29.942  1.00  0.00    -0.237 OA
ATOM     87  O   UNL A   1      33.887  36.107  28.200  1.00  0.00    -0.744 OA
ENDBRANCH  83  84
ENDBRANCH  51  76
BRANCH  63  88
ATOM     88  C   UNL A   1      39.771  33.897  37.113  1.00  0.00     0.058 A 
ATOM     89  C   UNL A   1      39.047  33.514  38.254  1.00  0.00     0.135 A 
ATOM     90  C   UNL A   1      40.267  35.211  37.064  1.00  0.00     0.135 A 
ATOM     91  F   UNL A   1      38.546  32.273  38.351  1.00  0.00    -0.206 F 
ATOM     92  C   UNL A   1      38.801  34.407  39.292  1.00  0.00     0.059 A 
ATOM     93  C   UNL A   1      40.060  36.111  38.104  1.00  0.00     0.059 A 
ATOM     94  F   UNL A   1      40.976  35.626  36.003  1.00  0.00    -0.206 F 
ATOM     95  C   UNL A   1      39.315  35.704  39.209  1.00  0.00     0.060 A 
BRANCH  95  96
ATOM     96  S   UNL A   1      39.016  36.841  40.578  1.00  0.00     0.124 S 
ATOM     97  O   UNL A   1      38.515  38.020  39.878  1.00  0.00    -0.237 OA
ATOM     98  O   UNL A   1      38.036  36.115  41.380  1.00  0.00    -0.237 OA
ATOM     99  O   UNL A   1      40.333  36.990  41.191  1.00  0.00    -0.744 OA
ENDBRANCH  95  96
ENDBRANCH  63  88
ENDBRANCH  37  38
ENDBRANCH  30  32
ENDBRANCH  29  30
ENDBRANCH  28  29
ENDBRANCH  27  28
ENDBRANCH   1  27
TORSDOF 20
ENDMDL
MODEL 2
REMARK VINA RESULT:     -11.1      1.907      8.516
REMARK SMILES CCCN1CCC[C@@]2(CCN(c3ccc(C(=O)OCCOCCOC(=O)c4ccc(-c5c6nc(c(-c7c(F)cc(S(=O)(=O)[O-])cc7F)c7ccc([nH]7)c(-c7c(F)cc(S(=O)(=O)[O-])cc7F)c7nc(c(-c8c(F)cc(S(=O)(=O)[O-])cc8F)c8ccc5[nH]8)C=C7)C=C6)cc4)cn3)C2)C1=O
REMARK SMILES IDX 21 1 20 2 19 3 18 4 16 5 17 6 15 7 12 8 13 9 94 10 14 11
REMARK SMILES IDX 93 12 11 13 4 14 5 15 96 16 6 17 8 18 97 19 7 20 9 21 95 22
REMARK SMILES IDX 10 23 3 24 2 25 1 26 22 27 23 28 24 29 25 30 26 31 27 32
REMARK SMILES IDX 28 33 92 34 29 35 91 36 30 37 31 38 32 39 85 40 33 41 90 42
REMARK SMILES IDX 84 43 86 44 34 45 89 46 83 47 82 48 35 50 69 51 48 52 68 53
REMARK SMILES IDX 49 54 52 55 67 56 87 57 50 58 51 59 66 61 88 62 53 63 36 64
REMARK SMILES IDX 37 65 46 66 38 67 39 68 45 69 47 70 40 71 41 72 42 73 43 74
REMARK SMILES IDX 44 75 70 76 71 77 80 78 72 79 73 80 79 81 81 82 74 83 75 84
REMARK SMILES IDX 76 85 77 86 78 87 54 88 55 89 64 90 56 91 57 92 63 93 65 94
REMARK SMILES IDX 58 95 59 96 60 97 61 98 62 99
REMARK H PARENT 86 49 52 60
REMARK Flexibility Score: inf
ROOT
ATOM      1  O   UNL A   1      45.101  21.225  25.364  1.00  0.00    -0.374 OA
ENDROOT
BRANCH   1   2
ATOM      2  C   UNL A   1      44.446  20.211  24.604  1.00  0.00     0.202 C 
BRANCH   2   3
ATOM      3  C   UNL A   1      43.682  19.138  25.387  1.00  0.00     0.261 C 
BRANCH   3   4
ATOM      4  O   UNL A   1      42.262  19.344  25.323  1.00  0.00    -0.460 OA
BRANCH   4   5
ATOM      5  C   UNL A   1      41.662  19.598  26.510  1.00  0.00     0.339 C 
ATOM      6  O   UNL A   1      42.055  19.272  27.621  1.00  0.00    -0.246 OA
BRANCH   5   7
ATOM      7  C   UNL A   1      40.511  20.490  26.305  1.00  0.00     0.078 A 
ATOM      8  C   UNL A   1      38.283  22.007  25.727  1.00  0.00     0.128 A 
ATOM      9  C   UNL A   1      39.288  22.529  26.547  1.00  0.00     0.048 A 
ATOM     10  N   UNL A   1      38.340  20.744  25.261  1.00  0.00    -0.238 NA
ATOM     11  C   UNL A   1      40.411  21.761  26.855  1.00  0.00     0.021 A 
ATOM     12  C   UNL A   1      39.455  20.024  25.537  1.00  0.00     0.129 A 
BRANCH   8  13
ATOM     13  N   UNL A   1      37.271  22.845  25.295  1.00  0.00    -0.356 N 
ATOM     14  N   UNL A   1      32.993  21.735  25.254  1.00  0.00    -0.342 N 
ATOM     15  C   UNL A   1      32.445  21.993  23.935  1.00  0.00     0.119 C 
ATOM     16  C   UNL A   1      33.901  22.645  25.796  1.00  0.00     0.230 C 
ATOM     17  C   UNL A   1      33.551  22.211  22.924  1.00  0.00     0.023 C 
ATOM     18  C   UNL A   1      34.950  23.180  24.803  1.00  0.00     0.069 C 
ATOM     19  O   UNL A   1      33.987  22.838  27.008  1.00  0.00    -0.274 OA
ATOM     20  C   UNL A   1      34.387  23.401  23.390  1.00  0.00     0.021 C 
ATOM     21  C   UNL A   1      35.623  24.460  25.345  1.00  0.00     0.040 C 
ATOM     22  C   UNL A   1      36.099  22.138  24.772  1.00  0.00     0.135 C 
ATOM     23  C   UNL A   1      36.829  23.948  26.130  1.00  0.00     0.119 C 
BRANCH  14  24
ATOM     24  C   UNL A   1      32.821  20.464  25.960  1.00  0.00     0.119 C 
BRANCH  24  25
ATOM     25  C   UNL A   1      32.870  19.163  25.160  1.00  0.00     0.018 C 
ATOM     26  C   UNL A   1      34.245  18.846  24.578  1.00  0.00     0.006 C 
ENDBRANCH  24  25
ENDBRANCH  14  24
ENDBRANCH   8  13
ENDBRANCH   5   7
ENDBRANCH   4   5
ENDBRANCH   3   4
ENDBRANCH   2   3
ENDBRANCH   1   2
BRANCH   1  27
ATOM     27  C   UNL A   1      44.294  22.035  26.220  1.00  0.00     0.202 C 
BRANCH  27  28
ATOM     28  C   UNL A   1      43.545  23.215  25.588  1.00  0.00     0.261 C 
BRANCH  28  29
ATOM     29  O   UNL A   1      43.103  24.180  26.558  1.00  0.00    -0.460 OA
BRANCH  29  30
ATOM     30  C   UNL A   1      42.588  25.316  26.026  1.00  0.00     0.338 C 
ATOM     31  O   UNL A   1      42.399  25.556  24.844  1.00  0.00    -0.246 OA
BRANCH  30  32
ATOM     32  C   UNL A   1      42.100  26.199  27.101  1.00  0.00     0.060 A 
ATOM     33  C   UNL A   1      42.740  27.434  27.267  1.00  0.00     0.016 A 
ATOM     34  C   UNL A   1      41.087  25.801  27.975  1.00  0.00     0.016 A 
ATOM     35  C   UNL A   1      42.398  28.258  28.337  1.00  0.00     0.010 A 
ATOM     36  C   UNL A   1      40.750  26.628  29.053  1.00  0.00     0.010 A 
ATOM     37  C   UNL A   1      41.425  27.845  29.257  1.00  0.00    -0.014 A 
BRANCH  37  38
ATOM     38  C   UNL A   1      41.197  28.636  30.493  1.00  0.00     0.031 A 
ATOM     39  C   UNL A   1      40.079  29.644  30.523  1.00  0.00     0.074 A 
ATOM     40  C   UNL A   1      41.967  28.443  31.580  1.00  0.00     0.049 A 
ATOM     41  N   UNL A   1      39.738  30.472  31.476  1.00  0.00    -0.248 NA
ATOM     42  C   UNL A   1      39.235  29.732  29.320  1.00  0.00     0.031 C 
ATOM     43  C   UNL A   1      43.056  27.471  31.681  1.00  0.00     0.029 A 
ATOM     44  N   UNL A   1      41.955  29.063  32.805  1.00  0.00    -0.354 N 
ATOM     45  C   UNL A   1      38.652  31.188  30.987  1.00  0.00     0.074 A 
ATOM     46  C   UNL A   1      38.403  30.714  29.643  1.00  0.00     0.031 C 
ATOM     47  C   UNL A   1      43.616  27.569  32.899  1.00  0.00     0.029 A 
ATOM     48  C   UNL A   1      42.951  28.631  33.650  1.00  0.00     0.049 A 
ATOM     49  H   UNL A   1      41.298  29.750  33.054  1.00  0.00     0.167 HD
ATOM     50  C   UNL A   1      37.926  32.150  31.605  1.00  0.00     0.037 A 
ATOM     51  C   UNL A   1      43.301  29.064  34.879  1.00  0.00     0.037 A 
ATOM     52  C   UNL A   1      38.168  32.606  32.950  1.00  0.00     0.049 A 
ATOM     53  C   UNL A   1      42.511  30.177  35.520  1.00  0.00     0.074 A 
ATOM     54  C   UNL A   1      37.462  33.547  33.678  1.00  0.00     0.029 A 
ATOM     55  N   UNL A   1      39.197  32.160  33.766  1.00  0.00    -0.354 N 
ATOM     56  N   UNL A   1      41.465  30.821  35.057  1.00  0.00    -0.248 NA
ATOM     57  C   UNL A   1      42.948  30.624  36.850  1.00  0.00     0.031 C 
ATOM     58  C   UNL A   1      38.098  33.714  34.912  1.00  0.00     0.029 A 
ATOM     59  C   UNL A   1      39.164  32.832  34.977  1.00  0.00     0.049 A 
ATOM     60  H   UNL A   1      39.854  31.470  33.521  1.00  0.00     0.167 HD
ATOM     61  C   UNL A   1      41.100  31.721  36.055  1.00  0.00     0.074 A 
ATOM     62  C   UNL A   1      42.030  31.531  37.148  1.00  0.00     0.031 C 
ATOM     63  C   UNL A   1      40.086  32.622  36.064  1.00  0.00     0.037 A 
BRANCH  50  64
ATOM     64  C   UNL A   1      36.807  32.799  30.837  1.00  0.00     0.058 A 
ATOM     65  C   UNL A   1      35.475  32.375  30.965  1.00  0.00     0.135 A 
ATOM     66  C   UNL A   1      37.064  33.915  30.024  1.00  0.00     0.135 A 
ATOM     67  F   UNL A   1      35.176  31.302  31.713  1.00  0.00    -0.206 F 
ATOM     68  C   UNL A   1      34.438  33.032  30.310  1.00  0.00     0.059 A 
ATOM     69  C   UNL A   1      36.039  34.604  29.381  1.00  0.00     0.059 A 
ATOM     70  F   UNL A   1      38.320  34.360  29.864  1.00  0.00    -0.206 F 
ATOM     71  C   UNL A   1      34.729  34.150  29.526  1.00  0.00     0.060 A 
BRANCH  71  72
ATOM     72  S   UNL A   1      33.366  35.018  28.720  1.00  0.00     0.124 S 
ATOM     73  O   UNL A   1      34.080  36.039  27.959  1.00  0.00    -0.237 OA
ATOM     74  O   UNL A   1      32.748  33.957  27.930  1.00  0.00    -0.237 OA
ATOM     75  O   UNL A   1      32.567  35.512  29.837  1.00  0.00    -0.744 OA
ENDBRANCH  71  72
ENDBRANCH  50  64
BRANCH  51  76
ATOM     76  C   UNL A   1      44.468  28.466  35.582  1.00  0.00     0.058 A 
ATOM     77  C   UNL A   1      45.768  28.956  35.379  1.00  0.00     0.135 A 
ATOM     78  C   UNL A   1      44.313  27.369  36.445  1.00  0.00     0.135 A 
ATOM     79  F   UNL A   1      45.972  29.997  34.557  1.00  0.00    -0.206 F 
ATOM     80  C   UNL A   1      46.874  28.360  35.978  1.00  0.00     0.059 A 
ATOM     81  C   UNL A   1      45.400  26.776  37.079  1.00  0.00     0.059 A 
ATOM     82  F   UNL A   1      43.091  26.869  36.685  1.00  0.00    -0.206 F 
ATOM     83  C   UNL A   1      46.679  27.269  36.826  1.00  0.00     0.060 A 
BRANCH  83  84
ATOM     84  S   UNL A   1      48.117  26.512  37.612  1.00  0.00     0.124 S 
ATOM     85  O   UNL A   1      48.259  27.328  38.812  1.00  0.00    -0.237 OA
ATOM     86  O   UNL A   1      47.664  25.140  37.822  1.00  0.00    -0.237 OA
ATOM     87  O   UNL A   1      49.168  26.670  36.612  1.00  0.00    -0.744 OA
ENDBRANCH  83  84
ENDBRANCH  51  76
BRANCH  63  88
ATOM     88  C   UNL A   1      39.895  33.442  37.312  1.00  0.00     0.058 A 
ATOM     89  C   UNL A   1      40.623  34.620  37.545  1.00  0.00     0.135 A 
ATOM     90  C   UNL A   1      38.928  33.073  38.263  1.00  0.00     0.135 A 
ATOM     91  F   UNL A   1      41.563  35.017  36.672  1.00  0.00    -0.206 F 
ATOM     92  C   UNL A   1      40.420  35.386  38.689  1.00  0.00     0.059 A 
ATOM     93  C   UNL A   1      38.687  33.841  39.398  1.00  0.00     0.059 A 
ATOM     94  F   UNL A   1      38.195  31.963  38.084  1.00  0.00    -0.206 F 
ATOM     95  C   UNL A   1      39.447  34.989  39.609  1.00  0.00     0.060 A 
BRANCH  95  96
ATOM     96  S   UNL A   1      39.172  36.011  41.071  1.00  0.00     0.124 S 
ATOM     97  O   UNL A   1      37.830  35.598  41.470  1.00  0.00    -0.237 OA
ATOM     98  O   UNL A   1      40.254  35.589  41.955  1.00  0.00    -0.237 OA
ATOM     99  O   UNL A   1      39.282  37.375  40.559  1.00  0.00    -0.744 OA
ENDBRANCH  95  96
ENDBRANCH  63  88
ENDBRANCH  37  38
ENDBRANCH  30  32
ENDBRANCH  29  30
ENDBRANCH  28  29
ENDBRANCH  27  28
ENDBRANCH   1  27
TORSDOF 20
ENDMDL
MODEL 3
REMARK VINA RESULT:     -10.9      1.123      8.155
REMARK SMILES CCCN1CCC[C@@]2(CCN(c3ccc(C(=O)OCCOCCOC(=O)c4ccc(-c5c6nc(c(-c7c(F)cc(S(=O)(=O)[O-])cc7F)c7ccc([nH]7)c(-c7c(F)cc(S(=O)(=O)[O-])cc7F)c7nc(c(-c8c(F)cc(S(=O)(=O)[O-])cc8F)c8ccc5[nH]8)C=C7)C=C6)cc4)cn3)C2)C1=O
REMARK SMILES IDX 21 1 20 2 19 3 18 4 16 5 17 6 15 7 12 8 13 9 94 10 14 11
REMARK SMILES IDX 93 12 11 13 4 14 5 15 96 16 6 17 8 18 97 19 7 20 9 21 95 22
REMARK SMILES IDX 10 23 3 24 2 25 1 26 22 27 23 28 24 29 25 30 26 31 27 32
REMARK SMILES IDX 28 33 92 34 29 35 91 36 30 37 31 38 32 39 85 40 33 41 90 42
REMARK SMILES IDX 84 43 86 44 34 45 89 46 83 47 82 48 35 50 69 51 48 52 68 53
REMARK SMILES IDX 49 54 52 55 67 56 87 57 50 58 51 59 66 61 88 62 53 63 36 64
REMARK SMILES IDX 37 65 46 66 38 67 39 68 45 69 47 70 40 71 41 72 42 73 43 74
REMARK SMILES IDX 44 75 70 76 71 77 80 78 72 79 73 80 79 81 81 82 74 83 75 84
REMARK SMILES IDX 76 85 77 86 78 87 54 88 55 89 64 90 56 91 57 92 63 93 65 94
REMARK SMILES IDX 58 95 59 96 60 97 61 98 62 99
REMARK H PARENT 86 49 52 60
REMARK Flexibility Score: inf
ROOT
ATOM      1  O   UNL A   1      43.032  21.648  26.851  1.00  0.00    -0.374 OA
ENDROOT
BRANCH   1   2
ATOM      2  C   UNL A   1      42.280  20.516  26.416  1.00  0.00     0.202 C 
BRANCH   2   3
ATOM      3  C   UNL A   1      40.777  20.522  26.716  1.00  0.00     0.261 C 
BRANCH   3   4
ATOM      4  O   UNL A   1      40.057  21.371  25.809  1.00  0.00    -0.460 OA
BRANCH   4   5
ATOM      5  C   UNL A   1      39.286  22.317  26.394  1.00  0.00     0.339 C 
ATOM      6  O   UNL A   1      39.630  23.133  27.237  1.00  0.00    -0.246 OA
BRANCH   5   7
ATOM      7  C   UNL A   1      37.964  22.350  25.750  1.00  0.00     0.078 A 
ATOM      8  C   UNL A   1      35.449  22.641  24.660  1.00  0.00     0.128 A 
ATOM      9  C   UNL A   1      36.084  21.395  24.627  1.00  0.00     0.048 A 
ATOM     10  N   UNL A   1      36.066  23.732  25.155  1.00  0.00    -0.238 NA
ATOM     11  C   UNL A   1      37.361  21.245  25.164  1.00  0.00     0.021 A 
ATOM     12  C   UNL A   1      37.292  23.562  25.707  1.00  0.00     0.129 A 
BRANCH   8  13
ATOM     13  N   UNL A   1      34.120  22.724  24.284  1.00  0.00    -0.356 N 
ATOM     14  N   UNL A   1      31.539  26.219  25.093  1.00  0.00    -0.342 N 
ATOM     15  C   UNL A   1      30.318  25.772  25.739  1.00  0.00     0.119 C 
ATOM     16  C   UNL A   1      32.076  25.448  24.062  1.00  0.00     0.230 C 
ATOM     17  C   UNL A   1      30.463  24.351  26.241  1.00  0.00     0.023 C 
ATOM     18  C   UNL A   1      32.049  23.928  24.309  1.00  0.00     0.069 C 
ATOM     19  O   UNL A   1      32.709  25.949  23.134  1.00  0.00    -0.274 OA
ATOM     20  C   UNL A   1      30.783  23.458  25.045  1.00  0.00     0.021 C 
ATOM     21  C   UNL A   1      32.255  23.149  22.993  1.00  0.00     0.040 C 
ATOM     22  C   UNL A   1      33.315  23.595  25.143  1.00  0.00     0.135 C 
ATOM     23  C   UNL A   1      33.769  22.966  22.895  1.00  0.00     0.119 C 
BRANCH  14  24
ATOM     24  C   UNL A   1      32.363  27.315  25.605  1.00  0.00     0.119 C 
BRANCH  24  25
ATOM     25  C   UNL A   1      32.033  27.909  26.974  1.00  0.00     0.018 C 
ATOM     26  C   UNL A   1      32.719  29.244  27.250  1.00  0.00     0.006 C 
ENDBRANCH  24  25
ENDBRANCH  14  24
ENDBRANCH   8  13
ENDBRANCH   5   7
ENDBRANCH   4   5
ENDBRANCH   3   4
ENDBRANCH   2   3
ENDBRANCH   1   2
BRANCH   1  27
ATOM     27  C   UNL A   1      43.573  22.508  25.848  1.00  0.00     0.202 C 
BRANCH  27  28
ATOM     28  C   UNL A   1      42.705  23.677  25.367  1.00  0.00     0.261 C 
BRANCH  28  29
ATOM     29  O   UNL A   1      43.033  24.920  26.012  1.00  0.00    -0.460 OA
BRANCH  29  30
ATOM     30  C   UNL A   1      42.024  25.824  26.037  1.00  0.00     0.338 C 
ATOM     31  O   UNL A   1      41.152  25.978  25.196  1.00  0.00    -0.246 OA
BRANCH  30  32
ATOM     32  C   UNL A   1      41.998  26.515  27.339  1.00  0.00     0.060 A 
ATOM     33  C   UNL A   1      41.109  26.037  28.310  1.00  0.00     0.016 A 
ATOM     34  C   UNL A   1      42.773  27.651  27.584  1.00  0.00     0.016 A 
ATOM     35  C   UNL A   1      40.959  26.720  29.515  1.00  0.00     0.010 A 
ATOM     36  C   UNL A   1      42.615  28.338  28.792  1.00  0.00     0.010 A 
ATOM     37  C   UNL A   1      41.686  27.894  29.750  1.00  0.00    -0.014 A 
BRANCH  37  38
ATOM     38  C   UNL A   1      41.388  28.718  30.950  1.00  0.00     0.031 A 
ATOM     39  C   UNL A   1      40.239  29.690  30.905  1.00  0.00     0.074 A 
ATOM     40  C   UNL A   1      42.123  28.586  32.069  1.00  0.00     0.049 A 
ATOM     41  N   UNL A   1      39.839  30.539  31.816  1.00  0.00    -0.248 NA
ATOM     42  C   UNL A   1      39.438  29.712  29.670  1.00  0.00     0.031 C 
ATOM     43  C   UNL A   1      43.237  27.653  32.244  1.00  0.00     0.029 A 
ATOM     44  N   UNL A   1      42.047  29.246  33.271  1.00  0.00    -0.354 N 
ATOM     45  C   UNL A   1      38.751  31.204  31.263  1.00  0.00     0.074 A 
ATOM     46  C   UNL A   1      38.566  30.678  29.928  1.00  0.00     0.031 C 
ATOM     47  C   UNL A   1      43.748  27.808  33.477  1.00  0.00     0.029 A 
ATOM     48  C   UNL A   1      43.023  28.874  34.166  1.00  0.00     0.049 A 
ATOM     49  H   UNL A   1      41.360  29.920  33.473  1.00  0.00     0.167 HD
ATOM     50  C   UNL A   1      37.973  32.163  31.821  1.00  0.00     0.037 A 
ATOM     51  C   UNL A   1      43.314  29.359  35.390  1.00  0.00     0.037 A 
ATOM     52  C   UNL A   1      38.152  32.670  33.157  1.00  0.00     0.049 A 
ATOM     53  C   UNL A   1      42.469  30.467  35.964  1.00  0.00     0.074 A 
ATOM     54  C   UNL A   1      37.391  33.613  33.826  1.00  0.00     0.029 A 
ATOM     55  N   UNL A   1      39.163  32.285  34.025  1.00  0.00    -0.354 N 
ATOM     56  N   UNL A   1      41.421  31.061  35.442  1.00  0.00    -0.248 NA
ATOM     57  C   UNL A   1      42.842  30.972  37.293  1.00  0.00     0.031 C 
ATOM     58  C   UNL A   1      37.976  33.841  35.076  1.00  0.00     0.029 A 
ATOM     59  C   UNL A   1      39.065  32.996  35.210  1.00  0.00     0.049 A 
ATOM     60  H   UNL A   1      39.849  31.608  33.827  1.00  0.00     0.167 HD
ATOM     61  C   UNL A   1      40.992  31.982  36.394  1.00  0.00     0.074 A 
ATOM     62  C   UNL A   1      41.886  31.859  37.526  1.00  0.00     0.031 C 
ATOM     63  C   UNL A   1      39.952  32.852  36.336  1.00  0.00     0.037 A 
BRANCH  50  64
ATOM     64  C   UNL A   1      36.865  32.750  30.991  1.00  0.00     0.058 A 
ATOM     65  C   UNL A   1      37.118  33.662  29.954  1.00  0.00     0.135 A 
ATOM     66  C   UNL A   1      35.539  32.329  31.185  1.00  0.00     0.135 A 
ATOM     67  F   UNL A   1      38.363  34.112  29.737  1.00  0.00    -0.206 F 
ATOM     68  C   UNL A   1      36.093  34.139  29.141  1.00  0.00     0.059 A 
ATOM     69  C   UNL A   1      34.503  32.773  30.367  1.00  0.00     0.059 A 
ATOM     70  F   UNL A   1      35.241  31.462  32.166  1.00  0.00    -0.206 F 
ATOM     71  C   UNL A   1      34.790  33.683  29.351  1.00  0.00     0.060 A 
BRANCH  71  72
ATOM     72  S   UNL A   1      33.481  34.277  28.259  1.00  0.00     0.124 S 
ATOM     73  O   UNL A   1      34.216  35.198  27.397  1.00  0.00    -0.237 OA
ATOM     74  O   UNL A   1      33.023  33.045  27.625  1.00  0.00    -0.237 OA
ATOM     75  O   UNL A   1      32.529  34.900  29.174  1.00  0.00    -0.744 OA
ENDBRANCH  71  72
ENDBRANCH  50  64
BRANCH  51  76
ATOM     76  C   UNL A   1      44.472  28.822  36.156  1.00  0.00     0.058 A 
ATOM     77  C   UNL A   1      45.752  29.386  36.030  1.00  0.00     0.135 A 
ATOM     78  C   UNL A   1      44.332  27.709  37.001  1.00  0.00     0.135 A 
ATOM     79  F   UNL A   1      45.941  30.445  35.227  1.00  0.00    -0.206 F 
ATOM     80  C   UNL A   1      46.854  28.849  36.688  1.00  0.00     0.059 A 
ATOM     81  C   UNL A   1      45.413  27.174  37.693  1.00  0.00     0.059 A 
ATOM     82  F   UNL A   1      43.130  27.138  37.168  1.00  0.00    -0.206 F 
ATOM     83  C   UNL A   1      46.674  27.740  37.516  1.00  0.00     0.060 A 
BRANCH  83  84
ATOM     84  S   UNL A   1      48.107  27.059  38.378  1.00  0.00     0.124 S 
ATOM     85  O   UNL A   1      47.730  25.657  38.511  1.00  0.00    -0.237 OA
ATOM     86  O   UNL A   1      49.191  27.344  37.443  1.00  0.00    -0.237 OA
ATOM     87  O   UNL A   1      48.145  27.823  39.621  1.00  0.00    -0.744 OA
ENDBRANCH  83  84
ENDBRANCH  51  76
BRANCH  63  88
ATOM     88  C   UNL A   1      39.690  33.707  37.547  1.00  0.00     0.058 A 
ATOM     89  C   UNL A   1      38.819  33.298  38.569  1.00  0.00     0.135 A 
ATOM     90  C   UNL A   1      40.365  34.929  37.712  1.00  0.00     0.135 A 
ATOM     91  F   UNL A   1      38.145  32.143  38.461  1.00  0.00    -0.206 F 
ATOM     92  C   UNL A   1      38.604  34.083  39.698  1.00  0.00     0.059 A 
ATOM     93  C   UNL A   1      40.189  35.714  38.847  1.00  0.00     0.059 A 
ATOM     94  F   UNL A   1      41.219  35.361  36.772  1.00  0.00    -0.206 F 
ATOM     95  C   UNL A   1      39.296  35.290  39.829  1.00  0.00     0.060 A 
BRANCH  95  96
ATOM     96  S   UNL A   1      39.031  36.281  41.313  1.00  0.00     0.124 S 
ATOM     97  O   UNL A   1      38.901  37.622  40.752  1.00  0.00    -0.237 OA
ATOM     98  O   UNL A   1      37.809  35.702  41.863  1.00  0.00    -0.237 OA
ATOM     99  O   UNL A   1      40.240  36.046  42.100  1.00  0.00    -0.744 OA
ENDBRANCH  95  96
ENDBRANCH  63  88
ENDBRANCH  37  38
ENDBRANCH  30  32
ENDBRANCH  29  30
ENDBRANCH  28  29
ENDBRANCH  27  28
ENDBRANCH   1  27
TORSDOF 20
ENDMDL
