MODEL 1
REMARK VINA RESULT:     -10.1      0.000      0.000
REMARK SMILES O=C(OCCOCCOC(=O)c1cc2n[nH]cc2cc1[N+](=O)[O-])c1ccc(-c2c3nc(c(-c4c(F)cc(S(=O)(=O)[O-])cc4F)c4ccc([nH]4)c(-c4c(F)cc(S(=O)(=O)[O-])cc4F)c4nc(c(-c5c(F)cc(S(=O)(=O)[O-])cc5F)c5ccc2[nH]5)C=C4)C=C3)cc1
REMARK SMILES IDX 5 1 4 2 3 3 2 4 1 5 24 6 25 7 89 8 26 9 88 10 27 11 28 12
REMARK SMILES IDX 29 13 82 14 30 15 87 16 81 17 83 18 31 19 86 20 80 21 79 22
REMARK SMILES IDX 32 24 66 25 45 26 65 27 46 28 49 29 64 30 84 31 47 32 48 33
REMARK SMILES IDX 63 35 85 36 50 37 33 38 34 39 43 40 35 41 36 42 42 43 44 44
REMARK SMILES IDX 37 45 38 46 39 47 40 48 41 49 67 50 68 51 77 52 69 53 70 54
REMARK SMILES IDX 76 55 78 56 71 57 72 58 73 59 74 60 75 61 51 62 52 63 61 64
REMARK SMILES IDX 53 65 54 66 60 67 62 68 55 69 56 70 57 71 58 72 59 73 6 74
REMARK SMILES IDX 7 75 8 76 9 77 10 78 11 79 12 80 13 81 20 82 14 83 19 84
REMARK SMILES IDX 15 85 18 86 16 87 17 88 21 90 22 91 23 92
REMARK H PARENT 83 23 49 34 16 89
REMARK Flexibility Score: inf
ROOT
ATOM      1  C   UNL A   1      31.780  28.214  27.552  1.00  0.00     0.202 C 
ENDROOT
BRANCH   1   2
ATOM      2  C   UNL A   1      32.066  29.673  27.174  1.00  0.00     0.261 C 
BRANCH   2   3
ATOM      3  O   UNL A   1      33.475  29.879  26.982  1.00  0.00    -0.460 OA
BRANCH   3   4
ATOM      4  C   UNL A   1      34.356  30.495  27.805  1.00  0.00     0.338 C 
ATOM      5  O   UNL A   1      33.988  31.509  28.395  1.00  0.00    -0.246 OA
BRANCH   4   6
ATOM      6  C   UNL A   1      35.763  30.031  28.020  1.00  0.00     0.060 A 
ATOM      7  C   UNL A   1      36.772  30.066  27.056  1.00  0.00     0.016 A 
ATOM      8  C   UNL A   1      36.116  29.640  29.324  1.00  0.00     0.016 A 
ATOM      9  C   UNL A   1      38.079  29.721  27.352  1.00  0.00     0.010 A 
ATOM     10  C   UNL A   1      37.439  29.316  29.642  1.00  0.00     0.010 A 
ATOM     11  C   UNL A   1      38.422  29.366  28.650  1.00  0.00    -0.014 A 
BRANCH  11  12
ATOM     12  C   UNL A   1      39.826  29.020  28.914  1.00  0.00     0.031 A 
ATOM     13  C   UNL A   1      40.711  30.060  29.518  1.00  0.00     0.074 A 
ATOM     14  C   UNL A   1      40.234  27.754  28.708  1.00  0.00     0.049 A 
ATOM     15  N   UNL A   1      41.989  30.005  29.766  1.00  0.00    -0.248 NA
ATOM     16  C   UNL A   1      40.070  31.328  29.911  1.00  0.00     0.031 C 
ATOM     17  C   UNL A   1      39.376  26.658  28.243  1.00  0.00     0.029 A 
ATOM     18  N   UNL A   1      41.458  27.168  28.874  1.00  0.00    -0.354 N 
ATOM     19  C   UNL A   1      42.315  31.241  30.305  1.00  0.00     0.074 A 
ATOM     20  C   UNL A   1      41.101  32.020  30.374  1.00  0.00     0.031 C 
ATOM     21  C   UNL A   1      40.106  25.536  28.151  1.00  0.00     0.029 A 
ATOM     22  C   UNL A   1      41.491  25.850  28.480  1.00  0.00     0.049 A 
ATOM     23  H   UNL A   1      42.240  27.642  29.238  1.00  0.00     0.167 HD
ATOM     24  C   UNL A   1      43.537  31.679  30.681  1.00  0.00     0.037 A 
ATOM     25  C   UNL A   1      42.542  25.019  28.344  1.00  0.00     0.037 A 
ATOM     26  C   UNL A   1      44.716  30.862  30.598  1.00  0.00     0.049 A 
ATOM     27  C   UNL A   1      43.905  25.567  28.682  1.00  0.00     0.074 A 
ATOM     28  C   UNL A   1      46.017  31.189  30.928  1.00  0.00     0.029 A 
ATOM     29  N   UNL A   1      44.731  29.550  30.138  1.00  0.00    -0.354 N 
ATOM     30  N   UNL A   1      44.219  26.745  29.169  1.00  0.00    -0.248 NA
ATOM     31  C   UNL A   1      45.057  24.695  28.427  1.00  0.00     0.031 C 
ATOM     32  C   UNL A   1      46.827  30.093  30.615  1.00  0.00     0.029 A 
ATOM     33  C   UNL A   1      46.025  29.066  30.136  1.00  0.00     0.049 A 
ATOM     34  H   UNL A   1      43.937  29.041  29.856  1.00  0.00     0.167 HD
ATOM     35  C   UNL A   1      45.603  26.758  29.280  1.00  0.00     0.074 A 
ATOM     36  C   UNL A   1      46.063  25.455  28.838  1.00  0.00     0.031 C 
ATOM     37  C   UNL A   1      46.426  27.753  29.693  1.00  0.00     0.037 A 
BRANCH  24  38
ATOM     38  C   UNL A   1      43.665  33.106  31.122  1.00  0.00     0.058 A 
ATOM     39  C   UNL A   1      43.559  33.489  32.467  1.00  0.00     0.135 A 
ATOM     40  C   UNL A   1      43.923  34.107  30.171  1.00  0.00     0.135 A 
ATOM     41  F   UNL A   1      43.278  32.578  33.411  1.00  0.00    -0.206 F 
ATOM     42  C   UNL A   1      43.703  34.819  32.854  1.00  0.00     0.059 A 
ATOM     43  C   UNL A   1      44.090  35.438  30.538  1.00  0.00     0.059 A 
ATOM     44  F   UNL A   1      44.011  33.794  28.869  1.00  0.00    -0.206 F 
ATOM     45  C   UNL A   1      43.973  35.786  31.882  1.00  0.00     0.060 A 
BRANCH  45  46
ATOM     46  S   UNL A   1      44.189  37.500  32.403  1.00  0.00     0.124 S 
ATOM     47  O   UNL A   1      45.595  37.512  32.794  1.00  0.00    -0.237 OA
ATOM     48  O   UNL A   1      43.865  38.238  31.186  1.00  0.00    -0.237 OA
ATOM     49  O   UNL A   1      43.233  37.648  33.496  1.00  0.00    -0.744 OA
ENDBRANCH  45  46
ENDBRANCH  24  38
BRANCH  25  50
ATOM     50  C   UNL A   1      42.371  23.654  27.773  1.00  0.00     0.058 A 
ATOM     51  C   UNL A   1      42.313  22.515  28.589  1.00  0.00     0.135 A 
ATOM     52  C   UNL A   1      42.301  23.457  26.382  1.00  0.00     0.135 A 
ATOM     53  F   UNL A   1      42.382  22.641  29.923  1.00  0.00    -0.206 F 
ATOM     54  C   UNL A   1      42.227  21.232  28.050  1.00  0.00     0.059 A 
ATOM     55  C   UNL A   1      42.183  22.190  25.821  1.00  0.00     0.059 A 
ATOM     56  F   UNL A   1      42.343  24.509  25.549  1.00  0.00    -0.206 F 
ATOM     57  C   UNL A   1      42.171  21.080  26.664  1.00  0.00     0.060 A 
BRANCH  57  58
ATOM     58  S   UNL A   1      42.078  19.415  25.969  1.00  0.00     0.124 S 
ATOM     59  O   UNL A   1      42.590  18.610  27.072  1.00  0.00    -0.237 OA
ATOM     60  O   UNL A   1      40.653  19.277  25.684  1.00  0.00    -0.237 OA
ATOM     61  O   UNL A   1      42.940  19.494  24.792  1.00  0.00    -0.744 OA
ENDBRANCH  57  58
ENDBRANCH  25  50
BRANCH  37  62
ATOM     62  C   UNL A   1      47.898  27.464  29.687  1.00  0.00     0.058 A 
ATOM     63  C   UNL A   1      48.691  27.769  28.572  1.00  0.00     0.135 A 
ATOM     64  C   UNL A   1      48.528  26.974  30.839  1.00  0.00     0.135 A 
ATOM     65  F   UNL A   1      48.127  28.230  27.444  1.00  0.00    -0.206 F 
ATOM     66  C   UNL A   1      50.069  27.593  28.599  1.00  0.00     0.059 A 
ATOM     67  C   UNL A   1      49.907  26.817  30.899  1.00  0.00     0.059 A 
ATOM     68  F   UNL A   1      47.806  26.679  31.933  1.00  0.00    -0.206 F 
ATOM     69  C   UNL A   1      50.668  27.128  29.772  1.00  0.00     0.060 A 
BRANCH  69  70
ATOM     70  S   UNL A   1      52.465  26.982  29.820  1.00  0.00     0.124 S 
ATOM     71  O   UNL A   1      52.858  28.325  30.231  1.00  0.00    -0.237 OA
ATOM     72  O   UNL A   1      52.667  25.930  30.812  1.00  0.00    -0.237 OA
ATOM     73  O   UNL A   1      52.813  26.618  28.449  1.00  0.00    -0.744 OA
ENDBRANCH  69  70
ENDBRANCH  37  62
ENDBRANCH  11  12
ENDBRANCH   4   6
ENDBRANCH   3   4
ENDBRANCH   2   3
ENDBRANCH   1   2
BRANCH   1  74
ATOM     74  O   UNL A   1      31.158  27.442  26.525  1.00  0.00    -0.374 OA
BRANCH  74  75
ATOM     75  C   UNL A   1      31.983  27.127  25.395  1.00  0.00     0.202 C 
BRANCH  75  76
ATOM     76  C   UNL A   1      33.187  26.312  25.866  1.00  0.00     0.261 C 
BRANCH  76  77
ATOM     77  O   UNL A   1      33.077  25.002  25.285  1.00  0.00    -0.459 OA
BRANCH  77  78
ATOM     78  C   UNL A   1      33.131  23.978  26.176  1.00  0.00     0.345 C 
ATOM     79  O   UNL A   1      32.354  23.707  27.062  1.00  0.00    -0.246 OA
BRANCH  78  80
ATOM     80  C   UNL A   1      34.199  23.064  25.722  1.00  0.00     0.139 A 
ATOM     81  C   UNL A   1      35.512  23.450  26.101  1.00  0.00     0.053 A 
ATOM     82  C   UNL A   1      33.917  21.844  25.028  1.00  0.00     0.284 A 
ATOM     83  C   UNL A   1      36.497  22.513  25.757  1.00  0.00     0.093 A 
ATOM     84  C   UNL A   1      34.890  20.883  24.656  1.00  0.00     0.098 A 
ATOM     85  N   UNL A   1      37.818  22.526  25.982  1.00  0.00    -0.176 NA
ATOM     86  C   UNL A   1      36.151  21.296  25.062  1.00  0.00     0.026 A 
ATOM     87  N   UNL A   1      38.281  21.392  25.425  1.00  0.00    -0.285 N 
ATOM     88  C   UNL A   1      37.314  20.608  24.859  1.00  0.00     0.114 A 
ATOM     89  H   UNL A   1      39.234  21.146  25.426  1.00  0.00     0.189 HD
BRANCH  82  90
ATOM     90  N   UNL A   1      32.549  21.554  24.627  1.00  0.00     0.063 N 
ATOM     91  O   UNL A   1      32.167  22.034  23.551  1.00  0.00    -0.258 OA
ATOM     92  O   UNL A   1      31.853  20.909  25.420  1.00  0.00    -0.258 OA
ENDBRANCH  82  90
ENDBRANCH  78  80
ENDBRANCH  77  78
ENDBRANCH  76  77
ENDBRANCH  75  76
ENDBRANCH  74  75
ENDBRANCH   1  74
TORSDOF 18
ENDMDL
MODEL 2
REMARK VINA RESULT:     -10.1      5.245     10.697
REMARK SMILES O=C(OCCOCCOC(=O)c1cc2n[nH]cc2cc1[N+](=O)[O-])c1ccc(-c2c3nc(c(-c4c(F)cc(S(=O)(=O)[O-])cc4F)c4ccc([nH]4)c(-c4c(F)cc(S(=O)(=O)[O-])cc4F)c4nc(c(-c5c(F)cc(S(=O)(=O)[O-])cc5F)c5ccc2[nH]5)C=C4)C=C3)cc1
REMARK SMILES IDX 5 1 4 2 3 3 2 4 1 5 24 6 25 7 89 8 26 9 88 10 27 11 28 12
REMARK SMILES IDX 29 13 82 14 30 15 87 16 81 17 83 18 31 19 86 20 80 21 79 22
REMARK SMILES IDX 32 24 66 25 45 26 65 27 46 28 49 29 64 30 84 31 47 32 48 33
REMARK SMILES IDX 63 35 85 36 50 37 33 38 34 39 43 40 35 41 36 42 42 43 44 44
REMARK SMILES IDX 37 45 38 46 39 47 40 48 41 49 67 50 68 51 77 52 69 53 70 54
REMARK SMILES IDX 76 55 78 56 71 57 72 58 73 59 74 60 75 61 51 62 52 63 61 64
REMARK SMILES IDX 53 65 54 66 60 67 62 68 55 69 56 70 57 71 58 72 59 73 6 74
REMARK SMILES IDX 7 75 8 76 9 77 10 78 11 79 12 80 13 81 20 82 14 83 19 84
REMARK SMILES IDX 15 85 18 86 16 87 17 88 21 90 22 91 23 92
REMARK H PARENT 83 23 49 34 16 89
REMARK Flexibility Score: inf
ROOT
ATOM      1  C   UNL A   1      39.080  21.526  25.842  1.00  0.00     0.202 C 
ENDROOT
BRANCH   1   2
ATOM      2  C   UNL A   1      39.852  22.384  26.852  1.00  0.00     0.261 C 
BRANCH   2   3
ATOM      3  O   UNL A   1      39.805  23.771  26.479  1.00  0.00    -0.460 OA
BRANCH   3   4
ATOM      4  C   UNL A   1      40.756  24.720  26.647  1.00  0.00     0.338 C 
ATOM      5  O   UNL A   1      41.684  24.761  25.841  1.00  0.00    -0.246 OA
BRANCH   4   6
ATOM      6  C   UNL A   1      40.761  25.705  27.773  1.00  0.00     0.060 A 
ATOM      7  C   UNL A   1      41.735  26.686  27.972  1.00  0.00     0.016 A 
ATOM      8  C   UNL A   1      39.641  25.713  28.623  1.00  0.00     0.016 A 
ATOM      9  C   UNL A   1      41.623  27.636  28.974  1.00  0.00     0.010 A 
ATOM     10  C   UNL A   1      39.503  26.684  29.620  1.00  0.00     0.010 A 
ATOM     11  C   UNL A   1      40.497  27.651  29.787  1.00  0.00    -0.014 A 
BRANCH  11  12
ATOM     12  C   UNL A   1      40.422  28.687  30.827  1.00  0.00     0.031 A 
ATOM     13  C   UNL A   1      41.366  28.602  31.981  1.00  0.00     0.074 A 
ATOM     14  C   UNL A   1      39.588  29.728  30.651  1.00  0.00     0.049 A 
ATOM     15  N   UNL A   1      41.431  29.352  33.044  1.00  0.00    -0.248 NA
ATOM     16  C   UNL A   1      42.386  27.540  31.925  1.00  0.00     0.031 C 
ATOM     17  C   UNL A   1      38.734  29.932  29.475  1.00  0.00     0.029 A 
ATOM     18  N   UNL A   1      39.328  30.813  31.440  1.00  0.00    -0.354 N 
ATOM     19  C   UNL A   1      42.469  28.831  33.803  1.00  0.00     0.074 A 
ATOM     20  C   UNL A   1      43.025  27.717  33.073  1.00  0.00     0.031 C 
ATOM     21  C   UNL A   1      38.037  31.069  29.629  1.00  0.00     0.029 A 
ATOM     22  C   UNL A   1      38.341  31.632  30.939  1.00  0.00     0.049 A 
ATOM     23  H   UNL A   1      39.799  30.992  32.286  1.00  0.00     0.167 HD
ATOM     24  C   UNL A   1      42.889  29.247  35.017  1.00  0.00     0.037 A 
ATOM     25  C   UNL A   1      37.718  32.678  31.513  1.00  0.00     0.037 A 
ATOM     26  C   UNL A   1      42.306  30.368  35.703  1.00  0.00     0.049 A 
ATOM     27  C   UNL A   1      38.146  33.059  32.907  1.00  0.00     0.074 A 
ATOM     28  C   UNL A   1      42.626  30.882  36.944  1.00  0.00     0.029 A 
ATOM     29  N   UNL A   1      41.267  31.142  35.197  1.00  0.00    -0.354 N 
ATOM     30  N   UNL A   1      39.111  32.550  33.637  1.00  0.00    -0.248 NA
ATOM     31  C   UNL A   1      37.388  34.127  33.569  1.00  0.00     0.031 C 
ATOM     32  C   UNL A   1      41.742  31.931  37.214  1.00  0.00     0.029 A 
ATOM     33  C   UNL A   1      40.905  32.104  36.120  1.00  0.00     0.049 A 
ATOM     34  H   UNL A   1      40.852  31.022  34.313  1.00  0.00     0.167 HD
ATOM     35  C   UNL A   1      39.079  33.235  34.844  1.00  0.00     0.074 A 
ATOM     36  C   UNL A   1      38.018  34.216  34.733  1.00  0.00     0.031 C 
ATOM     37  C   UNL A   1      39.842  33.065  35.952  1.00  0.00     0.037 A 
BRANCH  24  38
ATOM     38  C   UNL A   1      43.954  28.445  35.703  1.00  0.00     0.058 A 
ATOM     39  C   UNL A   1      43.654  27.374  36.559  1.00  0.00     0.135 A 
ATOM     40  C   UNL A   1      45.306  28.747  35.477  1.00  0.00     0.135 A 
ATOM     41  F   UNL A   1      42.378  27.066  36.837  1.00  0.00    -0.206 F 
ATOM     42  C   UNL A   1      44.661  26.631  37.168  1.00  0.00     0.059 A 
ATOM     43  C   UNL A   1      46.329  28.005  36.060  1.00  0.00     0.059 A 
ATOM     44  F   UNL A   1      45.645  29.776  34.685  1.00  0.00    -0.206 F 
ATOM     45  C   UNL A   1      45.997  26.951  36.908  1.00  0.00     0.060 A 
BRANCH  45  46
ATOM     46  S   UNL A   1      47.291  25.958  37.680  1.00  0.00     0.124 S 
ATOM     47  O   UNL A   1      47.522  24.937  36.663  1.00  0.00    -0.237 OA
ATOM     48  O   UNL A   1      48.365  26.930  37.855  1.00  0.00    -0.237 OA
ATOM     49  O   UNL A   1      46.669  25.485  38.913  1.00  0.00    -0.744 OA
ENDBRANCH  45  46
ENDBRANCH  24  38
BRANCH  25  50
ATOM     50  C   UNL A   1      36.574  33.353  30.837  1.00  0.00     0.058 A 
ATOM     51  C   UNL A   1      36.770  34.264  29.789  1.00  0.00     0.135 A 
ATOM     52  C   UNL A   1      35.252  33.126  31.257  1.00  0.00     0.135 A 
ATOM     53  F   UNL A   1      38.011  34.524  29.350  1.00  0.00    -0.206 F 
ATOM     54  C   UNL A   1      35.706  34.950  29.207  1.00  0.00     0.059 A 
ATOM     55  C   UNL A   1      34.170  33.775  30.672  1.00  0.00     0.059 A 
ATOM     56  F   UNL A   1      34.999  32.259  32.251  1.00  0.00    -0.206 F 
ATOM     57  C   UNL A   1      34.409  34.704  29.661  1.00  0.00     0.060 A 
BRANCH  57  58
ATOM     58  S   UNL A   1      33.034  35.609  28.917  1.00  0.00     0.124 S 
ATOM     59  O   UNL A   1      33.739  36.616  28.132  1.00  0.00    -0.237 OA
ATOM     60  O   UNL A   1      32.353  34.566  28.156  1.00  0.00    -0.237 OA
ATOM     61  O   UNL A   1      32.298  36.112  30.074  1.00  0.00    -0.744 OA
ENDBRANCH  57  58
ENDBRANCH  25  50
BRANCH  37  62
ATOM     62  C   UNL A   1      39.554  33.961  37.120  1.00  0.00     0.058 A 
ATOM     63  C   UNL A   1      38.769  33.521  38.194  1.00  0.00     0.135 A 
ATOM     64  C   UNL A   1      40.150  35.228  37.205  1.00  0.00     0.135 A 
ATOM     65  F   UNL A   1      38.170  32.320  38.149  1.00  0.00    -0.206 F 
ATOM     66  C   UNL A   1      38.581  34.312  39.320  1.00  0.00     0.059 A 
ATOM     67  C   UNL A   1      39.999  36.024  38.333  1.00  0.00     0.059 A 
ATOM     68  F   UNL A   1      40.918  35.684  36.202  1.00  0.00    -0.206 F 
ATOM     69  C   UNL A   1      39.210  35.558  39.384  1.00  0.00     0.060 A 
BRANCH  69  70
ATOM     70  S   UNL A   1      39.024  36.540  40.886  1.00  0.00     0.124 S 
ATOM     71  O   UNL A   1      38.622  37.833  40.343  1.00  0.00    -0.237 OA
ATOM     72  O   UNL A   1      37.991  35.807  41.611  1.00  0.00    -0.237 OA
ATOM     73  O   UNL A   1      40.354  36.496  41.487  1.00  0.00    -0.744 OA
ENDBRANCH  69  70
ENDBRANCH  37  62
ENDBRANCH  11  12
ENDBRANCH   4   6
ENDBRANCH   3   4
ENDBRANCH   2   3
ENDBRANCH   1   2
BRANCH   1  74
ATOM     74  O   UNL A   1      37.821  22.063  25.439  1.00  0.00    -0.374 OA
BRANCH  74  75
ATOM     75  C   UNL A   1      36.903  21.131  24.852  1.00  0.00     0.202 C 
BRANCH  75  76
ATOM     76  C   UNL A   1      35.617  21.109  25.678  1.00  0.00     0.261 C 
BRANCH  76  77
ATOM     77  O   UNL A   1      34.672  21.979  25.031  1.00  0.00    -0.459 OA
BRANCH  77  78
ATOM     78  C   UNL A   1      34.400  23.125  25.707  1.00  0.00     0.345 C 
ATOM     79  O   UNL A   1      34.886  23.527  26.738  1.00  0.00    -0.246 OA
BRANCH  78  80
ATOM     80  C   UNL A   1      33.562  23.960  24.822  1.00  0.00     0.139 A 
ATOM     81  C   UNL A   1      34.265  24.599  23.766  1.00  0.00     0.053 A 
ATOM     82  C   UNL A   1      32.140  24.044  24.972  1.00  0.00     0.284 A 
ATOM     83  C   UNL A   1      33.435  25.292  22.874  1.00  0.00     0.093 A 
ATOM     84  C   UNL A   1      31.276  24.746  24.095  1.00  0.00     0.098 A 
ATOM     85  N   UNL A   1      33.741  25.975  21.762  1.00  0.00    -0.176 NA
ATOM     86  C   UNL A   1      32.006  25.337  23.074  1.00  0.00     0.026 A 
ATOM     87  N   UNL A   1      32.568  26.452  21.308  1.00  0.00    -0.285 N 
ATOM     88  C   UNL A   1      31.485  26.093  22.062  1.00  0.00     0.114 A 
ATOM     89  H   UNL A   1      32.494  27.012  20.502  1.00  0.00     0.189 HD
BRANCH  82  90
ATOM     90  N   UNL A   1      31.507  23.406  26.115  1.00  0.00     0.063 N 
ATOM     91  O   UNL A   1      31.471  24.054  27.170  1.00  0.00    -0.258 OA
ATOM     92  O   UNL A   1      31.114  22.242  25.967  1.00  0.00    -0.258 OA
ENDBRANCH  82  90
ENDBRANCH  78  80
ENDBRANCH  77  78
ENDBRANCH  76  77
ENDBRANCH  75  76
ENDBRANCH  74  75
ENDBRANCH   1  74
TORSDOF 18
ENDMDL
MODEL 3
REMARK VINA RESULT:      -9.8      5.267      9.991
REMARK SMILES O=C(OCCOCCOC(=O)c1cc2n[nH]cc2cc1[N+](=O)[O-])c1ccc(-c2c3nc(c(-c4c(F)cc(S(=O)(=O)[O-])cc4F)c4ccc([nH]4)c(-c4c(F)cc(S(=O)(=O)[O-])cc4F)c4nc(c(-c5c(F)cc(S(=O)(=O)[O-])cc5F)c5ccc2[nH]5)C=C4)C=C3)cc1
REMARK SMILES IDX 5 1 4 2 3 3 2 4 1 5 24 6 25 7 89 8 26 9 88 10 27 11 28 12
REMARK SMILES IDX 29 13 82 14 30 15 87 16 81 17 83 18 31 19 86 20 80 21 79 22
REMARK SMILES IDX 32 24 66 25 45 26 65 27 46 28 49 29 64 30 84 31 47 32 48 33
REMARK SMILES IDX 63 35 85 36 50 37 33 38 34 39 43 40 35 41 36 42 42 43 44 44
REMARK SMILES IDX 37 45 38 46 39 47 40 48 41 49 67 50 68 51 77 52 69 53 70 54
REMARK SMILES IDX 76 55 78 56 71 57 72 58 73 59 74 60 75 61 51 62 52 63 61 64
REMARK SMILES IDX 53 65 54 66 60 67 62 68 55 69 56 70 57 71 58 72 59 73 6 74
REMARK SMILES IDX 7 75 8 76 9 77 10 78 11 79 12 80 13 81 20 82 14 83 19 84
REMARK SMILES IDX 15 85 18 86 16 87 17 88 21 90 22 91 23 92
REMARK H PARENT 83 23 49 34 16 89
REMARK Flexibility Score: inf
ROOT
ATOM      1  C   UNL A   1      39.827  21.891  26.183  1.00  0.00     0.202 C 
ENDROOT
BRANCH   1   2
ATOM      2  C   UNL A   1      40.220  22.927  27.244  1.00  0.00     0.261 C 
BRANCH   2   3
ATOM      3  O   UNL A   1      41.107  23.911  26.685  1.00  0.00    -0.460 OA
BRANCH   3   4
ATOM      4  C   UNL A   1      40.902  25.241  26.537  1.00  0.00     0.338 C 
ATOM      5  O   UNL A   1      40.913  25.708  25.400  1.00  0.00    -0.246 OA
BRANCH   4   6
ATOM      6  C   UNL A   1      40.689  26.184  27.680  1.00  0.00     0.060 A 
ATOM      7  C   UNL A   1      39.686  26.060  28.643  1.00  0.00     0.016 A 
ATOM      8  C   UNL A   1      41.643  27.203  27.856  1.00  0.00     0.016 A 
ATOM      9  C   UNL A   1      39.611  26.907  29.735  1.00  0.00     0.010 A 
ATOM     10  C   UNL A   1      41.594  28.047  28.969  1.00  0.00     0.010 A 
ATOM     11  C   UNL A   1      40.577  27.890  29.914  1.00  0.00    -0.014 A 
BRANCH  11  12
ATOM     12  C   UNL A   1      40.458  28.756  31.095  1.00  0.00     0.031 A 
ATOM     13  C   UNL A   1      39.396  29.805  31.101  1.00  0.00     0.074 A 
ATOM     14  C   UNL A   1      41.231  28.504  32.167  1.00  0.00     0.049 A 
ATOM     15  N   UNL A   1      39.156  30.723  31.993  1.00  0.00    -0.248 NA
ATOM     16  C   UNL A   1      38.466  29.812  29.957  1.00  0.00     0.031 C 
ATOM     17  C   UNL A   1      42.198  27.404  32.268  1.00  0.00     0.029 A 
ATOM     18  N   UNL A   1      41.321  29.134  33.377  1.00  0.00    -0.354 N 
ATOM     19  C   UNL A   1      38.077  31.444  31.503  1.00  0.00     0.074 A 
ATOM     20  C   UNL A   1      37.689  30.846  30.247  1.00  0.00     0.031 C 
ATOM     21  C   UNL A   1      42.790  27.448  33.472  1.00  0.00     0.029 A 
ATOM     22  C   UNL A   1      42.298  28.614  34.195  1.00  0.00     0.049 A 
ATOM     23  H   UNL A   1      40.744  29.888  33.639  1.00  0.00     0.167 HD
ATOM     24  C   UNL A   1      37.490  32.528  32.056  1.00  0.00     0.037 A 
ATOM     25  C   UNL A   1      42.776  29.077  35.366  1.00  0.00     0.037 A 
ATOM     26  C   UNL A   1      37.910  33.084  33.313  1.00  0.00     0.049 A 
ATOM     27  C   UNL A   1      42.164  30.342  35.911  1.00  0.00     0.074 A 
ATOM     28  C   UNL A   1      37.414  34.189  33.977  1.00  0.00     0.029 A 
ATOM     29  N   UNL A   1      38.943  32.572  34.091  1.00  0.00    -0.354 N 
ATOM     30  N   UNL A   1      41.159  31.040  35.434  1.00  0.00    -0.248 NA
ATOM     31  C   UNL A   1      42.763  30.901  37.128  1.00  0.00     0.031 C 
ATOM     32  C   UNL A   1      38.184  34.379  35.128  1.00  0.00     0.029 A 
ATOM     33  C   UNL A   1      39.128  33.364  35.208  1.00  0.00     0.049 A 
ATOM     34  H   UNL A   1      39.465  31.766  33.878  1.00  0.00     0.167 HD
ATOM     35  C   UNL A   1      41.003  32.120  36.292  1.00  0.00     0.074 A 
ATOM     36  C   UNL A   1      41.999  31.966  37.335  1.00  0.00     0.031 C 
ATOM     37  C   UNL A   1      40.132  33.157  36.223  1.00  0.00     0.037 A 
BRANCH  24  38
ATOM     38  C   UNL A   1      36.413  33.219  31.275  1.00  0.00     0.058 A 
ATOM     39  C   UNL A   1      35.062  33.162  31.646  1.00  0.00     0.135 A 
ATOM     40  C   UNL A   1      36.752  33.972  30.140  1.00  0.00     0.135 A 
ATOM     41  F   UNL A   1      34.679  32.427  32.702  1.00  0.00    -0.206 F 
ATOM     42  C   UNL A   1      34.082  33.829  30.916  1.00  0.00     0.059 A 
ATOM     43  C   UNL A   1      35.793  34.663  29.406  1.00  0.00     0.059 A 
ATOM     44  F   UNL A   1      38.029  34.039  29.730  1.00  0.00    -0.206 F 
ATOM     45  C   UNL A   1      34.459  34.581  29.799  1.00  0.00     0.060 A 
BRANCH  45  46
ATOM     46  S   UNL A   1      33.182  35.467  28.882  1.00  0.00     0.124 S 
ATOM     47  O   UNL A   1      33.981  36.404  28.098  1.00  0.00    -0.237 OA
ATOM     48  O   UNL A   1      32.542  34.395  28.126  1.00  0.00    -0.237 OA
ATOM     49  O   UNL A   1      32.362  36.067  29.930  1.00  0.00    -0.744 OA
ENDBRANCH  45  46
ENDBRANCH  24  38
BRANCH  25  50
ATOM     50  C   UNL A   1      43.939  28.424  36.030  1.00  0.00     0.058 A 
ATOM     51  C   UNL A   1      43.772  27.387  36.959  1.00  0.00     0.135 A 
ATOM     52  C   UNL A   1      45.252  28.857  35.774  1.00  0.00     0.135 A 
ATOM     53  F   UNL A   1      42.541  26.937  37.247  1.00  0.00    -0.206 F 
ATOM     54  C   UNL A   1      44.855  26.828  37.634  1.00  0.00     0.059 A 
ATOM     55  C   UNL A   1      46.352  28.294  36.412  1.00  0.00     0.059 A 
ATOM     56  F   UNL A   1      45.478  29.841  34.889  1.00  0.00    -0.206 F 
ATOM     57  C   UNL A   1      46.142  27.294  37.359  1.00  0.00     0.060 A 
BRANCH  57  58
ATOM     58  S   UNL A   1      47.541  26.579  38.250  1.00  0.00     0.124 S 
ATOM     59  O   UNL A   1      47.403  25.164  37.923  1.00  0.00    -0.237 OA
ATOM     60  O   UNL A   1      48.677  27.267  37.645  1.00  0.00    -0.237 OA
ATOM     61  O   UNL A   1      47.270  26.935  39.640  1.00  0.00    -0.744 OA
ENDBRANCH  57  58
ENDBRANCH  25  50
BRANCH  37  62
ATOM     62  C   UNL A   1      40.219  34.192  37.305  1.00  0.00     0.058 A 
ATOM     63  C   UNL A   1      41.018  35.333  37.153  1.00  0.00     0.135 A 
ATOM     64  C   UNL A   1      39.422  34.085  38.454  1.00  0.00     0.135 A 
ATOM     65  F   UNL A   1      41.805  35.471  36.074  1.00  0.00    -0.206 F 
ATOM     66  C   UNL A   1      41.026  36.340  38.110  1.00  0.00     0.059 A 
ATOM     67  C   UNL A   1      39.392  35.092  39.411  1.00  0.00     0.059 A 
ATOM     68  F   UNL A   1      38.635  33.012  38.635  1.00  0.00    -0.206 F 
ATOM     69  C   UNL A   1      40.200  36.214  39.230  1.00  0.00     0.060 A 
BRANCH  69  70
ATOM     70  S   UNL A   1      40.159  37.565  40.424  1.00  0.00     0.124 S 
ATOM     71  O   UNL A   1      41.034  38.545  39.789  1.00  0.00    -0.237 OA
ATOM     72  O   UNL A   1      38.741  37.908  40.459  1.00  0.00    -0.237 OA
ATOM     73  O   UNL A   1      40.681  36.955  41.645  1.00  0.00    -0.744 OA
ENDBRANCH  69  70
ENDBRANCH  37  62
ENDBRANCH  11  12
ENDBRANCH   4   6
ENDBRANCH   3   4
ENDBRANCH   2   3
ENDBRANCH   1   2
BRANCH   1  74
ATOM     74  O   UNL A   1      38.438  21.867  25.857  1.00  0.00    -0.374 OA
BRANCH  74  75
ATOM     75  C   UNL A   1      37.815  23.148  25.687  1.00  0.00     0.202 C 
BRANCH  75  76
ATOM     76  C   UNL A   1      36.356  23.057  26.134  1.00  0.00     0.261 C 
BRANCH  76  77
ATOM     77  O   UNL A   1      35.703  24.272  25.730  1.00  0.00    -0.459 OA
BRANCH  77  78
ATOM     78  C   UNL A   1      34.359  24.168  25.568  1.00  0.00     0.345 C 
ATOM     79  O   UNL A   1      33.591  23.402  26.102  1.00  0.00    -0.246 OA
BRANCH  78  80
ATOM     80  C   UNL A   1      33.924  25.348  24.793  1.00  0.00     0.139 A 
ATOM     81  C   UNL A   1      33.906  26.566  25.523  1.00  0.00     0.053 A 
ATOM     82  C   UNL A   1      33.628  25.277  23.394  1.00  0.00     0.284 A 
ATOM     83  C   UNL A   1      33.601  27.689  24.742  1.00  0.00     0.093 A 
ATOM     84  C   UNL A   1      33.304  26.391  22.579  1.00  0.00     0.098 A 
ATOM     85  N   UNL A   1      33.527  28.984  25.081  1.00  0.00    -0.176 NA
ATOM     86  C   UNL A   1      33.317  27.556  23.333  1.00  0.00     0.026 A 
ATOM     87  N   UNL A   1      33.180  29.624  23.950  1.00  0.00    -0.285 N 
ATOM     88  C   UNL A   1      33.044  28.808  22.861  1.00  0.00     0.114 A 
ATOM     89  H   UNL A   1      33.036  30.597  23.908  1.00  0.00     0.189 HD
BRANCH  82  90
ATOM     90  N   UNL A   1      33.613  23.980  22.736  1.00  0.00     0.063 N 
ATOM     91  O   UNL A   1      34.703  23.533  22.353  1.00  0.00    -0.258 OA
ATOM     92  O   UNL A   1      32.509  23.454  22.549  1.00  0.00    -0.258 OA
ENDBRANCH  82  90
ENDBRANCH  78  80
ENDBRANCH  77  78
ENDBRANCH  76  77
ENDBRANCH  75  76
ENDBRANCH  74  75
ENDBRANCH   1  74
TORSDOF 18
ENDMDL
