MODEL 1
REMARK VINA RESULT:     -11.6      0.000      0.000
REMARK SMILES CCCC(=O)Nc1cccc(C(=O)N[C@@H](C(=O)OCCOCCOC(=O)c2ccc(-c3c4nc(c(-c5c(F)cc(S(=O)(=O)[O-])cc5F)c5ccc([nH]5)c(-c5c(F)cc(S(=O)(=O)[O-])cc5F)c5nc(c(-c6c(F)cc(S(=O)(=O)[O-])cc6F)c6ccc3[nH]6)C=C5)C=C4)cc2)C2=C(C)N=N[C@@H]2C)c1
REMARK SMILES IDX 20 1 19 2 18 3 16 4 17 5 15 6 14 7 12 8 13 9 11 11 7 12 8 13
REMARK SMILES IDX 100 14 9 15 10 16 6 17 4 18 5 19 3 21 2 22 1 23 93 24 94 25
REMARK SMILES IDX 98 26 95 27 96 28 97 29 99 30 21 31 22 32 23 33 24 34 25 35
REMARK SMILES IDX 26 36 27 37 28 38 92 39 29 40 91 41 30 42 31 43 32 44 85 45
REMARK SMILES IDX 33 46 90 47 84 48 86 49 34 50 89 51 83 52 82 53 35 55 69 56
REMARK SMILES IDX 48 57 68 58 49 59 52 60 67 61 87 62 50 63 51 64 66 66 88 67
REMARK SMILES IDX 53 68 36 69 37 70 46 71 38 72 39 73 45 74 47 75 40 76 41 77
REMARK SMILES IDX 42 78 43 79 44 80 70 81 71 82 80 83 72 84 73 85 79 86 81 87
REMARK SMILES IDX 74 88 75 89 76 90 77 91 78 92 54 93 55 94 64 95 56 96 57 97
REMARK SMILES IDX 63 98 65 99 58 100 59 101 60 102 61 103 62 104
REMARK H PARENT 14 10 6 20 86 54 52 65
REMARK Flexibility Score: inf
ROOT
ATOM      1  C   UNL A   1      32.664  29.640  27.188  1.00  0.00     0.202 C 
ENDROOT
BRANCH   1   2
ATOM      2  C   UNL A   1      33.706  28.605  26.751  1.00  0.00     0.261 C 
BRANCH   2   3
ATOM      3  O   UNL A   1      33.119  27.329  26.466  1.00  0.00    -0.461 OA
BRANCH   3   4
ATOM      4  C   UNL A   1      33.451  26.819  25.245  1.00  0.00     0.333 C 
ATOM      5  O   UNL A   1      33.965  27.481  24.351  1.00  0.00    -0.249 OA
BRANCH   4   6
ATOM      6  C   UNL A   1      33.125  25.296  25.133  1.00  0.00     0.223 C 
BRANCH   6   7
ATOM      7  N   UNL A   1      33.181  24.805  23.749  1.00  0.00    -0.335 N 
ATOM      8  C   UNL A   1      33.921  23.811  23.141  1.00  0.00     0.252 C 
ATOM      9  O   UNL A   1      33.802  23.682  21.922  1.00  0.00    -0.269 OA
ATOM     10  H   UNL A   1      32.573  25.277  23.136  1.00  0.00     0.165 HD
BRANCH   8  11
ATOM     11  C   UNL A   1      34.747  22.824  23.893  1.00  0.00     0.041 A 
ATOM     12  C   UNL A   1      34.979  20.702  25.015  1.00  0.00     0.041 A 
ATOM     13  C   UNL A   1      36.354  20.703  24.806  1.00  0.00     0.026 A 
ATOM     14  C   UNL A   1      34.200  21.808  24.672  1.00  0.00     0.040 A 
ATOM     15  C   UNL A   1      36.943  21.809  24.195  1.00  0.00     0.003 A 
ATOM     16  C   UNL A   1      36.140  22.852  23.712  1.00  0.00     0.014 A 
BRANCH  12  17
ATOM     17  N   UNL A   1      34.324  19.570  25.519  1.00  0.00    -0.326 N 
ATOM     18  C   UNL A   1      33.164  19.089  24.950  1.00  0.00     0.224 C 
ATOM     19  O   UNL A   1      32.237  18.736  25.680  1.00  0.00    -0.275 OA
ATOM     20  H   UNL A   1      34.702  19.105  26.300  1.00  0.00     0.169 HD
BRANCH  18  21
ATOM     21  C   UNL A   1      33.058  18.968  23.432  1.00  0.00     0.100 C 
BRANCH  21  22
ATOM     22  C   UNL A   1      32.876  17.546  22.909  1.00  0.00     0.006 C 
ATOM     23  C   UNL A   1      34.095  16.659  23.090  1.00  0.00     0.004 C 
ENDBRANCH  21  22
ENDBRANCH  18  21
ENDBRANCH  12  17
ENDBRANCH   8  11
ENDBRANCH   6   7
BRANCH   6  24
ATOM     24  C   UNL A   1      31.815  24.983  25.804  1.00  0.00     0.012 C 
ATOM     25  C   UNL A   1      31.549  23.989  26.673  1.00  0.00     0.064 C 
ATOM     26  C   UNL A   1      30.531  25.749  25.717  1.00  0.00     0.156 C 
ATOM     27  C   UNL A   1      32.436  22.912  27.216  1.00  0.00     0.069 C 
ATOM     28  N   UNL A   1      30.257  24.015  27.131  1.00  0.00    -0.160 NA
ATOM     29  N   UNL A   1      29.636  24.985  26.631  1.00  0.00    -0.181 NA
ATOM     30  C   UNL A   1      29.848  25.819  24.358  1.00  0.00     0.040 C 
ENDBRANCH   6  24
ENDBRANCH   4   6
ENDBRANCH   3   4
ENDBRANCH   2   3
ENDBRANCH   1   2
BRANCH   1  31
ATOM     31  O   UNL A   1      32.249  30.630  26.252  1.00  0.00    -0.374 OA
BRANCH  31  32
ATOM     32  C   UNL A   1      31.415  31.694  26.698  1.00  0.00     0.202 C 
BRANCH  32  33
ATOM     33  C   UNL A   1      31.999  33.097  26.905  1.00  0.00     0.261 C 
BRANCH  33  34
ATOM     34  O   UNL A   1      33.193  33.088  27.703  1.00  0.00    -0.460 OA
BRANCH  34  35
ATOM     35  C   UNL A   1      33.355  34.199  28.467  1.00  0.00     0.338 C 
ATOM     36  O   UNL A   1      32.609  35.159  28.531  1.00  0.00    -0.246 OA
BRANCH  35  37
ATOM     37  C   UNL A   1      34.468  34.001  29.411  1.00  0.00     0.060 A 
ATOM     38  C   UNL A   1      35.766  34.230  28.935  1.00  0.00     0.016 A 
ATOM     39  C   UNL A   1      34.253  33.503  30.695  1.00  0.00     0.016 A 
ATOM     40  C   UNL A   1      36.864  33.917  29.727  1.00  0.00     0.010 A 
ATOM     41  C   UNL A   1      35.357  33.170  31.483  1.00  0.00     0.010 A 
ATOM     42  C   UNL A   1      36.663  33.340  30.987  1.00  0.00    -0.014 A 
BRANCH  42  43
ATOM     43  C   UNL A   1      37.819  32.764  31.710  1.00  0.00     0.031 A 
ATOM     44  C   UNL A   1      38.491  31.545  31.145  1.00  0.00     0.074 A 
ATOM     45  C   UNL A   1      38.269  33.333  32.840  1.00  0.00     0.049 A 
ATOM     46  N   UNL A   1      39.468  30.832  31.639  1.00  0.00    -0.248 NA
ATOM     47  C   UNL A   1      37.985  31.061  29.850  1.00  0.00     0.031 C 
ATOM     48  C   UNL A   1      37.716  34.540  33.453  1.00  0.00     0.029 A 
ATOM     49  N   UNL A   1      39.282  32.957  33.682  1.00  0.00    -0.354 N 
ATOM     50  C   UNL A   1      39.685  29.807  30.727  1.00  0.00     0.074 A 
ATOM     51  C   UNL A   1      38.718  29.974  29.664  1.00  0.00     0.031 C 
ATOM     52  C   UNL A   1      38.378  34.787  34.595  1.00  0.00     0.029 A 
ATOM     53  C   UNL A   1      39.373  33.738  34.808  1.00  0.00     0.049 A 
ATOM     54  H   UNL A   1      39.887  32.202  33.498  1.00  0.00     0.167 HD
ATOM     55  C   UNL A   1      40.611  28.819  30.772  1.00  0.00     0.037 A 
ATOM     56  C   UNL A   1      40.143  33.596  35.905  1.00  0.00     0.037 A 
ATOM     57  C   UNL A   1      41.560  28.662  31.845  1.00  0.00     0.049 A 
ATOM     58  C   UNL A   1      41.128  32.459  35.968  1.00  0.00     0.074 A 
ATOM     59  C   UNL A   1      42.555  27.712  31.982  1.00  0.00     0.029 A 
ATOM     60  N   UNL A   1      41.620  29.469  32.973  1.00  0.00    -0.354 N 
ATOM     61  N   UNL A   1      41.347  31.509  35.089  1.00  0.00    -0.248 NA
ATOM     62  C   UNL A   1      41.975  32.379  37.164  1.00  0.00     0.031 C 
ATOM     63  C   UNL A   1      43.175  27.906  33.221  1.00  0.00     0.029 A 
ATOM     64  C   UNL A   1      42.613  29.020  33.827  1.00  0.00     0.049 A 
ATOM     65  H   UNL A   1      41.040  30.247  33.143  1.00  0.00     0.167 HD
ATOM     66  C   UNL A   1      42.372  30.730  35.614  1.00  0.00     0.074 A 
ATOM     67  C   UNL A   1      42.736  31.328  36.883  1.00  0.00     0.031 C 
ATOM     68  C   UNL A   1      42.962  29.625  35.092  1.00  0.00     0.037 A 
BRANCH  55  69
ATOM     69  C   UNL A   1      40.601  27.810  29.654  1.00  0.00     0.058 A 
ATOM     70  C   UNL A   1      41.551  27.834  28.619  1.00  0.00     0.135 A 
ATOM     71  C   UNL A   1      39.618  26.807  29.613  1.00  0.00     0.135 A 
ATOM     72  F   UNL A   1      42.505  28.777  28.598  1.00  0.00    -0.206 F 
ATOM     73  C   UNL A   1      41.494  26.934  27.559  1.00  0.00     0.059 A 
ATOM     74  C   UNL A   1      39.563  25.877  28.580  1.00  0.00     0.059 A 
ATOM     75  F   UNL A   1      38.686  26.735  30.577  1.00  0.00    -0.206 F 
ATOM     76  C   UNL A   1      40.491  25.962  27.545  1.00  0.00     0.060 A 
BRANCH  76  77
ATOM     77  S   UNL A   1      40.410  24.824  26.147  1.00  0.00     0.124 S 
ATOM     78  O   UNL A   1      38.985  24.509  26.112  1.00  0.00    -0.237 OA
ATOM     79  O   UNL A   1      40.904  25.645  25.046  1.00  0.00    -0.237 OA
ATOM     80  O   UNL A   1      41.284  23.727  26.548  1.00  0.00    -0.744 OA
ENDBRANCH  76  77
ENDBRANCH  55  69
BRANCH  56  81
ATOM     81  C   UNL A   1      39.981  34.549  37.033  1.00  0.00     0.058 A 
ATOM     82  C   UNL A   1      40.590  35.812  37.017  1.00  0.00     0.135 A 
ATOM     83  C   UNL A   1      39.160  34.232  38.129  1.00  0.00     0.135 A 
ATOM     84  F   UNL A   1      41.391  36.156  35.998  1.00  0.00    -0.206 F 
ATOM     85  C   UNL A   1      40.386  36.730  38.043  1.00  0.00     0.059 A 
ATOM     86  C   UNL A   1      38.920  35.143  39.152  1.00  0.00     0.059 A 
ATOM     87  F   UNL A   1      38.545  33.041  38.186  1.00  0.00    -0.206 F 
ATOM     88  C   UNL A   1      39.539  36.390  39.100  1.00  0.00     0.060 A 
BRANCH  88  89
ATOM     89  S   UNL A   1      39.204  37.625  40.374  1.00  0.00     0.124 S 
ATOM     90  O   UNL A   1      38.576  36.815  41.412  1.00  0.00    -0.237 OA
ATOM     91  O   UNL A   1      40.543  38.123  40.674  1.00  0.00    -0.237 OA
ATOM     92  O   UNL A   1      38.327  38.576  39.697  1.00  0.00    -0.744 OA
ENDBRANCH  88  89
ENDBRANCH  56  81
BRANCH  68  93
ATOM     93  C   UNL A   1      44.089  29.003  35.872  1.00  0.00     0.058 A 
ATOM     94  C   UNL A   1      45.409  29.471  35.772  1.00  0.00     0.135 A 
ATOM     95  C   UNL A   1      43.833  27.962  36.780  1.00  0.00     0.135 A 
ATOM     96  F   UNL A   1      45.712  30.460  34.916  1.00  0.00    -0.206 F 
ATOM     97  C   UNL A   1      46.437  28.913  36.526  1.00  0.00     0.059 A 
ATOM     98  C   UNL A   1      44.838  27.411  37.567  1.00  0.00     0.059 A 
ATOM     99  F   UNL A   1      42.586  27.482  36.924  1.00  0.00    -0.206 F 
ATOM    100  C   UNL A   1      46.141  27.886  37.425  1.00  0.00     0.060 A 
BRANCH 100 101
ATOM    101  S   UNL A   1      47.477  27.197  38.423  1.00  0.00     0.124 S 
ATOM    102  O   UNL A   1      47.653  25.883  37.813  1.00  0.00    -0.237 OA
ATOM    103  O   UNL A   1      48.559  28.151  38.197  1.00  0.00    -0.237 OA
ATOM    104  O   UNL A   1      46.925  27.191  39.775  1.00  0.00    -0.744 OA
ENDBRANCH 100 101
ENDBRANCH  68  93
ENDBRANCH  42  43
ENDBRANCH  35  37
ENDBRANCH  34  35
ENDBRANCH  33  34
ENDBRANCH  32  33
ENDBRANCH  31  32
ENDBRANCH   1  31
TORSDOF 23
ENDMDL
MODEL 2
REMARK VINA RESULT:     -11.4      4.525      9.342
REMARK SMILES CCCC(=O)Nc1cccc(C(=O)N[C@@H](C(=O)OCCOCCOC(=O)c2ccc(-c3c4nc(c(-c5c(F)cc(S(=O)(=O)[O-])cc5F)c5ccc([nH]5)c(-c5c(F)cc(S(=O)(=O)[O-])cc5F)c5nc(c(-c6c(F)cc(S(=O)(=O)[O-])cc6F)c6ccc3[nH]6)C=C5)C=C4)cc2)C2=C(C)N=N[C@@H]2C)c1
REMARK SMILES IDX 20 1 19 2 18 3 16 4 17 5 15 6 14 7 12 8 13 9 11 11 7 12 8 13
REMARK SMILES IDX 100 14 9 15 10 16 6 17 4 18 5 19 3 21 2 22 1 23 93 24 94 25
REMARK SMILES IDX 98 26 95 27 96 28 97 29 99 30 21 31 22 32 23 33 24 34 25 35
REMARK SMILES IDX 26 36 27 37 28 38 92 39 29 40 91 41 30 42 31 43 32 44 85 45
REMARK SMILES IDX 33 46 90 47 84 48 86 49 34 50 89 51 83 52 82 53 35 55 69 56
REMARK SMILES IDX 48 57 68 58 49 59 52 60 67 61 87 62 50 63 51 64 66 66 88 67
REMARK SMILES IDX 53 68 36 69 37 70 46 71 38 72 39 73 45 74 47 75 40 76 41 77
REMARK SMILES IDX 42 78 43 79 44 80 70 81 71 82 80 83 72 84 73 85 79 86 81 87
REMARK SMILES IDX 74 88 75 89 76 90 77 91 78 92 54 93 55 94 64 95 56 96 57 97
REMARK SMILES IDX 63 98 65 99 58 100 59 101 60 102 61 103 62 104
REMARK H PARENT 14 10 6 20 86 54 52 65
REMARK Flexibility Score: inf
ROOT
ATOM      1  C   UNL A   1      30.901  27.693  23.889  1.00  0.00     0.202 C 
ENDROOT
BRANCH   1   2
ATOM      2  C   UNL A   1      29.793  26.636  23.831  1.00  0.00     0.261 C 
BRANCH   2   3
ATOM      3  O   UNL A   1      30.308  25.302  23.913  1.00  0.00    -0.461 OA
BRANCH   3   4
ATOM      4  C   UNL A   1      30.470  24.840  25.186  1.00  0.00     0.333 C 
ATOM      5  O   UNL A   1      29.861  25.286  26.151  1.00  0.00    -0.249 OA
BRANCH   4   6
ATOM      6  C   UNL A   1      31.498  23.667  25.263  1.00  0.00     0.223 C 
BRANCH   6   7
ATOM      7  N   UNL A   1      31.997  23.438  26.626  1.00  0.00    -0.335 N 
ATOM      8  C   UNL A   1      32.730  22.415  27.192  1.00  0.00     0.252 C 
ATOM      9  O   UNL A   1      32.933  22.469  28.405  1.00  0.00    -0.269 OA
ATOM     10  H   UNL A   1      31.762  24.154  27.259  1.00  0.00     0.165 HD
BRANCH   8  11
ATOM     11  C   UNL A   1      33.379  21.333  26.399  1.00  0.00     0.041 A 
ATOM     12  C   UNL A   1      33.244  19.527  24.807  1.00  0.00     0.041 A 
ATOM     13  C   UNL A   1      34.587  19.670  24.478  1.00  0.00     0.026 A 
ATOM     14  C   UNL A   1      32.676  20.267  25.845  1.00  0.00     0.040 A 
ATOM     15  C   UNL A   1      35.353  20.610  25.166  1.00  0.00     0.003 A 
ATOM     16  C   UNL A   1      34.746  21.459  26.100  1.00  0.00     0.014 A 
BRANCH  12  17
ATOM     17  N   UNL A   1      32.403  18.680  24.070  1.00  0.00    -0.326 N 
ATOM     18  C   UNL A   1      32.896  17.835  23.099  1.00  0.00     0.224 C 
ATOM     19  O   UNL A   1      32.298  17.738  22.026  1.00  0.00    -0.275 OA
ATOM     20  H   UNL A   1      31.436  18.688  24.251  1.00  0.00     0.169 HD
BRANCH  18  21
ATOM     21  C   UNL A   1      34.149  17.010  23.377  1.00  0.00     0.100 C 
BRANCH  21  22
ATOM     22  C   UNL A   1      34.029  16.025  24.537  1.00  0.00     0.006 C 
ATOM     23  C   UNL A   1      35.327  15.797  25.292  1.00  0.00     0.004 C 
ENDBRANCH  21  22
ENDBRANCH  18  21
ENDBRANCH  12  17
ENDBRANCH   8  11
ENDBRANCH   6   7
BRANCH   6  24
ATOM     24  C   UNL A   1      32.609  23.868  24.267  1.00  0.00     0.012 C 
ATOM     25  C   UNL A   1      32.866  23.147  23.159  1.00  0.00     0.064 C 
ATOM     26  C   UNL A   1      33.634  24.959  24.242  1.00  0.00     0.156 C 
ATOM     27  C   UNL A   1      32.161  21.953  22.594  1.00  0.00     0.069 C 
ATOM     28  N   UNL A   1      33.933  23.629  22.447  1.00  0.00    -0.160 NA
ATOM     29  N   UNL A   1      34.406  24.650  23.005  1.00  0.00    -0.181 NA
ATOM     30  C   UNL A   1      34.624  25.018  25.398  1.00  0.00     0.040 C 
ENDBRANCH   6  24
ENDBRANCH   4   6
ENDBRANCH   3   4
ENDBRANCH   2   3
ENDBRANCH   1   2
BRANCH   1  31
ATOM     31  O   UNL A   1      31.650  27.833  25.092  1.00  0.00    -0.374 OA
BRANCH  31  32
ATOM     32  C   UNL A   1      32.600  28.888  25.194  1.00  0.00     0.202 C 
BRANCH  32  33
ATOM     33  C   UNL A   1      34.026  28.598  25.677  1.00  0.00     0.261 C 
BRANCH  33  34
ATOM     34  O   UNL A   1      34.137  28.598  27.109  1.00  0.00    -0.460 OA
BRANCH  34  35
ATOM     35  C   UNL A   1      34.444  29.810  27.640  1.00  0.00     0.338 C 
ATOM     36  O   UNL A   1      33.673  30.723  27.876  1.00  0.00    -0.246 OA
BRANCH  35  37
ATOM     37  C   UNL A   1      35.836  29.811  28.118  1.00  0.00     0.060 A 
ATOM     38  C   UNL A   1      36.839  30.113  27.187  1.00  0.00     0.016 A 
ATOM     39  C   UNL A   1      36.159  29.422  29.417  1.00  0.00     0.016 A 
ATOM     40  C   UNL A   1      38.177  29.983  27.537  1.00  0.00     0.010 A 
ATOM     41  C   UNL A   1      37.504  29.272  29.763  1.00  0.00     0.010 A 
ATOM     42  C   UNL A   1      38.514  29.515  28.812  1.00  0.00    -0.014 A 
BRANCH  42  43
ATOM     43  C   UNL A   1      39.914  29.124  29.092  1.00  0.00     0.031 A 
ATOM     44  C   UNL A   1      40.851  30.150  29.661  1.00  0.00     0.074 A 
ATOM     45  C   UNL A   1      40.331  27.869  28.860  1.00  0.00     0.049 A 
ATOM     46  N   UNL A   1      42.128  30.055  29.919  1.00  0.00    -0.248 NA
ATOM     47  C   UNL A   1      40.269  31.465  29.975  1.00  0.00     0.031 C 
ATOM     48  C   UNL A   1      39.494  26.785  28.347  1.00  0.00     0.029 A 
ATOM     49  N   UNL A   1      41.569  27.302  29.007  1.00  0.00    -0.354 N 
ATOM     50  C   UNL A   1      42.508  31.299  30.409  1.00  0.00     0.074 A 
ATOM     51  C   UNL A   1      41.332  32.140  30.385  1.00  0.00     0.031 C 
ATOM     52  C   UNL A   1      40.254  25.688  28.190  1.00  0.00     0.029 A 
ATOM     53  C   UNL A   1      41.633  26.006  28.557  1.00  0.00     0.049 A 
ATOM     54  H   UNL A   1      42.339  27.777  29.397  1.00  0.00     0.167 HD
ATOM     55  C   UNL A   1      43.728  31.699  30.842  1.00  0.00     0.037 A 
ATOM     56  C   UNL A   1      42.692  25.184  28.418  1.00  0.00     0.037 A 
ATOM     57  C   UNL A   1      44.891  30.849  30.848  1.00  0.00     0.049 A 
ATOM     58  C   UNL A   1      44.053  25.662  28.850  1.00  0.00     0.074 A 
ATOM     59  C   UNL A   1      46.170  31.143  31.286  1.00  0.00     0.029 A 
ATOM     60  N   UNL A   1      44.920  29.542  30.381  1.00  0.00    -0.354 N 
ATOM     61  N   UNL A   1      44.399  26.831  29.338  1.00  0.00    -0.248 NA
ATOM     62  C   UNL A   1      45.163  24.711  28.721  1.00  0.00     0.031 C 
ATOM     63  C   UNL A   1      46.985  30.036  31.025  1.00  0.00     0.029 A 
ATOM     64  C   UNL A   1      46.201  29.026  30.488  1.00  0.00     0.049 A 
ATOM     65  H   UNL A   1      44.144  29.053  30.023  1.00  0.00     0.167 HD
ATOM     66  C   UNL A   1      45.762  26.749  29.597  1.00  0.00     0.074 A 
ATOM     67  C   UNL A   1      46.174  25.411  29.220  1.00  0.00     0.031 C 
ATOM     68  C   UNL A   1      46.597  27.691  30.104  1.00  0.00     0.037 A 
BRANCH  55  69
ATOM     69  C   UNL A   1      43.867  33.129  31.294  1.00  0.00     0.058 A 
ATOM     70  C   UNL A   1      44.223  34.160  30.409  1.00  0.00     0.135 A 
ATOM     71  C   UNL A   1      43.649  33.470  32.640  1.00  0.00     0.135 A 
ATOM     72  F   UNL A   1      44.457  33.890  29.115  1.00  0.00    -0.206 F 
ATOM     73  C   UNL A   1      44.407  35.466  30.851  1.00  0.00     0.059 A 
ATOM     74  C   UNL A   1      43.796  34.777  33.096  1.00  0.00     0.059 A 
ATOM     75  F   UNL A   1      43.305  32.527  33.530  1.00  0.00    -0.206 F 
ATOM     76  C   UNL A   1      44.198  35.764  32.199  1.00  0.00     0.060 A 
BRANCH  76  77
ATOM     77  S   UNL A   1      44.475  37.455  32.764  1.00  0.00     0.124 S 
ATOM     78  O   UNL A   1      43.481  37.574  33.826  1.00  0.00    -0.237 OA
ATOM     79  O   UNL A   1      45.867  37.416  33.201  1.00  0.00    -0.237 OA
ATOM     80  O   UNL A   1      44.218  38.260  31.573  1.00  0.00    -0.744 OA
ENDBRANCH  76  77
ENDBRANCH  55  69
BRANCH  56  81
ATOM     81  C   UNL A   1      42.493  23.839  27.818  1.00  0.00     0.058 A 
ATOM     82  C   UNL A   1      42.510  23.649  26.429  1.00  0.00     0.135 A 
ATOM     83  C   UNL A   1      42.341  22.705  28.633  1.00  0.00     0.135 A 
ATOM     84  F   UNL A   1      42.642  24.702  25.610  1.00  0.00    -0.206 F 
ATOM     85  C   UNL A   1      42.389  22.381  25.869  1.00  0.00     0.059 A 
ATOM     86  C   UNL A   1      42.245  21.426  28.096  1.00  0.00     0.059 A 
ATOM     87  F   UNL A   1      42.330  22.833  29.969  1.00  0.00    -0.206 F 
ATOM     88  C   UNL A   1      42.269  21.274  26.712  1.00  0.00     0.060 A 
BRANCH  88  89
ATOM     89  S   UNL A   1      42.213  19.626  25.976  1.00  0.00     0.124 S 
ATOM     90  O   UNL A   1      40.809  19.522  25.594  1.00  0.00    -0.237 OA
ATOM     91  O   UNL A   1      43.167  19.750  24.879  1.00  0.00    -0.237 OA
ATOM     92  O   UNL A   1      42.636  18.756  27.069  1.00  0.00    -0.744 OA
ENDBRANCH  88  89
ENDBRANCH  56  81
BRANCH  68  93
ATOM     93  C   UNL A   1      48.036  27.305  30.317  1.00  0.00     0.058 A 
ATOM     94  C   UNL A   1      49.011  27.493  29.325  1.00  0.00     0.135 A 
ATOM     95  C   UNL A   1      48.456  26.793  31.557  1.00  0.00     0.135 A 
ATOM     96  F   UNL A   1      48.665  27.972  28.120  1.00  0.00    -0.206 F 
ATOM     97  C   UNL A   1      50.346  27.166  29.547  1.00  0.00     0.059 A 
ATOM     98  C   UNL A   1      49.789  26.490  31.811  1.00  0.00     0.059 A 
ATOM     99  F   UNL A   1      47.567  26.602  32.546  1.00  0.00    -0.206 F 
ATOM    100  C   UNL A   1      50.726  26.669  30.795  1.00  0.00     0.060 A 
BRANCH 100 101
ATOM    101  S   UNL A   1      52.466  26.285  31.080  1.00  0.00     0.124 S 
ATOM    102  O   UNL A   1      52.968  26.164  29.715  1.00  0.00    -0.237 OA
ATOM    103  O   UNL A   1      52.926  27.453  31.824  1.00  0.00    -0.237 OA
ATOM    104  O   UNL A   1      52.420  25.041  31.843  1.00  0.00    -0.744 OA
ENDBRANCH 100 101
ENDBRANCH  68  93
ENDBRANCH  42  43
ENDBRANCH  35  37
ENDBRANCH  34  35
ENDBRANCH  33  34
ENDBRANCH  32  33
ENDBRANCH  31  32
ENDBRANCH   1  31
TORSDOF 23
ENDMDL
MODEL 3
REMARK VINA RESULT:     -11.1      2.118      8.819
REMARK SMILES CCCC(=O)Nc1cccc(C(=O)N[C@@H](C(=O)OCCOCCOC(=O)c2ccc(-c3c4nc(c(-c5c(F)cc(S(=O)(=O)[O-])cc5F)c5ccc([nH]5)c(-c5c(F)cc(S(=O)(=O)[O-])cc5F)c5nc(c(-c6c(F)cc(S(=O)(=O)[O-])cc6F)c6ccc3[nH]6)C=C5)C=C4)cc2)C2=C(C)N=N[C@@H]2C)c1
REMARK SMILES IDX 20 1 19 2 18 3 16 4 17 5 15 6 14 7 12 8 13 9 11 11 7 12 8 13
REMARK SMILES IDX 100 14 9 15 10 16 6 17 4 18 5 19 3 21 2 22 1 23 93 24 94 25
REMARK SMILES IDX 98 26 95 27 96 28 97 29 99 30 21 31 22 32 23 33 24 34 25 35
REMARK SMILES IDX 26 36 27 37 28 38 92 39 29 40 91 41 30 42 31 43 32 44 85 45
REMARK SMILES IDX 33 46 90 47 84 48 86 49 34 50 89 51 83 52 82 53 35 55 69 56
REMARK SMILES IDX 48 57 68 58 49 59 52 60 67 61 87 62 50 63 51 64 66 66 88 67
REMARK SMILES IDX 53 68 36 69 37 70 46 71 38 72 39 73 45 74 47 75 40 76 41 77
REMARK SMILES IDX 42 78 43 79 44 80 70 81 71 82 80 83 72 84 73 85 79 86 81 87
REMARK SMILES IDX 74 88 75 89 76 90 77 91 78 92 54 93 55 94 64 95 56 96 57 97
REMARK SMILES IDX 63 98 65 99 58 100 59 101 60 102 61 103 62 104
REMARK H PARENT 14 10 6 20 86 54 52 65
REMARK Flexibility Score: inf
ROOT
ATOM      1  C   UNL A   1      37.590  21.218  24.867  1.00  0.00     0.202 C 
ENDROOT
BRANCH   1   2
ATOM      2  C   UNL A   1      36.383  20.277  24.926  1.00  0.00     0.261 C 
BRANCH   2   3
ATOM      3  O   UNL A   1      35.373  20.743  25.828  1.00  0.00    -0.461 OA
BRANCH   3   4
ATOM      4  C   UNL A   1      34.101  20.650  25.344  1.00  0.00     0.333 C 
ATOM      5  O   UNL A   1      33.599  19.603  24.954  1.00  0.00    -0.249 OA
BRANCH   4   6
ATOM      6  C   UNL A   1      33.357  22.024  25.370  1.00  0.00     0.223 C 
BRANCH   6   7
ATOM      7  N   UNL A   1      31.945  21.897  25.755  1.00  0.00    -0.335 N 
ATOM      8  C   UNL A   1      30.946  22.826  25.958  1.00  0.00     0.252 C 
ATOM      9  O   UNL A   1      29.858  22.410  26.359  1.00  0.00    -0.269 OA
ATOM     10  H   UNL A   1      31.655  20.967  25.895  1.00  0.00     0.165 HD
BRANCH   8  11
ATOM     11  C   UNL A   1      31.080  24.268  25.604  1.00  0.00     0.041 A 
ATOM     12  C   UNL A   1      32.219  26.384  25.814  1.00  0.00     0.041 A 
ATOM     13  C   UNL A   1      31.737  26.804  24.579  1.00  0.00     0.026 A 
ATOM     14  C   UNL A   1      31.795  25.179  26.377  1.00  0.00     0.040 A 
ATOM     15  C   UNL A   1      30.862  25.976  23.878  1.00  0.00     0.003 A 
ATOM     16  C   UNL A   1      30.559  24.700  24.373  1.00  0.00     0.014 A 
BRANCH  12  17
ATOM     17  N   UNL A   1      33.188  27.125  26.504  1.00  0.00    -0.326 N 
ATOM     18  C   UNL A   1      33.155  28.503  26.545  1.00  0.00     0.224 C 
ATOM     19  O   UNL A   1      34.201  29.134  26.390  1.00  0.00    -0.275 OA
ATOM     20  H   UNL A   1      33.912  26.650  26.973  1.00  0.00     0.169 HD
BRANCH  18  21
ATOM     21  C   UNL A   1      31.836  29.221  26.816  1.00  0.00     0.100 C 
BRANCH  21  22
ATOM     22  C   UNL A   1      31.481  30.317  25.815  1.00  0.00     0.006 C 
ATOM     23  C   UNL A   1      31.346  31.698  26.432  1.00  0.00     0.004 C 
ENDBRANCH  21  22
ENDBRANCH  18  21
ENDBRANCH  12  17
ENDBRANCH   8  11
ENDBRANCH   6   7
BRANCH   6  24
ATOM     24  C   UNL A   1      33.537  22.750  24.063  1.00  0.00     0.012 C 
ATOM     25  C   UNL A   1      33.024  22.427  22.861  1.00  0.00     0.064 C 
ATOM     26  C   UNL A   1      34.266  24.035  23.819  1.00  0.00     0.156 C 
ATOM     27  C   UNL A   1      32.154  21.278  22.455  1.00  0.00     0.069 C 
ATOM     28  N   UNL A   1      33.350  23.331  21.884  1.00  0.00    -0.160 NA
ATOM     29  N   UNL A   1      34.046  24.260  22.363  1.00  0.00    -0.181 NA
ATOM     30  C   UNL A   1      35.769  24.046  24.063  1.00  0.00     0.040 C 
ENDBRANCH   6  24
ENDBRANCH   4   6
ENDBRANCH   3   4
ENDBRANCH   2   3
ENDBRANCH   1   2
BRANCH   1  31
ATOM     31  O   UNL A   1      38.062  21.803  26.077  1.00  0.00    -0.374 OA
BRANCH  31  32
ATOM     32  C   UNL A   1      39.462  21.993  26.251  1.00  0.00     0.202 C 
BRANCH  32  33
ATOM     33  C   UNL A   1      39.980  23.044  27.240  1.00  0.00     0.261 C 
BRANCH  33  34
ATOM     34  O   UNL A   1      41.084  23.800  26.719  1.00  0.00    -0.460 OA
BRANCH  34  35
ATOM     35  C   UNL A   1      40.795  25.103  26.474  1.00  0.00     0.338 C 
ATOM     36  O   UNL A   1      40.337  25.572  25.447  1.00  0.00    -0.246 OA
BRANCH  35  37
ATOM     37  C   UNL A   1      40.898  25.883  27.718  1.00  0.00     0.060 A 
ATOM     38  C   UNL A   1      39.749  25.982  28.516  1.00  0.00     0.016 A 
ATOM     39  C   UNL A   1      42.057  26.587  28.041  1.00  0.00     0.016 A 
ATOM     40  C   UNL A   1      39.738  26.824  29.620  1.00  0.00     0.010 A 
ATOM     41  C   UNL A   1      42.038  27.450  29.141  1.00  0.00     0.010 A 
ATOM     42  C   UNL A   1      40.868  27.599  29.909  1.00  0.00    -0.014 A 
BRANCH  42  43
ATOM     43  C   UNL A   1      40.764  28.682  30.911  1.00  0.00     0.031 A 
ATOM     44  C   UNL A   1      41.660  28.640  32.116  1.00  0.00     0.074 A 
ATOM     45  C   UNL A   1      39.900  29.695  30.735  1.00  0.00     0.049 A 
ATOM     46  N   UNL A   1      41.696  29.436  33.151  1.00  0.00    -0.248 NA
ATOM     47  C   UNL A   1      42.642  27.545  32.163  1.00  0.00     0.031 C 
ATOM     48  C   UNL A   1      39.013  29.855  29.583  1.00  0.00     0.029 A 
ATOM     49  N   UNL A   1      39.613  30.768  31.536  1.00  0.00    -0.354 N 
ATOM     50  C   UNL A   1      42.691  28.932  33.980  1.00  0.00     0.074 A 
ATOM     51  C   UNL A   1      43.213  27.744  33.340  1.00  0.00     0.031 C 
ATOM     52  C   UNL A   1      38.255  30.947  29.768  1.00  0.00     0.029 A 
ATOM     53  C   UNL A   1      38.578  31.539  31.065  1.00  0.00     0.049 A 
ATOM     54  H   UNL A   1      40.100  30.968  32.369  1.00  0.00     0.167 HD
ATOM     55  C   UNL A   1      43.130  29.420  35.165  1.00  0.00     0.037 A 
ATOM     56  C   UNL A   1      37.939  32.579  31.636  1.00  0.00     0.037 A 
ATOM     57  C   UNL A   1      42.591  30.599  35.792  1.00  0.00     0.049 A 
ATOM     58  C   UNL A   1      38.399  33.075  32.981  1.00  0.00     0.074 A 
ATOM     59  C   UNL A   1      42.974  31.195  36.980  1.00  0.00     0.029 A 
ATOM     60  N   UNL A   1      41.539  31.353  35.288  1.00  0.00    -0.354 N 
ATOM     61  N   UNL A   1      39.359  32.610  33.746  1.00  0.00    -0.248 NA
ATOM     62  C   UNL A   1      37.699  34.240  33.535  1.00  0.00     0.031 C 
ATOM     63  C   UNL A   1      42.115  32.272  37.225  1.00  0.00     0.029 A 
ATOM     64  C   UNL A   1      41.239  32.391  36.156  1.00  0.00     0.049 A 
ATOM     65  H   UNL A   1      41.074  31.177  34.439  1.00  0.00     0.167 HD
ATOM     66  C   UNL A   1      39.394  33.438  34.862  1.00  0.00     0.074 A 
ATOM     67  C   UNL A   1      38.364  34.440  34.666  1.00  0.00     0.031 C 
ATOM     68  C   UNL A   1      40.206  33.379  35.948  1.00  0.00     0.037 A 
BRANCH  55  69
ATOM     69  C   UNL A   1      44.210  28.646  35.875  1.00  0.00     0.058 A 
ATOM     70  C   UNL A   1      45.575  28.911  35.670  1.00  0.00     0.135 A 
ATOM     71  C   UNL A   1      43.873  27.615  36.767  1.00  0.00     0.135 A 
ATOM     72  F   UNL A   1      45.957  29.874  34.818  1.00  0.00    -0.206 F 
ATOM     73  C   UNL A   1      46.563  28.148  36.285  1.00  0.00     0.059 A 
ATOM     74  C   UNL A   1      44.845  26.862  37.418  1.00  0.00     0.059 A 
ATOM     75  F   UNL A   1      42.585  27.319  37.003  1.00  0.00    -0.206 F 
ATOM     76  C   UNL A   1      46.188  27.121  37.152  1.00  0.00     0.060 A 
BRANCH  76  77
ATOM     77  S   UNL A   1      47.481  26.118  37.914  1.00  0.00     0.124 S 
ATOM     78  O   UNL A   1      46.747  25.475  39.000  1.00  0.00    -0.237 OA
ATOM     79  O   UNL A   1      47.886  25.244  36.818  1.00  0.00    -0.237 OA
ATOM     80  O   UNL A   1      48.477  27.102  38.328  1.00  0.00    -0.744 OA
ENDBRANCH  76  77
ENDBRANCH  55  69
BRANCH  56  81
ATOM     81  C   UNL A   1      36.780  33.191  30.936  1.00  0.00     0.058 A 
ATOM     82  C   UNL A   1      35.466  32.983  31.378  1.00  0.00     0.135 A 
ATOM     83  C   UNL A   1      36.973  34.047  29.839  1.00  0.00     0.135 A 
ATOM     84  F   UNL A   1      35.229  32.165  32.415  1.00  0.00    -0.206 F 
ATOM     85  C   UNL A   1      34.385  33.607  30.763  1.00  0.00     0.059 A 
ATOM     86  C   UNL A   1      35.912  34.702  29.225  1.00  0.00     0.059 A 
ATOM     87  F   UNL A   1      38.213  34.288  29.384  1.00  0.00    -0.206 F 
ATOM     88  C   UNL A   1      34.620  34.475  29.695  1.00  0.00     0.060 A 
BRANCH  88  89
ATOM     89  S   UNL A   1      33.220  35.355  28.969  1.00  0.00     0.124 S 
ATOM     90  O   UNL A   1      32.604  34.310  28.158  1.00  0.00    -0.237 OA
ATOM     91  O   UNL A   1      32.474  35.769  30.153  1.00  0.00    -0.237 OA
ATOM     92  O   UNL A   1      33.854  36.439  28.226  1.00  0.00    -0.744 OA
ENDBRANCH  88  89
ENDBRANCH  56  81
BRANCH  68  93
ATOM     93  C   UNL A   1      40.044  34.446  36.998  1.00  0.00     0.058 A 
ATOM     94  C   UNL A   1      40.816  35.618  36.993  1.00  0.00     0.135 A 
ATOM     95  C   UNL A   1      39.056  34.318  37.990  1.00  0.00     0.135 A 
ATOM     96  F   UNL A   1      41.779  35.788  36.073  1.00  0.00    -0.206 F 
ATOM     97  C   UNL A   1      40.632  36.614  37.947  1.00  0.00     0.059 A 
ATOM     98  C   UNL A   1      38.833  35.316  38.933  1.00  0.00     0.059 A 
ATOM     99  F   UNL A   1      38.281  33.223  38.035  1.00  0.00    -0.206 F 
ATOM    100  C   UNL A   1      39.634  36.455  38.911  1.00  0.00     0.060 A 
BRANCH 100 101
ATOM    101  S   UNL A   1      39.381  37.772  40.119  1.00  0.00     0.124 S 
ATOM    102  O   UNL A   1      40.615  38.540  39.979  1.00  0.00    -0.237 OA
ATOM    103  O   UNL A   1      38.171  38.421  39.625  1.00  0.00    -0.237 OA
ATOM    104  O   UNL A   1      39.231  37.053  41.381  1.00  0.00    -0.744 OA
ENDBRANCH 100 101
ENDBRANCH  68  93
ENDBRANCH  42  43
ENDBRANCH  35  37
ENDBRANCH  34  35
ENDBRANCH  33  34
ENDBRANCH  32  33
ENDBRANCH  31  32
ENDBRANCH   1  31
TORSDOF 23
ENDMDL
