MODEL 1
REMARK VINA RESULT:     -12.5      0.000      0.000
REMARK SMILES Cc1cc(C(=O)OCCOCCOC(=O)c2ccc(-c3c4nc(c(-c5c(F)cc(S(=O)(=O)[O-])cc5F)c5ccc([nH]5)c(-c5c(F)cc(S(=O)(=O)[O-])cc5F)c5nc(c(-c6c(F)cc(S(=O)(=O)[O-])cc6F)c6ccc3[nH]6)C=C5)C=C4)cc2)ccc1NS(=O)(=O)c1ccc2c(c1)CCC2
REMARK SMILES IDX 10 1 9 2 8 3 7 4 5 5 6 6 4 7 1 8 2 9 3 10 84 11 83 12 82 13
REMARK SMILES IDX 85 14 86 16 87 17 88 18 89 19 90 20 94 21 91 22 93 23 92 24
REMARK SMILES IDX 95 25 97 26 96 27 11 28 12 29 13 30 14 31 15 32 16 33 17 34
REMARK SMILES IDX 81 35 18 36 80 37 19 38 20 39 21 40 74 41 22 42 79 43 73 44
REMARK SMILES IDX 75 45 23 46 78 47 72 48 71 49 24 51 58 52 37 53 57 54 38 55
REMARK SMILES IDX 41 56 56 57 76 58 39 59 40 60 55 62 77 63 42 64 25 65 26 66
REMARK SMILES IDX 35 67 27 68 28 69 34 70 36 71 29 72 30 73 31 74 32 75 33 76
REMARK SMILES IDX 59 77 60 78 69 79 61 80 62 81 68 82 70 83 63 84 64 85 65 86
REMARK SMILES IDX 66 87 67 88 43 89 44 90 53 91 45 92 46 93 52 94 54 95 47 96
REMARK SMILES IDX 48 97 49 98 50 99 51 100
REMARK H PARENT 85 15 75 50 41 61
REMARK Flexibility Score: inf
ROOT
ATOM      1  O   UNL A   1      31.647  27.820  25.457  1.00  0.00    -0.374 OA
ENDROOT
BRANCH   1   2
ATOM      2  C   UNL A   1      31.149  27.098  26.573  1.00  0.00     0.202 C 
BRANCH   2   3
ATOM      3  C   UNL A   1      30.922  25.697  26.087  1.00  0.00     0.261 C 
BRANCH   3   4
ATOM      4  O   UNL A   1      31.215  24.678  27.080  1.00  0.00    -0.460 OA
BRANCH   4   5
ATOM      5  C   UNL A   1      30.717  23.405  26.977  1.00  0.00     0.338 C 
ATOM      6  O   UNL A   1      29.588  23.012  26.972  1.00  0.00    -0.246 OA
BRANCH   5   7
ATOM      7  C   UNL A   1      31.874  22.550  26.641  1.00  0.00     0.060 A 
ATOM      8  C   UNL A   1      32.545  20.336  23.679  1.00  0.00     0.046 C 
ATOM      9  C   UNL A   1      32.791  21.258  24.837  1.00  0.00    -0.026 A 
ATOM     10  C   UNL A   1      31.689  21.645  25.602  1.00  0.00     0.021 A 
ATOM     11  C   UNL A   1      34.042  21.827  25.139  1.00  0.00     0.052 A 
ATOM     12  C   UNL A   1      34.252  22.386  26.401  1.00  0.00     0.028 A 
ATOM     13  C   UNL A   1      33.149  22.806  27.138  1.00  0.00     0.018 A 
BRANCH  11  14
ATOM     14  N   UNL A   1      34.865  22.197  24.031  1.00  0.00    -0.279 N 
ATOM     15  H   UNL A   1      34.466  22.078  23.139  1.00  0.00     0.180 HD
BRANCH  14  16
ATOM     16  S   UNL A   1      36.415  22.806  24.061  1.00  0.00     0.261 S 
ATOM     17  O   UNL A   1      36.923  22.776  22.704  1.00  0.00    -0.201 OA
ATOM     18  O   UNL A   1      36.315  24.060  24.781  1.00  0.00    -0.201 OA
BRANCH  16  19
ATOM     19  C   UNL A   1      37.492  21.760  25.036  1.00  0.00     0.088 A 
ATOM     20  C   UNL A   1      37.634  20.377  24.826  1.00  0.00     0.022 A 
ATOM     21  C   UNL A   1      38.382  22.441  25.882  1.00  0.00     0.026 A 
ATOM     22  C   UNL A   1      38.800  19.721  25.252  1.00  0.00     0.005 A 
ATOM     23  C   UNL A   1      39.495  21.765  26.343  1.00  0.00    -0.043 A 
ATOM     24  C   UNL A   1      39.750  20.448  25.950  1.00  0.00    -0.045 A 
ATOM     25  C   UNL A   1      40.596  22.272  27.220  1.00  0.00     0.036 C 
ATOM     26  C   UNL A   1      41.135  20.037  26.356  1.00  0.00     0.036 C 
ATOM     27  C   UNL A   1      41.754  21.399  26.727  1.00  0.00     0.010 C 
ENDBRANCH  16  19
ENDBRANCH  14  16
ENDBRANCH  11  14
ENDBRANCH   5   7
ENDBRANCH   4   5
ENDBRANCH   3   4
ENDBRANCH   2   3
ENDBRANCH   1   2
BRANCH   1  28
ATOM     28  C   UNL A   1      31.764  29.213  25.629  1.00  0.00     0.202 C 
BRANCH  28  29
ATOM     29  C   UNL A   1      33.191  29.667  25.951  1.00  0.00     0.261 C 
BRANCH  29  30
ATOM     30  O   UNL A   1      33.277  30.217  27.283  1.00  0.00    -0.460 OA
BRANCH  30  31
ATOM     31  C   UNL A   1      34.356  31.018  27.529  1.00  0.00     0.338 C 
ATOM     32  O   UNL A   1      34.350  32.226  27.376  1.00  0.00    -0.246 OA
BRANCH  31  33
ATOM     33  C   UNL A   1      35.489  30.214  28.068  1.00  0.00     0.060 A 
ATOM     34  C   UNL A   1      35.500  29.745  29.393  1.00  0.00     0.016 A 
ATOM     35  C   UNL A   1      36.622  30.065  27.278  1.00  0.00     0.016 A 
ATOM     36  C   UNL A   1      36.692  29.265  29.968  1.00  0.00     0.010 A 
ATOM     37  C   UNL A   1      37.803  29.673  27.868  1.00  0.00     0.010 A 
ATOM     38  C   UNL A   1      37.866  29.297  29.221  1.00  0.00    -0.014 A 
BRANCH  38  39
ATOM     39  C   UNL A   1      39.235  29.037  29.690  1.00  0.00     0.031 A 
ATOM     40  C   UNL A   1      39.870  27.756  29.279  1.00  0.00     0.074 A 
ATOM     41  C   UNL A   1      40.016  30.046  30.157  1.00  0.00     0.049 A 
ATOM     42  N   UNL A   1      41.079  27.435  29.566  1.00  0.00    -0.248 NA
ATOM     43  C   UNL A   1      39.191  26.702  28.521  1.00  0.00     0.031 C 
ATOM     44  C   UNL A   1      41.475  30.175  30.076  1.00  0.00     0.029 A 
ATOM     45  N   UNL A   1      39.653  31.226  30.815  1.00  0.00    -0.354 N 
ATOM     46  C   UNL A   1      41.439  26.356  28.797  1.00  0.00     0.074 A 
ATOM     47  C   UNL A   1      40.201  25.867  28.251  1.00  0.00     0.031 C 
ATOM     48  C   UNL A   1      41.892  31.166  30.883  1.00  0.00     0.029 A 
ATOM     49  C   UNL A   1      40.727  31.637  31.613  1.00  0.00     0.049 A 
ATOM     50  H   UNL A   1      38.789  31.688  30.730  1.00  0.00     0.167 HD
ATOM     51  C   UNL A   1      42.770  26.101  28.651  1.00  0.00     0.037 A 
ATOM     52  C   UNL A   1      40.576  31.741  32.959  1.00  0.00     0.037 A 
ATOM     53  C   UNL A   1      43.536  26.909  29.614  1.00  0.00     0.049 A 
ATOM     54  C   UNL A   1      41.459  30.705  33.587  1.00  0.00     0.074 A 
ATOM     55  C   UNL A   1      44.358  28.016  29.504  1.00  0.00     0.029 A 
ATOM     56  N   UNL A   1      43.238  26.778  30.972  1.00  0.00    -0.354 N 
ATOM     57  N   UNL A   1      41.821  29.625  32.947  1.00  0.00    -0.248 NA
ATOM     58  C   UNL A   1      42.136  30.859  34.868  1.00  0.00     0.031 C 
ATOM     59  C   UNL A   1      44.441  28.619  30.797  1.00  0.00     0.029 A 
ATOM     60  C   UNL A   1      43.705  27.858  31.697  1.00  0.00     0.049 A 
ATOM     61  H   UNL A   1      42.756  26.014  31.364  1.00  0.00     0.167 HD
ATOM     62  C   UNL A   1      42.823  29.015  33.628  1.00  0.00     0.074 A 
ATOM     63  C   UNL A   1      42.951  29.788  34.854  1.00  0.00     0.031 C 
ATOM     64  C   UNL A   1      43.496  27.935  33.143  1.00  0.00     0.037 A 
BRANCH  51  65
ATOM     65  C   UNL A   1      43.410  25.238  27.577  1.00  0.00     0.058 A 
ATOM     66  C   UNL A   1      44.232  24.148  27.942  1.00  0.00     0.135 A 
ATOM     67  C   UNL A   1      43.347  25.473  26.185  1.00  0.00     0.135 A 
ATOM     68  F   UNL A   1      44.419  23.822  29.230  1.00  0.00    -0.206 F 
ATOM     69  C   UNL A   1      44.919  23.357  27.012  1.00  0.00     0.059 A 
ATOM     70  C   UNL A   1      43.989  24.670  25.234  1.00  0.00     0.059 A 
ATOM     71  F   UNL A   1      42.709  26.527  25.666  1.00  0.00    -0.206 F 
ATOM     72  C   UNL A   1      44.787  23.620  25.655  1.00  0.00     0.060 A 
BRANCH  72  73
ATOM     73  S   UNL A   1      45.674  22.599  24.463  1.00  0.00     0.124 S 
ATOM     74  O   UNL A   1      46.566  23.570  23.838  1.00  0.00    -0.237 OA
ATOM     75  O   UNL A   1      46.313  21.605  25.319  1.00  0.00    -0.237 OA
ATOM     76  O   UNL A   1      44.615  22.083  23.599  1.00  0.00    -0.744 OA
ENDBRANCH  72  73
ENDBRANCH  51  65
BRANCH  52  77
ATOM     77  C   UNL A   1      39.212  32.234  33.336  1.00  0.00     0.058 A 
ATOM     78  C   UNL A   1      38.943  33.592  33.048  1.00  0.00     0.135 A 
ATOM     79  C   UNL A   1      38.102  31.376  33.413  1.00  0.00     0.135 A 
ATOM     80  F   UNL A   1      39.959  34.464  32.945  1.00  0.00    -0.206 F 
ATOM     81  C   UNL A   1      37.670  34.044  32.694  1.00  0.00     0.059 A 
ATOM     82  C   UNL A   1      36.817  31.809  33.045  1.00  0.00     0.059 A 
ATOM     83  F   UNL A   1      38.275  30.073  33.672  1.00  0.00    -0.206 F 
ATOM     84  C   UNL A   1      36.625  33.128  32.629  1.00  0.00     0.060 A 
BRANCH  84  85
ATOM     85  S   UNL A   1      35.109  33.616  31.752  1.00  0.00     0.124 S 
ATOM     86  O   UNL A   1      35.498  33.454  30.358  1.00  0.00    -0.237 OA
ATOM     87  O   UNL A   1      34.133  32.649  32.254  1.00  0.00    -0.237 OA
ATOM     88  O   UNL A   1      34.894  34.986  32.201  1.00  0.00    -0.744 OA
ENDBRANCH  84  85
ENDBRANCH  52  77
BRANCH  64  89
ATOM     89  C   UNL A   1      44.061  26.890  34.057  1.00  0.00     0.058 A 
ATOM     90  C   UNL A   1      45.423  26.857  34.416  1.00  0.00     0.135 A 
ATOM     91  C   UNL A   1      43.218  25.995  34.749  1.00  0.00     0.135 A 
ATOM     92  F   UNL A   1      46.301  27.757  33.947  1.00  0.00    -0.206 F 
ATOM     93  C   UNL A   1      45.934  25.923  35.302  1.00  0.00     0.059 A 
ATOM     94  C   UNL A   1      43.699  25.099  35.695  1.00  0.00     0.059 A 
ATOM     95  F   UNL A   1      41.893  25.972  34.544  1.00  0.00    -0.206 F 
ATOM     96  C   UNL A   1      45.065  25.038  35.927  1.00  0.00     0.060 A 
BRANCH  96  97
ATOM     97  S   UNL A   1      45.741  23.817  37.055  1.00  0.00     0.124 S 
ATOM     98  O   UNL A   1      47.172  24.061  36.909  1.00  0.00    -0.237 OA
ATOM     99  O   UNL A   1      45.161  24.209  38.336  1.00  0.00    -0.237 OA
ATOM    100  O   UNL A   1      45.253  22.553  36.512  1.00  0.00    -0.744 OA
ENDBRANCH  96  97
ENDBRANCH  64  89
ENDBRANCH  38  39
ENDBRANCH  31  33
ENDBRANCH  30  31
ENDBRANCH  29  30
ENDBRANCH  28  29
ENDBRANCH   1  28
TORSDOF 20
ENDMDL
MODEL 2
REMARK VINA RESULT:     -12.4      1.406      2.284
REMARK SMILES Cc1cc(C(=O)OCCOCCOC(=O)c2ccc(-c3c4nc(c(-c5c(F)cc(S(=O)(=O)[O-])cc5F)c5ccc([nH]5)c(-c5c(F)cc(S(=O)(=O)[O-])cc5F)c5nc(c(-c6c(F)cc(S(=O)(=O)[O-])cc6F)c6ccc3[nH]6)C=C5)C=C4)cc2)ccc1NS(=O)(=O)c1ccc2c(c1)CCC2
REMARK SMILES IDX 10 1 9 2 8 3 7 4 5 5 6 6 4 7 1 8 2 9 3 10 84 11 83 12 82 13
REMARK SMILES IDX 85 14 86 16 87 17 88 18 89 19 90 20 94 21 91 22 93 23 92 24
REMARK SMILES IDX 95 25 97 26 96 27 11 28 12 29 13 30 14 31 15 32 16 33 17 34
REMARK SMILES IDX 81 35 18 36 80 37 19 38 20 39 21 40 74 41 22 42 79 43 73 44
REMARK SMILES IDX 75 45 23 46 78 47 72 48 71 49 24 51 58 52 37 53 57 54 38 55
REMARK SMILES IDX 41 56 56 57 76 58 39 59 40 60 55 62 77 63 42 64 25 65 26 66
REMARK SMILES IDX 35 67 27 68 28 69 34 70 36 71 29 72 30 73 31 74 32 75 33 76
REMARK SMILES IDX 59 77 60 78 69 79 61 80 62 81 68 82 70 83 63 84 64 85 65 86
REMARK SMILES IDX 66 87 67 88 43 89 44 90 53 91 45 92 46 93 52 94 54 95 47 96
REMARK SMILES IDX 48 97 49 98 50 99 51 100
REMARK H PARENT 85 15 75 50 41 61
REMARK Flexibility Score: inf
ROOT
ATOM      1  O   UNL A   1      32.338  28.680  24.865  1.00  0.00    -0.374 OA
ENDROOT
BRANCH   1   2
ATOM      2  C   UNL A   1      31.141  28.624  24.103  1.00  0.00     0.202 C 
BRANCH   2   3
ATOM      3  C   UNL A   1      31.570  28.393  22.684  1.00  0.00     0.261 C 
BRANCH   3   4
ATOM      4  O   UNL A   1      31.583  26.993  22.297  1.00  0.00    -0.460 OA
BRANCH   4   5
ATOM      5  C   UNL A   1      32.752  26.330  22.024  1.00  0.00     0.338 C 
ATOM      6  O   UNL A   1      33.612  26.570  21.230  1.00  0.00    -0.246 OA
BRANCH   5   7
ATOM      7  C   UNL A   1      32.892  25.313  23.087  1.00  0.00     0.060 A 
ATOM      8  C   UNL A   1      32.391  21.589  23.038  1.00  0.00     0.046 C 
ATOM      9  C   UNL A   1      32.936  22.935  23.414  1.00  0.00    -0.026 A 
ATOM     10  C   UNL A   1      32.366  24.056  22.810  1.00  0.00     0.021 A 
ATOM     11  C   UNL A   1      34.044  23.128  24.260  1.00  0.00     0.052 A 
ATOM     12  C   UNL A   1      34.267  24.388  24.816  1.00  0.00     0.028 A 
ATOM     13  C   UNL A   1      33.728  25.503  24.184  1.00  0.00     0.018 A 
BRANCH  11  14
ATOM     14  N   UNL A   1      35.105  22.176  24.157  1.00  0.00    -0.279 N 
ATOM     15  H   UNL A   1      35.400  21.957  23.244  1.00  0.00     0.180 HD
BRANCH  14  16
ATOM     16  S   UNL A   1      35.905  21.392  25.391  1.00  0.00     0.261 S 
ATOM     17  O   UNL A   1      35.166  21.632  26.614  1.00  0.00    -0.201 OA
ATOM     18  O   UNL A   1      36.110  20.040  24.908  1.00  0.00    -0.201 OA
BRANCH  16  19
ATOM     19  C   UNL A   1      37.538  22.085  25.632  1.00  0.00     0.088 A 
ATOM     20  C   UNL A   1      37.770  23.416  26.022  1.00  0.00     0.022 A 
ATOM     21  C   UNL A   1      38.588  21.153  25.644  1.00  0.00     0.026 A 
ATOM     22  C   UNL A   1      38.974  23.759  26.658  1.00  0.00     0.005 A 
ATOM     23  C   UNL A   1      39.788  21.523  26.219  1.00  0.00    -0.043 A 
ATOM     24  C   UNL A   1      39.944  22.781  26.807  1.00  0.00    -0.045 A 
ATOM     25  C   UNL A   1      41.033  20.711  26.382  1.00  0.00     0.036 C 
ATOM     26  C   UNL A   1      41.222  22.839  27.591  1.00  0.00     0.036 C 
ATOM     27  C   UNL A   1      41.603  21.347  27.653  1.00  0.00     0.010 C 
ENDBRANCH  16  19
ENDBRANCH  14  16
ENDBRANCH  11  14
ENDBRANCH   5   7
ENDBRANCH   4   5
ENDBRANCH   3   4
ENDBRANCH   2   3
ENDBRANCH   1   2
BRANCH   1  28
ATOM     28  C   UNL A   1      32.477  29.801  25.706  1.00  0.00     0.202 C 
BRANCH  28  29
ATOM     29  C   UNL A   1      33.666  29.697  26.666  1.00  0.00     0.261 C 
BRANCH  29  30
ATOM     30  O   UNL A   1      33.627  30.744  27.660  1.00  0.00    -0.460 OA
BRANCH  30  31
ATOM     31  C   UNL A   1      34.769  31.483  27.790  1.00  0.00     0.338 C 
ATOM     32  O   UNL A   1      34.832  32.676  27.549  1.00  0.00    -0.246 OA
BRANCH  31  33
ATOM     33  C   UNL A   1      35.876  30.644  28.328  1.00  0.00     0.060 A 
ATOM     34  C   UNL A   1      35.831  30.102  29.625  1.00  0.00     0.016 A 
ATOM     35  C   UNL A   1      37.039  30.532  27.577  1.00  0.00     0.016 A 
ATOM     36  C   UNL A   1      36.997  29.584  30.219  1.00  0.00     0.010 A 
ATOM     37  C   UNL A   1      38.193  30.101  28.191  1.00  0.00     0.010 A 
ATOM     38  C   UNL A   1      38.201  29.650  29.522  1.00  0.00    -0.014 A 
BRANCH  38  39
ATOM     39  C   UNL A   1      39.548  29.355  30.031  1.00  0.00     0.031 A 
ATOM     40  C   UNL A   1      40.168  28.065  29.626  1.00  0.00     0.074 A 
ATOM     41  C   UNL A   1      40.336  30.343  30.533  1.00  0.00     0.049 A 
ATOM     42  N   UNL A   1      41.361  27.715  29.947  1.00  0.00    -0.248 NA
ATOM     43  C   UNL A   1      39.490  27.033  28.836  1.00  0.00     0.031 C 
ATOM     44  C   UNL A   1      41.799  30.441  30.498  1.00  0.00     0.029 A 
ATOM     45  N   UNL A   1      39.978  31.524  31.191  1.00  0.00    -0.354 N 
ATOM     46  C   UNL A   1      41.721  26.637  29.178  1.00  0.00     0.074 A 
ATOM     47  C   UNL A   1      40.490  26.180  28.589  1.00  0.00     0.031 C 
ATOM     48  C   UNL A   1      42.211  31.415  31.328  1.00  0.00     0.029 A 
ATOM     49  C   UNL A   1      41.035  31.904  32.027  1.00  0.00     0.049 A 
ATOM     50  H   UNL A   1      39.126  32.006  31.085  1.00  0.00     0.167 HD
ATOM     51  C   UNL A   1      43.050  26.354  29.070  1.00  0.00     0.037 A 
ATOM     52  C   UNL A   1      40.844  31.997  33.368  1.00  0.00     0.037 A 
ATOM     53  C   UNL A   1      43.803  27.136  30.065  1.00  0.00     0.049 A 
ATOM     54  C   UNL A   1      41.685  30.937  34.012  1.00  0.00     0.074 A 
ATOM     55  C   UNL A   1      44.652  28.226  29.992  1.00  0.00     0.029 A 
ATOM     56  N   UNL A   1      43.460  26.998  31.412  1.00  0.00    -0.354 N 
ATOM     57  N   UNL A   1      42.044  29.855  33.373  1.00  0.00    -0.248 NA
ATOM     58  C   UNL A   1      42.325  31.063  35.314  1.00  0.00     0.031 C 
ATOM     59  C   UNL A   1      44.707  28.814  31.293  1.00  0.00     0.029 A 
ATOM     60  C   UNL A   1      43.928  28.061  32.162  1.00  0.00     0.049 A 
ATOM     61  H   UNL A   1      42.951  26.241  31.780  1.00  0.00     0.167 HD
ATOM     62  C   UNL A   1      43.011  29.216  34.078  1.00  0.00     0.074 A 
ATOM     63  C   UNL A   1      43.117  29.974  35.315  1.00  0.00     0.031 C 
ATOM     64  C   UNL A   1      43.675  28.127  33.601  1.00  0.00     0.037 A 
BRANCH  51  65
ATOM     65  C   UNL A   1      43.705  25.488  28.008  1.00  0.00     0.058 A 
ATOM     66  C   UNL A   1      43.468  25.747  26.638  1.00  0.00     0.135 A 
ATOM     67  C   UNL A   1      44.490  24.338  28.251  1.00  0.00     0.135 A 
ATOM     68  F   UNL A   1      42.712  26.785  26.251  1.00  0.00    -0.206 F 
ATOM     69  C   UNL A   1      43.972  24.946  25.606  1.00  0.00     0.059 A 
ATOM     70  C   UNL A   1      45.041  23.547  27.235  1.00  0.00     0.059 A 
ATOM     71  F   UNL A   1      44.721  23.878  29.484  1.00  0.00    -0.206 F 
ATOM     72  C   UNL A   1      44.765  23.849  25.912  1.00  0.00     0.060 A 
BRANCH  72  73
ATOM     73  S   UNL A   1      45.410  22.821  24.578  1.00  0.00     0.124 S 
ATOM     74  O   UNL A   1      46.400  23.703  23.968  1.00  0.00    -0.237 OA
ATOM     75  O   UNL A   1      45.940  21.670  25.300  1.00  0.00    -0.237 OA
ATOM     76  O   UNL A   1      44.233  22.547  23.757  1.00  0.00    -0.744 OA
ENDBRANCH  72  73
ENDBRANCH  51  65
BRANCH  52  77
ATOM     77  C   UNL A   1      39.480  32.516  33.708  1.00  0.00     0.058 A 
ATOM     78  C   UNL A   1      39.215  33.854  33.335  1.00  0.00     0.135 A 
ATOM     79  C   UNL A   1      38.368  31.667  33.834  1.00  0.00     0.135 A 
ATOM     80  F   UNL A   1      40.234  34.716  33.182  1.00  0.00    -0.206 F 
ATOM     81  C   UNL A   1      37.945  34.286  32.948  1.00  0.00     0.059 A 
ATOM     82  C   UNL A   1      37.085  32.079  33.435  1.00  0.00     0.059 A 
ATOM     83  F   UNL A   1      38.537  30.382  34.174  1.00  0.00    -0.206 F 
ATOM     84  C   UNL A   1      36.898  33.370  32.937  1.00  0.00     0.060 A 
BRANCH  84  85
ATOM     85  S   UNL A   1      35.387  33.806  32.025  1.00  0.00     0.124 S 
ATOM     86  O   UNL A   1      34.601  32.585  32.135  1.00  0.00    -0.237 OA
ATOM     87  O   UNL A   1      34.886  34.953  32.782  1.00  0.00    -0.237 OA
ATOM     88  O   UNL A   1      35.886  34.128  30.694  1.00  0.00    -0.744 OA
ENDBRANCH  84  85
ENDBRANCH  52  77
BRANCH  64  89
ATOM     89  C   UNL A   1      44.190  27.061  34.522  1.00  0.00     0.058 A 
ATOM     90  C   UNL A   1      43.359  26.052  35.047  1.00  0.00     0.135 A 
ATOM     91  C   UNL A   1      45.572  26.911  34.761  1.00  0.00     0.135 A 
ATOM     92  F   UNL A   1      42.049  25.994  34.763  1.00  0.00    -0.206 F 
ATOM     93  C   UNL A   1      43.846  25.038  35.856  1.00  0.00     0.059 A 
ATOM     94  C   UNL A   1      46.088  25.861  35.508  1.00  0.00     0.059 A 
ATOM     95  F   UNL A   1      46.472  27.770  34.261  1.00  0.00    -0.206 F 
ATOM     96  C   UNL A   1      45.212  24.958  36.092  1.00  0.00     0.060 A 
BRANCH  96  97
ATOM     97  S   UNL A   1      45.829  23.655  37.159  1.00  0.00     0.124 S 
ATOM     98  O   UNL A   1      45.085  23.921  38.387  1.00  0.00    -0.237 OA
ATOM     99  O   UNL A   1      45.446  22.444  36.440  1.00  0.00    -0.237 OA
ATOM    100  O   UNL A   1      47.262  23.917  37.216  1.00  0.00    -0.744 OA
ENDBRANCH  96  97
ENDBRANCH  64  89
ENDBRANCH  38  39
ENDBRANCH  31  33
ENDBRANCH  30  31
ENDBRANCH  29  30
ENDBRANCH  28  29
ENDBRANCH   1  28
TORSDOF 20
ENDMDL
MODEL 3
REMARK VINA RESULT:     -12.2      1.809      3.462
REMARK SMILES Cc1cc(C(=O)OCCOCCOC(=O)c2ccc(-c3c4nc(c(-c5c(F)cc(S(=O)(=O)[O-])cc5F)c5ccc([nH]5)c(-c5c(F)cc(S(=O)(=O)[O-])cc5F)c5nc(c(-c6c(F)cc(S(=O)(=O)[O-])cc6F)c6ccc3[nH]6)C=C5)C=C4)cc2)ccc1NS(=O)(=O)c1ccc2c(c1)CCC2
REMARK SMILES IDX 10 1 9 2 8 3 7 4 5 5 6 6 4 7 1 8 2 9 3 10 84 11 83 12 82 13
REMARK SMILES IDX 85 14 86 16 87 17 88 18 89 19 90 20 94 21 91 22 93 23 92 24
REMARK SMILES IDX 95 25 97 26 96 27 11 28 12 29 13 30 14 31 15 32 16 33 17 34
REMARK SMILES IDX 81 35 18 36 80 37 19 38 20 39 21 40 74 41 22 42 79 43 73 44
REMARK SMILES IDX 75 45 23 46 78 47 72 48 71 49 24 51 58 52 37 53 57 54 38 55
REMARK SMILES IDX 41 56 56 57 76 58 39 59 40 60 55 62 77 63 42 64 25 65 26 66
REMARK SMILES IDX 35 67 27 68 28 69 34 70 36 71 29 72 30 73 31 74 32 75 33 76
REMARK SMILES IDX 59 77 60 78 69 79 61 80 62 81 68 82 70 83 63 84 64 85 65 86
REMARK SMILES IDX 66 87 67 88 43 89 44 90 53 91 45 92 46 93 52 94 54 95 47 96
REMARK SMILES IDX 48 97 49 98 50 99 51 100
REMARK H PARENT 85 15 75 50 41 61
REMARK Flexibility Score: inf
ROOT
ATOM      1  O   UNL A   1      32.125  28.736  27.620  1.00  0.00    -0.374 OA
ENDROOT
BRANCH   1   2
ATOM      2  C   UNL A   1      31.254  27.615  27.618  1.00  0.00     0.202 C 
BRANCH   2   3
ATOM      3  C   UNL A   1      31.467  26.932  26.300  1.00  0.00     0.261 C 
BRANCH   3   4
ATOM      4  O   UNL A   1      32.588  26.008  26.293  1.00  0.00    -0.460 OA
BRANCH   4   5
ATOM      5  C   UNL A   1      33.652  26.168  25.444  1.00  0.00     0.338 C 
ATOM      6  O   UNL A   1      34.057  27.144  24.885  1.00  0.00    -0.246 OA
BRANCH   5   7
ATOM      7  C   UNL A   1      34.399  24.894  25.495  1.00  0.00     0.060 A 
ATOM      8  C   UNL A   1      33.835  21.764  27.496  1.00  0.00     0.046 C 
ATOM      9  C   UNL A   1      34.248  22.664  26.368  1.00  0.00    -0.026 A 
ATOM     10  C   UNL A   1      34.087  24.039  26.545  1.00  0.00     0.021 A 
ATOM     11  C   UNL A   1      34.696  22.202  25.117  1.00  0.00     0.052 A 
ATOM     12  C   UNL A   1      35.368  23.081  24.266  1.00  0.00     0.028 A 
ATOM     13  C   UNL A   1      35.169  24.449  24.423  1.00  0.00     0.018 A 
BRANCH  11  14
ATOM     14  N   UNL A   1      34.071  21.024  24.604  1.00  0.00    -0.279 N 
ATOM     15  H   UNL A   1      34.643  20.226  24.539  1.00  0.00     0.180 HD
BRANCH  14  16
ATOM     16  S   UNL A   1      32.494  20.834  24.103  1.00  0.00     0.261 S 
ATOM     17  O   UNL A   1      32.493  19.878  23.013  1.00  0.00    -0.201 OA
ATOM     18  O   UNL A   1      31.742  20.569  25.314  1.00  0.00    -0.201 OA
BRANCH  16  19
ATOM     19  C   UNL A   1      31.845  22.367  23.442  1.00  0.00     0.088 A 
ATOM     20  C   UNL A   1      30.864  23.139  24.087  1.00  0.00     0.022 A 
ATOM     21  C   UNL A   1      32.549  22.890  22.346  1.00  0.00     0.026 A 
ATOM     22  C   UNL A   1      30.757  24.511  23.807  1.00  0.00     0.005 A 
ATOM     23  C   UNL A   1      32.388  24.228  22.042  1.00  0.00    -0.043 A 
ATOM     24  C   UNL A   1      31.575  25.050  22.828  1.00  0.00    -0.045 A 
ATOM     25  C   UNL A   1      33.042  25.022  20.957  1.00  0.00     0.036 C 
ATOM     26  C   UNL A   1      31.779  26.492  22.465  1.00  0.00     0.036 C 
ATOM     27  C   UNL A   1      33.059  26.407  21.611  1.00  0.00     0.010 C 
ENDBRANCH  16  19
ENDBRANCH  14  16
ENDBRANCH  11  14
ENDBRANCH   5   7
ENDBRANCH   4   5
ENDBRANCH   3   4
ENDBRANCH   2   3
ENDBRANCH   1   2
BRANCH   1  28
ATOM     28  C   UNL A   1      31.797  29.769  26.721  1.00  0.00     0.202 C 
BRANCH  28  29
ATOM     29  C   UNL A   1      32.716  30.989  26.835  1.00  0.00     0.261 C 
BRANCH  29  30
ATOM     30  O   UNL A   1      34.099  30.592  26.957  1.00  0.00    -0.460 OA
BRANCH  30  31
ATOM     31  C   UNL A   1      34.824  31.245  27.913  1.00  0.00     0.338 C 
ATOM     32  O   UNL A   1      34.559  32.365  28.314  1.00  0.00    -0.246 OA
BRANCH  31  33
ATOM     33  C   UNL A   1      35.914  30.371  28.428  1.00  0.00     0.060 A 
ATOM     34  C   UNL A   1      35.922  29.899  29.753  1.00  0.00     0.016 A 
ATOM     35  C   UNL A   1      37.020  30.153  27.616  1.00  0.00     0.016 A 
ATOM     36  C   UNL A   1      37.093  29.345  30.303  1.00  0.00     0.010 A 
ATOM     37  C   UNL A   1      38.185  29.687  28.182  1.00  0.00     0.010 A 
ATOM     38  C   UNL A   1      38.252  29.305  29.533  1.00  0.00    -0.014 A 
BRANCH  38  39
ATOM     39  C   UNL A   1      39.611  28.958  29.975  1.00  0.00     0.031 A 
ATOM     40  C   UNL A   1      40.191  27.683  29.474  1.00  0.00     0.074 A 
ATOM     41  C   UNL A   1      40.434  29.901  30.504  1.00  0.00     0.049 A 
ATOM     42  N   UNL A   1      41.387  27.295  29.731  1.00  0.00    -0.248 NA
ATOM     43  C   UNL A   1      39.467  26.712  28.650  1.00  0.00     0.031 C 
ATOM     44  C   UNL A   1      41.896  29.976  30.423  1.00  0.00     0.029 A 
ATOM     45  N   UNL A   1      40.122  31.047  31.243  1.00  0.00    -0.354 N 
ATOM     46  C   UNL A   1      41.700  26.258  28.888  1.00  0.00     0.074 A 
ATOM     47  C   UNL A   1      40.441  25.857  28.318  1.00  0.00     0.031 C 
ATOM     48  C   UNL A   1      42.356  30.893  31.292  1.00  0.00     0.029 A 
ATOM     49  C   UNL A   1      41.214  31.360  32.060  1.00  0.00     0.049 A 
ATOM     50  H   UNL A   1      39.276  31.549  31.195  1.00  0.00     0.167 HD
ATOM     51  C   UNL A   1      43.019  25.960  28.717  1.00  0.00     0.037 A 
ATOM     52  C   UNL A   1      41.072  31.377  33.411  1.00  0.00     0.037 A 
ATOM     53  C   UNL A   1      43.821  26.669  29.727  1.00  0.00     0.049 A 
ATOM     54  C   UNL A   1      41.914  30.267  33.961  1.00  0.00     0.074 A 
ATOM     55  C   UNL A   1      44.687  27.747  29.687  1.00  0.00     0.029 A 
ATOM     56  N   UNL A   1      43.523  26.458  31.075  1.00  0.00    -0.354 N 
ATOM     57  N   UNL A   1      42.230  29.219  33.248  1.00  0.00    -0.248 NA
ATOM     58  C   UNL A   1      42.602  30.306  35.245  1.00  0.00     0.031 C 
ATOM     59  C   UNL A   1      44.799  28.257  31.017  1.00  0.00     0.029 A 
ATOM     60  C   UNL A   1      44.037  27.467  31.869  1.00  0.00     0.049 A 
ATOM     61  H   UNL A   1      43.012  25.690  31.417  1.00  0.00     0.167 HD
ATOM     62  C   UNL A   1      43.209  28.524  33.879  1.00  0.00     0.074 A 
ATOM     63  C   UNL A   1      43.373  29.206  35.154  1.00  0.00     0.031 C 
ATOM     64  C   UNL A   1      43.835  27.453  33.317  1.00  0.00     0.037 A 
BRANCH  51  65
ATOM     65  C   UNL A   1      43.620  25.146  27.582  1.00  0.00     0.058 A 
ATOM     66  C   UNL A   1      44.408  24.008  27.868  1.00  0.00     0.135 A 
ATOM     67  C   UNL A   1      43.552  25.472  26.209  1.00  0.00     0.135 A 
ATOM     68  F   UNL A   1      44.596  23.595  29.130  1.00  0.00    -0.206 F 
ATOM     69  C   UNL A   1      45.059  23.257  26.881  1.00  0.00     0.059 A 
ATOM     70  C   UNL A   1      44.157  24.711  25.201  1.00  0.00     0.059 A 
ATOM     71  F   UNL A   1      42.945  26.578  25.765  1.00  0.00    -0.206 F 
ATOM     72  C   UNL A   1      44.923  23.611  25.546  1.00  0.00     0.060 A 
BRANCH  72  73
ATOM     73  S   UNL A   1      45.764  22.640  24.281  1.00  0.00     0.124 S 
ATOM     74  O   UNL A   1      44.662  22.277  23.395  1.00  0.00    -0.237 OA
ATOM     75  O   UNL A   1      46.726  23.595  23.743  1.00  0.00    -0.237 OA
ATOM     76  O   UNL A   1      46.347  21.530  25.032  1.00  0.00    -0.744 OA
ENDBRANCH  72  73
ENDBRANCH  51  65
BRANCH  52  77
ATOM     77  C   UNL A   1      39.731  31.899  33.829  1.00  0.00     0.058 A 
ATOM     78  C   UNL A   1      39.578  33.304  33.808  1.00  0.00     0.135 A 
ATOM     79  C   UNL A   1      38.558  31.137  33.693  1.00  0.00     0.135 A 
ATOM     80  F   UNL A   1      40.660  34.093  33.917  1.00  0.00    -0.206 F 
ATOM     81  C   UNL A   1      38.362  33.921  33.505  1.00  0.00     0.059 A 
ATOM     82  C   UNL A   1      37.329  31.738  33.373  1.00  0.00     0.059 A 
ATOM     83  F   UNL A   1      38.621  29.798  33.694  1.00  0.00    -0.206 F 
ATOM     84  C   UNL A   1      37.256  33.124  33.222  1.00  0.00     0.060 A 
BRANCH  84  85
ATOM     85  S   UNL A   1      35.829  33.898  32.405  1.00  0.00     0.124 S 
ATOM     86  O   UNL A   1      34.718  33.115  32.925  1.00  0.00    -0.237 OA
ATOM     87  O   UNL A   1      35.909  35.280  32.881  1.00  0.00    -0.237 OA
ATOM     88  O   UNL A   1      36.126  33.727  30.988  1.00  0.00    -0.744 OA
ENDBRANCH  84  85
ENDBRANCH  52  77
BRANCH  64  89
ATOM     89  C   UNL A   1      44.361  26.327  34.155  1.00  0.00     0.058 A 
ATOM     90  C   UNL A   1      43.513  25.455  34.866  1.00  0.00     0.135 A 
ATOM     91  C   UNL A   1      45.727  25.973  34.125  1.00  0.00     0.135 A 
ATOM     92  F   UNL A   1      42.179  25.591  34.845  1.00  0.00    -0.206 F 
ATOM     93  C   UNL A   1      43.998  24.384  35.598  1.00  0.00     0.059 A 
ATOM     94  C   UNL A   1      46.223  24.861  34.793  1.00  0.00     0.059 A 
ATOM     95  F   UNL A   1      46.625  26.686  33.431  1.00  0.00    -0.206 F 
ATOM     96  C   UNL A   1      45.357  24.101  35.566  1.00  0.00     0.060 A 
BRANCH  96  97
ATOM     97  S   UNL A   1      45.977  22.726  36.536  1.00  0.00     0.124 S 
ATOM     98  O   UNL A   1      45.450  23.054  37.858  1.00  0.00    -0.237 OA
ATOM     99  O   UNL A   1      45.367  21.572  35.883  1.00  0.00    -0.237 OA
ATOM    100  O   UNL A   1      47.424  22.833  36.385  1.00  0.00    -0.744 OA
ENDBRANCH  96  97
ENDBRANCH  64  89
ENDBRANCH  38  39
ENDBRANCH  31  33
ENDBRANCH  30  31
ENDBRANCH  29  30
ENDBRANCH  28  29
ENDBRANCH   1  28
TORSDOF 20
ENDMDL
