MODEL 1
REMARK VINA RESULT:     -12.0      0.000      0.000
REMARK SMILES Cc1ccc(NC(=O)C[N@H+]2CC[C@@H](C(=O)OCCOCCOC(=O)c3ccc(-c4c5nc(c(-c6c(F)cc(S(=O)(=O)[O-])cc6F)c6ccc([nH]6)c(-c6c(F)cc(S(=O)(=O)[O-])cc6F)c6nc(c(-c7c(F)cc(S(=O)(=O)[O-])cc7F)c7ccc4[nH]7)C=C6)C=C5)cc3)[C@@H]2C)cc1
REMARK SMILES IDX 19 1 18 2 17 3 16 4 14 5 15 6 13 7 10 8 11 9 91 10 12 12
REMARK SMILES IDX 92 13 9 14 7 15 6 16 8 18 5 19 1 20 2 21 3 22 94 23 4 24
REMARK SMILES IDX 93 25 20 26 21 27 22 28 23 29 24 30 25 31 26 32 90 33 27 34
REMARK SMILES IDX 89 35 28 36 29 37 30 38 83 39 31 40 88 41 82 42 84 43 32 44
REMARK SMILES IDX 87 45 81 46 80 47 33 49 67 50 46 51 66 52 47 53 50 54 65 55
REMARK SMILES IDX 85 56 48 57 49 58 64 60 86 61 51 62 34 63 35 64 44 65 36 66
REMARK SMILES IDX 37 67 43 68 45 69 38 70 39 71 40 72 41 73 42 74 68 75 69 76
REMARK SMILES IDX 78 77 70 78 71 79 77 80 79 81 72 82 73 83 74 84 75 85 76 86
REMARK SMILES IDX 52 87 53 88 62 89 54 90 55 91 61 92 63 93 56 94 57 95 58 96
REMARK SMILES IDX 59 97 60 98
REMARK H PARENT 10 11 6 17 84 48 50 59
REMARK Flexibility Score: inf
ROOT
ATOM      1  O   UNL A   1      37.099  22.887  24.223  1.00  0.00    -0.374 OA
ENDROOT
BRANCH   1   2
ATOM      2  C   UNL A   1      35.722  23.036  23.897  1.00  0.00     0.202 C 
BRANCH   2   3
ATOM      3  C   UNL A   1      35.039  21.944  24.643  1.00  0.00     0.261 C 
BRANCH   3   4
ATOM      4  O   UNL A   1      33.707  22.366  24.957  1.00  0.00    -0.463 OA
BRANCH   4   5
ATOM      5  C   UNL A   1      33.379  23.170  25.995  1.00  0.00     0.315 C 
ATOM      6  O   UNL A   1      34.033  23.396  26.988  1.00  0.00    -0.252 OA
BRANCH   5   7
ATOM      7  C   UNL A   1      31.997  23.750  25.741  1.00  0.00     0.162 C 
ATOM      8  N   UNL A   1      31.614  25.029  23.697  1.00  0.00    -0.324 N 
ATOM      9  C   UNL A   1      30.729  23.873  23.666  1.00  0.00     0.264 C 
ATOM     10  C   UNL A   1      32.055  25.160  25.118  1.00  0.00     0.195 C 
ATOM     11  H   UNL A   1      31.095  25.841  23.360  1.00  0.00     0.348 HD
ATOM     12  C   UNL A   1      31.099  22.944  24.813  1.00  0.00     0.083 C 
ATOM     13  C   UNL A   1      31.163  26.060  25.977  1.00  0.00     0.076 C 
BRANCH   8  14
ATOM     14  C   UNL A   1      32.784  24.998  22.754  1.00  0.00     0.364 C 
BRANCH  14  15
ATOM     15  C   UNL A   1      32.895  26.115  21.681  1.00  0.00     0.279 C 
ATOM     16  N   UNL A   1      32.808  27.470  21.927  1.00  0.00    -0.321 N 
ATOM     17  H   UNL A   1      32.968  28.022  21.127  1.00  0.00     0.170 HD
ATOM     18  O   UNL A   1      33.096  25.799  20.496  1.00  0.00    -0.268 OA
BRANCH  16  19
ATOM     19  C   UNL A   1      32.539  28.228  23.082  1.00  0.00     0.041 A 
ATOM     20  C   UNL A   1      31.868  30.609  26.662  1.00  0.00     0.044 C 
ATOM     21  C   UNL A   1      32.027  29.827  25.391  1.00  0.00    -0.051 A 
ATOM     22  C   UNL A   1      33.275  29.296  25.132  1.00  0.00     0.005 A 
ATOM     23  C   UNL A   1      31.000  29.512  24.501  1.00  0.00     0.005 A 
ATOM     24  C   UNL A   1      33.502  28.471  24.028  1.00  0.00     0.026 A 
ATOM     25  C   UNL A   1      31.253  28.714  23.355  1.00  0.00     0.026 A 
ENDBRANCH  16  19
ENDBRANCH  14  15
ENDBRANCH   8  14
ENDBRANCH   5   7
ENDBRANCH   4   5
ENDBRANCH   3   4
ENDBRANCH   2   3
ENDBRANCH   1   2
BRANCH   1  26
ATOM     26  C   UNL A   1      37.365  21.910  25.204  1.00  0.00     0.202 C 
BRANCH  26  27
ATOM     27  C   UNL A   1      38.598  22.253  26.041  1.00  0.00     0.261 C 
BRANCH  27  28
ATOM     28  O   UNL A   1      38.524  23.619  26.514  1.00  0.00    -0.460 OA
BRANCH  28  29
ATOM     29  C   UNL A   1      39.493  23.998  27.400  1.00  0.00     0.338 C 
ATOM     30  O   UNL A   1      40.329  23.234  27.853  1.00  0.00    -0.246 OA
BRANCH  29  31
ATOM     31  C   UNL A   1      39.460  25.468  27.657  1.00  0.00     0.060 A 
ATOM     32  C   UNL A   1      40.000  26.383  26.734  1.00  0.00     0.016 A 
ATOM     33  C   UNL A   1      39.059  25.922  28.909  1.00  0.00     0.016 A 
ATOM     34  C   UNL A   1      40.238  27.719  27.111  1.00  0.00     0.010 A 
ATOM     35  C   UNL A   1      39.405  27.199  29.310  1.00  0.00     0.010 A 
ATOM     36  C   UNL A   1      39.982  28.119  28.423  1.00  0.00    -0.014 A 
BRANCH  36  37
ATOM     37  C   UNL A   1      40.267  29.440  29.005  1.00  0.00     0.031 A 
ATOM     38  C   UNL A   1      39.158  30.446  29.064  1.00  0.00     0.074 A 
ATOM     39  C   UNL A   1      41.422  29.708  29.661  1.00  0.00     0.049 A 
ATOM     40  N   UNL A   1      39.264  31.622  29.576  1.00  0.00    -0.248 NA
ATOM     41  C   UNL A   1      37.802  30.195  28.583  1.00  0.00     0.031 C 
ATOM     42  C   UNL A   1      41.651  30.819  30.579  1.00  0.00     0.029 A 
ATOM     43  N   UNL A   1      42.650  29.055  29.650  1.00  0.00    -0.354 N 
ATOM     44  C   UNL A   1      38.022  32.181  29.723  1.00  0.00     0.074 A 
ATOM     45  C   UNL A   1      37.131  31.226  29.109  1.00  0.00     0.031 C 
ATOM     46  C   UNL A   1      42.937  30.880  30.938  1.00  0.00     0.029 A 
ATOM     47  C   UNL A   1      43.641  29.925  30.126  1.00  0.00     0.049 A 
ATOM     48  H   UNL A   1      42.799  28.128  29.355  1.00  0.00     0.167 HD
ATOM     49  C   UNL A   1      37.915  33.357  30.410  1.00  0.00     0.037 A 
ATOM     50  C   UNL A   1      44.715  30.276  29.369  1.00  0.00     0.037 A 
ATOM     51  C   UNL A   1      39.252  33.869  30.780  1.00  0.00     0.049 A 
ATOM     52  C   UNL A   1      44.606  31.752  29.073  1.00  0.00     0.074 A 
ATOM     53  C   UNL A   1      39.957  33.980  31.968  1.00  0.00     0.029 A 
ATOM     54  N   UNL A   1      40.196  34.093  29.767  1.00  0.00    -0.354 N 
ATOM     55  N   UNL A   1      43.452  32.352  28.868  1.00  0.00    -0.248 NA
ATOM     56  C   UNL A   1      45.697  32.689  29.342  1.00  0.00     0.031 C 
ATOM     57  C   UNL A   1      41.338  34.173  31.655  1.00  0.00     0.029 A 
ATOM     58  C   UNL A   1      41.480  34.220  30.273  1.00  0.00     0.049 A 
ATOM     59  H   UNL A   1      39.973  34.151  28.809  1.00  0.00     0.167 HD
ATOM     60  C   UNL A   1      43.601  33.682  29.163  1.00  0.00     0.074 A 
ATOM     61  C   UNL A   1      45.031  33.855  29.398  1.00  0.00     0.031 C 
ATOM     62  C   UNL A   1      42.603  34.581  29.414  1.00  0.00     0.037 A 
BRANCH  49  63
ATOM     63  C   UNL A   1      36.591  33.961  30.868  1.00  0.00     0.058 A 
ATOM     64  C   UNL A   1      35.597  34.359  29.945  1.00  0.00     0.135 A 
ATOM     65  C   UNL A   1      36.235  34.172  32.218  1.00  0.00     0.135 A 
ATOM     66  F   UNL A   1      35.763  34.196  28.625  1.00  0.00    -0.206 F 
ATOM     67  C   UNL A   1      34.383  34.950  30.326  1.00  0.00     0.059 A 
ATOM     68  C   UNL A   1      35.057  34.816  32.622  1.00  0.00     0.059 A 
ATOM     69  F   UNL A   1      36.987  33.701  33.220  1.00  0.00    -0.206 F 
ATOM     70  C   UNL A   1      34.126  35.191  31.668  1.00  0.00     0.060 A 
BRANCH  70  71
ATOM     71  S   UNL A   1      32.561  35.954  32.147  1.00  0.00     0.124 S 
ATOM     72  O   UNL A   1      32.988  36.956  33.118  1.00  0.00    -0.237 OA
ATOM     73  O   UNL A   1      32.073  36.471  30.874  1.00  0.00    -0.237 OA
ATOM     74  O   UNL A   1      31.795  34.841  32.704  1.00  0.00    -0.744 OA
ENDBRANCH  70  71
ENDBRANCH  49  63
BRANCH  50  75
ATOM     75  C   UNL A   1      45.283  29.106  28.642  1.00  0.00     0.058 A 
ATOM     76  C   UNL A   1      45.757  28.080  29.494  1.00  0.00     0.135 A 
ATOM     77  C   UNL A   1      44.747  28.705  27.407  1.00  0.00     0.135 A 
ATOM     78  F   UNL A   1      46.297  28.401  30.682  1.00  0.00    -0.206 F 
ATOM     79  C   UNL A   1      45.488  26.734  29.251  1.00  0.00     0.059 A 
ATOM     80  C   UNL A   1      44.464  27.356  27.147  1.00  0.00     0.059 A 
ATOM     81  F   UNL A   1      44.281  29.622  26.547  1.00  0.00    -0.206 F 
ATOM     82  C   UNL A   1      44.774  26.388  28.106  1.00  0.00     0.060 A 
BRANCH  82  83
ATOM     83  S   UNL A   1      44.030  24.734  28.026  1.00  0.00     0.124 S 
ATOM     84  O   UNL A   1      43.209  24.822  26.826  1.00  0.00    -0.237 OA
ATOM     85  O   UNL A   1      45.204  23.868  27.934  1.00  0.00    -0.237 OA
ATOM     86  O   UNL A   1      43.312  24.630  29.291  1.00  0.00    -0.744 OA
ENDBRANCH  82  83
ENDBRANCH  50  75
BRANCH  62  87
ATOM     87  C   UNL A   1      42.689  35.972  28.836  1.00  0.00     0.058 A 
ATOM     88  C   UNL A   1      43.164  37.070  29.579  1.00  0.00     0.135 A 
ATOM     89  C   UNL A   1      42.482  36.209  27.456  1.00  0.00     0.135 A 
ATOM     90  F   UNL A   1      43.493  36.964  30.874  1.00  0.00    -0.206 F 
ATOM     91  C   UNL A   1      43.359  38.320  29.014  1.00  0.00     0.059 A 
ATOM     92  C   UNL A   1      42.730  37.439  26.860  1.00  0.00     0.059 A 
ATOM     93  F   UNL A   1      42.063  35.243  26.623  1.00  0.00    -0.206 F 
ATOM     94  C   UNL A   1      43.142  38.496  27.655  1.00  0.00     0.060 A 
BRANCH  94  95
ATOM     95  S   UNL A   1      43.437  40.117  26.945  1.00  0.00     0.124 S 
ATOM     96  O   UNL A   1      44.059  40.809  28.070  1.00  0.00    -0.237 OA
ATOM     97  O   UNL A   1      44.323  39.812  25.824  1.00  0.00    -0.237 OA
ATOM     98  O   UNL A   1      42.103  40.575  26.577  1.00  0.00    -0.744 OA
ENDBRANCH  94  95
ENDBRANCH  62  87
ENDBRANCH  36  37
ENDBRANCH  29  31
ENDBRANCH  28  29
ENDBRANCH  27  28
ENDBRANCH  26  27
ENDBRANCH   1  26
TORSDOF 20
ENDMDL
MODEL 2
REMARK VINA RESULT:     -11.8      4.060     10.385
REMARK SMILES Cc1ccc(NC(=O)C[N@H+]2CC[C@@H](C(=O)OCCOCCOC(=O)c3ccc(-c4c5nc(c(-c6c(F)cc(S(=O)(=O)[O-])cc6F)c6ccc([nH]6)c(-c6c(F)cc(S(=O)(=O)[O-])cc6F)c6nc(c(-c7c(F)cc(S(=O)(=O)[O-])cc7F)c7ccc4[nH]7)C=C6)C=C5)cc3)[C@@H]2C)cc1
REMARK SMILES IDX 19 1 18 2 17 3 16 4 14 5 15 6 13 7 10 8 11 9 91 10 12 12
REMARK SMILES IDX 92 13 9 14 7 15 6 16 8 18 5 19 1 20 2 21 3 22 94 23 4 24
REMARK SMILES IDX 93 25 20 26 21 27 22 28 23 29 24 30 25 31 26 32 90 33 27 34
REMARK SMILES IDX 89 35 28 36 29 37 30 38 83 39 31 40 88 41 82 42 84 43 32 44
REMARK SMILES IDX 87 45 81 46 80 47 33 49 67 50 46 51 66 52 47 53 50 54 65 55
REMARK SMILES IDX 85 56 48 57 49 58 64 60 86 61 51 62 34 63 35 64 44 65 36 66
REMARK SMILES IDX 37 67 43 68 45 69 38 70 39 71 40 72 41 73 42 74 68 75 69 76
REMARK SMILES IDX 78 77 70 78 71 79 77 80 79 81 72 82 73 83 74 84 75 85 76 86
REMARK SMILES IDX 52 87 53 88 62 89 54 90 55 91 61 92 63 93 56 94 57 95 58 96
REMARK SMILES IDX 59 97 60 98
REMARK H PARENT 10 11 6 17 84 48 50 59
REMARK Flexibility Score: inf
ROOT
ATOM      1  O   UNL A   1      31.683  28.164  25.885  1.00  0.00    -0.374 OA
ENDROOT
BRANCH   1   2
ATOM      2  C   UNL A   1      31.794  26.920  25.202  1.00  0.00     0.202 C 
BRANCH   2   3
ATOM      3  C   UNL A   1      30.389  26.517  24.923  1.00  0.00     0.261 C 
BRANCH   3   4
ATOM      4  O   UNL A   1      30.253  25.115  25.179  1.00  0.00    -0.463 OA
BRANCH   4   5
ATOM      5  C   UNL A   1      30.755  24.137  24.390  1.00  0.00     0.315 C 
ATOM      6  O   UNL A   1      30.895  24.158  23.188  1.00  0.00    -0.252 OA
BRANCH   5   7
ATOM      7  C   UNL A   1      31.105  22.942  25.262  1.00  0.00     0.162 C 
ATOM      8  N   UNL A   1      33.348  22.796  26.214  1.00  0.00    -0.324 N 
ATOM      9  C   UNL A   1      32.403  22.857  27.321  1.00  0.00     0.264 C 
ATOM     10  C   UNL A   1      32.539  22.430  25.014  1.00  0.00     0.195 C 
ATOM     11  H   UNL A   1      34.065  22.106  26.442  1.00  0.00     0.348 HD
ATOM     12  C   UNL A   1      31.021  23.170  26.765  1.00  0.00     0.083 C 
ATOM     13  C   UNL A   1      32.433  20.925  24.755  1.00  0.00     0.076 C 
BRANCH   8  14
ATOM     14  C   UNL A   1      34.172  24.029  25.974  1.00  0.00     0.364 C 
BRANCH  14  15
ATOM     15  C   UNL A   1      34.841  24.209  24.583  1.00  0.00     0.279 C 
ATOM     16  N   UNL A   1      36.121  23.811  24.255  1.00  0.00    -0.321 N 
ATOM     17  H   UNL A   1      36.342  23.953  23.306  1.00  0.00     0.170 HD
ATOM     18  O   UNL A   1      34.193  24.736  23.663  1.00  0.00    -0.268 OA
BRANCH  16  19
ATOM     19  C   UNL A   1      37.177  23.245  24.994  1.00  0.00     0.041 A 
ATOM     20  C   UNL A   1      40.458  21.377  27.159  1.00  0.00     0.044 C 
ATOM     21  C   UNL A   1      39.364  22.101  26.429  1.00  0.00    -0.051 A 
ATOM     22  C   UNL A   1      38.622  21.369  25.523  1.00  0.00     0.005 A 
ATOM     23  C   UNL A   1      38.975  23.421  26.657  1.00  0.00     0.005 A 
ATOM     24  C   UNL A   1      37.520  21.922  24.867  1.00  0.00     0.026 A 
ATOM     25  C   UNL A   1      37.885  23.988  25.947  1.00  0.00     0.026 A 
ENDBRANCH  16  19
ENDBRANCH  14  15
ENDBRANCH   8  14
ENDBRANCH   5   7
ENDBRANCH   4   5
ENDBRANCH   3   4
ENDBRANCH   2   3
ENDBRANCH   1   2
BRANCH   1  26
ATOM     26  C   UNL A   1      32.153  29.275  25.155  1.00  0.00     0.202 C 
BRANCH  26  27
ATOM     27  C   UNL A   1      32.526  30.447  26.064  1.00  0.00     0.261 C 
BRANCH  27  28
ATOM     28  O   UNL A   1      33.331  29.989  27.175  1.00  0.00    -0.460 OA
BRANCH  28  29
ATOM     29  C   UNL A   1      34.273  30.867  27.632  1.00  0.00     0.338 C 
ATOM     30  O   UNL A   1      34.111  32.075  27.661  1.00  0.00    -0.246 OA
BRANCH  29  31
ATOM     31  C   UNL A   1      35.468  30.159  28.180  1.00  0.00     0.060 A 
ATOM     32  C   UNL A   1      35.533  29.776  29.532  1.00  0.00     0.016 A 
ATOM     33  C   UNL A   1      36.603  30.045  27.385  1.00  0.00     0.016 A 
ATOM     34  C   UNL A   1      36.761  29.390  30.105  1.00  0.00     0.010 A 
ATOM     35  C   UNL A   1      37.824  29.783  27.980  1.00  0.00     0.010 A 
ATOM     36  C   UNL A   1      37.923  29.439  29.336  1.00  0.00    -0.014 A 
BRANCH  36  37
ATOM     37  C   UNL A   1      39.292  29.168  29.803  1.00  0.00     0.031 A 
ATOM     38  C   UNL A   1      39.986  27.939  29.301  1.00  0.00     0.074 A 
ATOM     39  C   UNL A   1      40.010  30.079  30.504  1.00  0.00     0.049 A 
ATOM     40  N   UNL A   1      41.191  27.604  29.605  1.00  0.00    -0.248 NA
ATOM     41  C   UNL A   1      39.389  26.989  28.367  1.00  0.00     0.031 C 
ATOM     42  C   UNL A   1      41.458  30.076  30.685  1.00  0.00     0.029 A 
ATOM     43  N   UNL A   1      39.610  31.204  31.216  1.00  0.00    -0.354 N 
ATOM     44  C   UNL A   1      41.618  26.597  28.779  1.00  0.00     0.074 A 
ATOM     45  C   UNL A   1      40.452  26.266  27.996  1.00  0.00     0.031 C 
ATOM     46  C   UNL A   1      41.830  31.026  31.548  1.00  0.00     0.029 A 
ATOM     47  C   UNL A   1      40.625  31.571  32.111  1.00  0.00     0.049 A 
ATOM     48  H   UNL A   1      38.750  31.670  31.108  1.00  0.00     0.167 HD
ATOM     49  C   UNL A   1      42.932  26.225  28.833  1.00  0.00     0.037 A 
ATOM     50  C   UNL A   1      40.417  31.623  33.454  1.00  0.00     0.037 A 
ATOM     51  C   UNL A   1      43.637  26.954  29.909  1.00  0.00     0.049 A 
ATOM     52  C   UNL A   1      41.262  30.547  34.092  1.00  0.00     0.074 A 
ATOM     53  C   UNL A   1      44.585  27.965  29.940  1.00  0.00     0.029 A 
ATOM     54  N   UNL A   1      43.152  26.860  31.221  1.00  0.00    -0.354 N 
ATOM     55  N   UNL A   1      41.479  29.382  33.520  1.00  0.00    -0.248 NA
ATOM     56  C   UNL A   1      42.188  30.826  35.190  1.00  0.00     0.031 C 
ATOM     57  C   UNL A   1      44.591  28.534  31.250  1.00  0.00     0.029 A 
ATOM     58  C   UNL A   1      43.673  27.851  32.039  1.00  0.00     0.049 A 
ATOM     59  H   UNL A   1      42.515  26.174  31.526  1.00  0.00     0.167 HD
ATOM     60  C   UNL A   1      42.647  28.868  34.021  1.00  0.00     0.074 A 
ATOM     61  C   UNL A   1      43.022  29.775  35.101  1.00  0.00     0.031 C 
ATOM     62  C   UNL A   1      43.404  27.871  33.473  1.00  0.00     0.037 A 
BRANCH  49  63
ATOM     63  C   UNL A   1      43.601  25.310  27.813  1.00  0.00     0.058 A 
ATOM     64  C   UNL A   1      44.416  25.822  26.777  1.00  0.00     0.135 A 
ATOM     65  C   UNL A   1      43.481  23.902  27.803  1.00  0.00     0.135 A 
ATOM     66  F   UNL A   1      44.659  27.134  26.663  1.00  0.00    -0.206 F 
ATOM     67  C   UNL A   1      45.018  25.016  25.800  1.00  0.00     0.059 A 
ATOM     68  C   UNL A   1      44.022  23.081  26.804  1.00  0.00     0.059 A 
ATOM     69  F   UNL A   1      42.886  23.245  28.806  1.00  0.00    -0.206 F 
ATOM     70  C   UNL A   1      44.804  23.644  25.810  1.00  0.00     0.060 A 
BRANCH  70  71
ATOM     71  S   UNL A   1      45.583  22.617  24.547  1.00  0.00     0.124 S 
ATOM     72  O   UNL A   1      44.436  22.151  23.773  1.00  0.00    -0.237 OA
ATOM     73  O   UNL A   1      46.457  23.572  23.874  1.00  0.00    -0.237 OA
ATOM     74  O   UNL A   1      46.266  21.583  25.321  1.00  0.00    -0.744 OA
ENDBRANCH  70  71
ENDBRANCH  49  63
BRANCH  50  75
ATOM     75  C   UNL A   1      39.108  32.253  33.785  1.00  0.00     0.058 A 
ATOM     76  C   UNL A   1      38.967  33.570  33.286  1.00  0.00     0.135 A 
ATOM     77  C   UNL A   1      37.940  31.476  33.859  1.00  0.00     0.135 A 
ATOM     78  F   UNL A   1      40.044  34.369  33.207  1.00  0.00    -0.206 F 
ATOM     79  C   UNL A   1      37.796  34.003  32.664  1.00  0.00     0.059 A 
ATOM     80  C   UNL A   1      36.755  31.893  33.233  1.00  0.00     0.059 A 
ATOM     81  F   UNL A   1      37.997  30.220  34.324  1.00  0.00    -0.206 F 
ATOM     82  C   UNL A   1      36.718  33.126  32.579  1.00  0.00     0.060 A 
BRANCH  82  83
ATOM     83  S   UNL A   1      35.398  33.503  31.390  1.00  0.00     0.124 S 
ATOM     84  O   UNL A   1      36.077  33.342  30.112  1.00  0.00    -0.237 OA
ATOM     85  O   UNL A   1      34.393  32.490  31.709  1.00  0.00    -0.237 OA
ATOM     86  O   UNL A   1      35.006  34.861  31.745  1.00  0.00    -0.744 OA
ENDBRANCH  82  83
ENDBRANCH  50  75
BRANCH  62  87
ATOM     87  C   UNL A   1      44.005  26.814  34.365  1.00  0.00     0.058 A 
ATOM     88  C   UNL A   1      45.369  26.809  34.718  1.00  0.00     0.135 A 
ATOM     89  C   UNL A   1      43.191  25.883  35.053  1.00  0.00     0.135 A 
ATOM     90  F   UNL A   1      46.236  27.699  34.216  1.00  0.00    -0.206 F 
ATOM     91  C   UNL A   1      45.896  25.912  35.633  1.00  0.00     0.059 A 
ATOM     92  C   UNL A   1      43.691  25.017  36.018  1.00  0.00     0.059 A 
ATOM     93  F   UNL A   1      41.868  25.801  34.840  1.00  0.00    -0.206 F 
ATOM     94  C   UNL A   1      45.051  25.021  36.279  1.00  0.00     0.060 A 
BRANCH  94  95
ATOM     95  S   UNL A   1      45.757  23.896  37.485  1.00  0.00     0.124 S 
ATOM     96  O   UNL A   1      45.494  22.606  36.856  1.00  0.00    -0.237 OA
ATOM     97  O   UNL A   1      47.157  24.310  37.518  1.00  0.00    -0.237 OA
ATOM     98  O   UNL A   1      44.997  24.178  38.697  1.00  0.00    -0.744 OA
ENDBRANCH  94  95
ENDBRANCH  62  87
ENDBRANCH  36  37
ENDBRANCH  29  31
ENDBRANCH  28  29
ENDBRANCH  27  28
ENDBRANCH  26  27
ENDBRANCH   1  26
TORSDOF 20
ENDMDL
MODEL 3
REMARK VINA RESULT:     -11.7      1.028      2.444
REMARK SMILES Cc1ccc(NC(=O)C[N@H+]2CC[C@@H](C(=O)OCCOCCOC(=O)c3ccc(-c4c5nc(c(-c6c(F)cc(S(=O)(=O)[O-])cc6F)c6ccc([nH]6)c(-c6c(F)cc(S(=O)(=O)[O-])cc6F)c6nc(c(-c7c(F)cc(S(=O)(=O)[O-])cc7F)c7ccc4[nH]7)C=C6)C=C5)cc3)[C@@H]2C)cc1
REMARK SMILES IDX 19 1 18 2 17 3 16 4 14 5 15 6 13 7 10 8 11 9 91 10 12 12
REMARK SMILES IDX 92 13 9 14 7 15 6 16 8 18 5 19 1 20 2 21 3 22 94 23 4 24
REMARK SMILES IDX 93 25 20 26 21 27 22 28 23 29 24 30 25 31 26 32 90 33 27 34
REMARK SMILES IDX 89 35 28 36 29 37 30 38 83 39 31 40 88 41 82 42 84 43 32 44
REMARK SMILES IDX 87 45 81 46 80 47 33 49 67 50 46 51 66 52 47 53 50 54 65 55
REMARK SMILES IDX 85 56 48 57 49 58 64 60 86 61 51 62 34 63 35 64 44 65 36 66
REMARK SMILES IDX 37 67 43 68 45 69 38 70 39 71 40 72 41 73 42 74 68 75 69 76
REMARK SMILES IDX 78 77 70 78 71 79 77 80 79 81 72 82 73 83 74 84 75 85 76 86
REMARK SMILES IDX 52 87 53 88 62 89 54 90 55 91 61 92 63 93 56 94 57 95 58 96
REMARK SMILES IDX 59 97 60 98
REMARK H PARENT 10 11 6 17 84 48 50 59
REMARK Flexibility Score: inf
ROOT
ATOM      1  O   UNL A   1      36.421  22.555  25.609  1.00  0.00    -0.374 OA
ENDROOT
BRANCH   1   2
ATOM      2  C   UNL A   1      35.938  23.645  24.832  1.00  0.00     0.202 C 
BRANCH   2   3
ATOM      3  C   UNL A   1      34.908  24.292  25.690  1.00  0.00     0.261 C 
BRANCH   3   4
ATOM      4  O   UNL A   1      34.415  25.456  25.016  1.00  0.00    -0.463 OA
BRANCH   4   5
ATOM      5  C   UNL A   1      33.481  26.297  25.517  1.00  0.00     0.315 C 
ATOM      6  O   UNL A   1      32.429  26.004  26.040  1.00  0.00    -0.252 OA
BRANCH   5   7
ATOM      7  C   UNL A   1      33.946  27.726  25.293  1.00  0.00     0.162 C 
ATOM      8  N   UNL A   1      32.430  29.301  24.206  1.00  0.00    -0.324 N 
ATOM      9  C   UNL A   1      32.711  29.811  25.541  1.00  0.00     0.264 C 
ATOM     10  C   UNL A   1      33.492  28.288  23.930  1.00  0.00     0.195 C 
ATOM     11  H   UNL A   1      32.443  30.085  23.553  1.00  0.00     0.348 HD
ATOM     12  C   UNL A   1      33.472  28.748  26.319  1.00  0.00     0.083 C 
ATOM     13  C   UNL A   1      34.740  28.849  23.244  1.00  0.00     0.076 C 
BRANCH   8  14
ATOM     14  C   UNL A   1      31.055  28.738  23.985  1.00  0.00     0.364 C 
BRANCH  14  15
ATOM     15  C   UNL A   1      30.603  28.446  22.528  1.00  0.00     0.279 C 
ATOM     16  N   UNL A   1      30.672  27.217  21.902  1.00  0.00    -0.321 N 
ATOM     17  H   UNL A   1      30.278  27.218  20.999  1.00  0.00     0.170 HD
ATOM     18  O   UNL A   1      30.121  29.366  21.847  1.00  0.00    -0.268 OA
BRANCH  16  19
ATOM     19  C   UNL A   1      31.187  25.964  22.283  1.00  0.00     0.041 A 
ATOM     20  C   UNL A   1      32.933  22.142  23.416  1.00  0.00     0.044 C 
ATOM     21  C   UNL A   1      32.285  23.459  23.102  1.00  0.00    -0.051 A 
ATOM     22  C   UNL A   1      32.916  24.265  22.175  1.00  0.00     0.005 A 
ATOM     23  C   UNL A   1      31.054  23.894  23.596  1.00  0.00     0.005 A 
ATOM     24  C   UNL A   1      32.344  25.463  21.741  1.00  0.00     0.026 A 
ATOM     25  C   UNL A   1      30.507  25.136  23.186  1.00  0.00     0.026 A 
ENDBRANCH  16  19
ENDBRANCH  14  15
ENDBRANCH   8  14
ENDBRANCH   5   7
ENDBRANCH   4   5
ENDBRANCH   3   4
ENDBRANCH   2   3
ENDBRANCH   1   2
BRANCH   1  26
ATOM     26  C   UNL A   1      37.655  22.030  25.176  1.00  0.00     0.202 C 
BRANCH  26  27
ATOM     27  C   UNL A   1      38.793  22.354  26.145  1.00  0.00     0.261 C 
BRANCH  27  28
ATOM     28  O   UNL A   1      38.675  23.714  26.626  1.00  0.00    -0.460 OA
BRANCH  28  29
ATOM     29  C   UNL A   1      39.650  24.129  27.488  1.00  0.00     0.338 C 
ATOM     30  O   UNL A   1      40.509  23.392  27.941  1.00  0.00    -0.246 OA
BRANCH  29  31
ATOM     31  C   UNL A   1      39.590  25.603  27.719  1.00  0.00     0.060 A 
ATOM     32  C   UNL A   1      40.156  26.509  26.804  1.00  0.00     0.016 A 
ATOM     33  C   UNL A   1      39.134  26.072  28.947  1.00  0.00     0.016 A 
ATOM     34  C   UNL A   1      40.364  27.854  27.167  1.00  0.00     0.010 A 
ATOM     35  C   UNL A   1      39.450  27.359  29.340  1.00  0.00     0.010 A 
ATOM     36  C   UNL A   1      40.052  28.272  28.461  1.00  0.00    -0.014 A 
BRANCH  36  37
ATOM     37  C   UNL A   1      40.297  29.606  29.032  1.00  0.00     0.031 A 
ATOM     38  C   UNL A   1      39.165  30.586  29.064  1.00  0.00     0.074 A 
ATOM     39  C   UNL A   1      41.437  29.907  29.701  1.00  0.00     0.049 A 
ATOM     40  N   UNL A   1      39.238  31.770  29.564  1.00  0.00    -0.248 NA
ATOM     41  C   UNL A   1      37.823  30.299  28.566  1.00  0.00     0.031 C 
ATOM     42  C   UNL A   1      41.628  31.033  30.609  1.00  0.00     0.029 A 
ATOM     43  N   UNL A   1      42.679  29.282  29.715  1.00  0.00    -0.354 N 
ATOM     44  C   UNL A   1      37.981  32.302  29.687  1.00  0.00     0.074 A 
ATOM     45  C   UNL A   1      37.121  31.321  29.071  1.00  0.00     0.031 C 
ATOM     46  C   UNL A   1      42.906  31.127  30.986  1.00  0.00     0.029 A 
ATOM     47  C   UNL A   1      43.643  30.180  30.195  1.00  0.00     0.049 A 
ATOM     48  H   UNL A   1      42.853  28.355  29.433  1.00  0.00     0.167 HD
ATOM     49  C   UNL A   1      37.838  33.484  30.358  1.00  0.00     0.037 A 
ATOM     50  C   UNL A   1      44.720  30.546  29.450  1.00  0.00     0.037 A 
ATOM     51  C   UNL A   1      39.158  34.029  30.741  1.00  0.00     0.049 A 
ATOM     52  C   UNL A   1      44.582  32.016  29.134  1.00  0.00     0.074 A 
ATOM     53  C   UNL A   1      39.843  34.170  31.938  1.00  0.00     0.029 A 
ATOM     54  N   UNL A   1      40.110  34.263  29.739  1.00  0.00    -0.354 N 
ATOM     55  N   UNL A   1      43.418  32.587  28.906  1.00  0.00    -0.248 NA
ATOM     56  C   UNL A   1      45.647  32.980  29.409  1.00  0.00     0.031 C 
ATOM     57  C   UNL A   1      41.223  34.391  31.642  1.00  0.00     0.029 A 
ATOM     58  C   UNL A   1      41.384  34.426  30.262  1.00  0.00     0.049 A 
ATOM     59  H   UNL A   1      39.901  34.306  28.778  1.00  0.00     0.167 HD
ATOM     60  C   UNL A   1      43.532  33.923  29.189  1.00  0.00     0.074 A 
ATOM     61  C   UNL A   1      44.954  34.132  29.442  1.00  0.00     0.031 C 
ATOM     62  C   UNL A   1      42.511  34.803  29.415  1.00  0.00     0.037 A 
BRANCH  49  63
ATOM     63  C   UNL A   1      36.494  34.062  30.790  1.00  0.00     0.058 A 
ATOM     64  C   UNL A   1      35.480  34.366  29.854  1.00  0.00     0.135 A 
ATOM     65  C   UNL A   1      36.138  34.340  32.129  1.00  0.00     0.135 A 
ATOM     66  F   UNL A   1      35.644  34.130  28.545  1.00  0.00    -0.206 F 
ATOM     67  C   UNL A   1      34.246  34.931  30.209  1.00  0.00     0.059 A 
ATOM     68  C   UNL A   1      34.939  34.960  32.503  1.00  0.00     0.059 A 
ATOM     69  F   UNL A   1      36.914  33.959  33.151  1.00  0.00    -0.206 F 
ATOM     70  C   UNL A   1      33.987  35.242  31.537  1.00  0.00     0.060 A 
BRANCH  70  71
ATOM     71  S   UNL A   1      32.398  35.971  31.983  1.00  0.00     0.124 S 
ATOM     72  O   UNL A   1      31.831  36.302  30.679  1.00  0.00    -0.237 OA
ATOM     73  O   UNL A   1      31.751  34.876  32.697  1.00  0.00    -0.237 OA
ATOM     74  O   UNL A   1      32.768  37.120  32.805  1.00  0.00    -0.744 OA
ENDBRANCH  70  71
ENDBRANCH  49  63
BRANCH  50  75
ATOM     75  C   UNL A   1      45.325  29.381  28.744  1.00  0.00     0.058 A 
ATOM     76  C   UNL A   1      45.928  28.440  29.611  1.00  0.00     0.135 A 
ATOM     77  C   UNL A   1      44.741  28.877  27.570  1.00  0.00     0.135 A 
ATOM     78  F   UNL A   1      46.518  28.862  30.741  1.00  0.00    -0.206 F 
ATOM     79  C   UNL A   1      45.744  27.067  29.454  1.00  0.00     0.059 A 
ATOM     80  C   UNL A   1      44.542  27.499  27.397  1.00  0.00     0.059 A 
ATOM     81  F   UNL A   1      44.154  29.711  26.699  1.00  0.00    -0.206 F 
ATOM     82  C   UNL A   1      44.985  26.610  28.380  1.00  0.00     0.060 A 
BRANCH  82  83
ATOM     83  S   UNL A   1      44.361  24.905  28.433  1.00  0.00     0.124 S 
ATOM     84  O   UNL A   1      45.330  24.248  29.299  1.00  0.00    -0.237 OA
ATOM     85  O   UNL A   1      43.022  25.081  28.992  1.00  0.00    -0.237 OA
ATOM     86  O   UNL A   1      44.372  24.503  27.032  1.00  0.00    -0.744 OA
ENDBRANCH  82  83
ENDBRANCH  50  75
BRANCH  62  87
ATOM     87  C   UNL A   1      42.573  36.189  28.822  1.00  0.00     0.058 A 
ATOM     88  C   UNL A   1      43.172  37.271  29.495  1.00  0.00     0.135 A 
ATOM     89  C   UNL A   1      42.209  36.430  27.476  1.00  0.00     0.135 A 
ATOM     90  F   UNL A   1      43.652  37.156  30.741  1.00  0.00    -0.206 F 
ATOM     91  C   UNL A   1      43.341  38.513  28.904  1.00  0.00     0.059 A 
ATOM     92  C   UNL A   1      42.425  37.649  26.847  1.00  0.00     0.059 A 
ATOM     93  F   UNL A   1      41.660  35.478  26.706  1.00  0.00    -0.206 F 
ATOM     94  C   UNL A   1      42.966  38.693  27.580  1.00  0.00     0.060 A 
BRANCH  94  95
ATOM     95  S   UNL A   1      43.229  40.301  26.829  1.00  0.00     0.124 S 
ATOM     96  O   UNL A   1      44.255  39.987  25.840  1.00  0.00    -0.237 OA
ATOM     97  O   UNL A   1      41.908  40.616  26.291  1.00  0.00    -0.237 OA
ATOM     98  O   UNL A   1      43.658  41.132  27.948  1.00  0.00    -0.744 OA
ENDBRANCH  94  95
ENDBRANCH  62  87
ENDBRANCH  36  37
ENDBRANCH  29  31
ENDBRANCH  28  29
ENDBRANCH  27  28
ENDBRANCH  26  27
ENDBRANCH   1  26
TORSDOF 20
ENDMDL
