MODEL 1
REMARK VINA RESULT:      -9.8      0.000      0.000
REMARK SMILES CCC(CC)(CC)NC(=O)NC[C@@H]1CC[C@H](C(=O)OCCOCCOC(=O)c2ccc(-c3c4nc(c(-c5c(F)cc(S(=O)(=O)[O-])cc5F)c5ccc([nH]5)c(-c5c(F)cc(S(=O)(=O)[O-])cc5F)c5nc(c(-c6c(F)cc(S(=O)(=O)[O-])cc6F)c6ccc3[nH]6)C=C5)C=C4)cc2)O1
REMARK SMILES IDX 21 1 20 2 19 3 17 4 18 5 16 6 13 7 14 8 94 9 15 10 12 11
REMARK SMILES IDX 11 12 8 13 9 14 10 16 3 18 2 19 1 20 4 21 5 22 6 23 7 24
REMARK SMILES IDX 22 25 23 26 24 27 25 28 26 29 27 30 28 31 29 32 93 33 30 34
REMARK SMILES IDX 92 35 31 36 32 37 33 38 86 39 34 40 91 41 85 42 87 43 35 44
REMARK SMILES IDX 90 45 84 46 83 47 36 49 70 50 49 51 69 52 50 53 53 54 68 55
REMARK SMILES IDX 88 56 51 57 52 58 67 60 89 61 54 62 37 63 38 64 47 65 39 66
REMARK SMILES IDX 40 67 46 68 48 69 41 70 42 71 43 72 44 73 45 74 71 75 72 76
REMARK SMILES IDX 81 77 73 78 74 79 80 80 82 81 75 82 76 83 77 84 78 85 79 86
REMARK SMILES IDX 55 87 56 88 65 89 57 90 58 91 64 92 66 93 59 94 60 95 61 96
REMARK SMILES IDX 62 97 63 98
REMARK H PARENT 8 15 11 17 87 48 53 59
REMARK Flexibility Score: inf
ROOT
ATOM      1  C   UNL A   1      34.240  29.822  27.519  1.00  0.00     0.202 C 
ENDROOT
BRANCH   1   2
ATOM      2  C   UNL A   1      32.897  29.610  26.809  1.00  0.00     0.261 C 
BRANCH   2   3
ATOM      3  O   UNL A   1      33.032  29.657  25.375  1.00  0.00    -0.461 OA
BRANCH   3   4
ATOM      4  C   UNL A   1      32.921  28.466  24.719  1.00  0.00     0.335 C 
ATOM      5  O   UNL A   1      33.864  27.802  24.300  1.00  0.00    -0.249 OA
BRANCH   4   6
ATOM      6  C   UNL A   1      31.457  27.996  24.601  1.00  0.00     0.228 C 
ATOM      7  C   UNL A   1      31.207  25.999  23.423  1.00  0.00     0.138 C 
ATOM      8  C   UNL A   1      31.036  27.143  22.430  1.00  0.00     0.037 C 
ATOM      9  O   UNL A   1      31.294  26.588  24.727  1.00  0.00    -0.361 OA
ATOM     10  C   UNL A   1      30.743  28.338  23.309  1.00  0.00     0.047 C 
BRANCH   7  11
ATOM     11  C   UNL A   1      32.397  25.057  23.147  1.00  0.00     0.149 C 
BRANCH  11  12
ATOM     12  N   UNL A   1      32.044  23.781  22.553  1.00  0.00    -0.336 N 
ATOM     13  N   UNL A   1      33.208  21.963  23.592  1.00  0.00    -0.333 N 
ATOM     14  C   UNL A   1      32.285  22.497  22.796  1.00  0.00     0.315 C 
ATOM     15  H   UNL A   1      33.047  20.993  23.646  1.00  0.00     0.165 HD
ATOM     16  O   UNL A   1      31.564  21.695  22.188  1.00  0.00    -0.249 OA
ATOM     17  H   UNL A   1      31.473  23.898  21.760  1.00  0.00     0.165 HD
BRANCH  13  18
ATOM     18  C   UNL A   1      34.394  22.292  24.432  1.00  0.00     0.041 C 
BRANCH  18  19
ATOM     19  C   UNL A   1      35.070  21.054  25.071  1.00  0.00     0.025 C 
ATOM     20  C   UNL A   1      34.329  19.737  24.830  1.00  0.00     0.006 C 
ENDBRANCH  18  19
BRANCH  18  21
ATOM     21  C   UNL A   1      33.835  23.180  25.621  1.00  0.00     0.025 C 
ATOM     22  C   UNL A   1      33.578  22.455  26.943  1.00  0.00     0.006 C 
ENDBRANCH  18  21
BRANCH  18  23
ATOM     23  C   UNL A   1      35.408  23.206  23.667  1.00  0.00     0.025 C 
ATOM     24  C   UNL A   1      36.899  23.019  23.905  1.00  0.00     0.006 C 
ENDBRANCH  18  23
ENDBRANCH  13  18
ENDBRANCH  11  12
ENDBRANCH   7  11
ENDBRANCH   4   6
ENDBRANCH   3   4
ENDBRANCH   2   3
ENDBRANCH   1   2
BRANCH   1  25
ATOM     25  O   UNL A   1      34.875  31.083  27.317  1.00  0.00    -0.374 OA
BRANCH  25  26
ATOM     26  C   UNL A   1      34.410  32.199  28.073  1.00  0.00     0.202 C 
BRANCH  26  27
ATOM     27  C   UNL A   1      34.847  32.263  29.540  1.00  0.00     0.261 C 
BRANCH  27  28
ATOM     28  O   UNL A   1      35.791  31.229  29.880  1.00  0.00    -0.460 OA
BRANCH  28  29
ATOM     29  C   UNL A   1      37.005  31.697  30.264  1.00  0.00     0.338 C 
ATOM     30  O   UNL A   1      37.229  32.670  30.965  1.00  0.00    -0.246 OA
BRANCH  29  31
ATOM     31  C   UNL A   1      38.082  30.782  29.844  1.00  0.00     0.060 A 
ATOM     32  C   UNL A   1      39.100  30.525  30.768  1.00  0.00     0.016 A 
ATOM     33  C   UNL A   1      38.187  30.329  28.526  1.00  0.00     0.016 A 
ATOM     34  C   UNL A   1      40.264  29.877  30.358  1.00  0.00     0.010 A 
ATOM     35  C   UNL A   1      39.360  29.678  28.117  1.00  0.00     0.010 A 
ATOM     36  C   UNL A   1      40.424  29.493  29.020  1.00  0.00    -0.014 A 
BRANCH  36  37
ATOM     37  C   UNL A   1      41.766  29.047  28.559  1.00  0.00     0.031 A 
ATOM     38  C   UNL A   1      42.909  30.031  28.548  1.00  0.00     0.074 A 
ATOM     39  C   UNL A   1      41.987  27.761  28.234  1.00  0.00     0.049 A 
ATOM     40  N   UNL A   1      44.168  29.836  28.250  1.00  0.00    -0.248 NA
ATOM     41  C   UNL A   1      42.590  31.417  28.928  1.00  0.00     0.031 C 
ATOM     42  C   UNL A   1      40.976  26.705  28.233  1.00  0.00     0.029 A 
ATOM     43  N   UNL A   1      43.142  27.123  27.855  1.00  0.00    -0.354 N 
ATOM     44  C   UNL A   1      44.793  31.068  28.411  1.00  0.00     0.074 A 
ATOM     45  C   UNL A   1      43.767  32.013  28.795  1.00  0.00     0.031 C 
ATOM     46  C   UNL A   1      41.555  25.547  27.869  1.00  0.00     0.029 A 
ATOM     47  C   UNL A   1      42.972  25.783  27.599  1.00  0.00     0.049 A 
ATOM     48  H   UNL A   1      44.009  27.581  27.773  1.00  0.00     0.167 HD
ATOM     49  C   UNL A   1      46.104  31.382  28.269  1.00  0.00     0.037 A 
ATOM     50  C   UNL A   1      43.858  24.852  27.189  1.00  0.00     0.037 A 
ATOM     51  C   UNL A   1      47.129  30.443  27.889  1.00  0.00     0.049 A 
ATOM     52  C   UNL A   1      45.302  25.233  26.998  1.00  0.00     0.074 A 
ATOM     53  C   UNL A   1      48.486  30.667  27.728  1.00  0.00     0.029 A 
ATOM     54  N   UNL A   1      46.911  29.103  27.610  1.00  0.00    -0.354 N 
ATOM     55  N   UNL A   1      45.879  26.399  27.173  1.00  0.00    -0.248 NA
ATOM     56  C   UNL A   1      46.219  24.169  26.561  1.00  0.00     0.031 C 
ATOM     57  C   UNL A   1      49.083  29.470  27.315  1.00  0.00     0.029 A 
ATOM     58  C   UNL A   1      48.105  28.490  27.261  1.00  0.00     0.049 A 
ATOM     59  H   UNL A   1      46.037  28.652  27.654  1.00  0.00     0.167 HD
ATOM     60  C   UNL A   1      47.228  26.202  26.892  1.00  0.00     0.074 A 
ATOM     61  C   UNL A   1      47.382  24.803  26.546  1.00  0.00     0.031 C 
ATOM     62  C   UNL A   1      48.246  27.097  26.917  1.00  0.00     0.037 A 
BRANCH  49  63
ATOM     63  C   UNL A   1      46.504  32.811  28.511  1.00  0.00     0.058 A 
ATOM     64  C   UNL A   1      46.509  33.760  27.475  1.00  0.00     0.135 A 
ATOM     65  C   UNL A   1      46.860  33.246  29.798  1.00  0.00     0.135 A 
ATOM     66  F   UNL A   1      46.194  33.393  26.222  1.00  0.00    -0.206 F 
ATOM     67  C   UNL A   1      46.878  35.082  27.701  1.00  0.00     0.059 A 
ATOM     68  C   UNL A   1      47.209  34.569  30.052  1.00  0.00     0.059 A 
ATOM     69  F   UNL A   1      46.871  32.380  30.823  1.00  0.00    -0.206 F 
ATOM     70  C   UNL A   1      47.229  35.476  28.993  1.00  0.00     0.060 A 
BRANCH  70  71
ATOM     71  S   UNL A   1      47.709  37.194  29.274  1.00  0.00     0.124 S 
ATOM     72  O   UNL A   1      46.470  37.897  28.955  1.00  0.00    -0.237 OA
ATOM     73  O   UNL A   1      48.090  37.188  30.682  1.00  0.00    -0.237 OA
ATOM     74  O   UNL A   1      48.806  37.398  28.331  1.00  0.00    -0.744 OA
ENDBRANCH  70  71
ENDBRANCH  49  63
BRANCH  50  75
ATOM     75  C   UNL A   1      43.400  23.461  26.930  1.00  0.00     0.058 A 
ATOM     76  C   UNL A   1      43.222  22.983  25.624  1.00  0.00     0.135 A 
ATOM     77  C   UNL A   1      43.133  22.584  27.992  1.00  0.00     0.135 A 
ATOM     78  F   UNL A   1      43.455  23.789  24.577  1.00  0.00    -0.206 F 
ATOM     79  C   UNL A   1      42.782  21.687  25.378  1.00  0.00     0.059 A 
ATOM     80  C   UNL A   1      42.714  21.276  27.770  1.00  0.00     0.059 A 
ATOM     81  F   UNL A   1      43.297  22.991  29.260  1.00  0.00    -0.206 F 
ATOM     82  C   UNL A   1      42.532  20.840  26.459  1.00  0.00     0.060 A 
BRANCH  82  83
ATOM     83  S   UNL A   1      42.005  19.143  26.133  1.00  0.00     0.124 S 
ATOM     84  O   UNL A   1      42.864  18.779  25.013  1.00  0.00    -0.237 OA
ATOM     85  O   UNL A   1      42.294  18.482  27.402  1.00  0.00    -0.237 OA
ATOM     86  O   UNL A   1      40.586  19.288  25.821  1.00  0.00    -0.744 OA
ENDBRANCH  82  83
ENDBRANCH  50  75
BRANCH  62  87
ATOM     87  C   UNL A   1      49.622  26.589  26.586  1.00  0.00     0.058 A 
ATOM     88  C   UNL A   1      50.117  26.601  25.273  1.00  0.00     0.135 A 
ATOM     89  C   UNL A   1      50.469  26.110  27.600  1.00  0.00     0.135 A 
ATOM     90  F   UNL A   1      49.348  27.046  24.266  1.00  0.00    -0.206 F 
ATOM     91  C   UNL A   1      51.390  26.127  24.971  1.00  0.00     0.059 A 
ATOM     92  C   UNL A   1      51.754  25.654  27.324  1.00  0.00     0.059 A 
ATOM     93  F   UNL A   1      50.051  26.089  28.876  1.00  0.00    -0.206 F 
ATOM     94  C   UNL A   1      52.200  25.651  26.003  1.00  0.00     0.060 A 
BRANCH  94  95
ATOM     95  S   UNL A   1      53.854  25.048  25.602  1.00  0.00     0.124 S 
ATOM     96  O   UNL A   1      53.593  23.639  25.327  1.00  0.00    -0.237 OA
ATOM     97  O   UNL A   1      54.216  25.863  24.448  1.00  0.00    -0.237 OA
ATOM     98  O   UNL A   1      54.618  25.320  26.817  1.00  0.00    -0.744 OA
ENDBRANCH  94  95
ENDBRANCH  62  87
ENDBRANCH  36  37
ENDBRANCH  29  31
ENDBRANCH  28  29
ENDBRANCH  27  28
ENDBRANCH  26  27
ENDBRANCH  25  26
ENDBRANCH   1  25
TORSDOF 23
ENDMDL
MODEL 2
REMARK VINA RESULT:      -9.8      6.295     12.098
REMARK SMILES CCC(CC)(CC)NC(=O)NC[C@@H]1CC[C@H](C(=O)OCCOCCOC(=O)c2ccc(-c3c4nc(c(-c5c(F)cc(S(=O)(=O)[O-])cc5F)c5ccc([nH]5)c(-c5c(F)cc(S(=O)(=O)[O-])cc5F)c5nc(c(-c6c(F)cc(S(=O)(=O)[O-])cc6F)c6ccc3[nH]6)C=C5)C=C4)cc2)O1
REMARK SMILES IDX 21 1 20 2 19 3 17 4 18 5 16 6 13 7 14 8 94 9 15 10 12 11
REMARK SMILES IDX 11 12 8 13 9 14 10 16 3 18 2 19 1 20 4 21 5 22 6 23 7 24
REMARK SMILES IDX 22 25 23 26 24 27 25 28 26 29 27 30 28 31 29 32 93 33 30 34
REMARK SMILES IDX 92 35 31 36 32 37 33 38 86 39 34 40 91 41 85 42 87 43 35 44
REMARK SMILES IDX 90 45 84 46 83 47 36 49 70 50 49 51 69 52 50 53 53 54 68 55
REMARK SMILES IDX 88 56 51 57 52 58 67 60 89 61 54 62 37 63 38 64 47 65 39 66
REMARK SMILES IDX 40 67 46 68 48 69 41 70 42 71 43 72 44 73 45 74 71 75 72 76
REMARK SMILES IDX 81 77 73 78 74 79 80 80 82 81 75 82 76 83 77 84 78 85 79 86
REMARK SMILES IDX 55 87 56 88 65 89 57 90 58 91 64 92 66 93 59 94 60 95 61 96
REMARK SMILES IDX 62 97 63 98
REMARK H PARENT 8 15 11 17 87 48 53 59
REMARK Flexibility Score: inf
ROOT
ATOM      1  C   UNL A   1      37.877  21.662  25.696  1.00  0.00     0.202 C 
ENDROOT
BRANCH   1   2
ATOM      2  C   UNL A   1      37.015  22.566  24.807  1.00  0.00     0.261 C 
BRANCH   2   3
ATOM      3  O   UNL A   1      35.864  21.873  24.288  1.00  0.00    -0.461 OA
BRANCH   3   4
ATOM      4  C   UNL A   1      34.658  22.487  24.469  1.00  0.00     0.335 C 
ATOM      5  O   UNL A   1      34.323  23.546  23.949  1.00  0.00    -0.249 OA
BRANCH   4   6
ATOM      6  C   UNL A   1      33.715  21.669  25.373  1.00  0.00     0.228 C 
ATOM      7  C   UNL A   1      32.127  22.966  26.485  1.00  0.00     0.138 C 
ATOM      8  C   UNL A   1      33.328  22.814  27.413  1.00  0.00     0.037 C 
ATOM      9  O   UNL A   1      32.365  22.122  25.352  1.00  0.00    -0.361 OA
ATOM     10  C   UNL A   1      34.067  21.622  26.846  1.00  0.00     0.047 C 
BRANCH   7  11
ATOM     11  C   UNL A   1      31.806  24.413  26.055  1.00  0.00     0.149 C 
BRANCH  11  12
ATOM     12  N   UNL A   1      32.928  25.331  26.109  1.00  0.00    -0.336 N 
ATOM     13  N   UNL A   1      32.598  27.224  24.677  1.00  0.00    -0.333 N 
ATOM     14  C   UNL A   1      33.219  26.538  25.633  1.00  0.00     0.315 C 
ATOM     15  H   UNL A   1      32.984  28.130  24.645  1.00  0.00     0.165 HD
ATOM     16  O   UNL A   1      34.207  27.086  26.139  1.00  0.00    -0.249 OA
ATOM     17  H   UNL A   1      33.672  24.962  26.638  1.00  0.00     0.165 HD
BRANCH  13  18
ATOM     18  C   UNL A   1      31.535  27.127  23.638  1.00  0.00     0.041 C 
BRANCH  18  19
ATOM     19  C   UNL A   1      30.105  26.996  24.217  1.00  0.00     0.025 C 
ATOM     20  C   UNL A   1      29.356  25.739  23.768  1.00  0.00     0.006 C 
ENDBRANCH  18  19
BRANCH  18  21
ATOM     21  C   UNL A   1      31.839  25.786  22.848  1.00  0.00     0.025 C 
ATOM     22  C   UNL A   1      32.882  25.880  21.733  1.00  0.00     0.006 C 
ENDBRANCH  18  21
BRANCH  18  23
ATOM     23  C   UNL A   1      31.655  28.273  22.579  1.00  0.00     0.025 C 
ATOM     24  C   UNL A   1      30.513  29.267  22.431  1.00  0.00     0.006 C 
ENDBRANCH  18  23
ENDBRANCH  13  18
ENDBRANCH  11  12
ENDBRANCH   7  11
ENDBRANCH   4   6
ENDBRANCH   3   4
ENDBRANCH   2   3
ENDBRANCH   1   2
BRANCH   1  25
ATOM     25  O   UNL A   1      39.288  21.868  25.639  1.00  0.00    -0.374 OA
BRANCH  25  26
ATOM     26  C   UNL A   1      40.070  21.483  26.766  1.00  0.00     0.202 C 
BRANCH  26  27
ATOM     27  C   UNL A   1      41.294  22.351  27.080  1.00  0.00     0.261 C 
BRANCH  27  28
ATOM     28  O   UNL A   1      41.107  23.727  26.696  1.00  0.00    -0.460 OA
BRANCH  28  29
ATOM     29  C   UNL A   1      42.105  24.552  27.098  1.00  0.00     0.338 C 
ATOM     30  O   UNL A   1      43.290  24.461  26.821  1.00  0.00    -0.246 OA
BRANCH  29  31
ATOM     31  C   UNL A   1      41.569  25.713  27.832  1.00  0.00     0.060 A 
ATOM     32  C   UNL A   1      42.442  26.782  28.063  1.00  0.00     0.016 A 
ATOM     33  C   UNL A   1      40.307  25.684  28.430  1.00  0.00     0.016 A 
ATOM     34  C   UNL A   1      42.083  27.792  28.953  1.00  0.00     0.010 A 
ATOM     35  C   UNL A   1      39.949  26.702  29.325  1.00  0.00     0.010 A 
ATOM     36  C   UNL A   1      40.856  27.735  29.629  1.00  0.00    -0.014 A 
BRANCH  36  37
ATOM     37  C   UNL A   1      40.616  28.674  30.756  1.00  0.00     0.031 A 
ATOM     38  C   UNL A   1      41.477  28.584  31.991  1.00  0.00     0.074 A 
ATOM     39  C   UNL A   1      39.698  29.652  30.651  1.00  0.00     0.049 A 
ATOM     40  N   UNL A   1      41.482  29.345  33.055  1.00  0.00    -0.248 NA
ATOM     41  C   UNL A   1      42.468  27.496  32.026  1.00  0.00     0.031 C 
ATOM     42  C   UNL A   1      38.822  29.866  29.501  1.00  0.00     0.029 A 
ATOM     43  N   UNL A   1      39.361  30.656  31.524  1.00  0.00    -0.354 N 
ATOM     44  C   UNL A   1      42.475  28.834  33.884  1.00  0.00     0.074 A 
ATOM     45  C   UNL A   1      43.025  27.674  33.216  1.00  0.00     0.031 C 
ATOM     46  C   UNL A   1      38.045  30.938  29.738  1.00  0.00     0.029 A 
ATOM     47  C   UNL A   1      38.358  31.475  31.060  1.00  0.00     0.049 A 
ATOM     48  H   UNL A   1      39.795  30.779  32.398  1.00  0.00     0.167 HD
ATOM     49  C   UNL A   1      42.904  29.296  35.085  1.00  0.00     0.037 A 
ATOM     50  C   UNL A   1      37.758  32.535  31.638  1.00  0.00     0.037 A 
ATOM     51  C   UNL A   1      42.361  30.452  35.752  1.00  0.00     0.049 A 
ATOM     52  C   UNL A   1      38.223  33.006  32.991  1.00  0.00     0.074 A 
ATOM     53  C   UNL A   1      42.736  31.001  36.966  1.00  0.00     0.029 A 
ATOM     54  N   UNL A   1      41.327  31.235  35.263  1.00  0.00    -0.354 N 
ATOM     55  N   UNL A   1      39.176  32.523  33.752  1.00  0.00    -0.248 NA
ATOM     56  C   UNL A   1      37.535  34.175  33.561  1.00  0.00     0.031 C 
ATOM     57  C   UNL A   1      41.903  32.095  37.230  1.00  0.00     0.029 A 
ATOM     58  C   UNL A   1      41.038  32.253  36.159  1.00  0.00     0.049 A 
ATOM     59  H   UNL A   1      40.865  31.090  34.406  1.00  0.00     0.167 HD
ATOM     60  C   UNL A   1      39.218  33.341  34.877  1.00  0.00     0.074 A 
ATOM     61  C   UNL A   1      38.202  34.357  34.691  1.00  0.00     0.031 C 
ATOM     62  C   UNL A   1      40.023  33.258  35.964  1.00  0.00     0.037 A 
BRANCH  49  63
ATOM     63  C   UNL A   1      44.009  28.537  35.765  1.00  0.00     0.058 A 
ATOM     64  C   UNL A   1      45.361  28.854  35.550  1.00  0.00     0.135 A 
ATOM     65  C   UNL A   1      43.716  27.499  36.665  1.00  0.00     0.135 A 
ATOM     66  F   UNL A   1      45.697  29.826  34.687  1.00  0.00    -0.206 F 
ATOM     67  C   UNL A   1      46.382  28.152  36.182  1.00  0.00     0.059 A 
ATOM     68  C   UNL A   1      44.721  26.799  37.326  1.00  0.00     0.059 A 
ATOM     69  F   UNL A   1      42.441  27.156  36.906  1.00  0.00    -0.206 F 
ATOM     70  C   UNL A   1      46.051  27.124  37.067  1.00  0.00     0.060 A 
BRANCH  70  71
ATOM     71  S   UNL A   1      47.386  26.218  37.878  1.00  0.00     0.124 S 
ATOM     72  O   UNL A   1      48.223  27.310  38.366  1.00  0.00    -0.237 OA
ATOM     73  O   UNL A   1      46.674  25.460  38.902  1.00  0.00    -0.237 OA
ATOM     74  O   UNL A   1      47.962  25.422  36.798  1.00  0.00    -0.744 OA
ENDBRANCH  70  71
ENDBRANCH  49  63
BRANCH  50  75
ATOM     75  C   UNL A   1      36.645  33.227  30.935  1.00  0.00     0.058 A 
ATOM     76  C   UNL A   1      36.892  34.150  29.909  1.00  0.00     0.135 A 
ATOM     77  C   UNL A   1      35.309  32.972  31.280  1.00  0.00     0.135 A 
ATOM     78  F   UNL A   1      38.154  34.434  29.552  1.00  0.00    -0.206 F 
ATOM     79  C   UNL A   1      35.855  34.808  29.257  1.00  0.00     0.059 A 
ATOM     80  C   UNL A   1      34.254  33.600  30.627  1.00  0.00     0.059 A 
ATOM     81  F   UNL A   1      35.021  32.088  32.249  1.00  0.00    -0.206 F 
ATOM     82  C   UNL A   1      34.537  34.525  29.623  1.00  0.00     0.060 A 
BRANCH  82  83
ATOM     83  S   UNL A   1      33.192  35.347  28.743  1.00  0.00     0.124 S 
ATOM     84  O   UNL A   1      32.469  35.982  29.839  1.00  0.00    -0.237 OA
ATOM     85  O   UNL A   1      33.913  36.246  27.847  1.00  0.00    -0.237 OA
ATOM     86  O   UNL A   1      32.500  34.243  28.085  1.00  0.00    -0.744 OA
ENDBRANCH  82  83
ENDBRANCH  50  75
BRANCH  62  87
ATOM     87  C   UNL A   1      39.858  34.309  37.028  1.00  0.00     0.058 A 
ATOM     88  C   UNL A   1      38.997  34.123  38.121  1.00  0.00     0.135 A 
ATOM     89  C   UNL A   1      40.593  35.504  36.970  1.00  0.00     0.135 A 
ATOM     90  F   UNL A   1      38.268  32.999  38.222  1.00  0.00    -0.206 F 
ATOM     91  C   UNL A   1      38.845  35.098  39.101  1.00  0.00     0.059 A 
ATOM     92  C   UNL A   1      40.475  36.483  37.953  1.00  0.00     0.059 A 
ATOM     93  F   UNL A   1      41.442  35.728  35.954  1.00  0.00    -0.206 F 
ATOM     94  C   UNL A   1      39.585  36.278  39.006  1.00  0.00     0.060 A 
BRANCH  94  95
ATOM     95  S   UNL A   1      39.389  37.534  40.289  1.00  0.00     0.124 S 
ATOM     96  O   UNL A   1      38.265  38.307  39.772  1.00  0.00    -0.237 OA
ATOM     97  O   UNL A   1      39.113  36.731  41.476  1.00  0.00    -0.237 OA
ATOM     98  O   UNL A   1      40.677  38.220  40.291  1.00  0.00    -0.744 OA
ENDBRANCH  94  95
ENDBRANCH  62  87
ENDBRANCH  36  37
ENDBRANCH  29  31
ENDBRANCH  28  29
ENDBRANCH  27  28
ENDBRANCH  26  27
ENDBRANCH  25  26
ENDBRANCH   1  25
TORSDOF 23
ENDMDL
MODEL 3
REMARK VINA RESULT:      -9.6      6.377     11.585
REMARK SMILES CCC(CC)(CC)NC(=O)NC[C@@H]1CC[C@H](C(=O)OCCOCCOC(=O)c2ccc(-c3c4nc(c(-c5c(F)cc(S(=O)(=O)[O-])cc5F)c5ccc([nH]5)c(-c5c(F)cc(S(=O)(=O)[O-])cc5F)c5nc(c(-c6c(F)cc(S(=O)(=O)[O-])cc6F)c6ccc3[nH]6)C=C5)C=C4)cc2)O1
REMARK SMILES IDX 21 1 20 2 19 3 17 4 18 5 16 6 13 7 14 8 94 9 15 10 12 11
REMARK SMILES IDX 11 12 8 13 9 14 10 16 3 18 2 19 1 20 4 21 5 22 6 23 7 24
REMARK SMILES IDX 22 25 23 26 24 27 25 28 26 29 27 30 28 31 29 32 93 33 30 34
REMARK SMILES IDX 92 35 31 36 32 37 33 38 86 39 34 40 91 41 85 42 87 43 35 44
REMARK SMILES IDX 90 45 84 46 83 47 36 49 70 50 49 51 69 52 50 53 53 54 68 55
REMARK SMILES IDX 88 56 51 57 52 58 67 60 89 61 54 62 37 63 38 64 47 65 39 66
REMARK SMILES IDX 40 67 46 68 48 69 41 70 42 71 43 72 44 73 45 74 71 75 72 76
REMARK SMILES IDX 81 77 73 78 74 79 80 80 82 81 75 82 76 83 77 84 78 85 79 86
REMARK SMILES IDX 55 87 56 88 65 89 57 90 58 91 64 92 66 93 59 94 60 95 61 96
REMARK SMILES IDX 62 97 63 98
REMARK H PARENT 8 15 11 17 87 48 53 59
REMARK Flexibility Score: inf
ROOT
ATOM      1  C   UNL A   1      37.375  22.153  25.312  1.00  0.00     0.202 C 
ENDROOT
BRANCH   1   2
ATOM      2  C   UNL A   1      36.983  23.355  24.444  1.00  0.00     0.261 C 
BRANCH   2   3
ATOM      3  O   UNL A   1      35.689  23.180  23.835  1.00  0.00    -0.461 OA
BRANCH   3   4
ATOM      4  C   UNL A   1      34.636  23.021  24.689  1.00  0.00     0.335 C 
ATOM      5  O   UNL A   1      34.382  23.757  25.637  1.00  0.00    -0.249 OA
BRANCH   4   6
ATOM      6  C   UNL A   1      33.744  21.824  24.302  1.00  0.00     0.228 C 
ATOM      7  C   UNL A   1      31.572  22.430  23.705  1.00  0.00     0.138 C 
ATOM      8  C   UNL A   1      31.565  22.097  25.194  1.00  0.00     0.037 C 
ATOM      9  O   UNL A   1      32.872  22.088  23.208  1.00  0.00    -0.361 OA
ATOM     10  C   UNL A   1      32.829  21.290  25.384  1.00  0.00     0.047 C 
BRANCH   7  11
ATOM     11  C   UNL A   1      31.196  23.884  23.353  1.00  0.00     0.149 C 
BRANCH  11  12
ATOM     12  N   UNL A   1      32.037  24.508  22.349  1.00  0.00    -0.336 N 
ATOM     13  N   UNL A   1      32.526  26.790  22.890  1.00  0.00    -0.333 N 
ATOM     14  C   UNL A   1      32.678  25.663  22.201  1.00  0.00     0.315 C 
ATOM     15  H   UNL A   1      33.231  27.420  22.616  1.00  0.00     0.165 HD
ATOM     16  O   UNL A   1      33.516  25.695  21.289  1.00  0.00    -0.249 OA
ATOM     17  H   UNL A   1      32.169  23.919  21.571  1.00  0.00     0.165 HD
BRANCH  13  18
ATOM     18  C   UNL A   1      31.682  27.450  23.926  1.00  0.00     0.041 C 
BRANCH  18  19
ATOM     19  C   UNL A   1      31.694  26.729  25.296  1.00  0.00     0.025 C 
ATOM     20  C   UNL A   1      32.936  27.011  26.145  1.00  0.00     0.006 C 
ENDBRANCH  18  19
BRANCH  18  21
ATOM     21  C   UNL A   1      30.197  27.370  23.373  1.00  0.00     0.025 C 
ATOM     22  C   UNL A   1      29.649  28.641  22.724  1.00  0.00     0.006 C 
ENDBRANCH  18  21
BRANCH  18  23
ATOM     23  C   UNL A   1      32.002  28.978  24.046  1.00  0.00     0.025 C 
ATOM     24  C   UNL A   1      31.420  29.768  25.208  1.00  0.00     0.006 C 
ENDBRANCH  18  23
ENDBRANCH  13  18
ENDBRANCH  11  12
ENDBRANCH   7  11
ENDBRANCH   4   6
ENDBRANCH   3   4
ENDBRANCH   2   3
ENDBRANCH   1   2
BRANCH   1  25
ATOM     25  O   UNL A   1      38.735  21.727  25.233  1.00  0.00    -0.374 OA
BRANCH  25  26
ATOM     26  C   UNL A   1      39.441  21.501  26.451  1.00  0.00     0.202 C 
BRANCH  26  27
ATOM     27  C   UNL A   1      40.592  22.462  26.764  1.00  0.00     0.261 C 
BRANCH  27  28
ATOM     28  O   UNL A   1      40.230  23.842  26.554  1.00  0.00    -0.460 OA
BRANCH  28  29
ATOM     29  C   UNL A   1      41.267  24.707  26.678  1.00  0.00     0.338 C 
ATOM     30  O   UNL A   1      42.341  24.655  26.101  1.00  0.00    -0.246 OA
BRANCH  29  31
ATOM     31  C   UNL A   1      40.898  25.858  27.520  1.00  0.00     0.060 A 
ATOM     32  C   UNL A   1      41.779  26.945  27.542  1.00  0.00     0.016 A 
ATOM     33  C   UNL A   1      39.813  25.806  28.400  1.00  0.00     0.016 A 
ATOM     34  C   UNL A   1      41.622  27.949  28.495  1.00  0.00     0.010 A 
ATOM     35  C   UNL A   1      39.658  26.819  29.358  1.00  0.00     0.010 A 
ATOM     36  C   UNL A   1      40.591  27.869  29.441  1.00  0.00    -0.014 A 
BRANCH  36  37
ATOM     37  C   UNL A   1      40.606  28.806  30.596  1.00  0.00     0.031 A 
ATOM     38  C   UNL A   1      39.597  29.925  30.655  1.00  0.00     0.074 A 
ATOM     39  C   UNL A   1      41.452  28.614  31.624  1.00  0.00     0.049 A 
ATOM     40  N   UNL A   1      39.392  30.808  31.598  1.00  0.00    -0.248 NA
ATOM     41  C   UNL A   1      38.697  30.063  29.498  1.00  0.00     0.031 C 
ATOM     42  C   UNL A   1      42.455  27.553  31.704  1.00  0.00     0.029 A 
ATOM     43  N   UNL A   1      41.592  29.301  32.804  1.00  0.00    -0.354 N 
ATOM     44  C   UNL A   1      38.339  31.602  31.156  1.00  0.00     0.074 A 
ATOM     45  C   UNL A   1      37.974  31.121  29.841  1.00  0.00     0.031 C 
ATOM     46  C   UNL A   1      43.109  27.659  32.875  1.00  0.00     0.029 A 
ATOM     47  C   UNL A   1      42.582  28.802  33.618  1.00  0.00     0.049 A 
ATOM     48  H   UNL A   1      41.037  30.077  33.045  1.00  0.00     0.167 HD
ATOM     49  C   UNL A   1      37.721  32.628  31.790  1.00  0.00     0.037 A 
ATOM     50  C   UNL A   1      43.017  29.221  34.824  1.00  0.00     0.037 A 
ATOM     51  C   UNL A   1      38.080  33.108  33.101  1.00  0.00     0.049 A 
ATOM     52  C   UNL A   1      42.341  30.390  35.492  1.00  0.00     0.074 A 
ATOM     53  C   UNL A   1      37.505  34.136  33.828  1.00  0.00     0.029 A 
ATOM     54  N   UNL A   1      39.107  32.595  33.878  1.00  0.00    -0.354 N 
ATOM     55  N   UNL A   1      41.335  31.116  35.067  1.00  0.00    -0.248 NA
ATOM     56  C   UNL A   1      42.856  30.789  36.811  1.00  0.00     0.031 C 
ATOM     57  C   UNL A   1      38.210  34.270  35.031  1.00  0.00     0.029 A 
ATOM     58  C   UNL A   1      39.195  33.297  35.071  1.00  0.00     0.049 A 
ATOM     59  H   UNL A   1      39.688  31.844  33.621  1.00  0.00     0.167 HD
ATOM     60  C   UNL A   1      41.082  32.042  36.075  1.00  0.00     0.074 A 
ATOM     61  C   UNL A   1      42.033  31.775  37.135  1.00  0.00     0.031 C 
ATOM     62  C   UNL A   1      40.147  33.023  36.118  1.00  0.00     0.037 A 
BRANCH  49  63
ATOM     63  C   UNL A   1      36.596  33.314  31.066  1.00  0.00     0.058 A 
ATOM     64  C   UNL A   1      35.255  33.124  31.441  1.00  0.00     0.135 A 
ATOM     65  C   UNL A   1      36.860  34.193  30.004  1.00  0.00     0.135 A 
ATOM     66  F   UNL A   1      34.946  32.281  32.439  1.00  0.00    -0.206 F 
ATOM     67  C   UNL A   1      34.216  33.761  30.771  1.00  0.00     0.059 A 
ATOM     68  C   UNL A   1      35.838  34.859  29.335  1.00  0.00     0.059 A 
ATOM     69  F   UNL A   1      38.124  34.409  29.606  1.00  0.00    -0.206 F 
ATOM     70  C   UNL A   1      34.517  34.625  29.717  1.00  0.00     0.060 A 
BRANCH  70  71
ATOM     71  S   UNL A   1      33.160  35.443  28.852  1.00  0.00     0.124 S 
ATOM     72  O   UNL A   1      33.884  36.329  27.947  1.00  0.00    -0.237 OA
ATOM     73  O   UNL A   1      32.467  34.324  28.223  1.00  0.00    -0.237 OA
ATOM     74  O   UNL A   1      32.425  36.108  29.925  1.00  0.00    -0.744 OA
ENDBRANCH  70  71
ENDBRANCH  49  63
BRANCH  50  75
ATOM     75  C   UNL A   1      44.158  28.528  35.478  1.00  0.00     0.058 A 
ATOM     76  C   UNL A   1      43.949  27.507  36.417  1.00  0.00     0.135 A 
ATOM     77  C   UNL A   1      45.482  28.876  35.172  1.00  0.00     0.135 A 
ATOM     78  F   UNL A   1      42.700  27.147  36.751  1.00  0.00    -0.206 F 
ATOM     79  C   UNL A   1      45.013  26.865  37.041  1.00  0.00     0.059 A 
ATOM     80  C   UNL A   1      46.562  28.232  35.765  1.00  0.00     0.059 A 
ATOM     81  F   UNL A   1      45.733  29.840  34.272  1.00  0.00    -0.206 F 
ATOM     82  C   UNL A   1      46.317  27.233  36.707  1.00  0.00     0.060 A 
BRANCH  82  83
ATOM     83  S   UNL A   1      47.696  26.364  37.485  1.00  0.00     0.124 S 
ATOM     84  O   UNL A   1      48.091  25.438  36.430  1.00  0.00    -0.237 OA
ATOM     85  O   UNL A   1      48.629  27.452  37.763  1.00  0.00    -0.237 OA
ATOM     86  O   UNL A   1      47.085  25.757  38.663  1.00  0.00    -0.744 OA
ENDBRANCH  82  83
ENDBRANCH  50  75
BRANCH  62  87
ATOM     87  C   UNL A   1      40.088  33.867  37.362  1.00  0.00     0.058 A 
ATOM     88  C   UNL A   1      39.338  33.478  38.483  1.00  0.00     0.135 A 
ATOM     89  C   UNL A   1      40.815  35.066  37.446  1.00  0.00     0.135 A 
ATOM     90  F   UNL A   1      38.622  32.342  38.454  1.00  0.00    -0.206 F 
ATOM     91  C   UNL A   1      39.284  34.262  39.630  1.00  0.00     0.059 A 
ATOM     92  C   UNL A   1      40.795  35.854  38.593  1.00  0.00     0.059 A 
ATOM     93  F   UNL A   1      41.560  35.479  36.409  1.00  0.00    -0.206 F 
ATOM     94  C   UNL A   1      40.012  35.452  39.674  1.00  0.00     0.060 A 
BRANCH  94  95
ATOM     95  S   UNL A   1      39.944  36.458  41.172  1.00  0.00     0.124 S 
ATOM     96  O   UNL A   1      41.254  37.100  41.153  1.00  0.00    -0.237 OA
ATOM     97  O   UNL A   1      38.806  37.334  40.913  1.00  0.00    -0.237 OA
ATOM     98  O   UNL A   1      39.741  35.475  42.232  1.00  0.00    -0.744 OA
ENDBRANCH  94  95
ENDBRANCH  62  87
ENDBRANCH  36  37
ENDBRANCH  29  31
ENDBRANCH  28  29
ENDBRANCH  27  28
ENDBRANCH  26  27
ENDBRANCH  25  26
ENDBRANCH   1  25
TORSDOF 23
ENDMDL
