MODEL 1
REMARK VINA RESULT:     -10.1      0.000      0.000
REMARK SMILES [NH3+][C@@H](Cc1cn(-c2nc(Cl)nc(N3CCOCC3)n2)c2ccccc12)C(=O)OCCOCCOC(=O)c1ccc(-c2c3nc(c(-c4c(F)cc(S(=O)(=O)[O-])cc4F)c4ccc([nH]4)c(-c4c(F)cc(S(=O)(=O)[O-])cc4F)c4nc(c(-c5c(F)cc(S(=O)(=O)[O-])cc5F)c5ccc2[nH]5)C=C4)C=C3)cc1
REMARK SMILES IDX 30 1 29 2 28 3 26 4 27 5 2 6 1 7 3 11 4 12 5 13 25 14 6 15
REMARK SMILES IDX 20 16 24 17 21 18 23 19 22 20 7 21 8 22 19 23 9 24 12 25
REMARK SMILES IDX 10 26 11 27 13 28 14 29 18 30 15 31 17 32 16 33 31 34 32 35
REMARK SMILES IDX 33 36 34 37 35 38 36 39 37 40 38 41 102 42 39 43 101 44
REMARK SMILES IDX 40 45 41 46 42 47 95 48 43 49 100 50 94 51 96 52 44 53 99 54
REMARK SMILES IDX 93 55 92 56 45 58 79 59 58 60 78 61 59 62 62 63 77 64 97 65
REMARK SMILES IDX 60 66 61 67 76 69 98 70 63 71 46 72 47 73 56 74 48 75 49 76
REMARK SMILES IDX 55 77 57 78 50 79 51 80 52 81 53 82 54 83 80 84 81 85 90 86
REMARK SMILES IDX 82 87 83 88 89 89 91 90 84 91 85 92 86 93 87 94 88 95 64 96
REMARK SMILES IDX 65 97 74 98 66 99 67 100 73 101 75 102 68 103 69 104 70 105
REMARK SMILES IDX 71 106 72 107
REMARK H PARENT 1 8 1 9 1 10 96 57 62 68
REMARK Flexibility Score: inf
ROOT
ATOM      1  C   UNL A   1      43.561  18.859  25.400  1.00  0.00     0.202 C 
ENDROOT
BRANCH   1   2
ATOM      2  C   UNL A   1      44.579  19.086  24.281  1.00  0.00     0.261 C 
BRANCH   2   3
ATOM      3  O   UNL A   1      44.607  20.456  23.854  1.00  0.00    -0.459 OA
BRANCH   3   4
ATOM      4  C   UNL A   1      45.247  21.315  24.687  1.00  0.00     0.365 C 
ATOM      5  O   UNL A   1      46.399  21.180  25.087  1.00  0.00    -0.245 OA
BRANCH   4   6
ATOM      6  C   UNL A   1      44.393  22.531  25.052  1.00  0.00     0.296 C 
BRANCH   6   7
ATOM      7  N   UNL A   1      43.058  22.561  24.397  1.00  0.00    -0.346 N 
ATOM      8  H   UNL A   1      42.823  23.521  24.149  1.00  0.00     0.345 HD
ATOM      9  H   UNL A   1      42.356  22.195  25.040  1.00  0.00     0.345 HD
ATOM     10  H   UNL A   1      43.080  21.987  23.555  1.00  0.00     0.345 HD
ENDBRANCH   6   7
BRANCH   6  11
ATOM     11  C   UNL A   1      44.387  22.869  26.538  1.00  0.00     0.115 C 
BRANCH  11  12
ATOM     12  C   UNL A   1      44.980  24.135  27.104  1.00  0.00    -0.015 A 
ATOM     13  C   UNL A   1      45.608  24.092  28.337  1.00  0.00     0.099 A 
ATOM     14  C   UNL A   1      45.170  25.482  26.623  1.00  0.00     0.004 A 
ATOM     15  N   UNL A   1      46.040  25.343  28.692  1.00  0.00    -0.285 N 
ATOM     16  C   UNL A   1      45.832  26.207  27.632  1.00  0.00     0.056 A 
ATOM     17  C   UNL A   1      44.879  26.185  25.431  1.00  0.00     0.010 A 
ATOM     18  C   UNL A   1      46.249  27.543  27.463  1.00  0.00     0.027 A 
ATOM     19  C   UNL A   1      45.355  27.487  25.229  1.00  0.00     0.001 A 
ATOM     20  C   UNL A   1      46.030  28.160  26.236  1.00  0.00     0.002 A 
BRANCH  15  21
ATOM     21  C   UNL A   1      46.738  25.624  29.894  1.00  0.00     0.240 A 
ATOM     22  N   UNL A   1      47.965  26.120  29.825  1.00  0.00    -0.181 NA
ATOM     23  N   UNL A   1      46.090  25.323  31.023  1.00  0.00    -0.176 NA
ATOM     24  C   UNL A   1      48.428  26.470  31.016  1.00  0.00     0.228 A 
ATOM     25  C   UNL A   1      46.730  25.597  32.150  1.00  0.00     0.231 A 
ATOM     26  Cl  UNL A   1      49.976  27.190  31.039  1.00  0.00    -0.041 Cl
ATOM     27  N   UNL A   1      47.888  26.231  32.205  1.00  0.00    -0.182 NA
BRANCH  25  28
ATOM     28  N   UNL A   1      46.207  25.097  33.303  1.00  0.00    -0.336 N 
ATOM     29  C   UNL A   1      46.908  25.260  34.564  1.00  0.00     0.148 C 
ATOM     30  C   UNL A   1      45.011  24.277  33.281  1.00  0.00     0.148 C 
ATOM     31  C   UNL A   1      47.094  23.899  35.242  1.00  0.00     0.181 C 
ATOM     32  C   UNL A   1      45.309  22.955  34.014  1.00  0.00     0.181 C 
ATOM     33  O   UNL A   1      45.850  23.181  35.334  1.00  0.00    -0.378 OA
ENDBRANCH  25  28
ENDBRANCH  15  21
ENDBRANCH  11  12
ENDBRANCH   6  11
ENDBRANCH   4   6
ENDBRANCH   3   4
ENDBRANCH   2   3
ENDBRANCH   1   2
BRANCH   1  34
ATOM     34  O   UNL A   1      42.299  19.525  25.317  1.00  0.00    -0.374 OA
BRANCH  34  35
ATOM     35  C   UNL A   1      41.749  19.992  26.553  1.00  0.00     0.202 C 
BRANCH  35  36
ATOM     36  C   UNL A   1      40.416  20.755  26.467  1.00  0.00     0.261 C 
BRANCH  36  37
ATOM     37  O   UNL A   1      40.640  22.139  26.166  1.00  0.00    -0.460 OA
BRANCH  37  38
ATOM     38  C   UNL A   1      39.550  22.940  26.278  1.00  0.00     0.338 C 
ATOM     39  O   UNL A   1      38.380  22.612  26.180  1.00  0.00    -0.246 OA
BRANCH  38  40
ATOM     40  C   UNL A   1      40.027  24.196  26.888  1.00  0.00     0.060 A 
ATOM     41  C   UNL A   1      41.200  24.224  27.646  1.00  0.00     0.016 A 
ATOM     42  C   UNL A   1      39.122  25.263  26.928  1.00  0.00     0.016 A 
ATOM     43  C   UNL A   1      41.420  25.272  28.530  1.00  0.00     0.010 A 
ATOM     44  C   UNL A   1      39.355  26.323  27.796  1.00  0.00     0.010 A 
ATOM     45  C   UNL A   1      40.480  26.307  28.627  1.00  0.00    -0.014 A 
BRANCH  45  46
ATOM     46  C   UNL A   1      40.810  27.448  29.485  1.00  0.00     0.031 A 
ATOM     47  C   UNL A   1      41.840  28.370  28.905  1.00  0.00     0.074 A 
ATOM     48  C   UNL A   1      40.128  27.789  30.598  1.00  0.00     0.049 A 
ATOM     49  N   UNL A   1      42.950  28.790  29.420  1.00  0.00    -0.248 NA
ATOM     50  C   UNL A   1      41.630  28.802  27.511  1.00  0.00     0.031 C 
ATOM     51  C   UNL A   1      38.900  27.192  31.129  1.00  0.00     0.029 A 
ATOM     52  N   UNL A   1      40.329  28.853  31.427  1.00  0.00    -0.354 N 
ATOM     53  C   UNL A   1      43.503  29.667  28.485  1.00  0.00     0.074 A 
ATOM     54  C   UNL A   1      42.715  29.540  27.287  1.00  0.00     0.031 C 
ATOM     55  C   UNL A   1      38.343  28.044  32.020  1.00  0.00     0.029 A 
ATOM     56  C   UNL A   1      39.229  29.179  32.211  1.00  0.00     0.049 A 
ATOM     57  H   UNL A   1      41.180  29.347  31.467  1.00  0.00     0.167 HD
ATOM     58  C   UNL A   1      44.475  30.571  28.794  1.00  0.00     0.037 A 
ATOM     59  C   UNL A   1      39.025  30.347  32.875  1.00  0.00     0.037 A 
ATOM     60  C   UNL A   1      45.143  30.249  30.022  1.00  0.00     0.049 A 
ATOM     61  C   UNL A   1      40.347  31.012  33.024  1.00  0.00     0.074 A 
ATOM     62  C   UNL A   1      45.904  29.182  30.459  1.00  0.00     0.029 A 
ATOM     63  N   UNL A   1      44.805  30.947  31.156  1.00  0.00    -0.354 N 
ATOM     64  N   UNL A   1      41.324  30.555  33.757  1.00  0.00    -0.248 NA
ATOM     65  C   UNL A   1      40.731  31.977  32.003  1.00  0.00     0.031 C 
ATOM     66  C   UNL A   1      45.547  29.013  31.827  1.00  0.00     0.029 A 
ATOM     67  C   UNL A   1      44.629  30.014  32.147  1.00  0.00     0.049 A 
ATOM     68  H   UNL A   1      44.707  31.923  31.241  1.00  0.00     0.167 HD
ATOM     69  C   UNL A   1      42.475  30.846  33.039  1.00  0.00     0.074 A 
ATOM     70  C   UNL A   1      42.052  31.791  32.009  1.00  0.00     0.031 C 
ATOM     71  C   UNL A   1      43.608  30.095  33.165  1.00  0.00     0.037 A 
BRANCH  58  72
ATOM     72  C   UNL A   1      44.625  31.910  28.118  1.00  0.00     0.058 A 
ATOM     73  C   UNL A   1      45.779  32.195  27.362  1.00  0.00     0.135 A 
ATOM     74  C   UNL A   1      43.798  33.016  28.415  1.00  0.00     0.135 A 
ATOM     75  F   UNL A   1      46.641  31.218  27.034  1.00  0.00    -0.206 F 
ATOM     76  C   UNL A   1      46.118  33.495  26.982  1.00  0.00     0.059 A 
ATOM     77  C   UNL A   1      44.089  34.310  28.001  1.00  0.00     0.059 A 
ATOM     78  F   UNL A   1      42.722  32.903  29.206  1.00  0.00    -0.206 F 
ATOM     79  C   UNL A   1      45.274  34.548  27.323  1.00  0.00     0.060 A 
BRANCH  79  80
ATOM     80  S   UNL A   1      45.774  36.238  26.950  1.00  0.00     0.124 S 
ATOM     81  O   UNL A   1      44.482  36.907  26.843  1.00  0.00    -0.237 OA
ATOM     82  O   UNL A   1      46.577  36.583  28.118  1.00  0.00    -0.237 OA
ATOM     83  O   UNL A   1      46.518  36.101  25.702  1.00  0.00    -0.744 OA
ENDBRANCH  79  80
ENDBRANCH  58  72
BRANCH  59  84
ATOM     84  C   UNL A   1      37.745  31.095  33.022  1.00  0.00     0.058 A 
ATOM     85  C   UNL A   1      37.489  31.891  34.153  1.00  0.00     0.135 A 
ATOM     86  C   UNL A   1      36.870  31.275  31.930  1.00  0.00     0.135 A 
ATOM     87  F   UNL A   1      38.286  31.811  35.229  1.00  0.00    -0.206 F 
ATOM     88  C   UNL A   1      36.456  32.838  34.184  1.00  0.00     0.059 A 
ATOM     89  C   UNL A   1      35.828  32.200  31.942  1.00  0.00     0.059 A 
ATOM     90  F   UNL A   1      37.060  30.620  30.775  1.00  0.00    -0.206 F 
ATOM     91  C   UNL A   1      35.643  32.999  33.063  1.00  0.00     0.060 A 
BRANCH  91  92
ATOM     92  S   UNL A   1      34.421  34.331  33.028  1.00  0.00     0.124 S 
ATOM     93  O   UNL A   1      34.705  35.036  34.274  1.00  0.00    -0.237 OA
ATOM     94  O   UNL A   1      34.772  35.038  31.801  1.00  0.00    -0.237 OA
ATOM     95  O   UNL A   1      33.144  33.622  32.991  1.00  0.00    -0.744 OA
ENDBRANCH  91  92
ENDBRANCH  59  84
BRANCH  71  96
ATOM     96  C   UNL A   1      43.691  29.090  34.286  1.00  0.00     0.058 A 
ATOM     97  C   UNL A   1      44.097  29.403  35.595  1.00  0.00     0.135 A 
ATOM     98  C   UNL A   1      43.165  27.806  34.071  1.00  0.00     0.135 A 
ATOM     99  F   UNL A   1      44.510  30.638  35.913  1.00  0.00    -0.206 F 
ATOM    100  C   UNL A   1      44.017  28.474  36.634  1.00  0.00     0.059 A 
ATOM    101  C   UNL A   1      43.047  26.874  35.099  1.00  0.00     0.059 A 
ATOM    102  F   UNL A   1      42.702  27.464  32.858  1.00  0.00    -0.206 F 
ATOM    103  C   UNL A   1      43.481  27.213  36.379  1.00  0.00     0.060 A 
BRANCH 103 104
ATOM    104  S   UNL A   1      43.289  26.051  37.747  1.00  0.00     0.124 S 
ATOM    105  O   UNL A   1      44.107  24.923  37.315  1.00  0.00    -0.237 OA
ATOM    106  O   UNL A   1      43.805  26.811  38.884  1.00  0.00    -0.237 OA
ATOM    107  O   UNL A   1      41.850  25.798  37.786  1.00  0.00    -0.744 OA
ENDBRANCH 103 104
ENDBRANCH  71  96
ENDBRANCH  45  46
ENDBRANCH  38  40
ENDBRANCH  37  38
ENDBRANCH  36  37
ENDBRANCH  35  36
ENDBRANCH  34  35
ENDBRANCH   1  34
TORSDOF 22
ENDMDL
MODEL 2
REMARK VINA RESULT:      -9.9      1.270      2.095
REMARK SMILES [NH3+][C@@H](Cc1cn(-c2nc(Cl)nc(N3CCOCC3)n2)c2ccccc12)C(=O)OCCOCCOC(=O)c1ccc(-c2c3nc(c(-c4c(F)cc(S(=O)(=O)[O-])cc4F)c4ccc([nH]4)c(-c4c(F)cc(S(=O)(=O)[O-])cc4F)c4nc(c(-c5c(F)cc(S(=O)(=O)[O-])cc5F)c5ccc2[nH]5)C=C4)C=C3)cc1
REMARK SMILES IDX 30 1 29 2 28 3 26 4 27 5 2 6 1 7 3 11 4 12 5 13 25 14 6 15
REMARK SMILES IDX 20 16 24 17 21 18 23 19 22 20 7 21 8 22 19 23 9 24 12 25
REMARK SMILES IDX 10 26 11 27 13 28 14 29 18 30 15 31 17 32 16 33 31 34 32 35
REMARK SMILES IDX 33 36 34 37 35 38 36 39 37 40 38 41 102 42 39 43 101 44
REMARK SMILES IDX 40 45 41 46 42 47 95 48 43 49 100 50 94 51 96 52 44 53 99 54
REMARK SMILES IDX 93 55 92 56 45 58 79 59 58 60 78 61 59 62 62 63 77 64 97 65
REMARK SMILES IDX 60 66 61 67 76 69 98 70 63 71 46 72 47 73 56 74 48 75 49 76
REMARK SMILES IDX 55 77 57 78 50 79 51 80 52 81 53 82 54 83 80 84 81 85 90 86
REMARK SMILES IDX 82 87 83 88 89 89 91 90 84 91 85 92 86 93 87 94 88 95 64 96
REMARK SMILES IDX 65 97 74 98 66 99 67 100 73 101 75 102 68 103 69 104 70 105
REMARK SMILES IDX 71 106 72 107
REMARK H PARENT 1 8 1 9 1 10 96 57 62 68
REMARK Flexibility Score: inf
ROOT
ATOM      1  C   UNL A   1      43.468  18.720  25.623  1.00  0.00     0.202 C 
ENDROOT
BRANCH   1   2
ATOM      2  C   UNL A   1      44.514  18.951  24.531  1.00  0.00     0.261 C 
BRANCH   2   3
ATOM      3  O   UNL A   1      44.480  20.298  24.035  1.00  0.00    -0.459 OA
BRANCH   3   4
ATOM      4  C   UNL A   1      45.179  21.206  24.761  1.00  0.00     0.365 C 
ATOM      5  O   UNL A   1      46.367  21.109  25.054  1.00  0.00    -0.245 OA
BRANCH   4   6
ATOM      6  C   UNL A   1      44.340  22.426  25.149  1.00  0.00     0.296 C 
BRANCH   6   7
ATOM      7  N   UNL A   1      42.986  22.458  24.533  1.00  0.00    -0.346 N 
ATOM      8  H   UNL A   1      42.289  22.627  25.256  1.00  0.00     0.345 HD
ATOM      9  H   UNL A   1      42.798  21.564  24.081  1.00  0.00     0.345 HD
ATOM     10  H   UNL A   1      42.947  23.205  23.840  1.00  0.00     0.345 HD
ENDBRANCH   6   7
BRANCH   6  11
ATOM     11  C   UNL A   1      44.379  22.766  26.634  1.00  0.00     0.115 C 
BRANCH  11  12
ATOM     12  C   UNL A   1      44.948  24.053  27.176  1.00  0.00    -0.015 A 
ATOM     13  C   UNL A   1      45.584  24.043  28.405  1.00  0.00     0.099 A 
ATOM     14  C   UNL A   1      45.106  25.397  26.672  1.00  0.00     0.004 A 
ATOM     15  N   UNL A   1      45.992  25.308  28.737  1.00  0.00    -0.285 N 
ATOM     16  C   UNL A   1      45.758  26.151  27.666  1.00  0.00     0.056 A 
ATOM     17  C   UNL A   1      44.792  26.074  25.471  1.00  0.00     0.010 A 
ATOM     18  C   UNL A   1      46.145  27.493  27.473  1.00  0.00     0.027 A 
ATOM     19  C   UNL A   1      45.238  27.383  25.246  1.00  0.00     0.001 A 
ATOM     20  C   UNL A   1      45.904  28.086  26.238  1.00  0.00     0.002 A 
BRANCH  15  21
ATOM     21  C   UNL A   1      46.691  25.623  29.930  1.00  0.00     0.240 A 
ATOM     22  N   UNL A   1      46.043  25.581  31.086  1.00  0.00    -0.181 NA
ATOM     23  N   UNL A   1      47.969  25.979  29.776  1.00  0.00    -0.176 NA
ATOM     24  C   UNL A   1      46.856  25.750  32.118  1.00  0.00     0.228 A 
ATOM     25  C   UNL A   1      48.632  26.259  30.888  1.00  0.00     0.231 A 
ATOM     26  Cl  UNL A   1      46.139  25.641  33.665  1.00  0.00    -0.041 Cl
ATOM     27  N   UNL A   1      48.135  26.102  32.102  1.00  0.00    -0.182 NA
BRANCH  25  28
ATOM     28  N   UNL A   1      49.855  26.842  30.756  1.00  0.00    -0.336 N 
ATOM     29  C   UNL A   1      50.110  28.158  31.313  1.00  0.00     0.148 C 
ATOM     30  C   UNL A   1      50.887  26.226  29.945  1.00  0.00     0.148 C 
ATOM     31  C   UNL A   1      50.665  29.089  30.230  1.00  0.00     0.181 C 
ATOM     32  C   UNL A   1      51.388  27.260  28.919  1.00  0.00     0.181 C 
ATOM     33  O   UNL A   1      51.787  28.496  29.550  1.00  0.00    -0.378 OA
ENDBRANCH  25  28
ENDBRANCH  15  21
ENDBRANCH  11  12
ENDBRANCH   6  11
ENDBRANCH   4   6
ENDBRANCH   3   4
ENDBRANCH   2   3
ENDBRANCH   1   2
BRANCH   1  34
ATOM     34  O   UNL A   1      42.230  19.430  25.540  1.00  0.00    -0.374 OA
BRANCH  34  35
ATOM     35  C   UNL A   1      41.719  19.953  26.771  1.00  0.00     0.202 C 
BRANCH  35  36
ATOM     36  C   UNL A   1      40.419  20.770  26.682  1.00  0.00     0.261 C 
BRANCH  36  37
ATOM     37  O   UNL A   1      40.698  22.136  26.346  1.00  0.00    -0.460 OA
BRANCH  37  38
ATOM     38  C   UNL A   1      39.617  22.957  26.313  1.00  0.00     0.338 C 
ATOM     39  O   UNL A   1      38.457  22.641  26.116  1.00  0.00    -0.246 OA
BRANCH  38  40
ATOM     40  C   UNL A   1      40.057  24.234  26.908  1.00  0.00     0.060 A 
ATOM     41  C   UNL A   1      41.287  24.334  27.563  1.00  0.00     0.016 A 
ATOM     42  C   UNL A   1      39.087  25.232  27.049  1.00  0.00     0.016 A 
ATOM     43  C   UNL A   1      41.509  25.380  28.447  1.00  0.00     0.010 A 
ATOM     44  C   UNL A   1      39.319  26.292  27.918  1.00  0.00     0.010 A 
ATOM     45  C   UNL A   1      40.511  26.343  28.649  1.00  0.00    -0.014 A 
BRANCH  45  46
ATOM     46  C   UNL A   1      40.834  27.491  29.501  1.00  0.00     0.031 A 
ATOM     47  C   UNL A   1      41.855  28.418  28.914  1.00  0.00     0.074 A 
ATOM     48  C   UNL A   1      40.151  27.832  30.614  1.00  0.00     0.049 A 
ATOM     49  N   UNL A   1      42.964  28.849  29.424  1.00  0.00    -0.248 NA
ATOM     50  C   UNL A   1      41.639  28.842  27.518  1.00  0.00     0.031 C 
ATOM     51  C   UNL A   1      38.929  27.228  31.149  1.00  0.00     0.029 A 
ATOM     52  N   UNL A   1      40.346  28.901  31.437  1.00  0.00    -0.354 N 
ATOM     53  C   UNL A   1      43.507  29.726  28.485  1.00  0.00     0.074 A 
ATOM     54  C   UNL A   1      42.718  29.587  27.289  1.00  0.00     0.031 C 
ATOM     55  C   UNL A   1      38.367  28.079  32.038  1.00  0.00     0.029 A 
ATOM     56  C   UNL A   1      39.245  29.222  32.221  1.00  0.00     0.049 A 
ATOM     57  H   UNL A   1      41.194  29.401  31.473  1.00  0.00     0.167 HD
ATOM     58  C   UNL A   1      44.473  30.639  28.787  1.00  0.00     0.037 A 
ATOM     59  C   UNL A   1      39.034  30.392  32.881  1.00  0.00     0.037 A 
ATOM     60  C   UNL A   1      45.146  30.328  30.015  1.00  0.00     0.049 A 
ATOM     61  C   UNL A   1      40.350  31.068  33.023  1.00  0.00     0.074 A 
ATOM     62  C   UNL A   1      45.916  29.269  30.456  1.00  0.00     0.029 A 
ATOM     63  N   UNL A   1      44.805  31.028  31.146  1.00  0.00    -0.354 N 
ATOM     64  N   UNL A   1      41.332  30.621  33.757  1.00  0.00    -0.248 NA
ATOM     65  C   UNL A   1      40.724  32.031  31.997  1.00  0.00     0.031 C 
ATOM     66  C   UNL A   1      45.564  29.104  31.825  1.00  0.00     0.029 A 
ATOM     67  C   UNL A   1      44.638  30.099  32.142  1.00  0.00     0.049 A 
ATOM     68  H   UNL A   1      44.700  32.004  31.227  1.00  0.00     0.167 HD
ATOM     69  C   UNL A   1      42.479  30.918  33.035  1.00  0.00     0.074 A 
ATOM     70  C   UNL A   1      42.047  31.856  32.001  1.00  0.00     0.031 C 
ATOM     71  C   UNL A   1      43.618  30.177  33.162  1.00  0.00     0.037 A 
BRANCH  58  72
ATOM     72  C   UNL A   1      44.611  31.976  28.104  1.00  0.00     0.058 A 
ATOM     73  C   UNL A   1      45.751  32.258  27.327  1.00  0.00     0.135 A 
ATOM     74  C   UNL A   1      43.789  33.083  28.413  1.00  0.00     0.135 A 
ATOM     75  F   UNL A   1      46.607  31.281  26.988  1.00  0.00    -0.206 F 
ATOM     76  C   UNL A   1      46.084  33.557  26.938  1.00  0.00     0.059 A 
ATOM     77  C   UNL A   1      44.073  34.376  27.990  1.00  0.00     0.059 A 
ATOM     78  F   UNL A   1      42.727  32.972  29.222  1.00  0.00    -0.206 F 
ATOM     79  C   UNL A   1      45.246  34.612  27.290  1.00  0.00     0.060 A 
BRANCH  79  80
ATOM     80  S   UNL A   1      45.740  36.300  26.903  1.00  0.00     0.124 S 
ATOM     81  O   UNL A   1      46.675  36.085  25.804  1.00  0.00    -0.237 OA
ATOM     82  O   UNL A   1      44.466  36.916  26.546  1.00  0.00    -0.237 OA
ATOM     83  O   UNL A   1      46.330  36.773  28.151  1.00  0.00    -0.744 OA
ENDBRANCH  79  80
ENDBRANCH  58  72
BRANCH  59  84
ATOM     84  C   UNL A   1      37.748  31.131  33.027  1.00  0.00     0.058 A 
ATOM     85  C   UNL A   1      37.482  31.920  34.160  1.00  0.00     0.135 A 
ATOM     86  C   UNL A   1      36.875  31.309  31.933  1.00  0.00     0.135 A 
ATOM     87  F   UNL A   1      38.277  31.840  35.239  1.00  0.00    -0.206 F 
ATOM     88  C   UNL A   1      36.444  32.860  34.192  1.00  0.00     0.059 A 
ATOM     89  C   UNL A   1      35.827  32.227  31.945  1.00  0.00     0.059 A 
ATOM     90  F   UNL A   1      37.073  30.660  30.775  1.00  0.00    -0.206 F 
ATOM     91  C   UNL A   1      35.633  33.020  33.069  1.00  0.00     0.060 A 
BRANCH  91  92
ATOM     92  S   UNL A   1      34.401  34.344  33.036  1.00  0.00     0.124 S 
ATOM     93  O   UNL A   1      33.150  33.597  33.110  1.00  0.00    -0.237 OA
ATOM     94  O   UNL A   1      34.753  35.119  34.222  1.00  0.00    -0.237 OA
ATOM     95  O   UNL A   1      34.653  35.012  31.762  1.00  0.00    -0.744 OA
ENDBRANCH  91  92
ENDBRANCH  59  84
BRANCH  71  96
ATOM     96  C   UNL A   1      43.712  29.178  34.287  1.00  0.00     0.058 A 
ATOM     97  C   UNL A   1      44.132  29.498  35.590  1.00  0.00     0.135 A 
ATOM     98  C   UNL A   1      43.182  27.893  34.086  1.00  0.00     0.135 A 
ATOM     99  F   UNL A   1      44.551  30.733  35.897  1.00  0.00    -0.206 F 
ATOM    100  C   UNL A   1      44.062  28.574  36.635  1.00  0.00     0.059 A 
ATOM    101  C   UNL A   1      43.072  26.967  35.120  1.00  0.00     0.059 A 
ATOM    102  F   UNL A   1      42.705  27.545  32.879  1.00  0.00    -0.206 F 
ATOM    103  C   UNL A   1      43.521  27.312  36.393  1.00  0.00     0.060 A 
BRANCH 103 104
ATOM    104  S   UNL A   1      43.341  26.159  37.769  1.00  0.00     0.124 S 
ATOM    105  O   UNL A   1      41.892  26.046  37.893  1.00  0.00    -0.237 OA
ATOM    106  O   UNL A   1      44.030  24.968  37.278  1.00  0.00    -0.237 OA
ATOM    107  O   UNL A   1      44.010  26.837  38.878  1.00  0.00    -0.744 OA
ENDBRANCH 103 104
ENDBRANCH  71  96
ENDBRANCH  45  46
ENDBRANCH  38  40
ENDBRANCH  37  38
ENDBRANCH  36  37
ENDBRANCH  35  36
ENDBRANCH  34  35
ENDBRANCH   1  34
TORSDOF 22
ENDMDL
MODEL 3
REMARK VINA RESULT:      -9.6      1.664      3.369
REMARK SMILES [NH3+][C@@H](Cc1cn(-c2nc(Cl)nc(N3CCOCC3)n2)c2ccccc12)C(=O)OCCOCCOC(=O)c1ccc(-c2c3nc(c(-c4c(F)cc(S(=O)(=O)[O-])cc4F)c4ccc([nH]4)c(-c4c(F)cc(S(=O)(=O)[O-])cc4F)c4nc(c(-c5c(F)cc(S(=O)(=O)[O-])cc5F)c5ccc2[nH]5)C=C4)C=C3)cc1
REMARK SMILES IDX 30 1 29 2 28 3 26 4 27 5 2 6 1 7 3 11 4 12 5 13 25 14 6 15
REMARK SMILES IDX 20 16 24 17 21 18 23 19 22 20 7 21 8 22 19 23 9 24 12 25
REMARK SMILES IDX 10 26 11 27 13 28 14 29 18 30 15 31 17 32 16 33 31 34 32 35
REMARK SMILES IDX 33 36 34 37 35 38 36 39 37 40 38 41 102 42 39 43 101 44
REMARK SMILES IDX 40 45 41 46 42 47 95 48 43 49 100 50 94 51 96 52 44 53 99 54
REMARK SMILES IDX 93 55 92 56 45 58 79 59 58 60 78 61 59 62 62 63 77 64 97 65
REMARK SMILES IDX 60 66 61 67 76 69 98 70 63 71 46 72 47 73 56 74 48 75 49 76
REMARK SMILES IDX 55 77 57 78 50 79 51 80 52 81 53 82 54 83 80 84 81 85 90 86
REMARK SMILES IDX 82 87 83 88 89 89 91 90 84 91 85 92 86 93 87 94 88 95 64 96
REMARK SMILES IDX 65 97 74 98 66 99 67 100 73 101 75 102 68 103 69 104 70 105
REMARK SMILES IDX 71 106 72 107
REMARK H PARENT 1 8 1 9 1 10 96 57 62 68
REMARK Flexibility Score: inf
ROOT
ATOM      1  C   UNL A   1      43.242  18.259  25.976  1.00  0.00     0.202 C 
ENDROOT
BRANCH   1   2
ATOM      2  C   UNL A   1      44.284  18.761  24.975  1.00  0.00     0.261 C 
BRANCH   2   3
ATOM      3  O   UNL A   1      43.955  20.063  24.468  1.00  0.00    -0.459 OA
BRANCH   3   4
ATOM      4  C   UNL A   1      44.845  21.045  24.756  1.00  0.00     0.365 C 
ATOM      5  O   UNL A   1      46.054  20.982  24.552  1.00  0.00    -0.245 OA
BRANCH   4   6
ATOM      6  C   UNL A   1      44.179  22.299  25.326  1.00  0.00     0.296 C 
BRANCH   6   7
ATOM      7  N   UNL A   1      42.915  22.686  24.643  1.00  0.00    -0.346 N 
ATOM      8  H   UNL A   1      42.418  21.846  24.349  1.00  0.00     0.345 HD
ATOM      9  H   UNL A   1      43.133  23.255  23.825  1.00  0.00     0.345 HD
ATOM     10  H   UNL A   1      42.332  23.221  25.285  1.00  0.00     0.345 HD
ENDBRANCH   6   7
BRANCH   6  11
ATOM     11  C   UNL A   1      44.125  22.343  26.849  1.00  0.00     0.115 C 
BRANCH  11  12
ATOM     12  C   UNL A   1      44.967  23.274  27.683  1.00  0.00    -0.015 A 
ATOM     13  C   UNL A   1      46.021  23.945  27.087  1.00  0.00     0.099 A 
ATOM     14  C   UNL A   1      44.909  23.775  29.036  1.00  0.00     0.004 A 
ATOM     15  N   UNL A   1      46.684  24.705  28.014  1.00  0.00    -0.285 N 
ATOM     16  C   UNL A   1      45.989  24.662  29.209  1.00  0.00     0.056 A 
ATOM     17  C   UNL A   1      44.051  23.602  30.146  1.00  0.00     0.010 A 
ATOM     18  C   UNL A   1      46.188  25.397  30.395  1.00  0.00     0.027 A 
ATOM     19  C   UNL A   1      44.201  24.383  31.299  1.00  0.00     0.001 A 
ATOM     20  C   UNL A   1      45.260  25.268  31.424  1.00  0.00     0.002 A 
BRANCH  15  21
ATOM     21  C   UNL A   1      47.800  25.524  27.709  1.00  0.00     0.240 A 
ATOM     22  N   UNL A   1      48.278  26.335  28.643  1.00  0.00    -0.181 NA
ATOM     23  N   UNL A   1      48.264  25.430  26.460  1.00  0.00    -0.176 NA
ATOM     24  C   UNL A   1      49.405  26.920  28.265  1.00  0.00     0.228 A 
ATOM     25  C   UNL A   1      49.317  26.181  26.173  1.00  0.00     0.231 A 
ATOM     26  Cl  UNL A   1      50.151  27.933  29.420  1.00  0.00    -0.041 Cl
ATOM     27  N   UNL A   1      49.969  26.907  27.063  1.00  0.00    -0.182 NA
BRANCH  25  28
ATOM     28  N   UNL A   1      49.671  26.285  24.863  1.00  0.00    -0.336 N 
ATOM     29  C   UNL A   1      51.057  26.496  24.487  1.00  0.00     0.148 C 
ATOM     30  C   UNL A   1      48.662  26.324  23.822  1.00  0.00     0.148 C 
ATOM     31  C   UNL A   1      51.175  27.721  23.575  1.00  0.00     0.181 C 
ATOM     32  C   UNL A   1      48.899  27.575  22.955  1.00  0.00     0.181 C 
ATOM     33  O   UNL A   1      50.257  27.645  22.469  1.00  0.00    -0.378 OA
ENDBRANCH  25  28
ENDBRANCH  15  21
ENDBRANCH  11  12
ENDBRANCH   6  11
ENDBRANCH   4   6
ENDBRANCH   3   4
ENDBRANCH   2   3
ENDBRANCH   1   2
BRANCH   1  34
ATOM     34  O   UNL A   1      41.876  18.635  25.781  1.00  0.00    -0.374 OA
BRANCH  34  35
ATOM     35  C   UNL A   1      41.333  19.555  26.734  1.00  0.00     0.202 C 
BRANCH  35  36
ATOM     36  C   UNL A   1      40.204  20.472  26.235  1.00  0.00     0.261 C 
BRANCH  36  37
ATOM     37  O   UNL A   1      40.587  21.851  26.334  1.00  0.00    -0.460 OA
BRANCH  37  38
ATOM     38  C   UNL A   1      39.584  22.746  26.143  1.00  0.00     0.338 C 
ATOM     39  O   UNL A   1      38.430  22.505  25.833  1.00  0.00    -0.246 OA
BRANCH  38  40
ATOM     40  C   UNL A   1      40.057  24.018  26.722  1.00  0.00     0.060 A 
ATOM     41  C   UNL A   1      41.236  24.072  27.469  1.00  0.00     0.016 A 
ATOM     42  C   UNL A   1      39.144  25.079  26.747  1.00  0.00     0.016 A 
ATOM     43  C   UNL A   1      41.455  25.139  28.328  1.00  0.00     0.010 A 
ATOM     44  C   UNL A   1      39.375  26.159  27.590  1.00  0.00     0.010 A 
ATOM     45  C   UNL A   1      40.508  26.169  28.412  1.00  0.00    -0.014 A 
BRANCH  45  46
ATOM     46  C   UNL A   1      40.836  27.331  29.243  1.00  0.00     0.031 A 
ATOM     47  C   UNL A   1      41.926  28.194  28.682  1.00  0.00     0.074 A 
ATOM     48  C   UNL A   1      40.112  27.738  30.306  1.00  0.00     0.049 A 
ATOM     49  N   UNL A   1      43.024  28.595  29.237  1.00  0.00    -0.248 NA
ATOM     50  C   UNL A   1      41.801  28.578  27.264  1.00  0.00     0.031 C 
ATOM     51  C   UNL A   1      38.839  27.205  30.795  1.00  0.00     0.029 A 
ATOM     52  N   UNL A   1      40.310  28.826  31.104  1.00  0.00    -0.354 N 
ATOM     53  C   UNL A   1      43.653  29.416  28.299  1.00  0.00     0.074 A 
ATOM     54  C   UNL A   1      42.922  29.269  27.068  1.00  0.00     0.031 C 
ATOM     55  C   UNL A   1      38.269  28.109  31.625  1.00  0.00     0.029 A 
ATOM     56  C   UNL A   1      39.186  29.220  31.818  1.00  0.00     0.049 A 
ATOM     57  H   UNL A   1      41.176  29.291  31.169  1.00  0.00     0.167 HD
ATOM     58  C   UNL A   1      44.641  30.296  28.623  1.00  0.00     0.037 A 
ATOM     59  C   UNL A   1      38.992  30.419  32.428  1.00  0.00     0.037 A 
ATOM     60  C   UNL A   1      45.235  30.000  29.895  1.00  0.00     0.049 A 
ATOM     61  C   UNL A   1      40.327  31.044  32.618  1.00  0.00     0.074 A 
ATOM     62  C   UNL A   1      45.935  28.925  30.409  1.00  0.00     0.029 A 
ATOM     63  N   UNL A   1      44.867  30.753  30.983  1.00  0.00    -0.354 N 
ATOM     64  N   UNL A   1      41.250  30.582  33.417  1.00  0.00    -0.248 NA
ATOM     65  C   UNL A   1      40.796  31.954  31.583  1.00  0.00     0.031 C 
ATOM     66  C   UNL A   1      45.505  28.822  31.763  1.00  0.00     0.029 A 
ATOM     67  C   UNL A   1      44.609  29.865  31.998  1.00  0.00     0.049 A 
ATOM     68  H   UNL A   1      44.801  31.734  31.027  1.00  0.00     0.167 HD
ATOM     69  C   UNL A   1      42.444  30.805  32.748  1.00  0.00     0.074 A 
ATOM     70  C   UNL A   1      42.108  31.724  31.663  1.00  0.00     0.031 C 
ATOM     71  C   UNL A   1      43.542  30.021  32.959  1.00  0.00     0.037 A 
BRANCH  58  72
ATOM     72  C   UNL A   1      44.873  31.602  27.906  1.00  0.00     0.058 A 
ATOM     73  C   UNL A   1      46.091  31.837  27.240  1.00  0.00     0.135 A 
ATOM     74  C   UNL A   1      44.045  32.733  28.085  1.00  0.00     0.135 A 
ATOM     75  F   UNL A   1      46.960  30.834  27.029  1.00  0.00    -0.206 F 
ATOM     76  C   UNL A   1      46.486  33.114  26.837  1.00  0.00     0.059 A 
ATOM     77  C   UNL A   1      44.394  34.003  27.643  1.00  0.00     0.059 A 
ATOM     78  F   UNL A   1      42.903  32.670  28.785  1.00  0.00    -0.206 F 
ATOM     79  C   UNL A   1      45.636  34.194  27.059  1.00  0.00     0.060 A 
BRANCH  79  80
ATOM     80  S   UNL A   1      46.198  35.858  26.659  1.00  0.00     0.124 S 
ATOM     81  O   UNL A   1      46.758  35.663  25.326  1.00  0.00    -0.237 OA
ATOM     82  O   UNL A   1      44.957  36.622  26.725  1.00  0.00    -0.237 OA
ATOM     83  O   UNL A   1      47.164  36.149  27.713  1.00  0.00    -0.744 OA
ENDBRANCH  79  80
ENDBRANCH  58  72
BRANCH  59  84
ATOM     84  C   UNL A   1      37.734  31.216  32.481  1.00  0.00     0.058 A 
ATOM     85  C   UNL A   1      37.261  31.756  33.691  1.00  0.00     0.135 A 
ATOM     86  C   UNL A   1      37.124  31.705  31.307  1.00  0.00     0.135 A 
ATOM     87  F   UNL A   1      37.801  31.372  34.858  1.00  0.00    -0.206 F 
ATOM     88  C   UNL A   1      36.276  32.751  33.733  1.00  0.00     0.059 A 
ATOM     89  C   UNL A   1      36.133  32.685  31.323  1.00  0.00     0.059 A 
ATOM     90  F   UNL A   1      37.541  31.314  30.094  1.00  0.00    -0.206 F 
ATOM     91  C   UNL A   1      35.732  33.225  32.539  1.00  0.00     0.060 A 
BRANCH  91  92
ATOM     92  S   UNL A   1      34.588  34.625  32.571  1.00  0.00     0.124 S 
ATOM     93  O   UNL A   1      35.340  35.614  33.336  1.00  0.00    -0.237 OA
ATOM     94  O   UNL A   1      34.416  34.913  31.151  1.00  0.00    -0.237 OA
ATOM     95  O   UNL A   1      33.408  34.085  33.241  1.00  0.00    -0.744 OA
ENDBRANCH  91  92
ENDBRANCH  59  84
BRANCH  71  96
ATOM     96  C   UNL A   1      43.533  29.058  34.119  1.00  0.00     0.058 A 
ATOM     97  C   UNL A   1      43.850  29.417  35.442  1.00  0.00     0.135 A 
ATOM     98  C   UNL A   1      43.008  27.772  33.916  1.00  0.00     0.135 A 
ATOM     99  F   UNL A   1      44.256  30.658  35.742  1.00  0.00    -0.206 F 
ATOM    100  C   UNL A   1      43.685  28.528  36.506  1.00  0.00     0.059 A 
ATOM    101  C   UNL A   1      42.805  26.881  34.966  1.00  0.00     0.059 A 
ATOM    102  F   UNL A   1      42.626  27.389  32.685  1.00  0.00    -0.206 F 
ATOM    103  C   UNL A   1      43.152  27.263  36.260  1.00  0.00     0.060 A 
BRANCH 103 104
ATOM    104  S   UNL A   1      42.849  26.156  37.653  1.00  0.00     0.124 S 
ATOM    105  O   UNL A   1      43.652  26.761  38.711  1.00  0.00    -0.237 OA
ATOM    106  O   UNL A   1      41.401  26.250  37.824  1.00  0.00    -0.237 OA
ATOM    107  O   UNL A   1      43.325  24.860  37.174  1.00  0.00    -0.744 OA
ENDBRANCH 103 104
ENDBRANCH  71  96
ENDBRANCH  45  46
ENDBRANCH  38  40
ENDBRANCH  37  38
ENDBRANCH  36  37
ENDBRANCH  35  36
ENDBRANCH  34  35
ENDBRANCH   1  34
TORSDOF 22
ENDMDL
