MODEL 1
REMARK VINA RESULT:     -12.1      0.000      0.000
REMARK SMILES O=C(OCCOCCOC(=O)c1nnn(-c2ccc(C(F)(F)F)cc2)c1-c1cccc(Cl)c1)c1ccc(-c2c3nc(c(-c4c(F)cc(S(=O)(=O)[O-])cc4F)c4ccc([nH]4)c(-c4c(F)cc(S(=O)(=O)[O-])cc4F)c4nc(c(-c5c(F)cc(S(=O)(=O)[O-])cc5F)c5ccc2[nH]5)C=C4)C=C3)cc1
REMARK SMILES IDX 5 1 4 2 3 3 2 4 1 5 34 6 35 7 99 8 36 9 98 10 37 11 38 12
REMARK SMILES IDX 39 13 92 14 40 15 97 16 91 17 93 18 41 19 96 20 90 21 89 22
REMARK SMILES IDX 42 24 76 25 55 26 75 27 56 28 59 29 74 30 94 31 57 32 58 33
REMARK SMILES IDX 73 35 95 36 60 37 43 38 44 39 53 40 45 41 46 42 52 43 54 44
REMARK SMILES IDX 47 45 48 46 49 47 50 48 51 49 77 50 78 51 87 52 79 53 80 54
REMARK SMILES IDX 86 55 88 56 81 57 82 58 83 59 84 60 85 61 61 62 62 63 71 64
REMARK SMILES IDX 63 65 64 66 70 67 72 68 65 69 66 70 67 71 68 72 69 73 6 74
REMARK SMILES IDX 7 75 8 76 9 77 10 78 11 79 12 80 13 81 26 82 14 83 15 84
REMARK SMILES IDX 27 85 28 86 33 87 29 88 31 89 30 90 32 91 16 92 17 93 25 94
REMARK SMILES IDX 18 95 24 96 19 97 20 98 21 99 22 100 23 101
REMARK H PARENT 93 23 59 34
REMARK Flexibility Score: inf
ROOT
ATOM      1  C   UNL A   1      32.087  29.834  25.622  1.00  0.00     0.202 C 
ENDROOT
BRANCH   1   2
ATOM      2  C   UNL A   1      32.624  30.508  26.881  1.00  0.00     0.261 C 
BRANCH   2   3
ATOM      3  O   UNL A   1      34.064  30.456  26.968  1.00  0.00    -0.460 OA
BRANCH   3   4
ATOM      4  C   UNL A   1      34.802  31.326  27.698  1.00  0.00     0.338 C 
ATOM      5  O   UNL A   1      34.324  32.382  28.101  1.00  0.00    -0.246 OA
BRANCH   4   6
ATOM      6  C   UNL A   1      36.073  30.819  28.264  1.00  0.00     0.060 A 
ATOM      7  C   UNL A   1      37.053  31.625  28.841  1.00  0.00     0.016 A 
ATOM      8  C   UNL A   1      36.299  29.440  28.141  1.00  0.00     0.016 A 
ATOM      9  C   UNL A   1      38.319  31.120  29.061  1.00  0.00     0.010 A 
ATOM     10  C   UNL A   1      37.545  28.911  28.443  1.00  0.00     0.010 A 
ATOM     11  C   UNL A   1      38.576  29.773  28.812  1.00  0.00    -0.014 A 
BRANCH  11  12
ATOM     12  C   UNL A   1      39.942  29.314  29.033  1.00  0.00     0.031 A 
ATOM     13  C   UNL A   1      40.382  29.279  30.457  1.00  0.00     0.074 A 
ATOM     14  C   UNL A   1      40.727  28.866  28.036  1.00  0.00     0.049 A 
ATOM     15  N   UNL A   1      41.390  29.873  31.011  1.00  0.00    -0.248 NA
ATOM     16  C   UNL A   1      39.514  28.564  31.406  1.00  0.00     0.031 C 
ATOM     17  C   UNL A   1      40.350  28.583  26.650  1.00  0.00     0.029 A 
ATOM     18  N   UNL A   1      42.021  28.448  28.099  1.00  0.00    -0.354 N 
ATOM     19  C   UNL A   1      41.394  29.456  32.341  1.00  0.00     0.074 A 
ATOM     20  C   UNL A   1      40.149  28.766  32.558  1.00  0.00     0.031 C 
ATOM     21  C   UNL A   1      41.308  27.821  26.080  1.00  0.00     0.029 A 
ATOM     22  C   UNL A   1      42.411  27.677  27.015  1.00  0.00     0.049 A 
ATOM     23  H   UNL A   1      42.624  28.674  28.844  1.00  0.00     0.167 HD
ATOM     24  C   UNL A   1      42.503  29.535  33.128  1.00  0.00     0.037 A 
ATOM     25  C   UNL A   1      43.516  26.897  26.939  1.00  0.00     0.037 A 
ATOM     26  C   UNL A   1      43.454  30.488  32.623  1.00  0.00     0.049 A 
ATOM     27  C   UNL A   1      44.477  27.374  27.967  1.00  0.00     0.074 A 
ATOM     28  C   UNL A   1      43.420  31.846  32.369  1.00  0.00     0.029 A 
ATOM     29  N   UNL A   1      44.576  30.019  31.985  1.00  0.00    -0.354 N 
ATOM     30  N   UNL A   1      45.089  28.525  27.928  1.00  0.00    -0.248 NA
ATOM     31  C   UNL A   1      44.458  26.727  29.271  1.00  0.00     0.031 C 
ATOM     32  C   UNL A   1      44.234  32.029  31.214  1.00  0.00     0.029 A 
ATOM     33  C   UNL A   1      44.738  30.779  30.854  1.00  0.00     0.049 A 
ATOM     34  H   UNL A   1      45.153  29.280  32.283  1.00  0.00     0.167 HD
ATOM     35  C   UNL A   1      45.168  28.935  29.252  1.00  0.00     0.074 A 
ATOM     36  C   UNL A   1      44.863  27.743  30.035  1.00  0.00     0.031 C 
ATOM     37  C   UNL A   1      45.205  30.259  29.587  1.00  0.00     0.037 A 
BRANCH  24  38
ATOM     38  C   UNL A   1      42.850  28.516  34.186  1.00  0.00     0.058 A 
ATOM     39  C   UNL A   1      43.052  28.926  35.520  1.00  0.00     0.135 A 
ATOM     40  C   UNL A   1      43.262  27.198  33.887  1.00  0.00     0.135 A 
ATOM     41  F   UNL A   1      42.711  30.163  35.915  1.00  0.00    -0.206 F 
ATOM     42  C   UNL A   1      43.679  28.110  36.465  1.00  0.00     0.059 A 
ATOM     43  C   UNL A   1      43.837  26.350  34.826  1.00  0.00     0.059 A 
ATOM     44  F   UNL A   1      43.220  26.703  32.642  1.00  0.00    -0.206 F 
ATOM     45  C   UNL A   1      44.085  26.830  36.099  1.00  0.00     0.060 A 
BRANCH  45  46
ATOM     46  S   UNL A   1      45.012  25.821  37.269  1.00  0.00     0.124 S 
ATOM     47  O   UNL A   1      46.209  25.512  36.496  1.00  0.00    -0.237 OA
ATOM     48  O   UNL A   1      45.191  26.738  38.389  1.00  0.00    -0.237 OA
ATOM     49  O   UNL A   1      44.116  24.697  37.524  1.00  0.00    -0.744 OA
ENDBRANCH  45  46
ENDBRANCH  24  38
BRANCH  25  50
ATOM     50  C   UNL A   1      43.637  25.576  26.269  1.00  0.00     0.058 A 
ATOM     51  C   UNL A   1      44.694  25.306  25.384  1.00  0.00     0.135 A 
ATOM     52  C   UNL A   1      42.871  24.466  26.681  1.00  0.00     0.135 A 
ATOM     53  F   UNL A   1      45.493  26.299  24.965  1.00  0.00    -0.206 F 
ATOM     54  C   UNL A   1      44.999  24.007  24.965  1.00  0.00     0.059 A 
ATOM     55  C   UNL A   1      43.143  23.166  26.261  1.00  0.00     0.059 A 
ATOM     56  F   UNL A   1      41.885  24.592  27.582  1.00  0.00    -0.206 F 
ATOM     57  C   UNL A   1      44.227  22.941  25.423  1.00  0.00     0.060 A 
BRANCH  57  58
ATOM     58  S   UNL A   1      44.720  21.248  25.027  1.00  0.00     0.124 S 
ATOM     59  O   UNL A   1      44.590  21.229  23.574  1.00  0.00    -0.237 OA
ATOM     60  O   UNL A   1      46.081  21.195  25.547  1.00  0.00    -0.237 OA
ATOM     61  O   UNL A   1      43.747  20.433  25.750  1.00  0.00    -0.744 OA
ENDBRANCH  57  58
ENDBRANCH  25  50
BRANCH  37  62
ATOM     62  C   UNL A   1      45.482  31.269  28.503  1.00  0.00     0.058 A 
ATOM     63  C   UNL A   1      44.515  31.736  27.595  1.00  0.00     0.135 A 
ATOM     64  C   UNL A   1      46.733  31.906  28.490  1.00  0.00     0.135 A 
ATOM     65  F   UNL A   1      43.262  31.260  27.616  1.00  0.00    -0.206 F 
ATOM     66  C   UNL A   1      44.793  32.760  26.689  1.00  0.00     0.059 A 
ATOM     67  C   UNL A   1      47.021  32.951  27.617  1.00  0.00     0.059 A 
ATOM     68  F   UNL A   1      47.678  31.550  29.377  1.00  0.00    -0.206 F 
ATOM     69  C   UNL A   1      46.049  33.365  26.709  1.00  0.00     0.060 A 
BRANCH  69  70
ATOM     70  S   UNL A   1      46.374  34.755  25.601  1.00  0.00     0.124 S 
ATOM     71  O   UNL A   1      46.034  35.900  26.438  1.00  0.00    -0.237 OA
ATOM     72  O   UNL A   1      47.793  34.593  25.294  1.00  0.00    -0.237 OA
ATOM     73  O   UNL A   1      45.473  34.512  24.477  1.00  0.00    -0.744 OA
ENDBRANCH  69  70
ENDBRANCH  37  62
ENDBRANCH  11  12
ENDBRANCH   4   6
ENDBRANCH   3   4
ENDBRANCH   2   3
ENDBRANCH   1   2
BRANCH   1  74
ATOM     74  O   UNL A   1      33.041  29.573  24.593  1.00  0.00    -0.374 OA
BRANCH  74  75
ATOM     75  C   UNL A   1      32.552  28.881  23.435  1.00  0.00     0.202 C 
BRANCH  75  76
ATOM     76  C   UNL A   1      32.029  27.454  23.645  1.00  0.00     0.261 C 
BRANCH  76  77
ATOM     77  O   UNL A   1      33.034  26.607  24.228  1.00  0.00    -0.458 OA
BRANCH  77  78
ATOM     78  C   UNL A   1      32.692  25.975  25.394  1.00  0.00     0.361 C 
ATOM     79  O   UNL A   1      32.639  26.501  26.485  1.00  0.00    -0.244 OA
BRANCH  78  80
ATOM     80  C   UNL A   1      32.303  24.596  25.143  1.00  0.00     0.198 A 
ATOM     81  N   UNL A   1      30.991  24.185  25.094  1.00  0.00    -0.122 NA
ATOM     82  C   UNL A   1      33.127  23.534  24.826  1.00  0.00     0.109 A 
ATOM     83  N   UNL A   1      30.972  22.904  24.744  1.00  0.00    -0.061 NA
ATOM     84  N   UNL A   1      32.247  22.464  24.755  1.00  0.00    -0.212 N 
BRANCH  82  85
ATOM     85  C   UNL A   1      34.568  23.471  24.599  1.00  0.00     0.004 A 
ATOM     86  C   UNL A   1      35.075  23.095  23.345  1.00  0.00     0.010 A 
ATOM     87  C   UNL A   1      35.457  23.799  25.627  1.00  0.00     0.031 A 
ATOM     88  C   UNL A   1      36.452  23.034  23.129  1.00  0.00     0.002 A 
ATOM     89  C   UNL A   1      36.830  23.742  25.402  1.00  0.00     0.041 A 
ATOM     90  C   UNL A   1      37.332  23.358  24.160  1.00  0.00     0.020 A 
ATOM     91  Cl  UNL A   1      37.913  24.147  26.675  1.00  0.00    -0.084 Cl
ENDBRANCH  82  85
BRANCH  84  92
ATOM     92  C   UNL A   1      32.569  21.092  24.806  1.00  0.00     0.067 A 
ATOM     93  C   UNL A   1      32.954  20.492  26.004  1.00  0.00     0.029 A 
ATOM     94  C   UNL A   1      32.424  20.332  23.637  1.00  0.00     0.029 A 
ATOM     95  C   UNL A   1      33.075  19.098  26.049  1.00  0.00     0.015 A 
ATOM     96  C   UNL A   1      32.581  18.953  23.681  1.00  0.00     0.015 A 
ATOM     97  C   UNL A   1      32.867  18.316  24.895  1.00  0.00     0.056 A 
BRANCH  97  98
ATOM     98  C   UNL A   1      32.903  16.810  24.966  1.00  0.00     0.416 C 
ATOM     99  F   UNL A   1      33.046  16.224  23.746  1.00  0.00    -0.166 F 
ATOM    100  F   UNL A   1      33.935  16.354  25.728  1.00  0.00    -0.166 F 
ATOM    101  F   UNL A   1      31.776  16.266  25.510  1.00  0.00    -0.166 F 
ENDBRANCH  97  98
ENDBRANCH  84  92
ENDBRANCH  78  80
ENDBRANCH  77  78
ENDBRANCH  76  77
ENDBRANCH  75  76
ENDBRANCH  74  75
ENDBRANCH   1  74
TORSDOF 20
ENDMDL
MODEL 2
REMARK VINA RESULT:     -11.9      1.469      2.312
REMARK SMILES O=C(OCCOCCOC(=O)c1nnn(-c2ccc(C(F)(F)F)cc2)c1-c1cccc(Cl)c1)c1ccc(-c2c3nc(c(-c4c(F)cc(S(=O)(=O)[O-])cc4F)c4ccc([nH]4)c(-c4c(F)cc(S(=O)(=O)[O-])cc4F)c4nc(c(-c5c(F)cc(S(=O)(=O)[O-])cc5F)c5ccc2[nH]5)C=C4)C=C3)cc1
REMARK SMILES IDX 5 1 4 2 3 3 2 4 1 5 34 6 35 7 99 8 36 9 98 10 37 11 38 12
REMARK SMILES IDX 39 13 92 14 40 15 97 16 91 17 93 18 41 19 96 20 90 21 89 22
REMARK SMILES IDX 42 24 76 25 55 26 75 27 56 28 59 29 74 30 94 31 57 32 58 33
REMARK SMILES IDX 73 35 95 36 60 37 43 38 44 39 53 40 45 41 46 42 52 43 54 44
REMARK SMILES IDX 47 45 48 46 49 47 50 48 51 49 77 50 78 51 87 52 79 53 80 54
REMARK SMILES IDX 86 55 88 56 81 57 82 58 83 59 84 60 85 61 61 62 62 63 71 64
REMARK SMILES IDX 63 65 64 66 70 67 72 68 65 69 66 70 67 71 68 72 69 73 6 74
REMARK SMILES IDX 7 75 8 76 9 77 10 78 11 79 12 80 13 81 26 82 14 83 15 84
REMARK SMILES IDX 27 85 28 86 33 87 29 88 31 89 30 90 32 91 16 92 17 93 25 94
REMARK SMILES IDX 18 95 24 96 19 97 20 98 21 99 22 100 23 101
REMARK H PARENT 93 23 59 34
REMARK Flexibility Score: inf
ROOT
ATOM      1  C   UNL A   1      32.162  29.963  25.541  1.00  0.00     0.202 C 
ENDROOT
BRANCH   1   2
ATOM      2  C   UNL A   1      32.525  30.869  26.715  1.00  0.00     0.261 C 
BRANCH   2   3
ATOM      3  O   UNL A   1      33.811  30.551  27.286  1.00  0.00    -0.460 OA
BRANCH   3   4
ATOM      4  C   UNL A   1      34.629  31.472  27.849  1.00  0.00     0.338 C 
ATOM      5  O   UNL A   1      34.225  32.598  28.120  1.00  0.00    -0.246 OA
BRANCH   4   6
ATOM      6  C   UNL A   1      35.902  30.978  28.423  1.00  0.00     0.060 A 
ATOM      7  C   UNL A   1      36.873  31.795  28.999  1.00  0.00     0.016 A 
ATOM      8  C   UNL A   1      36.140  29.600  28.308  1.00  0.00     0.016 A 
ATOM      9  C   UNL A   1      38.142  31.301  29.226  1.00  0.00     0.010 A 
ATOM     10  C   UNL A   1      37.389  29.083  28.618  1.00  0.00     0.010 A 
ATOM     11  C   UNL A   1      38.411  29.955  28.986  1.00  0.00    -0.014 A 
BRANCH  11  12
ATOM     12  C   UNL A   1      39.780  29.509  29.215  1.00  0.00     0.031 A 
ATOM     13  C   UNL A   1      40.175  29.364  30.645  1.00  0.00     0.074 A 
ATOM     14  C   UNL A   1      40.607  29.163  28.212  1.00  0.00     0.049 A 
ATOM     15  N   UNL A   1      41.149  29.932  31.280  1.00  0.00    -0.248 NA
ATOM     16  C   UNL A   1      39.294  28.554  31.501  1.00  0.00     0.031 C 
ATOM     17  C   UNL A   1      40.282  28.989  26.794  1.00  0.00     0.029 A 
ATOM     18  N   UNL A   1      41.908  28.769  28.283  1.00  0.00    -0.354 N 
ATOM     19  C   UNL A   1      41.122  29.405  32.570  1.00  0.00     0.074 A 
ATOM     20  C   UNL A   1      39.887  28.673  32.687  1.00  0.00     0.031 C 
ATOM     21  C   UNL A   1      41.276  28.297  26.197  1.00  0.00     0.029 A 
ATOM     22  C   UNL A   1      42.352  28.099  27.153  1.00  0.00     0.049 A 
ATOM     23  H   UNL A   1      42.481  28.944  29.065  1.00  0.00     0.167 HD
ATOM     24  C   UNL A   1      42.202  29.442  33.398  1.00  0.00     0.037 A 
ATOM     25  C   UNL A   1      43.477  27.352  27.050  1.00  0.00     0.037 A 
ATOM     26  C   UNL A   1      43.145  30.454  33.007  1.00  0.00     0.049 A 
ATOM     27  C   UNL A   1      44.393  27.762  28.147  1.00  0.00     0.074 A 
ATOM     28  C   UNL A   1      43.087  31.828  32.866  1.00  0.00     0.029 A 
ATOM     29  N   UNL A   1      44.298  30.064  32.371  1.00  0.00    -0.354 N 
ATOM     30  N   UNL A   1      44.978  28.925  28.224  1.00  0.00    -0.248 NA
ATOM     31  C   UNL A   1      44.347  27.008  29.391  1.00  0.00     0.031 C 
ATOM     32  C   UNL A   1      43.933  32.124  31.758  1.00  0.00     0.029 A 
ATOM     33  C   UNL A   1      44.479  30.919  31.313  1.00  0.00     0.049 A 
ATOM     34  H   UNL A   1      44.884  29.315  32.627  1.00  0.00     0.167 HD
ATOM     35  C   UNL A   1      45.004  29.225  29.579  1.00  0.00     0.074 A 
ATOM     36  C   UNL A   1      44.703  27.965  30.251  1.00  0.00     0.031 C 
ATOM     37  C   UNL A   1      44.998  30.517  30.024  1.00  0.00     0.037 A 
BRANCH  24  38
ATOM     38  C   UNL A   1      42.539  28.346  34.380  1.00  0.00     0.058 A 
ATOM     39  C   UNL A   1      42.627  28.635  35.758  1.00  0.00     0.135 A 
ATOM     40  C   UNL A   1      43.051  27.087  33.990  1.00  0.00     0.135 A 
ATOM     41  F   UNL A   1      42.185  29.808  36.240  1.00  0.00    -0.206 F 
ATOM     42  C   UNL A   1      43.238  27.767  36.665  1.00  0.00     0.059 A 
ATOM     43  C   UNL A   1      43.612  26.185  34.885  1.00  0.00     0.059 A 
ATOM     44  F   UNL A   1      43.122  26.714  32.705  1.00  0.00    -0.206 F 
ATOM     45  C   UNL A   1      43.745  26.553  36.213  1.00  0.00     0.060 A 
BRANCH  45  46
ATOM     46  S   UNL A   1      44.652  25.487  37.348  1.00  0.00     0.124 S 
ATOM     47  O   UNL A   1      44.110  25.910  38.634  1.00  0.00    -0.237 OA
ATOM     48  O   UNL A   1      44.265  24.157  36.894  1.00  0.00    -0.237 OA
ATOM     49  O   UNL A   1      46.046  25.846  37.101  1.00  0.00    -0.744 OA
ENDBRANCH  45  46
ENDBRANCH  24  38
BRANCH  25  50
ATOM     50  C   UNL A   1      43.651  26.095  26.278  1.00  0.00     0.058 A 
ATOM     51  C   UNL A   1      44.744  25.921  25.413  1.00  0.00     0.135 A 
ATOM     52  C   UNL A   1      42.897  24.939  26.568  1.00  0.00     0.135 A 
ATOM     53  F   UNL A   1      45.534  26.961  25.107  1.00  0.00    -0.206 F 
ATOM     54  C   UNL A   1      45.093  24.668  24.899  1.00  0.00     0.059 A 
ATOM     55  C   UNL A   1      43.213  23.684  26.052  1.00  0.00     0.059 A 
ATOM     56  F   UNL A   1      41.878  24.970  27.440  1.00  0.00    -0.206 F 
ATOM     57  C   UNL A   1      44.330  23.552  25.238  1.00  0.00     0.060 A 
BRANCH  57  58
ATOM     58  S   UNL A   1      44.875  21.908  24.721  1.00  0.00     0.124 S 
ATOM     59  O   UNL A   1      44.563  21.922  23.296  1.00  0.00    -0.237 OA
ATOM     60  O   UNL A   1      46.292  21.932  25.065  1.00  0.00    -0.237 OA
ATOM     61  O   UNL A   1      44.056  21.009  25.530  1.00  0.00    -0.744 OA
ENDBRANCH  57  58
ENDBRANCH  25  50
BRANCH  37  62
ATOM     62  C   UNL A   1      45.285  31.619  29.037  1.00  0.00     0.058 A 
ATOM     63  C   UNL A   1      46.575  32.092  28.737  1.00  0.00     0.135 A 
ATOM     64  C   UNL A   1      44.227  32.099  28.249  1.00  0.00     0.135 A 
ATOM     65  F   UNL A   1      47.653  31.603  29.365  1.00  0.00    -0.206 F 
ATOM     66  C   UNL A   1      46.796  33.030  27.727  1.00  0.00     0.059 A 
ATOM     67  C   UNL A   1      44.429  33.010  27.216  1.00  0.00     0.059 A 
ATOM     68  F   UNL A   1      42.980  31.637  28.443  1.00  0.00    -0.206 F 
ATOM     69  C   UNL A   1      45.716  33.482  26.969  1.00  0.00     0.060 A 
BRANCH  69  70
ATOM     70  S   UNL A   1      46.019  34.622  25.600  1.00  0.00     0.124 S 
ATOM     71  O   UNL A   1      45.084  34.142  24.589  1.00  0.00    -0.237 OA
ATOM     72  O   UNL A   1      45.703  35.920  26.191  1.00  0.00    -0.237 OA
ATOM     73  O   UNL A   1      47.432  34.417  25.292  1.00  0.00    -0.744 OA
ENDBRANCH  69  70
ENDBRANCH  37  62
ENDBRANCH  11  12
ENDBRANCH   4   6
ENDBRANCH   3   4
ENDBRANCH   2   3
ENDBRANCH   1   2
BRANCH   1  74
ATOM     74  O   UNL A   1      33.049  28.873  25.291  1.00  0.00    -0.374 OA
BRANCH  74  75
ATOM     75  C   UNL A   1      33.617  28.807  23.975  1.00  0.00     0.202 C 
BRANCH  75  76
ATOM     76  C   UNL A   1      32.647  28.583  22.808  1.00  0.00     0.261 C 
BRANCH  76  77
ATOM     77  O   UNL A   1      32.998  27.411  22.051  1.00  0.00    -0.458 OA
BRANCH  77  78
ATOM     78  C   UNL A   1      32.011  26.478  21.887  1.00  0.00     0.361 C 
ATOM     79  O   UNL A   1      30.856  26.723  21.612  1.00  0.00    -0.244 OA
BRANCH  78  80
ATOM     80  C   UNL A   1      32.547  25.130  21.994  1.00  0.00     0.198 A 
ATOM     81  N   UNL A   1      33.259  24.525  20.984  1.00  0.00    -0.122 NA
ATOM     82  C   UNL A   1      32.527  24.303  23.100  1.00  0.00     0.109 A 
ATOM     83  N   UNL A   1      33.694  23.352  21.431  1.00  0.00    -0.061 NA
ATOM     84  N   UNL A   1      33.113  23.136  22.630  1.00  0.00    -0.212 N 
BRANCH  82  85
ATOM     85  C   UNL A   1      32.040  24.525  24.458  1.00  0.00     0.004 A 
ATOM     86  C   UNL A   1      32.493  25.623  25.206  1.00  0.00     0.010 A 
ATOM     87  C   UNL A   1      31.105  23.652  25.021  1.00  0.00     0.031 A 
ATOM     88  C   UNL A   1      32.027  25.835  26.504  1.00  0.00     0.002 A 
ATOM     89  C   UNL A   1      30.639  23.873  26.315  1.00  0.00     0.041 A 
ATOM     90  C   UNL A   1      31.098  24.957  27.060  1.00  0.00     0.020 A 
ATOM     91  Cl  UNL A   1      29.489  22.791  26.996  1.00  0.00    -0.084 Cl
ENDBRANCH  82  85
BRANCH  84  92
ATOM     92  C   UNL A   1      33.044  21.854  23.212  1.00  0.00     0.067 A 
ATOM     93  C   UNL A   1      32.170  20.888  22.713  1.00  0.00     0.029 A 
ATOM     94  C   UNL A   1      33.925  21.551  24.259  1.00  0.00     0.029 A 
ATOM     95  C   UNL A   1      32.273  19.577  23.193  1.00  0.00     0.015 A 
ATOM     96  C   UNL A   1      33.997  20.256  24.755  1.00  0.00     0.015 A 
ATOM     97  C   UNL A   1      33.202  19.246  24.199  1.00  0.00     0.056 A 
BRANCH  97  98
ATOM     98  C   UNL A   1      33.378  17.816  24.647  1.00  0.00     0.416 C 
ATOM     99  F   UNL A   1      34.684  17.460  24.784  1.00  0.00    -0.166 F 
ATOM    100  F   UNL A   1      32.791  17.577  25.852  1.00  0.00    -0.166 F 
ATOM    101  F   UNL A   1      32.833  16.908  23.786  1.00  0.00    -0.166 F 
ENDBRANCH  97  98
ENDBRANCH  84  92
ENDBRANCH  78  80
ENDBRANCH  77  78
ENDBRANCH  76  77
ENDBRANCH  75  76
ENDBRANCH  74  75
ENDBRANCH   1  74
TORSDOF 20
ENDMDL
MODEL 3
REMARK VINA RESULT:     -11.1      5.523     10.025
REMARK SMILES O=C(OCCOCCOC(=O)c1nnn(-c2ccc(C(F)(F)F)cc2)c1-c1cccc(Cl)c1)c1ccc(-c2c3nc(c(-c4c(F)cc(S(=O)(=O)[O-])cc4F)c4ccc([nH]4)c(-c4c(F)cc(S(=O)(=O)[O-])cc4F)c4nc(c(-c5c(F)cc(S(=O)(=O)[O-])cc5F)c5ccc2[nH]5)C=C4)C=C3)cc1
REMARK SMILES IDX 5 1 4 2 3 3 2 4 1 5 34 6 35 7 99 8 36 9 98 10 37 11 38 12
REMARK SMILES IDX 39 13 92 14 40 15 97 16 91 17 93 18 41 19 96 20 90 21 89 22
REMARK SMILES IDX 42 24 76 25 55 26 75 27 56 28 59 29 74 30 94 31 57 32 58 33
REMARK SMILES IDX 73 35 95 36 60 37 43 38 44 39 53 40 45 41 46 42 52 43 54 44
REMARK SMILES IDX 47 45 48 46 49 47 50 48 51 49 77 50 78 51 87 52 79 53 80 54
REMARK SMILES IDX 86 55 88 56 81 57 82 58 83 59 84 60 85 61 61 62 62 63 71 64
REMARK SMILES IDX 63 65 64 66 70 67 72 68 65 69 66 70 67 71 68 72 69 73 6 74
REMARK SMILES IDX 7 75 8 76 9 77 10 78 11 79 12 80 13 81 26 82 14 83 15 84
REMARK SMILES IDX 27 85 28 86 33 87 29 88 31 89 30 90 32 91 16 92 17 93 25 94
REMARK SMILES IDX 18 95 24 96 19 97 20 98 21 99 22 100 23 101
REMARK H PARENT 93 23 59 34
REMARK Flexibility Score: inf
ROOT
ATOM      1  C   UNL A   1      46.714  23.917  24.235  1.00  0.00     0.202 C 
ENDROOT
BRANCH   1   2
ATOM      2  C   UNL A   1      46.729  25.176  25.097  1.00  0.00     0.261 C 
BRANCH   2   3
ATOM      3  O   UNL A   1      45.805  26.182  24.630  1.00  0.00    -0.460 OA
BRANCH   3   4
ATOM      4  C   UNL A   1      45.844  27.476  25.025  1.00  0.00     0.338 C 
ATOM      5  O   UNL A   1      46.102  28.375  24.231  1.00  0.00    -0.246 OA
BRANCH   4   6
ATOM      6  C   UNL A   1      45.248  27.794  26.343  1.00  0.00     0.060 A 
ATOM      7  C   UNL A   1      43.878  27.889  26.584  1.00  0.00     0.016 A 
ATOM      8  C   UNL A   1      46.150  28.069  27.381  1.00  0.00     0.016 A 
ATOM      9  C   UNL A   1      43.421  28.481  27.744  1.00  0.00     0.010 A 
ATOM     10  C   UNL A   1      45.689  28.584  28.584  1.00  0.00     0.010 A 
ATOM     11  C   UNL A   1      44.333  28.875  28.721  1.00  0.00    -0.014 A 
BRANCH  11  12
ATOM     12  C   UNL A   1      43.785  29.525  29.906  1.00  0.00     0.031 A 
ATOM     13  C   UNL A   1      43.487  28.620  31.051  1.00  0.00     0.074 A 
ATOM     14  C   UNL A   1      43.641  30.859  29.999  1.00  0.00     0.049 A 
ATOM     15  N   UNL A   1      42.366  28.434  31.670  1.00  0.00    -0.248 NA
ATOM     16  C   UNL A   1      44.570  27.726  31.495  1.00  0.00     0.031 C 
ATOM     17  C   UNL A   1      44.138  31.887  29.081  1.00  0.00     0.029 A 
ATOM     18  N   UNL A   1      43.113  31.585  31.023  1.00  0.00    -0.354 N 
ATOM     19  C   UNL A   1      42.643  27.541  32.703  1.00  0.00     0.074 A 
ATOM     20  C   UNL A   1      43.971  27.039  32.464  1.00  0.00     0.031 C 
ATOM     21  C   UNL A   1      44.107  33.085  29.704  1.00  0.00     0.029 A 
ATOM     22  C   UNL A   1      43.473  32.924  31.001  1.00  0.00     0.049 A 
ATOM     23  H   UNL A   1      42.529  31.196  31.714  1.00  0.00     0.167 HD
ATOM     24  C   UNL A   1      41.840  27.415  33.796  1.00  0.00     0.037 A 
ATOM     25  C   UNL A   1      43.347  33.808  32.020  1.00  0.00     0.037 A 
ATOM     26  C   UNL A   1      40.512  27.905  33.546  1.00  0.00     0.049 A 
ATOM     27  C   UNL A   1      42.331  33.268  32.963  1.00  0.00     0.074 A 
ATOM     28  C   UNL A   1      39.510  27.572  32.653  1.00  0.00     0.029 A 
ATOM     29  N   UNL A   1      40.154  29.123  34.068  1.00  0.00    -0.354 N 
ATOM     30  N   UNL A   1      41.061  33.152  32.692  1.00  0.00    -0.248 NA
ATOM     31  C   UNL A   1      42.800  32.472  34.087  1.00  0.00     0.031 C 
ATOM     32  C   UNL A   1      38.873  28.806  32.333  1.00  0.00     0.029 A 
ATOM     33  C   UNL A   1      39.502  29.807  33.074  1.00  0.00     0.049 A 
ATOM     34  H   UNL A   1      40.330  29.443  34.983  1.00  0.00     0.167 HD
ATOM     35  C   UNL A   1      40.663  31.984  33.327  1.00  0.00     0.074 A 
ATOM     36  C   UNL A   1      41.744  31.672  34.255  1.00  0.00     0.031 C 
ATOM     37  C   UNL A   1      39.626  31.231  32.853  1.00  0.00     0.037 A 
BRANCH  24  38
ATOM     38  C   UNL A   1      42.358  27.129  35.184  1.00  0.00     0.058 A 
ATOM     39  C   UNL A   1      43.158  28.082  35.849  1.00  0.00     0.135 A 
ATOM     40  C   UNL A   1      42.330  25.844  35.773  1.00  0.00     0.135 A 
ATOM     41  F   UNL A   1      43.272  29.332  35.372  1.00  0.00    -0.206 F 
ATOM     42  C   UNL A   1      43.923  27.761  36.972  1.00  0.00     0.059 A 
ATOM     43  C   UNL A   1      43.039  25.519  36.923  1.00  0.00     0.059 A 
ATOM     44  F   UNL A   1      41.690  24.814  35.203  1.00  0.00    -0.206 F 
ATOM     45  C   UNL A   1      43.870  26.470  37.488  1.00  0.00     0.060 A 
BRANCH  45  46
ATOM     46  S   UNL A   1      44.953  26.011  38.853  1.00  0.00     0.124 S 
ATOM     47  O   UNL A   1      44.796  24.561  38.869  1.00  0.00    -0.237 OA
ATOM     48  O   UNL A   1      46.246  26.512  38.401  1.00  0.00    -0.237 OA
ATOM     49  O   UNL A   1      44.375  26.721  39.991  1.00  0.00    -0.744 OA
ENDBRANCH  45  46
ENDBRANCH  24  38
BRANCH  25  50
ATOM     50  C   UNL A   1      44.287  34.899  32.383  1.00  0.00     0.058 A 
ATOM     51  C   UNL A   1      43.816  36.175  32.734  1.00  0.00     0.135 A 
ATOM     52  C   UNL A   1      45.650  34.644  32.646  1.00  0.00     0.135 A 
ATOM     53  F   UNL A   1      42.527  36.493  32.546  1.00  0.00    -0.206 F 
ATOM     54  C   UNL A   1      44.637  37.127  33.348  1.00  0.00     0.059 A 
ATOM     55  C   UNL A   1      46.490  35.583  33.238  1.00  0.00     0.059 A 
ATOM     56  F   UNL A   1      46.190  33.437  32.422  1.00  0.00    -0.206 F 
ATOM     57  C   UNL A   1      45.970  36.815  33.610  1.00  0.00     0.060 A 
BRANCH  57  58
ATOM     58  S   UNL A   1      46.986  37.971  34.557  1.00  0.00     0.124 S 
ATOM     59  O   UNL A   1      46.554  39.258  34.025  1.00  0.00    -0.237 OA
ATOM     60  O   UNL A   1      46.586  37.680  35.929  1.00  0.00    -0.237 OA
ATOM     61  O   UNL A   1      48.352  37.581  34.215  1.00  0.00    -0.744 OA
ENDBRANCH  57  58
ENDBRANCH  25  50
BRANCH  37  62
ATOM     62  C   UNL A   1      38.709  31.838  31.822  1.00  0.00     0.058 A 
ATOM     63  C   UNL A   1      39.034  31.975  30.461  1.00  0.00     0.135 A 
ATOM     64  C   UNL A   1      37.391  32.141  32.199  1.00  0.00     0.135 A 
ATOM     65  F   UNL A   1      40.235  31.603  29.997  1.00  0.00    -0.206 F 
ATOM     66  C   UNL A   1      38.104  32.433  29.526  1.00  0.00     0.059 A 
ATOM     67  C   UNL A   1      36.438  32.567  31.278  1.00  0.00     0.059 A 
ATOM     68  F   UNL A   1      36.999  31.968  33.473  1.00  0.00    -0.206 F 
ATOM     69  C   UNL A   1      36.806  32.723  29.944  1.00  0.00     0.060 A 
BRANCH  69  70
ATOM     70  S   UNL A   1      35.578  33.221  28.715  1.00  0.00     0.124 S 
ATOM     71  O   UNL A   1      34.325  33.020  29.435  1.00  0.00    -0.237 OA
ATOM     72  O   UNL A   1      35.940  34.612  28.449  1.00  0.00    -0.237 OA
ATOM     73  O   UNL A   1      35.815  32.304  27.604  1.00  0.00    -0.744 OA
ENDBRANCH  69  70
ENDBRANCH  37  62
ENDBRANCH  11  12
ENDBRANCH   4   6
ENDBRANCH   3   4
ENDBRANCH   2   3
ENDBRANCH   1   2
BRANCH   1  74
ATOM     74  O   UNL A   1      45.634  23.012  24.464  1.00  0.00    -0.374 OA
BRANCH  74  75
ATOM     75  C   UNL A   1      45.964  21.786  25.131  1.00  0.00     0.202 C 
BRANCH  75  76
ATOM     76  C   UNL A   1      44.943  20.645  25.038  1.00  0.00     0.261 C 
BRANCH  76  77
ATOM     77  O   UNL A   1      43.595  21.145  25.028  1.00  0.00    -0.458 OA
BRANCH  77  78
ATOM     78  C   UNL A   1      42.762  20.661  26.001  1.00  0.00     0.361 C 
ATOM     79  O   UNL A   1      42.916  19.617  26.598  1.00  0.00    -0.244 OA
BRANCH  78  80
ATOM     80  C   UNL A   1      41.705  21.613  26.301  1.00  0.00     0.198 A 
ATOM     81  N   UNL A   1      40.402  21.438  25.895  1.00  0.00    -0.122 NA
ATOM     82  C   UNL A   1      41.790  22.746  27.087  1.00  0.00     0.109 A 
ATOM     83  N   UNL A   1      39.672  22.419  26.414  1.00  0.00    -0.061 NA
ATOM     84  N   UNL A   1      40.523  23.299  26.980  1.00  0.00    -0.212 N 
BRANCH  82  85
ATOM     85  C   UNL A   1      42.895  23.289  27.872  1.00  0.00     0.004 A 
ATOM     86  C   UNL A   1      43.904  24.045  27.254  1.00  0.00     0.010 A 
ATOM     87  C   UNL A   1      42.950  23.071  29.252  1.00  0.00     0.031 A 
ATOM     88  C   UNL A   1      44.959  24.562  28.005  1.00  0.00     0.002 A 
ATOM     89  C   UNL A   1      44.004  23.597  29.997  1.00  0.00     0.041 A 
ATOM     90  C   UNL A   1      45.010  24.338  29.379  1.00  0.00     0.020 A 
ATOM     91  Cl  UNL A   1      44.060  23.322  31.693  1.00  0.00    -0.084 Cl
ENDBRANCH  82  85
BRANCH  84  92
ATOM     92  C   UNL A   1      40.142  24.621  27.287  1.00  0.00     0.067 A 
ATOM     93  C   UNL A   1      39.468  24.915  28.472  1.00  0.00     0.029 A 
ATOM     94  C   UNL A   1      40.519  25.644  26.405  1.00  0.00     0.029 A 
ATOM     95  C   UNL A   1      39.282  26.257  28.826  1.00  0.00     0.015 A 
ATOM     96  C   UNL A   1      40.300  26.971  26.746  1.00  0.00     0.015 A 
ATOM     97  C   UNL A   1      39.717  27.294  27.978  1.00  0.00     0.056 A 
BRANCH  97  98
ATOM     98  C   UNL A   1      39.604  28.738  28.403  1.00  0.00     0.416 C 
ATOM     99  F   UNL A   1      39.786  29.610  27.375  1.00  0.00    -0.166 F 
ATOM    100  F   UNL A   1      38.382  29.025  28.931  1.00  0.00    -0.166 F 
ATOM    101  F   UNL A   1      40.510  29.093  29.358  1.00  0.00    -0.166 F 
ENDBRANCH  97  98
ENDBRANCH  84  92
ENDBRANCH  78  80
ENDBRANCH  77  78
ENDBRANCH  76  77
ENDBRANCH  75  76
ENDBRANCH  74  75
ENDBRANCH   1  74
TORSDOF 20
ENDMDL
