MODEL 1
REMARK VINA RESULT:      -9.4      0.000      0.000
REMARK SMILES O=C(CCCCCC(F)(F)c1ccccc1)OCCOCCOC(=O)c1ccc(-c2c3nc(c(-c4c(F)cc(S(=O)(=O)[O-])cc4F)c4ccc([nH]4)c(-c4c(F)cc(S(=O)(=O)[O-])cc4F)c4nc(c(-c5c(F)cc(S(=O)(=O)[O-])cc5F)c5ccc2[nH]5)C=C4)C=C3)cc1
REMARK SMILES IDX 18 1 17 2 2 3 1 4 3 5 4 6 5 7 6 8 7 9 8 10 9 11 10 12 11 13
REMARK SMILES IDX 12 14 16 15 13 16 15 17 14 18 19 19 20 20 21 21 22 22 23 23
REMARK SMILES IDX 24 24 25 25 26 26 27 27 91 28 28 29 90 30 29 31 30 32 31 33
REMARK SMILES IDX 84 34 32 35 89 36 83 37 85 38 33 39 88 40 82 41 81 42 34 44
REMARK SMILES IDX 68 45 47 46 67 47 48 48 51 49 66 50 86 51 49 52 50 53 65 55
REMARK SMILES IDX 87 56 52 57 35 58 36 59 45 60 37 61 38 62 44 63 46 64 39 65
REMARK SMILES IDX 40 66 41 67 42 68 43 69 69 70 70 71 79 72 71 73 72 74 78 75
REMARK SMILES IDX 80 76 73 77 74 78 75 79 76 80 77 81 53 82 54 83 63 84 55 85
REMARK SMILES IDX 56 86 62 87 64 88 57 89 58 90 59 91 60 92 61 93
REMARK H PARENT 85 43 51 54
REMARK Flexibility Score: inf
ROOT
ATOM      1  C   UNL A   1      34.595  32.557  29.185  1.00  0.00     0.261 C 
ENDROOT
BRANCH   1   2
ATOM      2  O   UNL A   1      34.613  31.532  28.182  1.00  0.00    -0.463 OA
BRANCH   2   3
ATOM      3  C   UNL A   1      35.628  30.711  27.850  1.00  0.00     0.305 C 
ATOM      4  O   UNL A   1      36.784  31.134  27.933  1.00  0.00    -0.252 OA
BRANCH   3   5
ATOM      5  C   UNL A   1      35.389  29.316  27.321  1.00  0.00     0.123 C 
BRANCH   5   6
ATOM      6  C   UNL A   1      33.956  28.813  27.362  1.00  0.00     0.012 C 
BRANCH   6   7
ATOM      7  C   UNL A   1      33.553  27.890  26.219  1.00  0.00     0.001 C 
BRANCH   7   8
ATOM      8  C   UNL A   1      32.118  27.323  26.253  1.00  0.00     0.007 C 
BRANCH   8   9
ATOM      9  C   UNL A   1      31.157  27.791  25.146  1.00  0.00     0.082 C 
BRANCH   9  10
ATOM     10  C   UNL A   1      31.272  29.272  24.731  1.00  0.00     0.273 C 
ATOM     11  F   UNL A   1      31.422  30.010  25.872  1.00  0.00    -0.201 F 
ATOM     12  F   UNL A   1      32.456  29.412  24.060  1.00  0.00    -0.201 F 
BRANCH  10  13
ATOM     13  C   UNL A   1      30.102  29.727  23.886  1.00  0.00     0.021 A 
ATOM     14  C   UNL A   1      29.424  28.803  23.071  1.00  0.00     0.010 A 
ATOM     15  C   UNL A   1      29.563  31.014  24.059  1.00  0.00     0.010 A 
ATOM     16  C   UNL A   1      28.170  29.119  22.547  1.00  0.00     0.001 A 
ATOM     17  C   UNL A   1      28.312  31.327  23.524  1.00  0.00     0.001 A 
ATOM     18  C   UNL A   1      27.606  30.371  22.793  1.00  0.00     0.000 A 
ENDBRANCH  10  13
ENDBRANCH   9  10
ENDBRANCH   8   9
ENDBRANCH   7   8
ENDBRANCH   6   7
ENDBRANCH   5   6
ENDBRANCH   3   5
ENDBRANCH   2   3
ENDBRANCH   1   2
BRANCH   1  19
ATOM     19  C   UNL A   1      34.656  33.963  28.636  1.00  0.00     0.202 C 
BRANCH  19  20
ATOM     20  O   UNL A   1      33.405  34.641  28.624  1.00  0.00    -0.374 OA
BRANCH  20  21
ATOM     21  C   UNL A   1      33.530  36.062  28.698  1.00  0.00     0.202 C 
BRANCH  21  22
ATOM     22  C   UNL A   1      32.618  36.670  29.772  1.00  0.00     0.261 C 
BRANCH  22  23
ATOM     23  O   UNL A   1      32.216  35.675  30.732  1.00  0.00    -0.460 OA
BRANCH  23  24
ATOM     24  C   UNL A   1      32.556  35.935  32.027  1.00  0.00     0.338 C 
ATOM     25  O   UNL A   1      31.919  36.582  32.830  1.00  0.00    -0.246 OA
BRANCH  24  26
ATOM     26  C   UNL A   1      33.729  35.088  32.394  1.00  0.00     0.060 A 
ATOM     27  C   UNL A   1      33.480  33.799  32.895  1.00  0.00     0.016 A 
ATOM     28  C   UNL A   1      35.043  35.497  32.154  1.00  0.00     0.016 A 
ATOM     29  C   UNL A   1      34.538  32.922  33.155  1.00  0.00     0.010 A 
ATOM     30  C   UNL A   1      36.101  34.627  32.433  1.00  0.00     0.010 A 
ATOM     31  C   UNL A   1      35.856  33.342  32.948  1.00  0.00    -0.014 A 
BRANCH  31  32
ATOM     32  C   UNL A   1      37.003  32.532  33.430  1.00  0.00     0.031 A 
ATOM     33  C   UNL A   1      37.655  32.944  34.722  1.00  0.00     0.074 A 
ATOM     34  C   UNL A   1      37.498  31.507  32.713  1.00  0.00     0.049 A 
ATOM     35  N   UNL A   1      38.769  32.526  35.256  1.00  0.00    -0.248 NA
ATOM     36  C   UNL A   1      36.958  33.979  35.506  1.00  0.00     0.031 C 
ATOM     37  C   UNL A   1      36.934  30.992  31.466  1.00  0.00     0.029 A 
ATOM     38  N   UNL A   1      38.617  30.735  32.919  1.00  0.00    -0.354 N 
ATOM     39  C   UNL A   1      38.925  33.264  36.424  1.00  0.00     0.074 A 
ATOM     40  C   UNL A   1      37.792  34.158  36.520  1.00  0.00     0.031 C 
ATOM     41  C   UNL A   1      37.734  30.018  30.996  1.00  0.00     0.029 A 
ATOM     42  C   UNL A   1      38.886  29.869  31.883  1.00  0.00     0.049 A 
ATOM     43  H   UNL A   1      39.172  30.796  33.729  1.00  0.00     0.167 HD
ATOM     44  C   UNL A   1      39.928  33.204  37.328  1.00  0.00     0.037 A 
ATOM     45  C   UNL A   1      39.962  29.086  31.657  1.00  0.00     0.037 A 
ATOM     46  C   UNL A   1      41.043  32.302  37.235  1.00  0.00     0.049 A 
ATOM     47  C   UNL A   1      41.098  29.084  32.654  1.00  0.00     0.074 A 
ATOM     48  C   UNL A   1      42.077  32.123  38.138  1.00  0.00     0.029 A 
ATOM     49  N   UNL A   1      41.279  31.441  36.177  1.00  0.00    -0.354 N 
ATOM     50  N   UNL A   1      41.208  29.746  33.783  1.00  0.00    -0.248 NA
ATOM     51  C   UNL A   1      42.262  28.239  32.343  1.00  0.00     0.031 C 
ATOM     52  C   UNL A   1      42.970  31.195  37.594  1.00  0.00     0.029 A 
ATOM     53  C   UNL A   1      42.465  30.759  36.380  1.00  0.00     0.049 A 
ATOM     54  H   UNL A   1      40.690  31.331  35.394  1.00  0.00     0.167 HD
ATOM     55  C   UNL A   1      42.441  29.382  34.320  1.00  0.00     0.074 A 
ATOM     56  C   UNL A   1      43.031  28.430  33.406  1.00  0.00     0.031 C 
ATOM     57  C   UNL A   1      43.034  29.803  35.464  1.00  0.00     0.037 A 
BRANCH  44  58
ATOM     58  C   UNL A   1      39.892  34.157  38.487  1.00  0.00     0.058 A 
ATOM     59  C   UNL A   1      39.189  33.862  39.665  1.00  0.00     0.135 A 
ATOM     60  C   UNL A   1      40.641  35.343  38.445  1.00  0.00     0.135 A 
ATOM     61  F   UNL A   1      38.437  32.753  39.745  1.00  0.00    -0.206 F 
ATOM     62  C   UNL A   1      39.234  34.711  40.765  1.00  0.00     0.059 A 
ATOM     63  C   UNL A   1      40.720  36.195  39.541  1.00  0.00     0.059 A 
ATOM     64  F   UNL A   1      41.321  35.674  37.336  1.00  0.00    -0.206 F 
ATOM     65  C   UNL A   1      40.011  35.870  40.697  1.00  0.00     0.060 A 
BRANCH  65  66
ATOM     66  S   UNL A   1      40.106  36.930  42.155  1.00  0.00     0.124 S 
ATOM     67  O   UNL A   1      39.328  36.165  43.124  1.00  0.00    -0.237 OA
ATOM     68  O   UNL A   1      41.544  36.989  42.402  1.00  0.00    -0.237 OA
ATOM     69  O   UNL A   1      39.498  38.179  41.708  1.00  0.00    -0.744 OA
ENDBRANCH  65  66
ENDBRANCH  44  58
BRANCH  45  70
ATOM     70  C   UNL A   1      40.068  28.283  30.406  1.00  0.00     0.058 A 
ATOM     71  C   UNL A   1      39.373  27.074  30.255  1.00  0.00     0.135 A 
ATOM     72  C   UNL A   1      40.913  28.683  29.358  1.00  0.00     0.135 A 
ATOM     73  F   UNL A   1      38.566  26.639  31.234  1.00  0.00    -0.206 F 
ATOM     74  C   UNL A   1      39.534  26.275  29.126  1.00  0.00     0.059 A 
ATOM     75  C   UNL A   1      41.067  27.916  28.206  1.00  0.00     0.059 A 
ATOM     76  F   UNL A   1      41.597  29.835  29.446  1.00  0.00    -0.206 F 
ATOM     77  C   UNL A   1      40.387  26.703  28.108  1.00  0.00     0.060 A 
BRANCH  77  78
ATOM     78  S   UNL A   1      40.581  25.667  26.642  1.00  0.00     0.124 S 
ATOM     79  O   UNL A   1      41.621  24.740  27.074  1.00  0.00    -0.237 OA
ATOM     80  O   UNL A   1      39.245  25.101  26.487  1.00  0.00    -0.237 OA
ATOM     81  O   UNL A   1      40.973  26.620  25.608  1.00  0.00    -0.744 OA
ENDBRANCH  77  78
ENDBRANCH  45  70
BRANCH  57  82
ATOM     82  C   UNL A   1      44.379  29.228  35.812  1.00  0.00     0.058 A 
ATOM     83  C   UNL A   1      44.501  28.032  36.534  1.00  0.00     0.135 A 
ATOM     84  C   UNL A   1      45.556  29.834  35.343  1.00  0.00     0.135 A 
ATOM     85  F   UNL A   1      43.408  27.415  37.009  1.00  0.00    -0.206 F 
ATOM     86  C   UNL A   1      45.744  27.460  36.788  1.00  0.00     0.059 A 
ATOM     87  C   UNL A   1      46.807  29.267  35.562  1.00  0.00     0.059 A 
ATOM     88  F   UNL A   1      45.494  30.975  34.637  1.00  0.00    -0.206 F 
ATOM     89  C   UNL A   1      46.891  28.082  36.292  1.00  0.00     0.060 A 
BRANCH  89  90
ATOM     90  S   UNL A   1      48.493  27.301  36.581  1.00  0.00     0.124 S 
ATOM     91  O   UNL A   1      48.860  26.874  35.236  1.00  0.00    -0.237 OA
ATOM     92  O   UNL A   1      49.280  28.397  37.137  1.00  0.00    -0.237 OA
ATOM     93  O   UNL A   1      48.182  26.224  37.517  1.00  0.00    -0.744 OA
ENDBRANCH  89  90
ENDBRANCH  57  82
ENDBRANCH  31  32
ENDBRANCH  24  26
ENDBRANCH  23  24
ENDBRANCH  22  23
ENDBRANCH  21  22
ENDBRANCH  20  21
ENDBRANCH  19  20
ENDBRANCH   1  19
TORSDOF 23
ENDMDL
MODEL 2
REMARK VINA RESULT:      -9.3      3.856     11.628
REMARK SMILES O=C(CCCCCC(F)(F)c1ccccc1)OCCOCCOC(=O)c1ccc(-c2c3nc(c(-c4c(F)cc(S(=O)(=O)[O-])cc4F)c4ccc([nH]4)c(-c4c(F)cc(S(=O)(=O)[O-])cc4F)c4nc(c(-c5c(F)cc(S(=O)(=O)[O-])cc5F)c5ccc2[nH]5)C=C4)C=C3)cc1
REMARK SMILES IDX 18 1 17 2 2 3 1 4 3 5 4 6 5 7 6 8 7 9 8 10 9 11 10 12 11 13
REMARK SMILES IDX 12 14 16 15 13 16 15 17 14 18 19 19 20 20 21 21 22 22 23 23
REMARK SMILES IDX 24 24 25 25 26 26 27 27 91 28 28 29 90 30 29 31 30 32 31 33
REMARK SMILES IDX 84 34 32 35 89 36 83 37 85 38 33 39 88 40 82 41 81 42 34 44
REMARK SMILES IDX 68 45 47 46 67 47 48 48 51 49 66 50 86 51 49 52 50 53 65 55
REMARK SMILES IDX 87 56 52 57 35 58 36 59 45 60 37 61 38 62 44 63 46 64 39 65
REMARK SMILES IDX 40 66 41 67 42 68 43 69 69 70 70 71 79 72 71 73 72 74 78 75
REMARK SMILES IDX 80 76 73 77 74 78 75 79 76 80 77 81 53 82 54 83 63 84 55 85
REMARK SMILES IDX 56 86 62 87 64 88 57 89 58 90 59 91 60 92 61 93
REMARK H PARENT 85 43 51 54
REMARK Flexibility Score: inf
ROOT
ATOM      1  C   UNL A   1      44.654  20.836  24.444  1.00  0.00     0.261 C 
ENDROOT
BRANCH   1   2
ATOM      2  O   UNL A   1      44.376  19.820  25.417  1.00  0.00    -0.463 OA
BRANCH   2   3
ATOM      3  C   UNL A   1      43.175  19.361  25.820  1.00  0.00     0.305 C 
ATOM      4  O   UNL A   1      42.771  18.285  25.376  1.00  0.00    -0.252 OA
BRANCH   3   5
ATOM      5  C   UNL A   1      42.287  20.157  26.748  1.00  0.00     0.123 C 
BRANCH   5   6
ATOM      6  C   UNL A   1      41.513  21.307  26.125  1.00  0.00     0.012 C 
BRANCH   6   7
ATOM      7  C   UNL A   1      41.255  22.496  27.041  1.00  0.00     0.001 C 
BRANCH   7   8
ATOM      8  C   UNL A   1      42.102  22.583  28.327  1.00  0.00     0.007 C 
BRANCH   8   9
ATOM      9  C   UNL A   1      43.500  23.214  28.201  1.00  0.00     0.082 C 
BRANCH   9  10
ATOM     10  C   UNL A   1      44.074  23.848  29.485  1.00  0.00     0.273 C 
ATOM     11  F   UNL A   1      43.032  24.405  30.173  1.00  0.00    -0.201 F 
ATOM     12  F   UNL A   1      44.515  22.825  30.278  1.00  0.00    -0.201 F 
BRANCH  10  13
ATOM     13  C   UNL A   1      45.182  24.837  29.194  1.00  0.00     0.021 A 
ATOM     14  C   UNL A   1      46.254  24.466  28.363  1.00  0.00     0.010 A 
ATOM     15  C   UNL A   1      45.050  26.182  29.583  1.00  0.00     0.010 A 
ATOM     16  C   UNL A   1      47.097  25.440  27.828  1.00  0.00     0.001 A 
ATOM     17  C   UNL A   1      45.903  27.151  29.052  1.00  0.00     0.001 A 
ATOM     18  C   UNL A   1      46.907  26.783  28.155  1.00  0.00     0.000 A 
ENDBRANCH  10  13
ENDBRANCH   9  10
ENDBRANCH   8   9
ENDBRANCH   7   8
ENDBRANCH   6   7
ENDBRANCH   5   6
ENDBRANCH   3   5
ENDBRANCH   2   3
ENDBRANCH   1   2
BRANCH   1  19
ATOM     19  C   UNL A   1      45.559  21.939  24.939  1.00  0.00     0.202 C 
BRANCH  19  20
ATOM     20  O   UNL A   1      45.506  23.132  24.165  1.00  0.00    -0.374 OA
BRANCH  20  21
ATOM     21  C   UNL A   1      45.196  24.294  24.935  1.00  0.00     0.202 C 
BRANCH  21  22
ATOM     22  C   UNL A   1      43.686  24.557  25.008  1.00  0.00     0.261 C 
BRANCH  22  23
ATOM     23  O   UNL A   1      43.410  25.821  25.639  1.00  0.00    -0.460 OA
BRANCH  23  24
ATOM     24  C   UNL A   1      42.091  26.154  25.740  1.00  0.00     0.338 C 
ATOM     25  O   UNL A   1      41.196  25.804  25.002  1.00  0.00    -0.246 OA
BRANCH  24  26
ATOM     26  C   UNL A   1      41.865  26.825  27.054  1.00  0.00     0.060 A 
ATOM     27  C   UNL A   1      41.001  26.203  27.970  1.00  0.00     0.016 A 
ATOM     28  C   UNL A   1      42.562  27.976  27.429  1.00  0.00     0.016 A 
ATOM     29  C   UNL A   1      40.833  26.727  29.256  1.00  0.00     0.010 A 
ATOM     30  C   UNL A   1      42.379  28.511  28.707  1.00  0.00     0.010 A 
ATOM     31  C   UNL A   1      41.504  27.900  29.621  1.00  0.00    -0.014 A 
BRANCH  31  32
ATOM     32  C   UNL A   1      41.172  28.610  30.882  1.00  0.00     0.031 A 
ATOM     33  C   UNL A   1      40.039  29.598  30.850  1.00  0.00     0.074 A 
ATOM     34  C   UNL A   1      41.897  28.439  32.003  1.00  0.00     0.049 A 
ATOM     35  N   UNL A   1      39.675  30.470  31.750  1.00  0.00    -0.248 NA
ATOM     36  C   UNL A   1      39.215  29.610  29.628  1.00  0.00     0.031 C 
ATOM     37  C   UNL A   1      42.996  27.488  32.168  1.00  0.00     0.029 A 
ATOM     38  N   UNL A   1      41.836  29.093  33.211  1.00  0.00    -0.354 N 
ATOM     39  C   UNL A   1      38.600  31.155  31.196  1.00  0.00     0.074 A 
ATOM     40  C   UNL A   1      38.371  30.599  29.881  1.00  0.00     0.031 C 
ATOM     41  C   UNL A   1      43.532  27.650  33.391  1.00  0.00     0.029 A 
ATOM     42  C   UNL A   1      42.845  28.743  34.079  1.00  0.00     0.049 A 
ATOM     43  H   UNL A   1      41.137  29.750  33.433  1.00  0.00     0.167 HD
ATOM     44  C   UNL A   1      37.877  32.162  31.735  1.00  0.00     0.037 A 
ATOM     45  C   UNL A   1      43.200  29.277  35.266  1.00  0.00     0.037 A 
ATOM     46  C   UNL A   1      38.100  32.699  33.049  1.00  0.00     0.049 A 
ATOM     47  C   UNL A   1      42.412  30.443  35.819  1.00  0.00     0.074 A 
ATOM     48  C   UNL A   1      37.377  33.677  33.709  1.00  0.00     0.029 A 
ATOM     49  N   UNL A   1      39.127  32.318  33.897  1.00  0.00    -0.354 N 
ATOM     50  N   UNL A   1      41.362  31.046  35.310  1.00  0.00    -0.248 NA
ATOM     51  C   UNL A   1      42.862  31.010  37.100  1.00  0.00     0.031 C 
ATOM     52  C   UNL A   1      38.004  33.929  34.933  1.00  0.00     0.029 A 
ATOM     53  C   UNL A   1      39.085  33.071  35.056  1.00  0.00     0.049 A 
ATOM     54  H   UNL A   1      39.790  31.614  33.702  1.00  0.00     0.167 HD
ATOM     55  C   UNL A   1      41.020  32.046  36.216  1.00  0.00     0.074 A 
ATOM     56  C   UNL A   1      41.959  31.957  37.313  1.00  0.00     0.031 C 
ATOM     57  C   UNL A   1      40.022  32.961  36.145  1.00  0.00     0.037 A 
BRANCH  44  58
ATOM     58  C   UNL A   1      36.792  32.777  30.902  1.00  0.00     0.058 A 
ATOM     59  C   UNL A   1      35.446  32.412  31.054  1.00  0.00     0.135 A 
ATOM     60  C   UNL A   1      37.098  33.806  29.997  1.00  0.00     0.135 A 
ATOM     61  F   UNL A   1      35.105  31.417  31.887  1.00  0.00    -0.206 F 
ATOM     62  C   UNL A   1      34.438  33.051  30.340  1.00  0.00     0.059 A 
ATOM     63  C   UNL A   1      36.105  34.474  29.289  1.00  0.00     0.059 A 
ATOM     64  F   UNL A   1      38.373  34.181  29.808  1.00  0.00    -0.206 F 
ATOM     65  C   UNL A   1      34.777  34.088  29.467  1.00  0.00     0.060 A 
BRANCH  65  66
ATOM     66  S   UNL A   1      33.451  34.945  28.592  1.00  0.00     0.124 S 
ATOM     67  O   UNL A   1      32.733  33.830  27.985  1.00  0.00    -0.237 OA
ATOM     68  O   UNL A   1      32.756  35.630  29.679  1.00  0.00    -0.237 OA
ATOM     69  O   UNL A   1      34.163  35.815  27.662  1.00  0.00    -0.744 OA
ENDBRANCH  65  66
ENDBRANCH  44  58
BRANCH  45  70
ATOM     70  C   UNL A   1      44.398  28.775  35.997  1.00  0.00     0.058 A 
ATOM     71  C   UNL A   1      44.296  27.744  36.943  1.00  0.00     0.135 A 
ATOM     72  C   UNL A   1      45.661  29.357  35.804  1.00  0.00     0.135 A 
ATOM     73  F   UNL A   1      43.108  27.166  37.177  1.00  0.00    -0.206 F 
ATOM     74  C   UNL A   1      45.392  27.328  37.693  1.00  0.00     0.059 A 
ATOM     75  C   UNL A   1      46.779  28.939  36.521  1.00  0.00     0.059 A 
ATOM     76  F   UNL A   1      45.818  30.343  34.908  1.00  0.00    -0.206 F 
ATOM     77  C   UNL A   1      46.630  27.935  37.477  1.00  0.00     0.060 A 
BRANCH  77  78
ATOM     78  S   UNL A   1      48.051  27.383  38.445  1.00  0.00     0.124 S 
ATOM     79  O   UNL A   1      48.509  28.636  39.034  1.00  0.00    -0.237 OA
ATOM     80  O   UNL A   1      47.443  26.429  39.366  1.00  0.00    -0.237 OA
ATOM     81  O   UNL A   1      48.933  26.797  37.440  1.00  0.00    -0.744 OA
ENDBRANCH  77  78
ENDBRANCH  45  70
BRANCH  57  82
ATOM     82  C   UNL A   1      39.872  33.928  37.287  1.00  0.00     0.058 A 
ATOM     83  C   UNL A   1      40.424  35.216  37.236  1.00  0.00     0.135 A 
ATOM     84  C   UNL A   1      39.092  33.593  38.406  1.00  0.00     0.135 A 
ATOM     85  F   UNL A   1      41.182  35.584  36.191  1.00  0.00    -0.206 F 
ATOM     86  C   UNL A   1      40.219  36.136  38.259  1.00  0.00     0.059 A 
ATOM     87  C   UNL A   1      38.850  34.505  39.428  1.00  0.00     0.059 A 
ATOM     88  F   UNL A   1      38.530  32.376  38.499  1.00  0.00    -0.206 F 
ATOM     89  C   UNL A   1      39.424  35.773  39.349  1.00  0.00     0.060 A 
BRANCH  89  90
ATOM     90  S   UNL A   1      39.120  36.996  40.641  1.00  0.00     0.124 S 
ATOM     91  O   UNL A   1      38.520  36.176  41.688  1.00  0.00    -0.237 OA
ATOM     92  O   UNL A   1      40.462  37.497  40.920  1.00  0.00    -0.237 OA
ATOM     93  O   UNL A   1      38.220  37.952  40.001  1.00  0.00    -0.744 OA
ENDBRANCH  89  90
ENDBRANCH  57  82
ENDBRANCH  31  32
ENDBRANCH  24  26
ENDBRANCH  23  24
ENDBRANCH  22  23
ENDBRANCH  21  22
ENDBRANCH  20  21
ENDBRANCH  19  20
ENDBRANCH   1  19
TORSDOF 23
ENDMDL
MODEL 3
REMARK VINA RESULT:      -9.3      2.909      9.366
REMARK SMILES O=C(CCCCCC(F)(F)c1ccccc1)OCCOCCOC(=O)c1ccc(-c2c3nc(c(-c4c(F)cc(S(=O)(=O)[O-])cc4F)c4ccc([nH]4)c(-c4c(F)cc(S(=O)(=O)[O-])cc4F)c4nc(c(-c5c(F)cc(S(=O)(=O)[O-])cc5F)c5ccc2[nH]5)C=C4)C=C3)cc1
REMARK SMILES IDX 18 1 17 2 2 3 1 4 3 5 4 6 5 7 6 8 7 9 8 10 9 11 10 12 11 13
REMARK SMILES IDX 12 14 16 15 13 16 15 17 14 18 19 19 20 20 21 21 22 22 23 23
REMARK SMILES IDX 24 24 25 25 26 26 27 27 91 28 28 29 90 30 29 31 30 32 31 33
REMARK SMILES IDX 84 34 32 35 89 36 83 37 85 38 33 39 88 40 82 41 81 42 34 44
REMARK SMILES IDX 68 45 47 46 67 47 48 48 51 49 66 50 86 51 49 52 50 53 65 55
REMARK SMILES IDX 87 56 52 57 35 58 36 59 45 60 37 61 38 62 44 63 46 64 39 65
REMARK SMILES IDX 40 66 41 67 42 68 43 69 69 70 70 71 79 72 71 73 72 74 78 75
REMARK SMILES IDX 80 76 73 77 74 78 75 79 76 80 77 81 53 82 54 83 63 84 55 85
REMARK SMILES IDX 56 86 62 87 64 88 57 89 58 90 59 91 60 92 61 93
REMARK H PARENT 85 43 51 54
REMARK Flexibility Score: inf
ROOT
ATOM      1  C   UNL A   1      36.777  20.857  25.059  1.00  0.00     0.261 C 
ENDROOT
BRANCH   1   2
ATOM      2  O   UNL A   1      35.401  20.994  24.678  1.00  0.00    -0.463 OA
BRANCH   2   3
ATOM      3  C   UNL A   1      34.391  21.531  25.389  1.00  0.00     0.305 C 
ATOM      4  O   UNL A   1      34.375  21.371  26.611  1.00  0.00    -0.252 OA
BRANCH   3   5
ATOM      5  C   UNL A   1      33.250  22.267  24.726  1.00  0.00     0.123 C 
BRANCH   5   6
ATOM      6  C   UNL A   1      33.627  23.416  23.806  1.00  0.00     0.012 C 
BRANCH   6   7
ATOM      7  C   UNL A   1      34.569  24.453  24.405  1.00  0.00     0.001 C 
BRANCH   7   8
ATOM      8  C   UNL A   1      34.195  25.016  25.792  1.00  0.00     0.007 C 
BRANCH   8   9
ATOM      9  C   UNL A   1      33.568  26.421  25.829  1.00  0.00     0.082 C 
BRANCH   9  10
ATOM     10  C   UNL A   1      32.134  26.506  26.393  1.00  0.00     0.273 C 
ATOM     11  F   UNL A   1      31.766  25.248  26.780  1.00  0.00    -0.201 F 
ATOM     12  F   UNL A   1      32.200  27.229  27.553  1.00  0.00    -0.201 F 
BRANCH  10  13
ATOM     13  C   UNL A   1      31.164  27.128  25.411  1.00  0.00     0.021 A 
ATOM     14  C   UNL A   1      31.387  28.432  24.935  1.00  0.00     0.010 A 
ATOM     15  C   UNL A   1      30.159  26.344  24.819  1.00  0.00     0.010 A 
ATOM     16  C   UNL A   1      30.705  28.893  23.808  1.00  0.00     0.001 A 
ATOM     17  C   UNL A   1      29.473  26.814  23.697  1.00  0.00     0.001 A 
ATOM     18  C   UNL A   1      29.767  28.075  23.177  1.00  0.00     0.000 A 
ENDBRANCH  10  13
ENDBRANCH   9  10
ENDBRANCH   8   9
ENDBRANCH   7   8
ENDBRANCH   6   7
ENDBRANCH   5   6
ENDBRANCH   3   5
ENDBRANCH   2   3
ENDBRANCH   1   2
BRANCH   1  19
ATOM     19  C   UNL A   1      37.561  22.147  25.025  1.00  0.00     0.202 C 
BRANCH  19  20
ATOM     20  O   UNL A   1      38.435  22.331  26.134  1.00  0.00    -0.374 OA
BRANCH  20  21
ATOM     21  C   UNL A   1      39.525  21.408  26.155  1.00  0.00     0.202 C 
BRANCH  21  22
ATOM     22  C   UNL A   1      40.873  22.108  26.376  1.00  0.00     0.261 C 
BRANCH  22  23
ATOM     23  O   UNL A   1      40.753  23.531  26.191  1.00  0.00    -0.460 OA
BRANCH  23  24
ATOM     24  C   UNL A   1      41.907  24.243  26.341  1.00  0.00     0.338 C 
ATOM     25  O   UNL A   1      42.901  24.168  25.651  1.00  0.00    -0.246 OA
BRANCH  24  26
ATOM     26  C   UNL A   1      41.676  25.324  27.344  1.00  0.00     0.060 A 
ATOM     27  C   UNL A   1      42.422  26.507  27.220  1.00  0.00     0.016 A 
ATOM     28  C   UNL A   1      40.680  25.230  28.319  1.00  0.00     0.016 A 
ATOM     29  C   UNL A   1      42.174  27.594  28.065  1.00  0.00     0.010 A 
ATOM     30  C   UNL A   1      40.446  26.309  29.176  1.00  0.00     0.010 A 
ATOM     31  C   UNL A   1      41.201  27.490  29.064  1.00  0.00    -0.014 A 
BRANCH  31  32
ATOM     32  C   UNL A   1      41.074  28.525  30.120  1.00  0.00     0.031 A 
ATOM     33  C   UNL A   1      41.933  28.382  31.347  1.00  0.00     0.074 A 
ATOM     34  C   UNL A   1      40.175  29.522  30.031  1.00  0.00     0.049 A 
ATOM     35  N   UNL A   1      41.880  29.035  32.475  1.00  0.00    -0.248 NA
ATOM     36  C   UNL A   1      42.985  27.351  31.292  1.00  0.00     0.031 C 
ATOM     37  C   UNL A   1      39.309  29.786  28.881  1.00  0.00     0.029 A 
ATOM     38  N   UNL A   1      39.816  30.482  30.947  1.00  0.00    -0.354 N 
ATOM     39  C   UNL A   1      42.870  28.477  33.277  1.00  0.00     0.074 A 
ATOM     40  C   UNL A   1      43.506  27.432  32.507  1.00  0.00     0.031 C 
ATOM     41  C   UNL A   1      38.491  30.812  29.178  1.00  0.00     0.029 A 
ATOM     42  C   UNL A   1      38.743  31.250  30.551  1.00  0.00     0.049 A 
ATOM     43  H   UNL A   1      40.281  30.609  31.805  1.00  0.00     0.167 HD
ATOM     44  C   UNL A   1      43.208  28.805  34.544  1.00  0.00     0.037 A 
ATOM     45  C   UNL A   1      38.021  32.161  31.235  1.00  0.00     0.037 A 
ATOM     46  C   UNL A   1      42.583  29.856  35.298  1.00  0.00     0.049 A 
ATOM     47  C   UNL A   1      38.383  32.465  32.671  1.00  0.00     0.074 A 
ATOM     48  C   UNL A   1      42.901  30.306  36.568  1.00  0.00     0.029 A 
ATOM     49  N   UNL A   1      41.505  30.610  34.863  1.00  0.00    -0.354 N 
ATOM     50  N   UNL A   1      39.356  31.971  33.400  1.00  0.00    -0.248 NA
ATOM     51  C   UNL A   1      37.542  33.442  33.382  1.00  0.00     0.031 C 
ATOM     52  C   UNL A   1      41.976  31.292  36.922  1.00  0.00     0.029 A 
ATOM     53  C   UNL A   1      41.117  31.493  35.854  1.00  0.00     0.049 A 
ATOM     54  H   UNL A   1      41.078  30.529  33.978  1.00  0.00     0.167 HD
ATOM     55  C   UNL A   1      39.253  32.589  34.644  1.00  0.00     0.074 A 
ATOM     56  C   UNL A   1      38.138  33.506  34.564  1.00  0.00     0.031 C 
ATOM     57  C   UNL A   1      40.010  32.409  35.754  1.00  0.00     0.037 A 
BRANCH  44  58
ATOM     58  C   UNL A   1      44.286  28.006  35.216  1.00  0.00     0.058 A 
ATOM     59  C   UNL A   1      45.630  28.408  35.191  1.00  0.00     0.135 A 
ATOM     60  C   UNL A   1      43.952  26.867  35.966  1.00  0.00     0.135 A 
ATOM     61  F   UNL A   1      46.003  29.475  34.469  1.00  0.00    -0.206 F 
ATOM     62  C   UNL A   1      46.606  27.708  35.891  1.00  0.00     0.059 A 
ATOM     63  C   UNL A   1      44.908  26.165  36.692  1.00  0.00     0.059 A 
ATOM     64  F   UNL A   1      42.681  26.436  36.009  1.00  0.00    -0.206 F 
ATOM     65  C   UNL A   1      46.234  26.594  36.648  1.00  0.00     0.060 A 
BRANCH  65  66
ATOM     66  S   UNL A   1      47.505  25.733  37.597  1.00  0.00     0.124 S 
ATOM     67  O   UNL A   1      46.700  24.821  38.403  1.00  0.00    -0.237 OA
ATOM     68  O   UNL A   1      48.307  25.112  36.547  1.00  0.00    -0.237 OA
ATOM     69  O   UNL A   1      48.164  26.806  38.334  1.00  0.00    -0.744 OA
ENDBRANCH  65  66
ENDBRANCH  44  58
BRANCH  45  70
ATOM     70  C   UNL A   1      36.835  32.814  30.612  1.00  0.00     0.058 A 
ATOM     71  C   UNL A   1      36.964  33.983  29.847  1.00  0.00     0.135 A 
ATOM     72  C   UNL A   1      35.540  32.311  30.817  1.00  0.00     0.135 A 
ATOM     73  F   UNL A   1      38.177  34.513  29.634  1.00  0.00    -0.206 F 
ATOM     74  C   UNL A   1      35.853  34.647  29.334  1.00  0.00     0.059 A 
ATOM     75  C   UNL A   1      34.416  32.941  30.290  1.00  0.00     0.059 A 
ATOM     76  F   UNL A   1      35.358  31.192  31.536  1.00  0.00    -0.206 F 
ATOM     77  C   UNL A   1      34.582  34.120  29.565  1.00  0.00     0.060 A 
BRANCH  77  78
ATOM     78  S   UNL A   1      33.146  34.980  28.887  1.00  0.00     0.124 S 
ATOM     79  O   UNL A   1      32.608  33.977  27.975  1.00  0.00    -0.237 OA
ATOM     80  O   UNL A   1      32.355  35.247  30.082  1.00  0.00    -0.237 OA
ATOM     81  O   UNL A   1      33.731  36.160  28.255  1.00  0.00    -0.744 OA
ENDBRANCH  77  78
ENDBRANCH  45  70
BRANCH  57  82
ATOM     82  C   UNL A   1      39.680  33.230  36.970  1.00  0.00     0.058 A 
ATOM     83  C   UNL A   1      38.753  32.787  37.925  1.00  0.00     0.135 A 
ATOM     84  C   UNL A   1      40.364  34.430  37.227  1.00  0.00     0.135 A 
ATOM     85  F   UNL A   1      38.069  31.650  37.726  1.00  0.00    -0.206 F 
ATOM     86  C   UNL A   1      38.507  33.510  39.088  1.00  0.00     0.059 A 
ATOM     87  C   UNL A   1      40.153  35.156  38.395  1.00  0.00     0.059 A 
ATOM     88  F   UNL A   1      41.270  34.892  36.351  1.00  0.00    -0.206 F 
ATOM     89  C   UNL A   1      39.217  34.690  39.317  1.00  0.00     0.060 A 
BRANCH  89  90
ATOM     90  S   UNL A   1      38.928  35.589  40.856  1.00  0.00     0.124 S 
ATOM     91  O   UNL A   1      38.997  36.974  40.407  1.00  0.00    -0.237 OA
ATOM     92  O   UNL A   1      37.604  35.115  41.251  1.00  0.00    -0.237 OA
ATOM     93  O   UNL A   1      40.025  35.153  41.716  1.00  0.00    -0.744 OA
ENDBRANCH  89  90
ENDBRANCH  57  82
ENDBRANCH  31  32
ENDBRANCH  24  26
ENDBRANCH  23  24
ENDBRANCH  22  23
ENDBRANCH  21  22
ENDBRANCH  20  21
ENDBRANCH  19  20
ENDBRANCH   1  19
TORSDOF 23
ENDMDL
