MODEL 1
REMARK VINA RESULT:     -10.3      0.000      0.000
REMARK SMILES Cc1cc(=O)cc(C)n1C[C@H]1CCCC[C@@H]1C(=O)OCCOCCOC(=O)c1ccc(-c2c3nc(c(-c4c(F)cc(S(=O)(=O)[O-])cc4F)c4ccc([nH]4)c(-c4c(F)cc(S(=O)(=O)[O-])cc4F)c4nc(c(-c5c(F)cc(S(=O)(=O)[O-])cc5F)c5ccc2[nH]5)C=C4)C=C3)cc1
REMARK SMILES IDX 23 1 22 2 21 3 20 4 19 5 17 6 18 7 16 8 11 9 12 10 13 11
REMARK SMILES IDX 15 12 14 13 10 14 9 15 1 16 2 17 3 18 4 19 7 20 5 21 6 22
REMARK SMILES IDX 8 23 24 24 25 25 26 26 27 27 28 28 29 29 93 30 30 31 92 32
REMARK SMILES IDX 31 33 32 34 33 35 86 36 34 37 91 38 85 39 87 40 35 41 90 42
REMARK SMILES IDX 84 43 83 44 36 46 70 47 49 48 69 49 50 50 53 51 68 52 88 53
REMARK SMILES IDX 51 54 52 55 67 57 89 58 54 59 37 60 38 61 47 62 39 63 40 64
REMARK SMILES IDX 46 65 48 66 41 67 42 68 43 69 44 70 45 71 71 72 72 73 81 74
REMARK SMILES IDX 73 75 74 76 80 77 82 78 75 79 76 80 77 81 78 82 79 83 55 84
REMARK SMILES IDX 56 85 65 86 57 87 58 88 64 89 66 90 59 91 60 92 61 93 62 94
REMARK SMILES IDX 63 95
REMARK H PARENT 87 45 53 56
REMARK Flexibility Score: inf
ROOT
ATOM      1  C   UNL A   1      32.092  28.020  26.083  1.00  0.00     0.202 C 
ENDROOT
BRANCH   1   2
ATOM      2  O   UNL A   1      31.779  28.707  24.873  1.00  0.00    -0.374 OA
BRANCH   2   3
ATOM      3  C   UNL A   1      32.891  29.277  24.180  1.00  0.00     0.202 C 
BRANCH   3   4
ATOM      4  C   UNL A   1      33.242  28.581  22.863  1.00  0.00     0.261 C 
BRANCH   4   5
ATOM      5  O   UNL A   1      32.462  27.380  22.689  1.00  0.00    -0.463 OA
BRANCH   5   6
ATOM      6  C   UNL A   1      33.126  26.206  22.579  1.00  0.00     0.309 C 
ATOM      7  O   UNL A   1      33.911  25.929  21.681  1.00  0.00    -0.252 OA
BRANCH   6   8
ATOM      8  C   UNL A   1      32.857  25.256  23.747  1.00  0.00     0.104 C 
ATOM      9  C   UNL A   1      33.569  23.882  23.659  1.00  0.00     0.023 C 
ATOM     10  C   UNL A   1      32.765  22.924  22.759  1.00  0.00     0.006 C 
ATOM     11  C   UNL A   1      31.328  22.734  23.230  1.00  0.00     0.000 C 
ATOM     12  C   UNL A   1      31.354  25.150  24.058  1.00  0.00     0.016 C 
ATOM     13  C   UNL A   1      30.598  24.066  23.287  1.00  0.00     0.001 C 
BRANCH   9  14
ATOM     14  C   UNL A   1      33.792  23.305  25.090  1.00  0.00     0.126 C 
BRANCH  14  15
ATOM     15  N   UNL A   1      34.833  22.243  25.122  1.00  0.00    -0.349 N 
ATOM     16  C   UNL A   1      36.633  24.034  25.339  1.00  0.00     0.064 C 
ATOM     17  C   UNL A   1      36.210  22.598  25.138  1.00  0.00     0.018 A 
ATOM     18  C   UNL A   1      37.193  21.687  25.024  1.00  0.00     0.073 A 
ATOM     19  C   UNL A   1      36.859  20.261  24.912  1.00  0.00     0.182 A 
ATOM     20  C   UNL A   1      34.501  20.860  25.098  1.00  0.00     0.018 A 
ATOM     21  O   UNL A   1      37.735  19.409  24.847  1.00  0.00    -0.290 OA
ATOM     22  C   UNL A   1      35.436  19.900  24.969  1.00  0.00     0.073 A 
ATOM     23  C   UNL A   1      33.086  20.366  25.293  1.00  0.00     0.064 C 
ENDBRANCH  14  15
ENDBRANCH   9  14
ENDBRANCH   6   8
ENDBRANCH   5   6
ENDBRANCH   4   5
ENDBRANCH   3   4
ENDBRANCH   2   3
ENDBRANCH   1   2
BRANCH   1  24
ATOM     24  C   UNL A   1      33.590  27.943  26.409  1.00  0.00     0.261 C 
BRANCH  24  25
ATOM     25  O   UNL A   1      33.896  28.571  27.670  1.00  0.00    -0.460 OA
BRANCH  25  26
ATOM     26  C   UNL A   1      34.475  29.790  27.577  1.00  0.00     0.338 C 
ATOM     27  O   UNL A   1      33.925  30.845  27.284  1.00  0.00    -0.246 OA
BRANCH  26  28
ATOM     28  C   UNL A   1      35.869  29.729  28.054  1.00  0.00     0.060 A 
ATOM     29  C   UNL A   1      36.882  29.996  27.124  1.00  0.00     0.016 A 
ATOM     30  C   UNL A   1      36.189  29.351  29.361  1.00  0.00     0.016 A 
ATOM     31  C   UNL A   1      38.218  29.842  27.485  1.00  0.00     0.010 A 
ATOM     32  C   UNL A   1      37.534  29.189  29.717  1.00  0.00     0.010 A 
ATOM     33  C   UNL A   1      38.553  29.402  28.772  1.00  0.00    -0.014 A 
BRANCH  33  34
ATOM     34  C   UNL A   1      39.961  29.040  29.074  1.00  0.00     0.031 A 
ATOM     35  C   UNL A   1      40.823  30.020  29.825  1.00  0.00     0.074 A 
ATOM     36  C   UNL A   1      40.448  27.833  28.736  1.00  0.00     0.049 A 
ATOM     37  N   UNL A   1      42.071  29.907  30.199  1.00  0.00    -0.248 NA
ATOM     38  C   UNL A   1      40.194  31.294  30.209  1.00  0.00     0.031 C 
ATOM     39  C   UNL A   1      39.696  26.781  28.054  1.00  0.00     0.029 A 
ATOM     40  N   UNL A   1      41.693  27.285  28.930  1.00  0.00    -0.354 N 
ATOM     41  C   UNL A   1      42.375  31.087  30.868  1.00  0.00     0.074 A 
ATOM     42  C   UNL A   1      41.193  31.921  30.813  1.00  0.00     0.031 C 
ATOM     43  C   UNL A   1      40.493  25.710  27.892  1.00  0.00     0.029 A 
ATOM     44  C   UNL A   1      41.819  26.011  28.430  1.00  0.00     0.049 A 
ATOM     45  H   UNL A   1      42.425  27.760  29.384  1.00  0.00     0.167 HD
ATOM     46  C   UNL A   1      43.529  31.438  31.485  1.00  0.00     0.037 A 
ATOM     47  C   UNL A   1      42.884  25.185  28.402  1.00  0.00     0.037 A 
ATOM     48  C   UNL A   1      44.703  30.607  31.536  1.00  0.00     0.049 A 
ATOM     49  C   UNL A   1      44.185  25.634  29.017  1.00  0.00     0.074 A 
ATOM     50  C   UNL A   1      45.921  30.878  32.137  1.00  0.00     0.029 A 
ATOM     51  N   UNL A   1      44.811  29.349  30.964  1.00  0.00    -0.354 N 
ATOM     52  N   UNL A   1      44.457  26.752  29.648  1.00  0.00    -0.248 NA
ATOM     53  C   UNL A   1      45.326  24.713  28.914  1.00  0.00     0.031 C 
ATOM     54  C   UNL A   1      46.780  29.803  31.888  1.00  0.00     0.029 A 
ATOM     55  C   UNL A   1      46.082  28.840  31.176  1.00  0.00     0.049 A 
ATOM     56  H   UNL A   1      44.091  28.885  30.478  1.00  0.00     0.167 HD
ATOM     57  C   UNL A   1      45.788  26.655  30.040  1.00  0.00     0.074 A 
ATOM     58  C   UNL A   1      46.267  25.367  29.582  1.00  0.00     0.031 C 
ATOM     59  C   UNL A   1      46.545  27.553  30.720  1.00  0.00     0.037 A 
BRANCH  46  60
ATOM     60  C   UNL A   1      43.584  32.786  32.150  1.00  0.00     0.058 A 
ATOM     61  C   UNL A   1      44.013  33.929  31.457  1.00  0.00     0.135 A 
ATOM     62  C   UNL A   1      43.154  32.946  33.477  1.00  0.00     0.135 A 
ATOM     63  F   UNL A   1      44.452  33.829  30.193  1.00  0.00    -0.206 F 
ATOM     64  C   UNL A   1      44.029  35.182  32.062  1.00  0.00     0.059 A 
ATOM     65  C   UNL A   1      43.136  34.195  34.093  1.00  0.00     0.059 A 
ATOM     66  F   UNL A   1      42.737  31.886  34.185  1.00  0.00    -0.206 F 
ATOM     67  C   UNL A   1      43.585  35.305  33.380  1.00  0.00     0.060 A 
BRANCH  67  68
ATOM     68  S   UNL A   1      43.599  36.941  34.144  1.00  0.00     0.124 S 
ATOM     69  O   UNL A   1      43.410  37.806  32.983  1.00  0.00    -0.237 OA
ATOM     70  O   UNL A   1      42.471  36.862  35.066  1.00  0.00    -0.237 OA
ATOM     71  O   UNL A   1      44.915  37.014  34.771  1.00  0.00    -0.744 OA
ENDBRANCH  67  68
ENDBRANCH  46  60
BRANCH  47  72
ATOM     72  C   UNL A   1      42.763  23.840  27.778  1.00  0.00     0.058 A 
ATOM     73  C   UNL A   1      42.469  22.711  28.556  1.00  0.00     0.135 A 
ATOM     74  C   UNL A   1      42.928  23.657  26.397  1.00  0.00     0.135 A 
ATOM     75  F   UNL A   1      42.313  22.831  29.883  1.00  0.00    -0.206 F 
ATOM     76  C   UNL A   1      42.349  21.447  27.988  1.00  0.00     0.059 A 
ATOM     77  C   UNL A   1      42.788  22.408  25.801  1.00  0.00     0.059 A 
ATOM     78  F   UNL A   1      43.205  24.709  25.608  1.00  0.00    -0.206 F 
ATOM     79  C   UNL A   1      42.506  21.306  26.608  1.00  0.00     0.060 A 
BRANCH  79  80
ATOM     80  S   UNL A   1      42.307  19.663  25.886  1.00  0.00     0.124 S 
ATOM     81  O   UNL A   1      40.899  19.677  25.507  1.00  0.00    -0.237 OA
ATOM     82  O   UNL A   1      43.264  19.700  24.786  1.00  0.00    -0.237 OA
ATOM     83  O   UNL A   1      42.652  18.768  26.986  1.00  0.00    -0.744 OA
ENDBRANCH  79  80
ENDBRANCH  47  72
BRANCH  59  84
ATOM     84  C   UNL A   1      47.967  27.177  31.038  1.00  0.00     0.058 A 
ATOM     85  C   UNL A   1      48.295  26.448  32.191  1.00  0.00     0.135 A 
ATOM     86  C   UNL A   1      49.001  27.474  30.134  1.00  0.00     0.135 A 
ATOM     87  F   UNL A   1      47.346  26.143  33.091  1.00  0.00    -0.206 F 
ATOM     88  C   UNL A   1      49.600  26.034  32.442  1.00  0.00     0.059 A 
ATOM     89  C   UNL A   1      50.307  27.048  30.352  1.00  0.00     0.059 A 
ATOM     90  F   UNL A   1      48.740  28.160  29.010  1.00  0.00    -0.206 F 
ATOM     91  C   UNL A   1      50.599  26.333  31.513  1.00  0.00     0.060 A 
BRANCH  91  92
ATOM     92  S   UNL A   1      52.274  25.739  31.827  1.00  0.00     0.124 S 
ATOM     93  O   UNL A   1      52.680  26.579  32.948  1.00  0.00    -0.237 OA
ATOM     94  O   UNL A   1      52.052  24.330  32.138  1.00  0.00    -0.237 OA
ATOM     95  O   UNL A   1      52.969  25.994  30.568  1.00  0.00    -0.744 OA
ENDBRANCH  91  92
ENDBRANCH  59  84
ENDBRANCH  33  34
ENDBRANCH  26  28
ENDBRANCH  25  26
ENDBRANCH  24  25
ENDBRANCH   1  24
TORSDOF 19
ENDMDL
MODEL 2
REMARK VINA RESULT:     -10.3      4.251     10.072
REMARK SMILES Cc1cc(=O)cc(C)n1C[C@H]1CCCC[C@@H]1C(=O)OCCOCCOC(=O)c1ccc(-c2c3nc(c(-c4c(F)cc(S(=O)(=O)[O-])cc4F)c4ccc([nH]4)c(-c4c(F)cc(S(=O)(=O)[O-])cc4F)c4nc(c(-c5c(F)cc(S(=O)(=O)[O-])cc5F)c5ccc2[nH]5)C=C4)C=C3)cc1
REMARK SMILES IDX 23 1 22 2 21 3 20 4 19 5 17 6 18 7 16 8 11 9 12 10 13 11
REMARK SMILES IDX 15 12 14 13 10 14 9 15 1 16 2 17 3 18 4 19 7 20 5 21 6 22
REMARK SMILES IDX 8 23 24 24 25 25 26 26 27 27 28 28 29 29 93 30 30 31 92 32
REMARK SMILES IDX 31 33 32 34 33 35 86 36 34 37 91 38 85 39 87 40 35 41 90 42
REMARK SMILES IDX 84 43 83 44 36 46 70 47 49 48 69 49 50 50 53 51 68 52 88 53
REMARK SMILES IDX 51 54 52 55 67 57 89 58 54 59 37 60 38 61 47 62 39 63 40 64
REMARK SMILES IDX 46 65 48 66 41 67 42 68 43 69 44 70 45 71 71 72 72 73 81 74
REMARK SMILES IDX 73 75 74 76 80 77 82 78 75 79 76 80 77 81 78 82 79 83 55 84
REMARK SMILES IDX 56 85 65 86 57 87 58 88 64 89 66 90 59 91 60 92 61 93 62 94
REMARK SMILES IDX 63 95
REMARK H PARENT 87 45 53 56
REMARK Flexibility Score: inf
ROOT
ATOM      1  C   UNL A   1      40.775  21.064  26.429  1.00  0.00     0.202 C 
ENDROOT
BRANCH   1   2
ATOM      2  O   UNL A   1      39.515  21.471  25.899  1.00  0.00    -0.374 OA
BRANCH   2   3
ATOM      3  C   UNL A   1      38.606  20.414  25.585  1.00  0.00     0.202 C 
BRANCH   3   4
ATOM      4  C   UNL A   1      37.351  20.861  24.832  1.00  0.00     0.261 C 
BRANCH   4   5
ATOM      5  O   UNL A   1      37.460  22.237  24.415  1.00  0.00    -0.463 OA
BRANCH   5   6
ATOM      6  C   UNL A   1      36.461  22.749  23.659  1.00  0.00     0.309 C 
ATOM      7  O   UNL A   1      36.576  23.091  22.488  1.00  0.00    -0.252 OA
BRANCH   6   8
ATOM      8  C   UNL A   1      35.120  22.797  24.393  1.00  0.00     0.104 C 
ATOM      9  C   UNL A   1      33.874  22.948  23.484  1.00  0.00     0.023 C 
ATOM     10  C   UNL A   1      33.666  24.429  23.109  1.00  0.00     0.006 C 
ATOM     11  C   UNL A   1      33.532  25.335  24.328  1.00  0.00     0.000 C 
ATOM     12  C   UNL A   1      35.150  23.794  25.564  1.00  0.00     0.016 C 
ATOM     13  C   UNL A   1      34.762  25.232  25.215  1.00  0.00     0.001 C 
BRANCH   9  14
ATOM     14  C   UNL A   1      32.625  22.332  24.185  1.00  0.00     0.126 C 
BRANCH  14  15
ATOM     15  N   UNL A   1      32.625  20.846  24.149  1.00  0.00    -0.349 N 
ATOM     16  C   UNL A   1      33.173  20.799  26.637  1.00  0.00     0.064 C 
ATOM     17  C   UNL A   1      32.991  20.106  25.307  1.00  0.00     0.018 A 
ATOM     18  C   UNL A   1      33.145  18.770  25.294  1.00  0.00     0.073 A 
ATOM     19  C   UNL A   1      32.900  18.019  24.056  1.00  0.00     0.182 A 
ATOM     20  C   UNL A   1      32.304  20.120  22.969  1.00  0.00     0.018 A 
ATOM     21  O   UNL A   1      32.996  16.799  24.028  1.00  0.00    -0.290 OA
ATOM     22  C   UNL A   1      32.453  18.783  22.885  1.00  0.00     0.073 A 
ATOM     23  C   UNL A   1      31.702  20.782  21.751  1.00  0.00     0.064 C 
ENDBRANCH  14  15
ENDBRANCH   9  14
ENDBRANCH   6   8
ENDBRANCH   5   6
ENDBRANCH   4   5
ENDBRANCH   3   4
ENDBRANCH   2   3
ENDBRANCH   1   2
BRANCH   1  24
ATOM     24  C   UNL A   1      41.794  22.196  26.610  1.00  0.00     0.261 C 
BRANCH  24  25
ATOM     25  O   UNL A   1      41.178  23.495  26.501  1.00  0.00    -0.460 OA
BRANCH  25  26
ATOM     26  C   UNL A   1      42.040  24.537  26.469  1.00  0.00     0.338 C 
ATOM     27  O   UNL A   1      42.984  24.688  25.703  1.00  0.00    -0.246 OA
BRANCH  26  28
ATOM     28  C   UNL A   1      41.593  25.596  27.393  1.00  0.00     0.060 A 
ATOM     29  C   UNL A   1      42.379  26.751  27.479  1.00  0.00     0.016 A 
ATOM     30  C   UNL A   1      40.472  25.439  28.213  1.00  0.00     0.016 A 
ATOM     31  C   UNL A   1      42.072  27.736  28.415  1.00  0.00     0.010 A 
ATOM     32  C   UNL A   1      40.171  26.426  29.159  1.00  0.00     0.010 A 
ATOM     33  C   UNL A   1      40.989  27.563  29.288  1.00  0.00    -0.014 A 
BRANCH  33  34
ATOM     34  C   UNL A   1      40.803  28.513  30.413  1.00  0.00     0.031 A 
ATOM     35  C   UNL A   1      41.725  28.430  31.601  1.00  0.00     0.074 A 
ATOM     36  C   UNL A   1      39.864  29.474  30.354  1.00  0.00     0.049 A 
ATOM     37  N   UNL A   1      41.746  29.160  32.686  1.00  0.00    -0.248 NA
ATOM     38  C   UNL A   1      42.763  27.387  31.559  1.00  0.00     0.031 C 
ATOM     39  C   UNL A   1      38.947  29.688  29.236  1.00  0.00     0.029 A 
ATOM     40  N   UNL A   1      39.531  30.456  31.255  1.00  0.00    -0.354 N 
ATOM     41  C   UNL A   1      42.800  28.675  33.450  1.00  0.00     0.074 A 
ATOM     42  C   UNL A   1      43.370  27.559  32.725  1.00  0.00     0.031 C 
ATOM     43  C   UNL A   1      38.159  30.742  29.514  1.00  0.00     0.029 A 
ATOM     44  C   UNL A   1      38.494  31.257  30.841  1.00  0.00     0.049 A 
ATOM     45  H   UNL A   1      39.993  30.575  32.116  1.00  0.00     0.167 HD
ATOM     46  C   UNL A   1      43.262  29.126  34.641  1.00  0.00     0.037 A 
ATOM     47  C   UNL A   1      37.880  32.283  31.464  1.00  0.00     0.037 A 
ATOM     48  C   UNL A   1      42.692  30.235  35.361  1.00  0.00     0.049 A 
ATOM     49  C   UNL A   1      38.354  32.710  32.829  1.00  0.00     0.074 A 
ATOM     50  C   UNL A   1      43.090  30.766  36.576  1.00  0.00     0.029 A 
ATOM     51  N   UNL A   1      41.602  30.981  34.937  1.00  0.00    -0.354 N 
ATOM     52  N   UNL A   1      39.354  32.243  33.539  1.00  0.00    -0.248 NA
ATOM     53  C   UNL A   1      37.616  33.801  33.482  1.00  0.00     0.031 C 
ATOM     54  C   UNL A   1      42.212  31.802  36.909  1.00  0.00     0.029 A 
ATOM     55  C   UNL A   1      41.299  31.952  35.877  1.00  0.00     0.049 A 
ATOM     56  H   UNL A   1      41.116  30.841  34.092  1.00  0.00     0.167 HD
ATOM     57  C   UNL A   1      39.381  33.000  34.706  1.00  0.00     0.074 A 
ATOM     58  C   UNL A   1      38.303  33.962  34.605  1.00  0.00     0.031 C 
ATOM     59  C   UNL A   1      40.225  32.908  35.764  1.00  0.00     0.037 A 
BRANCH  46  60
ATOM     60  C   UNL A   1      44.439  28.416  35.250  1.00  0.00     0.058 A 
ATOM     61  C   UNL A   1      44.271  27.310  36.099  1.00  0.00     0.135 A 
ATOM     62  C   UNL A   1      45.750  28.811  34.940  1.00  0.00     0.135 A 
ATOM     63  F   UNL A   1      43.039  26.902  36.442  1.00  0.00    -0.206 F 
ATOM     64  C   UNL A   1      45.361  26.631  36.632  1.00  0.00     0.059 A 
ATOM     65  C   UNL A   1      46.856  28.129  35.441  1.00  0.00     0.059 A 
ATOM     66  F   UNL A   1      45.967  29.863  34.136  1.00  0.00    -0.206 F 
ATOM     67  C   UNL A   1      46.651  27.046  36.294  1.00  0.00     0.060 A 
BRANCH  67  68
ATOM     68  S   UNL A   1      48.054  26.143  36.984  1.00  0.00     0.124 S 
ATOM     69  O   UNL A   1      47.725  26.135  38.406  1.00  0.00    -0.237 OA
ATOM     70  O   UNL A   1      47.958  24.856  36.304  1.00  0.00    -0.237 OA
ATOM     71  O   UNL A   1      49.203  26.963  36.612  1.00  0.00    -0.744 OA
ENDBRANCH  67  68
ENDBRANCH  46  60
BRANCH  47  72
ATOM     72  C   UNL A   1      36.752  32.987  30.796  1.00  0.00     0.058 A 
ATOM     73  C   UNL A   1      35.426  32.749  31.184  1.00  0.00     0.135 A 
ATOM     74  C   UNL A   1      36.976  33.916  29.768  1.00  0.00     0.135 A 
ATOM     75  F   UNL A   1      35.159  31.862  32.154  1.00  0.00    -0.206 F 
ATOM     76  C   UNL A   1      34.360  33.401  30.572  1.00  0.00     0.059 A 
ATOM     77  C   UNL A   1      35.930  34.599  29.158  1.00  0.00     0.059 A 
ATOM     78  F   UNL A   1      38.229  34.183  29.365  1.00  0.00    -0.206 F 
ATOM     79  C   UNL A   1      34.623  34.329  29.562  1.00  0.00     0.060 A 
BRANCH  79  80
ATOM     80  S   UNL A   1      33.228  35.193  28.809  1.00  0.00     0.124 S 
ATOM     81  O   UNL A   1      33.901  36.273  28.097  1.00  0.00    -0.237 OA
ATOM     82  O   UNL A   1      32.642  34.149  27.976  1.00  0.00    -0.237 OA
ATOM     83  O   UNL A   1      32.426  35.602  29.957  1.00  0.00    -0.744 OA
ENDBRANCH  79  80
ENDBRANCH  47  72
BRANCH  59  84
ATOM     84  C   UNL A   1      40.043  33.881  36.897  1.00  0.00     0.058 A 
ATOM     85  C   UNL A   1      40.628  35.156  36.872  1.00  0.00     0.135 A 
ATOM     86  C   UNL A   1      39.202  33.566  37.977  1.00  0.00     0.135 A 
ATOM     87  F   UNL A   1      41.445  35.506  35.865  1.00  0.00    -0.206 F 
ATOM     88  C   UNL A   1      40.394  36.083  37.884  1.00  0.00     0.059 A 
ATOM     89  C   UNL A   1      38.933  34.486  38.986  1.00  0.00     0.059 A 
ATOM     90  F   UNL A   1      38.609  32.365  38.045  1.00  0.00    -0.206 F 
ATOM     91  C   UNL A   1      39.539  35.742  38.934  1.00  0.00     0.060 A 
BRANCH  91  92
ATOM     92  S   UNL A   1      39.201  36.975  40.207  1.00  0.00     0.124 S 
ATOM     93  O   UNL A   1      38.556  38.030  39.433  1.00  0.00    -0.237 OA
ATOM     94  O   UNL A   1      38.334  36.244  41.127  1.00  0.00    -0.237 OA
ATOM     95  O   UNL A   1      40.525  37.300  40.729  1.00  0.00    -0.744 OA
ENDBRANCH  91  92
ENDBRANCH  59  84
ENDBRANCH  33  34
ENDBRANCH  26  28
ENDBRANCH  25  26
ENDBRANCH  24  25
ENDBRANCH   1  24
TORSDOF 19
ENDMDL
MODEL 3
REMARK VINA RESULT:     -10.2      4.417     10.248
REMARK SMILES Cc1cc(=O)cc(C)n1C[C@H]1CCCC[C@@H]1C(=O)OCCOCCOC(=O)c1ccc(-c2c3nc(c(-c4c(F)cc(S(=O)(=O)[O-])cc4F)c4ccc([nH]4)c(-c4c(F)cc(S(=O)(=O)[O-])cc4F)c4nc(c(-c5c(F)cc(S(=O)(=O)[O-])cc5F)c5ccc2[nH]5)C=C4)C=C3)cc1
REMARK SMILES IDX 23 1 22 2 21 3 20 4 19 5 17 6 18 7 16 8 11 9 12 10 13 11
REMARK SMILES IDX 15 12 14 13 10 14 9 15 1 16 2 17 3 18 4 19 7 20 5 21 6 22
REMARK SMILES IDX 8 23 24 24 25 25 26 26 27 27 28 28 29 29 93 30 30 31 92 32
REMARK SMILES IDX 31 33 32 34 33 35 86 36 34 37 91 38 85 39 87 40 35 41 90 42
REMARK SMILES IDX 84 43 83 44 36 46 70 47 49 48 69 49 50 50 53 51 68 52 88 53
REMARK SMILES IDX 51 54 52 55 67 57 89 58 54 59 37 60 38 61 47 62 39 63 40 64
REMARK SMILES IDX 46 65 48 66 41 67 42 68 43 69 44 70 45 71 71 72 72 73 81 74
REMARK SMILES IDX 73 75 74 76 80 77 82 78 75 79 76 80 77 81 78 82 79 83 55 84
REMARK SMILES IDX 56 85 65 86 57 87 58 88 64 89 66 90 59 91 60 92 61 93 62 94
REMARK SMILES IDX 63 95
REMARK H PARENT 87 45 53 56
REMARK Flexibility Score: inf
ROOT
ATOM      1  C   UNL A   1      40.779  21.592  26.401  1.00  0.00     0.202 C 
ENDROOT
BRANCH   1   2
ATOM      2  O   UNL A   1      39.393  21.768  26.687  1.00  0.00    -0.374 OA
BRANCH   2   3
ATOM      3  C   UNL A   1      38.495  21.415  25.632  1.00  0.00     0.202 C 
BRANCH   3   4
ATOM      4  C   UNL A   1      37.606  22.562  25.147  1.00  0.00     0.261 C 
BRANCH   4   5
ATOM      5  O   UNL A   1      36.440  22.059  24.463  1.00  0.00    -0.463 OA
BRANCH   5   6
ATOM      6  C   UNL A   1      35.910  22.818  23.477  1.00  0.00     0.309 C 
ATOM      7  O   UNL A   1      36.519  23.199  22.484  1.00  0.00    -0.252 OA
BRANCH   6   8
ATOM      8  C   UNL A   1      34.422  23.110  23.680  1.00  0.00     0.104 C 
ATOM      9  C   UNL A   1      34.100  24.468  24.353  1.00  0.00     0.023 C 
ATOM     10  C   UNL A   1      34.235  24.349  25.883  1.00  0.00     0.006 C 
ATOM     11  C   UNL A   1      33.350  23.255  26.472  1.00  0.00     0.000 C 
ATOM     12  C   UNL A   1      33.694  21.918  24.324  1.00  0.00     0.016 C 
ATOM     13  C   UNL A   1      33.676  21.905  25.854  1.00  0.00     0.001 C 
BRANCH   9  14
ATOM     14  C   UNL A   1      32.685  24.956  23.917  1.00  0.00     0.126 C 
BRANCH  14  15
ATOM     15  N   UNL A   1      32.427  26.371  24.295  1.00  0.00    -0.349 N 
ATOM     16  C   UNL A   1      33.781  27.140  22.277  1.00  0.00     0.064 C 
ATOM     17  C   UNL A   1      33.042  27.425  23.563  1.00  0.00     0.018 A 
ATOM     18  C   UNL A   1      32.960  28.713  23.943  1.00  0.00     0.073 A 
ATOM     19  C   UNL A   1      32.185  29.074  25.137  1.00  0.00     0.182 A 
ATOM     20  C   UNL A   1      31.606  26.719  25.402  1.00  0.00     0.018 A 
ATOM     21  O   UNL A   1      32.062  30.242  25.481  1.00  0.00    -0.290 OA
ATOM     22  C   UNL A   1      31.495  27.987  25.843  1.00  0.00     0.073 A 
ATOM     23  C   UNL A   1      30.740  25.707  26.116  1.00  0.00     0.064 C 
ENDBRANCH  14  15
ENDBRANCH   9  14
ENDBRANCH   6   8
ENDBRANCH   5   6
ENDBRANCH   4   5
ENDBRANCH   3   4
ENDBRANCH   2   3
ENDBRANCH   1   2
BRANCH   1  24
ATOM     24  C   UNL A   1      41.555  22.893  26.152  1.00  0.00     0.261 C 
BRANCH  24  25
ATOM     25  O   UNL A   1      40.767  24.056  26.472  1.00  0.00    -0.460 OA
BRANCH  25  26
ATOM     26  C   UNL A   1      41.382  25.242  26.253  1.00  0.00     0.338 C 
ATOM     27  O   UNL A   1      41.754  25.689  25.175  1.00  0.00    -0.246 OA
BRANCH  26  28
ATOM     28  C   UNL A   1      41.401  26.042  27.492  1.00  0.00     0.060 A 
ATOM     29  C   UNL A   1      40.421  25.767  28.453  1.00  0.00     0.016 A 
ATOM     30  C   UNL A   1      42.309  27.087  27.684  1.00  0.00     0.016 A 
ATOM     31  C   UNL A   1      40.316  26.564  29.591  1.00  0.00     0.010 A 
ATOM     32  C   UNL A   1      42.195  27.891  28.825  1.00  0.00     0.010 A 
ATOM     33  C   UNL A   1      41.178  27.654  29.767  1.00  0.00    -0.014 A 
BRANCH  33  34
ATOM     34  C   UNL A   1      40.920  28.615  30.868  1.00  0.00     0.031 A 
ATOM     35  C   UNL A   1      41.796  28.578  32.093  1.00  0.00     0.074 A 
ATOM     36  C   UNL A   1      39.957  29.547  30.756  1.00  0.00     0.049 A 
ATOM     37  N   UNL A   1      41.753  29.326  33.165  1.00  0.00    -0.248 NA
ATOM     38  C   UNL A   1      42.865  27.565  32.109  1.00  0.00     0.031 C 
ATOM     39  C   UNL A   1      39.079  29.718  29.599  1.00  0.00     0.029 A 
ATOM     40  N   UNL A   1      39.561  30.534  31.626  1.00  0.00    -0.354 N 
ATOM     41  C   UNL A   1      42.790  28.883  33.978  1.00  0.00     0.074 A 
ATOM     42  C   UNL A   1      43.420  27.774  33.294  1.00  0.00     0.031 C 
ATOM     43  C   UNL A   1      38.251  30.752  29.828  1.00  0.00     0.029 A 
ATOM     44  C   UNL A   1      38.519  31.298  31.159  1.00  0.00     0.049 A 
ATOM     45  H   UNL A   1      39.985  30.680  32.503  1.00  0.00     0.167 HD
ATOM     46  C   UNL A   1      43.191  29.367  35.178  1.00  0.00     0.037 A 
ATOM     47  C   UNL A   1      37.851  32.315  31.740  1.00  0.00     0.037 A 
ATOM     48  C   UNL A   1      42.561  30.470  35.856  1.00  0.00     0.049 A 
ATOM     49  C   UNL A   1      38.258  32.777  33.115  1.00  0.00     0.074 A 
ATOM     50  C   UNL A   1      42.895  31.031  37.077  1.00  0.00     0.029 A 
ATOM     51  N   UNL A   1      41.469  31.177  35.377  1.00  0.00    -0.354 N 
ATOM     52  N   UNL A   1      39.242  32.350  33.871  1.00  0.00    -0.248 NA
ATOM     53  C   UNL A   1      37.464  33.856  33.720  1.00  0.00     0.031 C 
ATOM     54  C   UNL A   1      41.976  32.046  37.358  1.00  0.00     0.029 A 
ATOM     55  C   UNL A   1      41.100  32.152  36.289  1.00  0.00     0.049 A 
ATOM     56  H   UNL A   1      41.020  31.010  34.516  1.00  0.00     0.167 HD
ATOM     57  C   UNL A   1      39.202  33.126  35.025  1.00  0.00     0.074 A 
ATOM     58  C   UNL A   1      38.101  34.054  34.867  1.00  0.00     0.031 C 
ATOM     59  C   UNL A   1      40.006  33.075  36.117  1.00  0.00     0.037 A 
BRANCH  46  60
ATOM     60  C   UNL A   1      44.363  28.701  35.845  1.00  0.00     0.058 A 
ATOM     61  C   UNL A   1      45.675  29.165  35.658  1.00  0.00     0.135 A 
ATOM     62  C   UNL A   1      44.168  27.621  36.721  1.00  0.00     0.135 A 
ATOM     63  F   UNL A   1      45.919  30.182  34.817  1.00  0.00    -0.206 F 
ATOM     64  C   UNL A   1      46.754  28.572  36.304  1.00  0.00     0.059 A 
ATOM     65  C   UNL A   1      45.231  27.029  37.398  1.00  0.00     0.059 A 
ATOM     66  F   UNL A   1      42.935  27.137  36.933  1.00  0.00    -0.206 F 
ATOM     67  C   UNL A   1      46.521  27.506  37.176  1.00  0.00     0.060 A 
BRANCH  67  68
ATOM     68  S   UNL A   1      47.933  26.758  38.017  1.00  0.00     0.124 S 
ATOM     69  O   UNL A   1      48.792  26.407  36.890  1.00  0.00    -0.237 OA
ATOM     70  O   UNL A   1      48.407  27.852  38.858  1.00  0.00    -0.237 OA
ATOM     71  O   UNL A   1      47.345  25.629  38.732  1.00  0.00    -0.744 OA
ENDBRANCH  67  68
ENDBRANCH  46  60
BRANCH  47  72
ATOM     72  C   UNL A   1      36.732  32.975  31.017  1.00  0.00     0.058 A 
ATOM     73  C   UNL A   1      35.399  32.725  31.373  1.00  0.00     0.135 A 
ATOM     74  C   UNL A   1      36.969  33.874  29.966  1.00  0.00     0.135 A 
ATOM     75  F   UNL A   1      35.119  31.864  32.364  1.00  0.00    -0.206 F 
ATOM     76  C   UNL A   1      34.340  33.336  30.709  1.00  0.00     0.059 A 
ATOM     77  C   UNL A   1      35.929  34.518  29.303  1.00  0.00     0.059 A 
ATOM     78  F   UNL A   1      38.229  34.152  29.591  1.00  0.00    -0.206 F 
ATOM     79  C   UNL A   1      34.616  34.235  29.678  1.00  0.00     0.060 A 
BRANCH  79  80
ATOM     80  S   UNL A   1      33.228  35.048  28.856  1.00  0.00     0.124 S 
ATOM     81  O   UNL A   1      33.882  36.197  28.241  1.00  0.00    -0.237 OA
ATOM     82  O   UNL A   1      32.771  34.009  27.940  1.00  0.00    -0.237 OA
ATOM     83  O   UNL A   1      32.320  35.356  29.955  1.00  0.00    -0.744 OA
ENDBRANCH  79  80
ENDBRANCH  47  72
BRANCH  59  84
ATOM     84  C   UNL A   1      39.751  34.060  37.225  1.00  0.00     0.058 A 
ATOM     85  C   UNL A   1      38.890  33.760  38.292  1.00  0.00     0.135 A 
ATOM     86  C   UNL A   1      40.443  35.282  37.265  1.00  0.00     0.135 A 
ATOM     87  F   UNL A   1      38.200  32.609  38.301  1.00  0.00    -0.206 F 
ATOM     88  C   UNL A   1      38.717  34.641  39.356  1.00  0.00     0.059 A 
ATOM     89  C   UNL A   1      40.305  36.166  38.331  1.00  0.00     0.059 A 
ATOM     90  F   UNL A   1      41.287  35.614  36.275  1.00  0.00    -0.206 F 
ATOM     91  C   UNL A   1      39.435  35.839  39.370  1.00  0.00     0.060 A 
BRANCH  91  92
ATOM     92  S   UNL A   1      39.242  36.943  40.785  1.00  0.00     0.124 S 
ATOM     93  O   UNL A   1      38.486  36.107  41.712  1.00  0.00    -0.237 OA
ATOM     94  O   UNL A   1      40.627  37.214  41.160  1.00  0.00    -0.237 OA
ATOM     95  O   UNL A   1      38.515  38.083  40.233  1.00  0.00    -0.744 OA
ENDBRANCH  91  92
ENDBRANCH  59  84
ENDBRANCH  33  34
ENDBRANCH  26  28
ENDBRANCH  25  26
ENDBRANCH  24  25
ENDBRANCH   1  24
TORSDOF 19
ENDMDL
