MODEL 1
REMARK VINA RESULT:     -10.5      0.000      0.000
REMARK SMILES N#Cc1ccc(C[N@H+]2CCCC[C@H]2C(=O)OCCOCCOC(=O)c2ccc(-c3c4nc(c(-c5c(F)cc(S(=O)(=O)[O-])cc5F)c5ccc([nH]5)c(-c5c(F)cc(S(=O)(=O)[O-])cc5F)c5nc(c(-c6c(F)cc(S(=O)(=O)[O-])cc6F)c6ccc3[nH]6)C=C5)C=C4)cc2)c(F)c1
REMARK SMILES IDX 19 1 18 2 17 3 16 4 14 5 15 6 13 7 8 8 9 9 10 11 12 12 11 13
REMARK SMILES IDX 7 14 6 15 3 16 4 17 93 18 5 19 91 20 92 21 2 22 1 23 20 24
REMARK SMILES IDX 21 25 22 26 23 27 24 28 25 29 26 30 90 31 27 32 89 33 28 34
REMARK SMILES IDX 29 35 30 36 83 37 31 38 88 39 82 40 84 41 32 42 87 43 81 44
REMARK SMILES IDX 80 45 33 47 67 48 46 49 66 50 47 51 50 52 65 53 85 54 48 55
REMARK SMILES IDX 49 56 64 58 86 59 51 60 34 61 35 62 44 63 36 64 37 65 43 66
REMARK SMILES IDX 45 67 38 68 39 69 40 70 41 71 42 72 68 73 69 74 78 75 70 76
REMARK SMILES IDX 71 77 77 78 79 79 72 80 73 81 74 82 75 83 76 84 52 85 53 86
REMARK SMILES IDX 62 87 54 88 55 89 61 90 63 91 56 92 57 93 58 94 59 95 60 96
REMARK H PARENT 8 10 84 46 50 57
REMARK Flexibility Score: inf
ROOT
ATOM      1  O   UNL A   1      33.144  29.504  25.138  1.00  0.00    -0.374 OA
ENDROOT
BRANCH   1   2
ATOM      2  C   UNL A   1      32.614  28.444  24.353  1.00  0.00     0.202 C 
BRANCH   2   3
ATOM      3  C   UNL A   1      33.427  27.356  23.593  1.00  0.00     0.261 C 
BRANCH   3   4
ATOM      4  O   UNL A   1      32.756  26.255  22.958  1.00  0.00    -0.459 OA
BRANCH   4   5
ATOM      5  C   UNL A   1      33.243  25.090  23.439  1.00  0.00     0.364 C 
ATOM      6  O   UNL A   1      34.416  25.013  23.771  1.00  0.00    -0.245 OA
BRANCH   5   7
ATOM      7  C   UNL A   1      32.281  23.901  23.516  1.00  0.00     0.295 C 
ATOM      8  N   UNL A   1      32.378  23.186  24.830  1.00  0.00    -0.319 N 
ATOM      9  C   UNL A   1      31.986  24.028  25.962  1.00  0.00     0.263 C 
ATOM     10  H   UNL A   1      31.665  22.458  24.763  1.00  0.00     0.349 HD
ATOM     11  C   UNL A   1      30.588  24.650  25.793  1.00  0.00     0.062 C 
ATOM     12  C   UNL A   1      30.820  24.318  23.290  1.00  0.00     0.078 C 
ATOM     13  C   UNL A   1      30.284  25.208  24.404  1.00  0.00     0.013 C 
BRANCH   8  14
ATOM     14  C   UNL A   1      33.598  22.353  25.050  1.00  0.00     0.302 C 
BRANCH  14  15
ATOM     15  C   UNL A   1      33.651  20.911  24.563  1.00  0.00     0.042 A 
ATOM     16  C   UNL A   1      33.577  18.092  24.359  1.00  0.00     0.055 A 
ATOM     17  C   UNL A   1      32.470  18.859  23.970  1.00  0.00     0.020 A 
ATOM     18  C   UNL A   1      34.766  18.733  24.717  1.00  0.00     0.059 A 
ATOM     19  C   UNL A   1      32.508  20.261  24.062  1.00  0.00     0.014 A 
ATOM     20  C   UNL A   1      34.798  20.129  24.800  1.00  0.00     0.133 A 
ATOM     21  F   UNL A   1      35.897  20.704  25.311  1.00  0.00    -0.206 F 
BRANCH  16  22
ATOM     22  C   UNL A   1      33.459  16.670  24.492  1.00  0.00     0.099 C 
ATOM     23  N   UNL A   1      33.373  15.514  24.613  1.00  0.00    -0.192 NA
ENDBRANCH  16  22
ENDBRANCH  14  15
ENDBRANCH   8  14
ENDBRANCH   5   7
ENDBRANCH   4   5
ENDBRANCH   3   4
ENDBRANCH   2   3
ENDBRANCH   1   2
BRANCH   1  24
ATOM     24  C   UNL A   1      32.325  30.295  25.986  1.00  0.00     0.202 C 
BRANCH  24  25
ATOM     25  C   UNL A   1      32.912  31.133  27.118  1.00  0.00     0.261 C 
BRANCH  25  26
ATOM     26  O   UNL A   1      33.695  30.366  28.033  1.00  0.00    -0.460 OA
BRANCH  26  27
ATOM     27  C   UNL A   1      34.687  31.094  28.601  1.00  0.00     0.338 C 
ATOM     28  O   UNL A   1      34.577  32.143  29.213  1.00  0.00    -0.246 OA
BRANCH  27  29
ATOM     29  C   UNL A   1      35.936  30.322  28.587  1.00  0.00     0.060 A 
ATOM     30  C   UNL A   1      36.337  29.751  29.805  1.00  0.00     0.016 A 
ATOM     31  C   UNL A   1      36.728  30.224  27.445  1.00  0.00     0.016 A 
ATOM     32  C   UNL A   1      37.570  29.135  29.906  1.00  0.00     0.010 A 
ATOM     33  C   UNL A   1      37.986  29.636  27.558  1.00  0.00     0.010 A 
ATOM     34  C   UNL A   1      38.423  29.141  28.801  1.00  0.00    -0.014 A 
BRANCH  34  35
ATOM     35  C   UNL A   1      39.848  28.832  29.028  1.00  0.00     0.031 A 
ATOM     36  C   UNL A   1      40.702  29.869  29.698  1.00  0.00     0.074 A 
ATOM     37  C   UNL A   1      40.331  27.619  28.722  1.00  0.00     0.049 A 
ATOM     38  N   UNL A   1      41.975  29.832  29.987  1.00  0.00    -0.248 NA
ATOM     39  C   UNL A   1      40.031  31.120  30.095  1.00  0.00     0.031 C 
ATOM     40  C   UNL A   1      39.554  26.521  28.146  1.00  0.00     0.029 A 
ATOM     41  N   UNL A   1      41.592  27.106  28.861  1.00  0.00    -0.354 N 
ATOM     42  C   UNL A   1      42.260  31.051  30.588  1.00  0.00     0.074 A 
ATOM     43  C   UNL A   1      41.038  31.823  30.588  1.00  0.00     0.031 C 
ATOM     44  C   UNL A   1      40.360  25.461  27.976  1.00  0.00     0.029 A 
ATOM     45  C   UNL A   1      41.714  25.823  28.390  1.00  0.00     0.049 A 
ATOM     46  H   UNL A   1      42.338  27.609  29.260  1.00  0.00     0.167 HD
ATOM     47  C   UNL A   1      43.436  31.479  31.103  1.00  0.00     0.037 A 
ATOM     48  C   UNL A   1      42.807  25.045  28.285  1.00  0.00     0.037 A 
ATOM     49  C   UNL A   1      44.641  30.692  31.086  1.00  0.00     0.049 A 
ATOM     50  C   UNL A   1      44.128  25.584  28.767  1.00  0.00     0.074 A 
ATOM     51  C   UNL A   1      45.893  31.022  31.573  1.00  0.00     0.029 A 
ATOM     52  N   UNL A   1      44.746  29.417  30.543  1.00  0.00    -0.354 N 
ATOM     53  N   UNL A   1      44.394  26.738  29.333  1.00  0.00    -0.248 NA
ATOM     54  C   UNL A   1      45.298  24.713  28.599  1.00  0.00     0.031 C 
ATOM     55  C   UNL A   1      46.770  29.978  31.262  1.00  0.00     0.029 A 
ATOM     56  C   UNL A   1      46.050  28.961  30.653  1.00  0.00     0.049 A 
ATOM     57  H   UNL A   1      44.004  28.912  30.141  1.00  0.00     0.167 HD
ATOM     58  C   UNL A   1      45.754  26.717  29.623  1.00  0.00     0.074 A 
ATOM     59  C   UNL A   1      46.251  25.431  29.177  1.00  0.00     0.031 C 
ATOM     60  C   UNL A   1      46.521  27.672  30.207  1.00  0.00     0.037 A 
BRANCH  47  61
ATOM     61  C   UNL A   1      43.483  32.871  31.677  1.00  0.00     0.058 A 
ATOM     62  C   UNL A   1      43.174  33.135  33.022  1.00  0.00     0.135 A 
ATOM     63  C   UNL A   1      43.856  33.958  30.870  1.00  0.00     0.135 A 
ATOM     64  F   UNL A   1      42.791  32.139  33.837  1.00  0.00    -0.206 F 
ATOM     65  C   UNL A   1      43.197  34.429  33.535  1.00  0.00     0.059 A 
ATOM     66  C   UNL A   1      43.922  35.255  31.371  1.00  0.00     0.059 A 
ATOM     67  F   UNL A   1      44.158  33.768  29.576  1.00  0.00    -0.206 F 
ATOM     68  C   UNL A   1      43.573  35.482  32.701  1.00  0.00     0.060 A 
BRANCH  68  69
ATOM     69  S   UNL A   1      43.594  37.154  33.381  1.00  0.00     0.124 S 
ATOM     70  O   UNL A   1      42.371  37.161  34.178  1.00  0.00    -0.237 OA
ATOM     71  O   UNL A   1      44.843  37.167  34.135  1.00  0.00    -0.237 OA
ATOM     72  O   UNL A   1      43.571  38.005  32.195  1.00  0.00    -0.744 OA
ENDBRANCH  68  69
ENDBRANCH  47  61
BRANCH  48  73
ATOM     73  C   UNL A   1      42.696  23.685  27.695  1.00  0.00     0.058 A 
ATOM     74  C   UNL A   1      42.756  23.492  26.308  1.00  0.00     0.135 A 
ATOM     75  C   UNL A   1      42.536  22.549  28.506  1.00  0.00     0.135 A 
ATOM     76  F   UNL A   1      42.901  24.546  25.490  1.00  0.00    -0.206 F 
ATOM     77  C   UNL A   1      42.643  22.227  25.742  1.00  0.00     0.059 A 
ATOM     78  C   UNL A   1      42.454  21.270  27.967  1.00  0.00     0.059 A 
ATOM     79  F   UNL A   1      42.486  22.676  29.842  1.00  0.00    -0.206 F 
ATOM     80  C   UNL A   1      42.499  21.121  26.582  1.00  0.00     0.060 A 
BRANCH  80  81
ATOM     81  S   UNL A   1      42.401  19.480  25.836  1.00  0.00     0.124 S 
ATOM     82  O   UNL A   1      43.394  19.580  24.773  1.00  0.00    -0.237 OA
ATOM     83  O   UNL A   1      42.749  18.615  26.959  1.00  0.00    -0.237 OA
ATOM     84  O   UNL A   1      41.011  19.395  25.395  1.00  0.00    -0.744 OA
ENDBRANCH  80  81
ENDBRANCH  48  73
BRANCH  60  85
ATOM     85  C   UNL A   1      47.972  27.343  30.443  1.00  0.00     0.058 A 
ATOM     86  C   UNL A   1      48.398  26.614  31.564  1.00  0.00     0.135 A 
ATOM     87  C   UNL A   1      48.945  27.721  29.501  1.00  0.00     0.135 A 
ATOM     88  F   UNL A   1      47.513  26.234  32.500  1.00  0.00    -0.206 F 
ATOM     89  C   UNL A   1      49.738  26.298  31.759  1.00  0.00     0.059 A 
ATOM     90  C   UNL A   1      50.285  27.382  29.655  1.00  0.00     0.059 A 
ATOM     91  F   UNL A   1      48.592  28.410  28.403  1.00  0.00    -0.206 F 
ATOM     92  C   UNL A   1      50.674  26.681  30.795  1.00  0.00     0.060 A 
BRANCH  92  93
ATOM     93  S   UNL A   1      52.403  26.230  31.044  1.00  0.00     0.124 S 
ATOM     94  O   UNL A   1      52.279  24.982  31.789  1.00  0.00    -0.237 OA
ATOM     95  O   UNL A   1      52.890  26.105  29.673  1.00  0.00    -0.237 OA
ATOM     96  O   UNL A   1      52.945  27.358  31.795  1.00  0.00    -0.744 OA
ENDBRANCH  92  93
ENDBRANCH  60  85
ENDBRANCH  34  35
ENDBRANCH  27  29
ENDBRANCH  26  27
ENDBRANCH  25  26
ENDBRANCH  24  25
ENDBRANCH   1  24
TORSDOF 20
ENDMDL
MODEL 2
REMARK VINA RESULT:     -10.4      4.821     10.588
REMARK SMILES N#Cc1ccc(C[N@H+]2CCCC[C@H]2C(=O)OCCOCCOC(=O)c2ccc(-c3c4nc(c(-c5c(F)cc(S(=O)(=O)[O-])cc5F)c5ccc([nH]5)c(-c5c(F)cc(S(=O)(=O)[O-])cc5F)c5nc(c(-c6c(F)cc(S(=O)(=O)[O-])cc6F)c6ccc3[nH]6)C=C5)C=C4)cc2)c(F)c1
REMARK SMILES IDX 19 1 18 2 17 3 16 4 14 5 15 6 13 7 8 8 9 9 10 11 12 12 11 13
REMARK SMILES IDX 7 14 6 15 3 16 4 17 93 18 5 19 91 20 92 21 2 22 1 23 20 24
REMARK SMILES IDX 21 25 22 26 23 27 24 28 25 29 26 30 90 31 27 32 89 33 28 34
REMARK SMILES IDX 29 35 30 36 83 37 31 38 88 39 82 40 84 41 32 42 87 43 81 44
REMARK SMILES IDX 80 45 33 47 67 48 46 49 66 50 47 51 50 52 65 53 85 54 48 55
REMARK SMILES IDX 49 56 64 58 86 59 51 60 34 61 35 62 44 63 36 64 37 65 43 66
REMARK SMILES IDX 45 67 38 68 39 69 40 70 41 71 42 72 68 73 69 74 78 75 70 76
REMARK SMILES IDX 71 77 77 78 79 79 72 80 73 81 74 82 75 83 76 84 52 85 53 86
REMARK SMILES IDX 62 87 54 88 55 89 61 90 63 91 56 92 57 93 58 94 59 95 60 96
REMARK H PARENT 8 10 84 46 50 57
REMARK Flexibility Score: inf
ROOT
ATOM      1  O   UNL A   1      38.268  22.066  26.019  1.00  0.00    -0.374 OA
ENDROOT
BRANCH   1   2
ATOM      2  C   UNL A   1      37.584  21.392  24.971  1.00  0.00     0.202 C 
BRANCH   2   3
ATOM      3  C   UNL A   1      36.188  20.708  25.062  1.00  0.00     0.261 C 
BRANCH   3   4
ATOM      4  O   UNL A   1      35.006  21.405  24.640  1.00  0.00    -0.459 OA
BRANCH   4   5
ATOM      5  C   UNL A   1      34.287  21.776  25.723  1.00  0.00     0.364 C 
ATOM      6  O   UNL A   1      34.839  22.337  26.655  1.00  0.00    -0.245 OA
BRANCH   5   7
ATOM      7  C   UNL A   1      32.793  21.438  25.727  1.00  0.00     0.295 C 
ATOM      8  N   UNL A   1      31.951  22.616  25.337  1.00  0.00    -0.319 N 
ATOM      9  C   UNL A   1      32.206  23.065  23.967  1.00  0.00     0.263 C 
ATOM     10  H   UNL A   1      31.001  22.245  25.338  1.00  0.00     0.349 HD
ATOM     11  C   UNL A   1      32.061  21.937  22.928  1.00  0.00     0.062 C 
ATOM     12  C   UNL A   1      32.458  20.265  24.794  1.00  0.00     0.078 C 
ATOM     13  C   UNL A   1      32.685  20.600  23.325  1.00  0.00     0.013 C 
BRANCH   8  14
ATOM     14  C   UNL A   1      31.820  23.707  26.348  1.00  0.00     0.302 C 
BRANCH  14  15
ATOM     15  C   UNL A   1      32.154  25.147  25.984  1.00  0.00     0.042 A 
ATOM     16  C   UNL A   1      32.731  27.914  26.034  1.00  0.00     0.055 A 
ATOM     17  C   UNL A   1      33.769  26.976  25.955  1.00  0.00     0.020 A 
ATOM     18  C   UNL A   1      31.406  27.482  25.948  1.00  0.00     0.059 A 
ATOM     19  C   UNL A   1      33.485  25.600  25.921  1.00  0.00     0.014 A 
ATOM     20  C   UNL A   1      31.130  26.111  25.908  1.00  0.00     0.133 A 
ATOM     21  F   UNL A   1      29.849  25.724  26.000  1.00  0.00    -0.206 F 
BRANCH  16  22
ATOM     22  C   UNL A   1      33.022  29.291  26.308  1.00  0.00     0.099 C 
ATOM     23  N   UNL A   1      33.271  30.405  26.539  1.00  0.00    -0.192 NA
ENDBRANCH  16  22
ENDBRANCH  14  15
ENDBRANCH   8  14
ENDBRANCH   5   7
ENDBRANCH   4   5
ENDBRANCH   3   4
ENDBRANCH   2   3
ENDBRANCH   1   2
BRANCH   1  24
ATOM     24  C   UNL A   1      39.672  21.954  26.195  1.00  0.00     0.202 C 
BRANCH  24  25
ATOM     25  C   UNL A   1      40.549  23.174  26.463  1.00  0.00     0.261 C 
BRANCH  25  26
ATOM     26  O   UNL A   1      39.859  24.409  26.278  1.00  0.00    -0.460 OA
BRANCH  26  27
ATOM     27  C   UNL A   1      40.705  25.463  26.167  1.00  0.00     0.338 C 
ATOM     28  O   UNL A   1      41.138  25.957  25.140  1.00  0.00    -0.246 OA
BRANCH  27  29
ATOM     29  C   UNL A   1      40.864  26.109  27.476  1.00  0.00     0.060 A 
ATOM     30  C   UNL A   1      39.797  25.977  28.377  1.00  0.00     0.016 A 
ATOM     31  C   UNL A   1      41.981  26.883  27.783  1.00  0.00     0.016 A 
ATOM     32  C   UNL A   1      39.810  26.675  29.569  1.00  0.00     0.010 A 
ATOM     33  C   UNL A   1      41.976  27.615  28.968  1.00  0.00     0.010 A 
ATOM     34  C   UNL A   1      40.867  27.550  29.831  1.00  0.00    -0.014 A 
BRANCH  34  35
ATOM     35  C   UNL A   1      40.684  28.552  30.898  1.00  0.00     0.031 A 
ATOM     36  C   UNL A   1      41.590  28.491  32.094  1.00  0.00     0.074 A 
ATOM     37  C   UNL A   1      39.789  29.540  30.748  1.00  0.00     0.049 A 
ATOM     38  N   UNL A   1      41.608  29.249  33.158  1.00  0.00    -0.248 NA
ATOM     39  C   UNL A   1      42.614  27.431  32.092  1.00  0.00     0.031 C 
ATOM     40  C   UNL A   1      38.925  29.727  29.582  1.00  0.00     0.029 A 
ATOM     41  N   UNL A   1      39.465  30.577  31.581  1.00  0.00    -0.354 N 
ATOM     42  C   UNL A   1      42.633  28.753  33.954  1.00  0.00     0.074 A 
ATOM     43  C   UNL A   1      43.188  27.606  33.271  1.00  0.00     0.031 C 
ATOM     44  C   UNL A   1      38.163  30.815  29.777  1.00  0.00     0.029 A 
ATOM     45  C   UNL A   1      38.456  31.371  31.096  1.00  0.00     0.049 A 
ATOM     46  H   UNL A   1      39.912  30.736  32.443  1.00  0.00     0.167 HD
ATOM     47  C   UNL A   1      43.075  29.224  35.143  1.00  0.00     0.037 A 
ATOM     48  C   UNL A   1      37.828  32.412  31.672  1.00  0.00     0.037 A 
ATOM     49  C   UNL A   1      42.500  30.366  35.805  1.00  0.00     0.049 A 
ATOM     50  C   UNL A   1      38.266  32.852  33.045  1.00  0.00     0.074 A 
ATOM     51  C   UNL A   1      42.861  30.932  37.014  1.00  0.00     0.029 A 
ATOM     52  N   UNL A   1      41.436  31.112  35.315  1.00  0.00    -0.354 N 
ATOM     53  N   UNL A   1      39.234  32.380  33.795  1.00  0.00    -0.248 NA
ATOM     54  C   UNL A   1      37.527  33.969  33.647  1.00  0.00     0.031 C 
ATOM     55  C   UNL A   1      41.970  31.975  37.289  1.00  0.00     0.029 A 
ATOM     56  C   UNL A   1      41.104  32.112  36.215  1.00  0.00     0.049 A 
ATOM     57  H   UNL A   1      40.984  30.954  34.456  1.00  0.00     0.167 HD
ATOM     58  C   UNL A   1      39.246  33.166  34.942  1.00  0.00     0.074 A 
ATOM     59  C   UNL A   1      38.194  34.149  34.780  1.00  0.00     0.031 C 
ATOM     60  C   UNL A   1      40.054  33.085  36.029  1.00  0.00     0.037 A 
BRANCH  47  61
ATOM     61  C   UNL A   1      44.194  28.477  35.819  1.00  0.00     0.058 A 
ATOM     62  C   UNL A   1      43.955  27.429  36.724  1.00  0.00     0.135 A 
ATOM     63  C   UNL A   1      45.532  28.807  35.545  1.00  0.00     0.135 A 
ATOM     64  F   UNL A   1      42.697  27.082  37.040  1.00  0.00    -0.206 F 
ATOM     65  C   UNL A   1      44.998  26.763  37.360  1.00  0.00     0.059 A 
ATOM     66  C   UNL A   1      46.591  28.130  36.142  1.00  0.00     0.059 A 
ATOM     67  F   UNL A   1      45.822  29.802  34.693  1.00  0.00    -0.206 F 
ATOM     68  C   UNL A   1      46.313  27.120  37.062  1.00  0.00     0.060 A 
BRANCH  68  69
ATOM     69  S   UNL A   1      47.655  26.249  37.899  1.00  0.00     0.124 S 
ATOM     70  O   UNL A   1      48.792  27.118  37.612  1.00  0.00    -0.237 OA
ATOM     71  O   UNL A   1      47.199  26.238  39.285  1.00  0.00    -0.237 OA
ATOM     72  O   UNL A   1      47.681  24.948  37.239  1.00  0.00    -0.744 OA
ENDBRANCH  68  69
ENDBRANCH  47  61
BRANCH  48  73
ATOM     73  C   UNL A   1      36.720  33.099  30.957  1.00  0.00     0.058 A 
ATOM     74  C   UNL A   1      36.982  34.004  29.920  1.00  0.00     0.135 A 
ATOM     75  C   UNL A   1      35.378  32.858  31.290  1.00  0.00     0.135 A 
ATOM     76  F   UNL A   1      38.249  34.274  29.568  1.00  0.00    -0.206 F 
ATOM     77  C   UNL A   1      35.956  34.661  29.249  1.00  0.00     0.059 A 
ATOM     78  C   UNL A   1      34.332  33.476  30.613  1.00  0.00     0.059 A 
ATOM     79  F   UNL A   1      35.070  31.990  32.267  1.00  0.00    -0.206 F 
ATOM     80  C   UNL A   1      34.633  34.385  29.600  1.00  0.00     0.060 A 
BRANCH  80  81
ATOM     81  S   UNL A   1      33.311  35.209  28.689  1.00  0.00     0.124 S 
ATOM     82  O   UNL A   1      32.682  34.087  28.003  1.00  0.00    -0.237 OA
ATOM     83  O   UNL A   1      32.536  35.819  29.766  1.00  0.00    -0.237 OA
ATOM     84  O   UNL A   1      34.029  36.149  27.833  1.00  0.00    -0.744 OA
ENDBRANCH  80  81
ENDBRANCH  48  73
BRANCH  60  85
ATOM     85  C   UNL A   1      39.866  34.119  37.109  1.00  0.00     0.058 A 
ATOM     86  C   UNL A   1      40.328  35.436  36.968  1.00  0.00     0.135 A 
ATOM     87  C   UNL A   1      39.163  33.794  38.282  1.00  0.00     0.135 A 
ATOM     88  F   UNL A   1      41.012  35.800  35.871  1.00  0.00    -0.206 F 
ATOM     89  C   UNL A   1      40.127  36.387  37.963  1.00  0.00     0.059 A 
ATOM     90  C   UNL A   1      38.916  34.739  39.273  1.00  0.00     0.059 A 
ATOM     91  F   UNL A   1      38.687  32.551  38.465  1.00  0.00    -0.206 F 
ATOM     92  C   UNL A   1      39.414  36.029  39.110  1.00  0.00     0.060 A 
BRANCH  92  93
ATOM     93  S   UNL A   1      39.130  37.285  40.375  1.00  0.00     0.124 S 
ATOM     94  O   UNL A   1      40.483  37.516  40.871  1.00  0.00    -0.237 OA
ATOM     95  O   UNL A   1      38.544  38.375  39.602  1.00  0.00    -0.237 OA
ATOM     96  O   UNL A   1      38.223  36.627  41.310  1.00  0.00    -0.744 OA
ENDBRANCH  92  93
ENDBRANCH  60  85
ENDBRANCH  34  35
ENDBRANCH  27  29
ENDBRANCH  26  27
ENDBRANCH  25  26
ENDBRANCH  24  25
ENDBRANCH   1  24
TORSDOF 20
ENDMDL
MODEL 3
REMARK VINA RESULT:     -10.4      4.928     10.635
REMARK SMILES N#Cc1ccc(C[N@H+]2CCCC[C@H]2C(=O)OCCOCCOC(=O)c2ccc(-c3c4nc(c(-c5c(F)cc(S(=O)(=O)[O-])cc5F)c5ccc([nH]5)c(-c5c(F)cc(S(=O)(=O)[O-])cc5F)c5nc(c(-c6c(F)cc(S(=O)(=O)[O-])cc6F)c6ccc3[nH]6)C=C5)C=C4)cc2)c(F)c1
REMARK SMILES IDX 19 1 18 2 17 3 16 4 14 5 15 6 13 7 8 8 9 9 10 11 12 12 11 13
REMARK SMILES IDX 7 14 6 15 3 16 4 17 93 18 5 19 91 20 92 21 2 22 1 23 20 24
REMARK SMILES IDX 21 25 22 26 23 27 24 28 25 29 26 30 90 31 27 32 89 33 28 34
REMARK SMILES IDX 29 35 30 36 83 37 31 38 88 39 82 40 84 41 32 42 87 43 81 44
REMARK SMILES IDX 80 45 33 47 67 48 46 49 66 50 47 51 50 52 65 53 85 54 48 55
REMARK SMILES IDX 49 56 64 58 86 59 51 60 34 61 35 62 44 63 36 64 37 65 43 66
REMARK SMILES IDX 45 67 38 68 39 69 40 70 41 71 42 72 68 73 69 74 78 75 70 76
REMARK SMILES IDX 71 77 77 78 79 79 72 80 73 81 74 82 75 83 76 84 52 85 53 86
REMARK SMILES IDX 62 87 54 88 55 89 61 90 63 91 56 92 57 93 58 94 59 95 60 96
REMARK H PARENT 8 10 84 46 50 57
REMARK Flexibility Score: inf
ROOT
ATOM      1  O   UNL A   1      38.427  21.997  26.221  1.00  0.00    -0.374 OA
ENDROOT
BRANCH   1   2
ATOM      2  C   UNL A   1      37.707  21.415  25.142  1.00  0.00     0.202 C 
BRANCH   2   3
ATOM      3  C   UNL A   1      36.854  22.169  24.082  1.00  0.00     0.261 C 
BRANCH   3   4
ATOM      4  O   UNL A   1      35.421  22.066  24.091  1.00  0.00    -0.459 OA
BRANCH   4   5
ATOM      5  C   UNL A   1      34.885  23.234  24.510  1.00  0.00     0.364 C 
ATOM      6  O   UNL A   1      34.983  24.231  23.812  1.00  0.00    -0.245 OA
BRANCH   5   7
ATOM      7  C   UNL A   1      34.194  23.243  25.876  1.00  0.00     0.295 C 
ATOM      8  N   UNL A   1      32.836  23.875  25.813  1.00  0.00    -0.319 N 
ATOM      9  C   UNL A   1      31.907  23.137  24.955  1.00  0.00     0.263 C 
ATOM     10  H   UNL A   1      32.477  23.776  26.763  1.00  0.00     0.349 HD
ATOM     11  C   UNL A   1      31.788  21.650  25.338  1.00  0.00     0.062 C 
ATOM     12  C   UNL A   1      34.052  21.832  26.468  1.00  0.00     0.078 C 
ATOM     13  C   UNL A   1      33.107  20.950  25.661  1.00  0.00     0.013 C 
BRANCH   8  14
ATOM     14  C   UNL A   1      32.797  25.360  25.661  1.00  0.00     0.302 C 
BRANCH  14  15
ATOM     15  C   UNL A   1      31.954  26.006  24.569  1.00  0.00     0.042 A 
ATOM     16  C   UNL A   1      30.535  27.815  22.924  1.00  0.00     0.055 A 
ATOM     17  C   UNL A   1      31.831  27.411  22.577  1.00  0.00     0.020 A 
ATOM     18  C   UNL A   1      29.895  27.215  24.011  1.00  0.00     0.059 A 
ATOM     19  C   UNL A   1      32.535  26.505  23.389  1.00  0.00     0.014 A 
ATOM     20  C   UNL A   1      30.600  26.309  24.810  1.00  0.00     0.133 A 
ATOM     21  F   UNL A   1      30.018  25.883  25.942  1.00  0.00    -0.206 F 
BRANCH  16  22
ATOM     22  C   UNL A   1      29.912  28.909  22.238  1.00  0.00     0.099 C 
ATOM     23  N   UNL A   1      29.414  29.794  21.667  1.00  0.00    -0.192 NA
ENDBRANCH  16  22
ENDBRANCH  14  15
ENDBRANCH   8  14
ENDBRANCH   5   7
ENDBRANCH   4   5
ENDBRANCH   3   4
ENDBRANCH   2   3
ENDBRANCH   1   2
BRANCH   1  24
ATOM     24  C   UNL A   1      39.845  21.957  26.289  1.00  0.00     0.202 C 
BRANCH  24  25
ATOM     25  C   UNL A   1      40.673  23.214  26.536  1.00  0.00     0.261 C 
BRANCH  25  26
ATOM     26  O   UNL A   1      39.903  24.414  26.469  1.00  0.00    -0.460 OA
BRANCH  26  27
ATOM     27  C   UNL A   1      40.676  25.519  26.334  1.00  0.00     0.338 C 
ATOM     28  O   UNL A   1      41.052  26.036  25.296  1.00  0.00    -0.246 OA
BRANCH  27  29
ATOM     29  C   UNL A   1      40.825  26.179  27.638  1.00  0.00     0.060 A 
ATOM     30  C   UNL A   1      39.748  26.063  28.529  1.00  0.00     0.016 A 
ATOM     31  C   UNL A   1      41.943  26.949  27.949  1.00  0.00     0.016 A 
ATOM     32  C   UNL A   1      39.751  26.775  29.713  1.00  0.00     0.010 A 
ATOM     33  C   UNL A   1      41.930  27.695  29.126  1.00  0.00     0.010 A 
ATOM     34  C   UNL A   1      40.810  27.646  29.977  1.00  0.00    -0.014 A 
BRANCH  34  35
ATOM     35  C   UNL A   1      40.621  28.661  31.030  1.00  0.00     0.031 A 
ATOM     36  C   UNL A   1      41.523  28.617  32.230  1.00  0.00     0.074 A 
ATOM     37  C   UNL A   1      39.725  29.646  30.865  1.00  0.00     0.049 A 
ATOM     38  N   UNL A   1      41.536  29.388  33.284  1.00  0.00    -0.248 NA
ATOM     39  C   UNL A   1      42.549  27.559  32.245  1.00  0.00     0.031 C 
ATOM     40  C   UNL A   1      38.865  29.816  29.694  1.00  0.00     0.029 A 
ATOM     41  N   UNL A   1      39.396  30.692  31.683  1.00  0.00    -0.354 N 
ATOM     42  C   UNL A   1      42.560  28.904  34.090  1.00  0.00     0.074 A 
ATOM     43  C   UNL A   1      43.119  27.750  33.424  1.00  0.00     0.031 C 
ATOM     44  C   UNL A   1      38.101  30.905  29.872  1.00  0.00     0.029 A 
ATOM     45  C   UNL A   1      38.388  31.478  31.185  1.00  0.00     0.049 A 
ATOM     46  H   UNL A   1      39.840  30.863  32.545  1.00  0.00     0.167 HD
ATOM     47  C   UNL A   1      42.996  29.391  35.276  1.00  0.00     0.037 A 
ATOM     48  C   UNL A   1      37.755  32.525  31.746  1.00  0.00     0.037 A 
ATOM     49  C   UNL A   1      42.417  30.540  35.921  1.00  0.00     0.049 A 
ATOM     50  C   UNL A   1      38.187  32.983  33.114  1.00  0.00     0.074 A 
ATOM     51  C   UNL A   1      42.772  31.122  37.124  1.00  0.00     0.029 A 
ATOM     52  N   UNL A   1      41.353  31.278  35.418  1.00  0.00    -0.354 N 
ATOM     53  N   UNL A   1      39.154  32.522  33.874  1.00  0.00    -0.248 NA
ATOM     54  C   UNL A   1      37.445  34.106  33.700  1.00  0.00     0.031 C 
ATOM     55  C   UNL A   1      41.878  32.166  37.382  1.00  0.00     0.029 A 
ATOM     56  C   UNL A   1      41.016  32.288  36.304  1.00  0.00     0.049 A 
ATOM     57  H   UNL A   1      40.904  31.108  34.559  1.00  0.00     0.167 HD
ATOM     58  C   UNL A   1      39.160  33.322  35.011  1.00  0.00     0.074 A 
ATOM     59  C   UNL A   1      38.107  34.301  34.833  1.00  0.00     0.031 C 
ATOM     60  C   UNL A   1      39.965  33.257  36.102  1.00  0.00     0.037 A 
BRANCH  47  61
ATOM     61  C   UNL A   1      44.114  28.655  35.965  1.00  0.00     0.058 A 
ATOM     62  C   UNL A   1      43.877  27.569  36.825  1.00  0.00     0.135 A 
ATOM     63  C   UNL A   1      45.450  29.034  35.750  1.00  0.00     0.135 A 
ATOM     64  F   UNL A   1      42.620  27.173  37.084  1.00  0.00    -0.206 F 
ATOM     65  C   UNL A   1      44.918  26.912  37.474  1.00  0.00     0.059 A 
ATOM     66  C   UNL A   1      46.508  28.369  36.360  1.00  0.00     0.059 A 
ATOM     67  F   UNL A   1      45.738  30.067  34.943  1.00  0.00    -0.206 F 
ATOM     68  C   UNL A   1      46.231  27.319  37.235  1.00  0.00     0.060 A 
BRANCH  68  69
ATOM     69  S   UNL A   1      47.569  26.460  38.089  1.00  0.00     0.124 S 
ATOM     70  O   UNL A   1      47.025  26.339  39.438  1.00  0.00    -0.237 OA
ATOM     71  O   UNL A   1      47.672  25.217  37.332  1.00  0.00    -0.237 OA
ATOM     72  O   UNL A   1      48.702  27.371  37.952  1.00  0.00    -0.744 OA
ENDBRANCH  68  69
ENDBRANCH  47  61
BRANCH  48  73
ATOM     73  C   UNL A   1      36.649  33.201  31.018  1.00  0.00     0.058 A 
ATOM     74  C   UNL A   1      35.313  33.003  31.392  1.00  0.00     0.135 A 
ATOM     75  C   UNL A   1      36.905  34.063  29.941  1.00  0.00     0.135 A 
ATOM     76  F   UNL A   1      35.015  32.182  32.411  1.00  0.00    -0.206 F 
ATOM     77  C   UNL A   1      34.267  33.621  30.714  1.00  0.00     0.059 A 
ATOM     78  C   UNL A   1      35.880  34.719  29.267  1.00  0.00     0.059 A 
ATOM     79  F   UNL A   1      38.168  34.298  29.550  1.00  0.00    -0.206 F 
ATOM     80  C   UNL A   1      34.563  34.483  29.656  1.00  0.00     0.060 A 
BRANCH  80  81
ATOM     81  S   UNL A   1      33.199  35.313  28.815  1.00  0.00     0.124 S 
ATOM     82  O   UNL A   1      32.640  34.228  28.017  1.00  0.00    -0.237 OA
ATOM     83  O   UNL A   1      32.384  35.770  29.937  1.00  0.00    -0.237 OA
ATOM     84  O   UNL A   1      33.865  36.372  28.061  1.00  0.00    -0.744 OA
ENDBRANCH  80  81
ENDBRANCH  48  73
BRANCH  60  85
ATOM     85  C   UNL A   1      39.770  34.303  37.168  1.00  0.00     0.058 A 
ATOM     86  C   UNL A   1      39.033  34.049  38.335  1.00  0.00     0.135 A 
ATOM     87  C   UNL A   1      40.378  35.564  37.041  1.00  0.00     0.135 A 
ATOM     88  F   UNL A   1      38.424  32.865  38.507  1.00  0.00    -0.206 F 
ATOM     89  C   UNL A   1      38.880  35.017  39.323  1.00  0.00     0.059 A 
ATOM     90  C   UNL A   1      40.272  36.533  38.033  1.00  0.00     0.059 A 
ATOM     91  F   UNL A   1      41.106  35.857  35.950  1.00  0.00    -0.206 F 
ATOM     92  C   UNL A   1      39.509  36.254  39.165  1.00  0.00     0.060 A 
BRANCH  92  93
ATOM     93  S   UNL A   1      39.331  37.485  40.472  1.00  0.00     0.124 S 
ATOM     94  O   UNL A   1      38.367  38.407  39.881  1.00  0.00    -0.237 OA
ATOM     95  O   UNL A   1      38.839  36.682  41.588  1.00  0.00    -0.237 OA
ATOM     96  O   UNL A   1      40.684  38.010  40.633  1.00  0.00    -0.744 OA
ENDBRANCH  92  93
ENDBRANCH  60  85
ENDBRANCH  34  35
ENDBRANCH  27  29
ENDBRANCH  26  27
ENDBRANCH  25  26
ENDBRANCH  24  25
ENDBRANCH   1  24
TORSDOF 20
ENDMDL
