MODEL 1
REMARK VINA RESULT:     -11.0      0.000      0.000
REMARK SMILES NC(=O)[C@@H]1CCCCN1C(=O)N[C@H]1C=C[C@@H](C(=O)OCCOCCOC(=O)c2ccc(-c3c4nc(c(-c5c(F)cc(S(=O)(=O)[O-])cc5F)c5ccc([nH]5)c(-c5c(F)cc(S(=O)(=O)[O-])cc5F)c5nc(c(-c6c(F)cc(S(=O)(=O)[O-])cc6F)c6ccc3[nH]6)C=C5)C=C4)cc2)C1
REMARK SMILES IDX 22 1 21 2 20 3 19 4 17 5 18 6 16 7 13 8 14 9 94 10 15 11
REMARK SMILES IDX 12 12 10 13 11 14 9 16 4 17 5 18 6 19 8 20 7 21 2 22 1 23
REMARK SMILES IDX 3 26 23 27 24 28 25 29 26 30 27 31 28 32 29 33 93 34 30 35
REMARK SMILES IDX 92 36 31 37 32 38 33 39 86 40 34 41 91 42 85 43 87 44 35 45
REMARK SMILES IDX 90 46 84 47 83 48 36 50 70 51 49 52 69 53 50 54 53 55 68 56
REMARK SMILES IDX 88 57 51 58 52 59 67 61 89 62 54 63 37 64 38 65 47 66 39 67
REMARK SMILES IDX 40 68 46 69 48 70 41 71 42 72 43 73 44 74 45 75 71 76 72 77
REMARK SMILES IDX 81 78 73 79 74 80 80 81 82 82 75 83 76 84 77 85 78 86 79 87
REMARK SMILES IDX 55 88 56 89 65 90 57 91 58 92 64 93 66 94 59 95 60 96 61 97
REMARK SMILES IDX 62 98 63 99
REMARK H PARENT 12 15 1 24 1 25 87 49 53 60
REMARK Flexibility Score: inf
ROOT
ATOM      1  O   UNL A   1      42.338  20.440  26.600  1.00  0.00    -0.374 OA
ENDROOT
BRANCH   1   2
ATOM      2  C   UNL A   1      40.958  20.239  26.281  1.00  0.00     0.202 C 
BRANCH   2   3
ATOM      3  C   UNL A   1      40.041  21.405  26.660  1.00  0.00     0.261 C 
BRANCH   3   4
ATOM      4  O   UNL A   1      38.894  21.466  25.793  1.00  0.00    -0.463 OA
BRANCH   4   5
ATOM      5  C   UNL A   1      38.172  22.616  25.849  1.00  0.00     0.312 C 
ATOM      6  O   UNL A   1      38.603  23.690  26.255  1.00  0.00    -0.252 OA
BRANCH   5   7
ATOM      7  C   UNL A   1      36.755  22.470  25.303  1.00  0.00     0.124 C 
ATOM      8  C   UNL A   1      34.744  23.735  24.646  1.00  0.00     0.107 C 
ATOM      9  C   UNL A   1      35.624  23.414  23.474  1.00  0.00    -0.006 C 
ATOM     10  C   UNL A   1      35.665  23.412  25.833  1.00  0.00     0.048 C 
ATOM     11  C   UNL A   1      36.716  22.727  23.829  1.00  0.00    -0.014 C 
BRANCH   8  12
ATOM     12  N   UNL A   1      34.377  25.132  24.569  1.00  0.00    -0.332 N 
ATOM     13  C   UNL A   1      33.283  25.878  24.359  1.00  0.00     0.318 C 
ATOM     14  O   UNL A   1      33.482  27.089  24.479  1.00  0.00    -0.249 OA
ATOM     15  H   UNL A   1      35.164  25.705  24.715  1.00  0.00     0.165 HD
BRANCH  13  16
ATOM     16  N   UNL A   1      32.049  25.390  24.030  1.00  0.00    -0.313 N 
ATOM     17  C   UNL A   1      31.561  25.642  22.647  1.00  0.00     0.176 C 
ATOM     18  C   UNL A   1      30.699  26.909  22.652  1.00  0.00     0.035 C 
ATOM     19  C   UNL A   1      29.510  26.716  23.598  1.00  0.00     0.004 C 
ATOM     20  C   UNL A   1      30.942  25.090  24.931  1.00  0.00     0.122 C 
ATOM     21  C   UNL A   1      29.975  26.279  24.989  1.00  0.00     0.022 C 
BRANCH  17  22
ATOM     22  C   UNL A   1      32.514  25.566  21.432  1.00  0.00     0.240 C 
ATOM     23  N   UNL A   1      31.941  25.834  20.220  1.00  0.00    -0.368 N 
ATOM     24  H   UNL A   1      32.487  25.804  19.400  1.00  0.00     0.159 HD
ATOM     25  H   UNL A   1      30.984  26.055  20.165  1.00  0.00     0.159 HD
ATOM     26  O   UNL A   1      33.736  25.476  21.525  1.00  0.00    -0.273 OA
ENDBRANCH  17  22
ENDBRANCH  13  16
ENDBRANCH   8  12
ENDBRANCH   5   7
ENDBRANCH   4   5
ENDBRANCH   3   4
ENDBRANCH   2   3
ENDBRANCH   1   2
BRANCH   1  27
ATOM     27  C   UNL A   1      43.082  21.310  25.744  1.00  0.00     0.202 C 
BRANCH  27  28
ATOM     28  C   UNL A   1      43.702  22.523  26.442  1.00  0.00     0.261 C 
BRANCH  28  29
ATOM     29  O   UNL A   1      42.683  23.422  26.916  1.00  0.00    -0.460 OA
BRANCH  29  30
ATOM     30  C   UNL A   1      42.702  24.630  26.309  1.00  0.00     0.338 C 
ATOM     31  O   UNL A   1      42.976  24.851  25.131  1.00  0.00    -0.246 OA
BRANCH  30  32
ATOM     32  C   UNL A   1      42.188  25.664  27.220  1.00  0.00     0.060 A 
ATOM     33  C   UNL A   1      42.858  26.892  27.281  1.00  0.00     0.016 A 
ATOM     34  C   UNL A   1      41.147  25.382  28.105  1.00  0.00     0.016 A 
ATOM     35  C   UNL A   1      42.510  27.825  28.261  1.00  0.00     0.010 A 
ATOM     36  C   UNL A   1      40.796  26.321  29.079  1.00  0.00     0.010 A 
ATOM     37  C   UNL A   1      41.499  27.533  29.189  1.00  0.00    -0.014 A 
BRANCH  37  38
ATOM     38  C   UNL A   1      41.254  28.442  30.338  1.00  0.00     0.031 A 
ATOM     39  C   UNL A   1      42.100  28.317  31.578  1.00  0.00     0.074 A 
ATOM     40  C   UNL A   1      40.292  29.381  30.273  1.00  0.00     0.049 A 
ATOM     41  N   UNL A   1      42.057  29.017  32.683  1.00  0.00    -0.248 NA
ATOM     42  C   UNL A   1      43.131  27.266  31.571  1.00  0.00     0.031 C 
ATOM     43  C   UNL A   1      39.408  29.605  29.131  1.00  0.00     0.029 A 
ATOM     44  N   UNL A   1      39.893  30.314  31.197  1.00  0.00    -0.354 N 
ATOM     45  C   UNL A   1      43.053  28.497  33.501  1.00  0.00     0.074 A 
ATOM     46  C   UNL A   1      43.664  27.403  32.778  1.00  0.00     0.031 C 
ATOM     47  C   UNL A   1      38.563  30.610  29.425  1.00  0.00     0.029 A 
ATOM     48  C   UNL A   1      38.834  31.085  30.781  1.00  0.00     0.049 A 
ATOM     49  H   UNL A   1      40.326  30.422  32.075  1.00  0.00     0.167 HD
ATOM     50  C   UNL A   1      43.433  28.900  34.738  1.00  0.00     0.037 A 
ATOM     51  C   UNL A   1      38.152  32.053  31.423  1.00  0.00     0.037 A 
ATOM     52  C   UNL A   1      42.821  29.983  35.464  1.00  0.00     0.049 A 
ATOM     53  C   UNL A   1      38.561  32.454  32.817  1.00  0.00     0.074 A 
ATOM     54  C   UNL A   1      43.156  30.482  36.711  1.00  0.00     0.029 A 
ATOM     55  N   UNL A   1      41.741  30.728  35.015  1.00  0.00    -0.354 N 
ATOM     56  N   UNL A   1      39.537  31.985  33.556  1.00  0.00    -0.248 NA
ATOM     57  C   UNL A   1      37.779  33.520  33.459  1.00  0.00     0.031 C 
ATOM     58  C   UNL A   1      42.255  31.504  37.032  1.00  0.00     0.029 A 
ATOM     59  C   UNL A   1      41.384  31.668  35.967  1.00  0.00     0.049 A 
ATOM     60  H   UNL A   1      41.294  30.607  34.146  1.00  0.00     0.167 HD
ATOM     61  C   UNL A   1      39.501  32.714  34.741  1.00  0.00     0.074 A 
ATOM     62  C   UNL A   1      38.413  33.661  34.617  1.00  0.00     0.031 C 
ATOM     63  C   UNL A   1      40.301  32.609  35.832  1.00  0.00     0.037 A 
BRANCH  50  64
ATOM     64  C   UNL A   1      44.564  28.160  35.393  1.00  0.00     0.058 A 
ATOM     65  C   UNL A   1      44.334  27.031  36.195  1.00  0.00     0.135 A 
ATOM     66  C   UNL A   1      45.895  28.556  35.185  1.00  0.00     0.135 A 
ATOM     67  F   UNL A   1      43.080  26.618  36.436  1.00  0.00    -0.206 F 
ATOM     68  C   UNL A   1      45.383  26.333  36.785  1.00  0.00     0.059 A 
ATOM     69  C   UNL A   1      46.961  27.860  35.749  1.00  0.00     0.059 A 
ATOM     70  F   UNL A   1      46.170  29.628  34.425  1.00  0.00    -0.206 F 
ATOM     71  C   UNL A   1      46.693  26.757  36.558  1.00  0.00     0.060 A 
BRANCH  71  72
ATOM     72  S   UNL A   1      48.045  25.834  37.321  1.00  0.00     0.124 S 
ATOM     73  O   UNL A   1      47.968  24.562  36.609  1.00  0.00    -0.237 OA
ATOM     74  O   UNL A   1      49.207  26.663  37.011  1.00  0.00    -0.237 OA
ATOM     75  O   UNL A   1      47.673  25.789  38.731  1.00  0.00    -0.744 OA
ENDBRANCH  71  72
ENDBRANCH  50  64
BRANCH  51  76
ATOM     76  C   UNL A   1      37.004  32.717  30.754  1.00  0.00     0.058 A 
ATOM     77  C   UNL A   1      37.206  33.736  29.812  1.00  0.00     0.135 A 
ATOM     78  C   UNL A   1      35.683  32.340  31.040  1.00  0.00     0.135 A 
ATOM     79  F   UNL A   1      38.451  34.136  29.514  1.00  0.00    -0.206 F 
ATOM     80  C   UNL A   1      36.138  34.368  29.184  1.00  0.00     0.059 A 
ATOM     81  C   UNL A   1      34.599  32.943  30.409  1.00  0.00     0.059 A 
ATOM     82  F   UNL A   1      35.440  31.364  31.927  1.00  0.00    -0.206 F 
ATOM     83  C   UNL A   1      34.837  33.963  29.489  1.00  0.00     0.060 A 
BRANCH  83  84
ATOM     84  S   UNL A   1      33.457  34.750  28.630  1.00  0.00     0.124 S 
ATOM     85  O   UNL A   1      34.116  35.885  27.994  1.00  0.00    -0.237 OA
ATOM     86  O   UNL A   1      33.004  33.690  27.735  1.00  0.00    -0.237 OA
ATOM     87  O   UNL A   1      32.535  35.079  29.713  1.00  0.00    -0.744 OA
ENDBRANCH  83  84
ENDBRANCH  51  76
BRANCH  63  88
ATOM     88  C   UNL A   1      40.050  33.560  36.970  1.00  0.00     0.058 A 
ATOM     89  C   UNL A   1      40.669  34.818  37.027  1.00  0.00     0.135 A 
ATOM     90  C   UNL A   1      39.142  33.228  37.988  1.00  0.00     0.135 A 
ATOM     91  F   UNL A   1      41.550  35.181  36.082  1.00  0.00    -0.206 F 
ATOM     92  C   UNL A   1      40.411  35.708  38.066  1.00  0.00     0.059 A 
ATOM     93  C   UNL A   1      38.853  34.110  39.024  1.00  0.00     0.059 A 
ATOM     94  F   UNL A   1      38.516  32.040  37.975  1.00  0.00    -0.206 F 
ATOM     95  C   UNL A   1      39.501  35.343  39.061  1.00  0.00     0.060 A 
BRANCH  95  96
ATOM     96  S   UNL A   1      39.148  36.517  40.387  1.00  0.00     0.124 S 
ATOM     97  O   UNL A   1      38.135  35.798  41.153  1.00  0.00    -0.237 OA
ATOM     98  O   UNL A   1      40.447  36.665  41.036  1.00  0.00    -0.237 OA
ATOM     99  O   UNL A   1      38.673  37.701  39.674  1.00  0.00    -0.744 OA
ENDBRANCH  95  96
ENDBRANCH  63  88
ENDBRANCH  37  38
ENDBRANCH  30  32
ENDBRANCH  29  30
ENDBRANCH  28  29
ENDBRANCH  27  28
ENDBRANCH   1  27
TORSDOF 20
ENDMDL
MODEL 2
REMARK VINA RESULT:     -11.0      1.126      2.163
REMARK SMILES NC(=O)[C@@H]1CCCCN1C(=O)N[C@H]1C=C[C@@H](C(=O)OCCOCCOC(=O)c2ccc(-c3c4nc(c(-c5c(F)cc(S(=O)(=O)[O-])cc5F)c5ccc([nH]5)c(-c5c(F)cc(S(=O)(=O)[O-])cc5F)c5nc(c(-c6c(F)cc(S(=O)(=O)[O-])cc6F)c6ccc3[nH]6)C=C5)C=C4)cc2)C1
REMARK SMILES IDX 22 1 21 2 20 3 19 4 17 5 18 6 16 7 13 8 14 9 94 10 15 11
REMARK SMILES IDX 12 12 10 13 11 14 9 16 4 17 5 18 6 19 8 20 7 21 2 22 1 23
REMARK SMILES IDX 3 26 23 27 24 28 25 29 26 30 27 31 28 32 29 33 93 34 30 35
REMARK SMILES IDX 92 36 31 37 32 38 33 39 86 40 34 41 91 42 85 43 87 44 35 45
REMARK SMILES IDX 90 46 84 47 83 48 36 50 70 51 49 52 69 53 50 54 53 55 68 56
REMARK SMILES IDX 88 57 51 58 52 59 67 61 89 62 54 63 37 64 38 65 47 66 39 67
REMARK SMILES IDX 40 68 46 69 48 70 41 71 42 72 43 73 44 74 45 75 71 76 72 77
REMARK SMILES IDX 81 78 73 79 74 80 80 81 82 82 75 83 76 84 77 85 78 86 79 87
REMARK SMILES IDX 55 88 56 89 65 90 57 91 58 92 64 93 66 94 59 95 60 96 61 97
REMARK SMILES IDX 62 98 63 99
REMARK H PARENT 12 15 1 24 1 25 87 49 53 60
REMARK Flexibility Score: inf
ROOT
ATOM      1  O   UNL A   1      42.854  21.471  26.446  1.00  0.00    -0.374 OA
ENDROOT
BRANCH   1   2
ATOM      2  C   UNL A   1      41.765  20.600  26.124  1.00  0.00     0.202 C 
BRANCH   2   3
ATOM      3  C   UNL A   1      40.442  20.959  26.805  1.00  0.00     0.261 C 
BRANCH   3   4
ATOM      4  O   UNL A   1      39.385  21.109  25.838  1.00  0.00    -0.463 OA
BRANCH   4   5
ATOM      5  C   UNL A   1      38.605  22.212  25.983  1.00  0.00     0.312 C 
ATOM      6  O   UNL A   1      38.974  23.265  26.494  1.00  0.00    -0.252 OA
BRANCH   5   7
ATOM      7  C   UNL A   1      37.206  22.047  25.398  1.00  0.00     0.124 C 
ATOM      8  C   UNL A   1      34.999  23.126  25.203  1.00  0.00     0.107 C 
ATOM      9  C   UNL A   1      35.869  23.387  24.008  1.00  0.00    -0.006 C 
ATOM     10  C   UNL A   1      36.007  22.553  26.211  1.00  0.00     0.048 C 
ATOM     11  C   UNL A   1      37.067  22.801  24.112  1.00  0.00    -0.014 C 
BRANCH   8  12
ATOM     12  N   UNL A   1      34.417  24.382  25.625  1.00  0.00    -0.332 N 
ATOM     13  C   UNL A   1      33.279  25.071  25.466  1.00  0.00     0.318 C 
ATOM     14  O   UNL A   1      33.233  26.109  26.130  1.00  0.00    -0.249 OA
ATOM     15  H   UNL A   1      35.045  24.878  26.199  1.00  0.00     0.165 HD
BRANCH  13  16
ATOM     16  N   UNL A   1      32.244  24.703  24.651  1.00  0.00    -0.313 N 
ATOM     17  C   UNL A   1      31.313  23.658  25.158  1.00  0.00     0.176 C 
ATOM     18  C   UNL A   1      31.779  22.292  24.640  1.00  0.00     0.035 C 
ATOM     19  C   UNL A   1      31.773  22.296  23.109  1.00  0.00     0.004 C 
ATOM     20  C   UNL A   1      32.176  24.806  23.198  1.00  0.00     0.122 C 
ATOM     21  C   UNL A   1      32.581  23.474  22.557  1.00  0.00     0.022 C 
BRANCH  17  22
ATOM     22  C   UNL A   1      30.874  23.623  26.640  1.00  0.00     0.240 C 
ATOM     23  N   UNL A   1      29.551  23.881  26.866  1.00  0.00    -0.368 N 
ATOM     24  H   UNL A   1      29.198  23.876  27.785  1.00  0.00     0.159 HD
ATOM     25  H   UNL A   1      28.950  24.072  26.110  1.00  0.00     0.159 HD
ATOM     26  O   UNL A   1      31.581  23.203  27.553  1.00  0.00    -0.273 OA
ENDBRANCH  17  22
ENDBRANCH  13  16
ENDBRANCH   8  12
ENDBRANCH   5   7
ENDBRANCH   4   5
ENDBRANCH   3   4
ENDBRANCH   2   3
ENDBRANCH   1   2
BRANCH   1  27
ATOM     27  C   UNL A   1      43.494  22.139  25.356  1.00  0.00     0.202 C 
BRANCH  27  28
ATOM     28  C   UNL A   1      43.284  23.654  25.319  1.00  0.00     0.261 C 
BRANCH  28  29
ATOM     29  O   UNL A   1      42.249  24.054  26.234  1.00  0.00    -0.460 OA
BRANCH  29  30
ATOM     30  C   UNL A   1      41.834  25.329  26.060  1.00  0.00     0.338 C 
ATOM     31  O   UNL A   1      41.412  25.822  25.017  1.00  0.00    -0.246 OA
BRANCH  30  32
ATOM     32  C   UNL A   1      41.806  26.035  27.350  1.00  0.00     0.060 A 
ATOM     33  C   UNL A   1      40.729  25.804  28.214  1.00  0.00     0.016 A 
ATOM     34  C   UNL A   1      42.752  27.018  27.646  1.00  0.00     0.016 A 
ATOM     35  C   UNL A   1      40.577  26.589  29.360  1.00  0.00     0.010 A 
ATOM     36  C   UNL A   1      42.601  27.797  28.798  1.00  0.00     0.010 A 
ATOM     37  C   UNL A   1      41.493  27.614  29.643  1.00  0.00    -0.014 A 
BRANCH  37  38
ATOM     38  C   UNL A   1      41.232  28.563  30.754  1.00  0.00     0.031 A 
ATOM     39  C   UNL A   1      42.061  28.485  32.009  1.00  0.00     0.074 A 
ATOM     40  C   UNL A   1      40.270  29.498  30.643  1.00  0.00     0.049 A 
ATOM     41  N   UNL A   1      42.002  29.225  33.087  1.00  0.00    -0.248 NA
ATOM     42  C   UNL A   1      43.093  27.437  32.055  1.00  0.00     0.031 C 
ATOM     43  C   UNL A   1      39.401  29.679  29.481  1.00  0.00     0.029 A 
ATOM     44  N   UNL A   1      39.857  30.464  31.527  1.00  0.00    -0.354 N 
ATOM     45  C   UNL A   1      42.988  28.737  33.938  1.00  0.00     0.074 A 
ATOM     46  C   UNL A   1      43.610  27.618  33.263  1.00  0.00     0.031 C 
ATOM     47  C   UNL A   1      38.551  30.692  29.727  1.00  0.00     0.029 A 
ATOM     48  C   UNL A   1      38.803  31.217  31.068  1.00  0.00     0.049 A 
ATOM     49  H   UNL A   1      40.278  30.604  32.406  1.00  0.00     0.167 HD
ATOM     50  C   UNL A   1      43.350  29.185  35.164  1.00  0.00     0.037 A 
ATOM     51  C   UNL A   1      38.111  32.207  31.665  1.00  0.00     0.037 A 
ATOM     52  C   UNL A   1      42.728  30.293  35.842  1.00  0.00     0.049 A 
ATOM     53  C   UNL A   1      38.501  32.659  33.049  1.00  0.00     0.074 A 
ATOM     54  C   UNL A   1      43.044  30.837  37.074  1.00  0.00     0.029 A 
ATOM     55  N   UNL A   1      41.652  31.020  35.351  1.00  0.00    -0.354 N 
ATOM     56  N   UNL A   1      39.468  32.219  33.818  1.00  0.00    -0.248 NA
ATOM     57  C   UNL A   1      37.709  33.746  33.642  1.00  0.00     0.031 C 
ATOM     58  C   UNL A   1      42.138  31.869  37.345  1.00  0.00     0.029 A 
ATOM     59  C   UNL A   1      41.282  31.993  36.264  1.00  0.00     0.049 A 
ATOM     60  H   UNL A   1      41.217  30.865  34.481  1.00  0.00     0.167 HD
ATOM     61  C   UNL A   1      39.415  32.991  34.974  1.00  0.00     0.074 A 
ATOM     62  C   UNL A   1      38.327  33.930  34.801  1.00  0.00     0.031 C 
ATOM     63  C   UNL A   1      40.199  32.927  36.080  1.00  0.00     0.037 A 
BRANCH  50  64
ATOM     64  C   UNL A   1      44.473  28.471  35.861  1.00  0.00     0.058 A 
ATOM     65  C   UNL A   1      45.810  28.863  35.688  1.00  0.00     0.135 A 
ATOM     66  C   UNL A   1      44.210  27.409  36.741  1.00  0.00     0.135 A 
ATOM     67  F   UNL A   1      46.117  29.864  34.847  1.00  0.00    -0.206 F 
ATOM     68  C   UNL A   1      46.849  28.215  36.348  1.00  0.00     0.059 A 
ATOM     69  C   UNL A   1      45.232  26.760  37.428  1.00  0.00     0.059 A 
ATOM     70  F   UNL A   1      42.949  26.996  36.943  1.00  0.00    -0.206 F 
ATOM     71  C   UNL A   1      46.549  27.162  37.215  1.00  0.00     0.060 A 
BRANCH  71  72
ATOM     72  S   UNL A   1      47.907  26.337  38.074  1.00  0.00     0.124 S 
ATOM     73  O   UNL A   1      47.973  25.065  37.362  1.00  0.00    -0.237 OA
ATOM     74  O   UNL A   1      49.025  27.249  37.845  1.00  0.00    -0.237 OA
ATOM     75  O   UNL A   1      47.440  26.261  39.454  1.00  0.00    -0.744 OA
ENDBRANCH  71  72
ENDBRANCH  50  64
BRANCH  51  76
ATOM     76  C   UNL A   1      36.972  32.844  30.957  1.00  0.00     0.058 A 
ATOM     77  C   UNL A   1      35.647  32.499  31.258  1.00  0.00     0.135 A 
ATOM     78  C   UNL A   1      37.188  33.817  29.968  1.00  0.00     0.135 A 
ATOM     79  F   UNL A   1      35.392  31.567  32.189  1.00  0.00    -0.206 F 
ATOM     80  C   UNL A   1      34.574  33.086  30.596  1.00  0.00     0.059 A 
ATOM     81  C   UNL A   1      36.130  34.433  29.307  1.00  0.00     0.059 A 
ATOM     82  F   UNL A   1      38.438  34.188  29.652  1.00  0.00    -0.206 F 
ATOM     83  C   UNL A   1      34.826  34.054  29.622  1.00  0.00     0.060 A 
BRANCH  83  84
ATOM     84  S   UNL A   1      33.427  34.851  28.805  1.00  0.00     0.124 S 
ATOM     85  O   UNL A   1      32.501  35.030  29.917  1.00  0.00    -0.237 OA
ATOM     86  O   UNL A   1      34.031  36.069  28.273  1.00  0.00    -0.237 OA
ATOM     87  O   UNL A   1      33.026  33.871  27.799  1.00  0.00    -0.744 OA
ENDBRANCH  83  84
ENDBRANCH  51  76
BRANCH  63  88
ATOM     88  C   UNL A   1      39.932  33.917  37.179  1.00  0.00     0.058 A 
ATOM     89  C   UNL A   1      40.477  35.210  37.152  1.00  0.00     0.135 A 
ATOM     90  C   UNL A   1      39.081  33.586  38.245  1.00  0.00     0.135 A 
ATOM     91  F   UNL A   1      41.302  35.575  36.158  1.00  0.00    -0.206 F 
ATOM     92  C   UNL A   1      40.203  36.135  38.155  1.00  0.00     0.059 A 
ATOM     93  C   UNL A   1      38.776  34.501  39.247  1.00  0.00     0.059 A 
ATOM     94  F   UNL A   1      38.526  32.365  38.312  1.00  0.00    -0.206 F 
ATOM     95  C   UNL A   1      39.351  35.770  39.200  1.00  0.00     0.060 A 
BRANCH  95  96
ATOM     96  S   UNL A   1      38.974  36.987  40.480  1.00  0.00     0.124 S 
ATOM     97  O   UNL A   1      38.123  36.214  41.378  1.00  0.00    -0.237 OA
ATOM     98  O   UNL A   1      40.297  37.325  40.996  1.00  0.00    -0.237 OA
ATOM     99  O   UNL A   1      38.304  38.056  39.744  1.00  0.00    -0.744 OA
ENDBRANCH  95  96
ENDBRANCH  63  88
ENDBRANCH  37  38
ENDBRANCH  30  32
ENDBRANCH  29  30
ENDBRANCH  28  29
ENDBRANCH  27  28
ENDBRANCH   1  27
TORSDOF 20
ENDMDL
MODEL 3
REMARK VINA RESULT:     -10.8      0.865      2.078
REMARK SMILES NC(=O)[C@@H]1CCCCN1C(=O)N[C@H]1C=C[C@@H](C(=O)OCCOCCOC(=O)c2ccc(-c3c4nc(c(-c5c(F)cc(S(=O)(=O)[O-])cc5F)c5ccc([nH]5)c(-c5c(F)cc(S(=O)(=O)[O-])cc5F)c5nc(c(-c6c(F)cc(S(=O)(=O)[O-])cc6F)c6ccc3[nH]6)C=C5)C=C4)cc2)C1
REMARK SMILES IDX 22 1 21 2 20 3 19 4 17 5 18 6 16 7 13 8 14 9 94 10 15 11
REMARK SMILES IDX 12 12 10 13 11 14 9 16 4 17 5 18 6 19 8 20 7 21 2 22 1 23
REMARK SMILES IDX 3 26 23 27 24 28 25 29 26 30 27 31 28 32 29 33 93 34 30 35
REMARK SMILES IDX 92 36 31 37 32 38 33 39 86 40 34 41 91 42 85 43 87 44 35 45
REMARK SMILES IDX 90 46 84 47 83 48 36 50 70 51 49 52 69 53 50 54 53 55 68 56
REMARK SMILES IDX 88 57 51 58 52 59 67 61 89 62 54 63 37 64 38 65 47 66 39 67
REMARK SMILES IDX 40 68 46 69 48 70 41 71 42 72 43 73 44 74 45 75 71 76 72 77
REMARK SMILES IDX 81 78 73 79 74 80 80 81 82 82 75 83 76 84 77 85 78 86 79 87
REMARK SMILES IDX 55 88 56 89 65 90 57 91 58 92 64 93 66 94 59 95 60 96 61 97
REMARK SMILES IDX 62 98 63 99
REMARK H PARENT 12 15 1 24 1 25 87 49 53 60
REMARK Flexibility Score: inf
ROOT
ATOM      1  O   UNL A   1      41.320  20.385  26.069  1.00  0.00    -0.374 OA
ENDROOT
BRANCH   1   2
ATOM      2  C   UNL A   1      39.896  20.450  25.953  1.00  0.00     0.202 C 
BRANCH   2   3
ATOM      3  C   UNL A   1      39.299  21.836  26.203  1.00  0.00     0.261 C 
BRANCH   3   4
ATOM      4  O   UNL A   1      37.940  21.909  25.734  1.00  0.00    -0.463 OA
BRANCH   4   5
ATOM      5  C   UNL A   1      37.350  23.130  25.819  1.00  0.00     0.312 C 
ATOM      6  O   UNL A   1      37.943  24.174  26.071  1.00  0.00    -0.252 OA
BRANCH   5   7
ATOM      7  C   UNL A   1      35.854  23.104  25.519  1.00  0.00     0.124 C 
ATOM      8  C   UNL A   1      34.096  24.111  24.116  1.00  0.00     0.107 C 
ATOM      9  C   UNL A   1      34.608  22.819  23.549  1.00  0.00    -0.006 C 
ATOM     10  C   UNL A   1      35.150  24.427  25.189  1.00  0.00     0.048 C 
ATOM     11  C   UNL A   1      35.562  22.270  24.310  1.00  0.00    -0.014 C 
BRANCH   8  12
ATOM     12  N   UNL A   1      34.053  25.089  23.050  1.00  0.00    -0.332 N 
ATOM     13  C   UNL A   1      33.317  26.146  22.680  1.00  0.00     0.318 C 
ATOM     14  O   UNL A   1      33.755  26.728  21.685  1.00  0.00    -0.249 OA
ATOM     15  H   UNL A   1      34.780  24.931  22.405  1.00  0.00     0.165 HD
BRANCH  13  16
ATOM     16  N   UNL A   1      32.178  26.570  23.307  1.00  0.00    -0.313 N 
ATOM     17  C   UNL A   1      32.340  27.473  24.479  1.00  0.00     0.176 C 
ATOM     18  C   UNL A   1      32.339  26.626  25.756  1.00  0.00     0.035 C 
ATOM     19  C   UNL A   1      31.015  25.864  25.865  1.00  0.00     0.004 C 
ATOM     20  C   UNL A   1      30.876  25.915  23.325  1.00  0.00     0.122 C 
ATOM     21  C   UNL A   1      30.734  25.062  24.591  1.00  0.00     0.022 C 
BRANCH  17  22
ATOM     22  C   UNL A   1      33.413  28.586  24.494  1.00  0.00     0.240 C 
ATOM     23  N   UNL A   1      33.501  29.333  23.352  1.00  0.00    -0.368 N 
ATOM     24  H   UNL A   1      34.162  30.060  23.289  1.00  0.00     0.159 HD
ATOM     25  H   UNL A   1      32.903  29.144  22.593  1.00  0.00     0.159 HD
ATOM     26  O   UNL A   1      34.021  28.936  25.503  1.00  0.00    -0.273 OA
ENDBRANCH  17  22
ENDBRANCH  13  16
ENDBRANCH   8  12
ENDBRANCH   5   7
ENDBRANCH   4   5
ENDBRANCH   3   4
ENDBRANCH   2   3
ENDBRANCH   1   2
BRANCH   1  27
ATOM     27  C   UNL A   1      41.946  21.350  26.919  1.00  0.00     0.202 C 
BRANCH  27  28
ATOM     28  C   UNL A   1      42.984  22.238  26.228  1.00  0.00     0.261 C 
BRANCH  28  29
ATOM     29  O   UNL A   1      43.167  23.472  26.945  1.00  0.00    -0.460 OA
BRANCH  29  30
ATOM     30  C   UNL A   1      42.787  24.565  26.248  1.00  0.00     0.338 C 
ATOM     31  O   UNL A   1      42.757  24.676  25.024  1.00  0.00    -0.246 OA
BRANCH  30  32
ATOM     32  C   UNL A   1      42.249  25.588  27.158  1.00  0.00     0.060 A 
ATOM     33  C   UNL A   1      42.905  26.822  27.238  1.00  0.00     0.016 A 
ATOM     34  C   UNL A   1      41.199  25.289  28.027  1.00  0.00     0.016 A 
ATOM     35  C   UNL A   1      42.533  27.745  28.219  1.00  0.00     0.010 A 
ATOM     36  C   UNL A   1      40.824  26.217  29.003  1.00  0.00     0.010 A 
ATOM     37  C   UNL A   1      41.512  27.435  29.130  1.00  0.00    -0.014 A 
BRANCH  37  38
ATOM     38  C   UNL A   1      41.242  28.333  30.282  1.00  0.00     0.031 A 
ATOM     39  C   UNL A   1      42.064  28.202  31.537  1.00  0.00     0.074 A 
ATOM     40  C   UNL A   1      40.276  29.268  30.207  1.00  0.00     0.049 A 
ATOM     41  N   UNL A   1      41.997  28.893  32.646  1.00  0.00    -0.248 NA
ATOM     42  C   UNL A   1      43.100  27.156  31.541  1.00  0.00     0.031 C 
ATOM     43  C   UNL A   1      39.413  29.498  29.050  1.00  0.00     0.029 A 
ATOM     44  N   UNL A   1      39.856  30.192  31.131  1.00  0.00    -0.354 N 
ATOM     45  C   UNL A   1      42.980  28.371  33.479  1.00  0.00     0.074 A 
ATOM     46  C   UNL A   1      43.610  27.286  32.758  1.00  0.00     0.031 C 
ATOM     47  C   UNL A   1      38.558  30.496  29.336  1.00  0.00     0.029 A 
ATOM     48  C   UNL A   1      38.801  30.961  30.701  1.00  0.00     0.049 A 
ATOM     49  H   UNL A   1      40.272  30.295  32.017  1.00  0.00     0.167 HD
ATOM     50  C   UNL A   1      43.334  28.765  34.726  1.00  0.00     0.037 A 
ATOM     51  C   UNL A   1      38.103  31.921  31.338  1.00  0.00     0.037 A 
ATOM     52  C   UNL A   1      42.704  29.839  35.449  1.00  0.00     0.049 A 
ATOM     53  C   UNL A   1      38.483  32.313  32.743  1.00  0.00     0.074 A 
ATOM     54  C   UNL A   1      43.013  30.329  36.707  1.00  0.00     0.029 A 
ATOM     55  N   UNL A   1      41.629  30.583  34.986  1.00  0.00    -0.354 N 
ATOM     56  N   UNL A   1      39.448  31.842  33.497  1.00  0.00    -0.248 NA
ATOM     57  C   UNL A   1      37.684  33.369  33.379  1.00  0.00     0.031 C 
ATOM     58  C   UNL A   1      42.101  31.344  37.019  1.00  0.00     0.029 A 
ATOM     59  C   UNL A   1      41.250  31.514  35.939  1.00  0.00     0.049 A 
ATOM     60  H   UNL A   1      41.199  30.467  34.108  1.00  0.00     0.167 HD
ATOM     61  C   UNL A   1      39.386  32.561  34.686  1.00  0.00     0.074 A 
ATOM     62  C   UNL A   1      38.295  33.504  34.549  1.00  0.00     0.031 C 
ATOM     63  C   UNL A   1      40.165  32.451  35.791  1.00  0.00     0.037 A 
BRANCH  50  64
ATOM     64  C   UNL A   1      44.457  28.024  35.396  1.00  0.00     0.058 A 
ATOM     65  C   UNL A   1      45.788  28.455  35.286  1.00  0.00     0.135 A 
ATOM     66  C   UNL A   1      44.197  26.896  36.190  1.00  0.00     0.135 A 
ATOM     67  F   UNL A   1      46.092  29.521  34.528  1.00  0.00    -0.206 F 
ATOM     68  C   UNL A   1      46.825  27.781  35.922  1.00  0.00     0.059 A 
ATOM     69  C   UNL A   1      45.216  26.219  36.853  1.00  0.00     0.059 A 
ATOM     70  F   UNL A   1      42.940  26.443  36.330  1.00  0.00    -0.206 F 
ATOM     71  C   UNL A   1      46.529  26.662  36.702  1.00  0.00     0.060 A 
BRANCH  71  72
ATOM     72  S   UNL A   1      47.884  25.803  37.532  1.00  0.00     0.124 S 
ATOM     73  O   UNL A   1      48.462  26.878  38.335  1.00  0.00    -0.237 OA
ATOM     74  O   UNL A   1      47.187  24.761  38.279  1.00  0.00    -0.237 OA
ATOM     75  O   UNL A   1      48.713  25.329  36.429  1.00  0.00    -0.744 OA
ENDBRANCH  71  72
ENDBRANCH  50  64
BRANCH  51  76
ATOM     76  C   UNL A   1      36.965  32.586  30.652  1.00  0.00     0.058 A 
ATOM     77  C   UNL A   1      35.640  32.213  30.920  1.00  0.00     0.135 A 
ATOM     78  C   UNL A   1      37.182  33.612  29.720  1.00  0.00     0.135 A 
ATOM     79  F   UNL A   1      35.384  31.230  31.797  1.00  0.00    -0.206 F 
ATOM     80  C   UNL A   1      34.568  32.825  30.279  1.00  0.00     0.059 A 
ATOM     81  C   UNL A   1      36.125  34.254  29.082  1.00  0.00     0.059 A 
ATOM     82  F   UNL A   1      38.431  34.011  29.438  1.00  0.00    -0.206 F 
ATOM     83  C   UNL A   1      34.821  33.847  29.361  1.00  0.00     0.060 A 
BRANCH  83  84
ATOM     84  S   UNL A   1      33.423  34.674  28.573  1.00  0.00     0.124 S 
ATOM     85  O   UNL A   1      32.972  33.656  27.632  1.00  0.00    -0.237 OA
ATOM     86  O   UNL A   1      32.539  34.934  29.706  1.00  0.00    -0.237 OA
ATOM     87  O   UNL A   1      34.030  35.862  27.979  1.00  0.00    -0.744 OA
ENDBRANCH  83  84
ENDBRANCH  51  76
BRANCH  63  88
ATOM     88  C   UNL A   1      39.888  33.390  36.932  1.00  0.00     0.058 A 
ATOM     89  C   UNL A   1      38.947  33.083  37.927  1.00  0.00     0.135 A 
ATOM     90  C   UNL A   1      40.608  34.589  37.057  1.00  0.00     0.135 A 
ATOM     91  F   UNL A   1      38.228  31.953  37.849  1.00  0.00    -0.206 F 
ATOM     92  C   UNL A   1      38.716  33.941  38.998  1.00  0.00     0.059 A 
ATOM     93  C   UNL A   1      40.408  35.451  38.131  1.00  0.00     0.059 A 
ATOM     94  F   UNL A   1      41.527  34.926  36.138  1.00  0.00    -0.206 F 
ATOM     95  C   UNL A   1      39.452  35.124  39.090  1.00  0.00     0.060 A 
BRANCH  95  96
ATOM     96  S   UNL A   1      39.168  36.216  40.501  1.00  0.00     0.124 S 
ATOM     97  O   UNL A   1      38.705  37.432  39.842  1.00  0.00    -0.237 OA
ATOM     98  O   UNL A   1      38.162  35.488  41.268  1.00  0.00    -0.237 OA
ATOM     99  O   UNL A   1      40.483  36.303  41.131  1.00  0.00    -0.744 OA
ENDBRANCH  95  96
ENDBRANCH  63  88
ENDBRANCH  37  38
ENDBRANCH  30  32
ENDBRANCH  29  30
ENDBRANCH  28  29
ENDBRANCH  27  28
ENDBRANCH   1  27
TORSDOF 20
ENDMDL
