MODEL 1
REMARK VINA RESULT:     -11.2      0.000      0.000
REMARK SMILES O=C(/C=C/c1ccc(Br)cc1-n1ccnc1)OCCOCCOC(=O)c1ccc(-c2c3nc(c(-c4c(F)cc(S(=O)(=O)[O-])cc4F)c4ccc([nH]4)c(-c4c(F)cc(S(=O)(=O)[O-])cc4F)c4nc(c(-c5c(F)cc(S(=O)(=O)[O-])cc5F)c5ccc2[nH]5)C=C4)C=C3)cc1
REMARK SMILES IDX 21 1 20 2 19 3 18 4 17 5 2 6 1 7 3 8 4 9 5 10 6 11 11 12
REMARK SMILES IDX 7 13 10 14 8 15 9 16 12 17 13 18 16 19 14 20 15 21 22 22
REMARK SMILES IDX 23 23 24 24 25 25 26 26 27 27 91 28 28 29 90 30 29 31 30 32
REMARK SMILES IDX 31 33 84 34 32 35 89 36 83 37 85 38 33 39 88 40 82 41 81 42
REMARK SMILES IDX 34 44 68 45 47 46 67 47 48 48 51 49 66 50 86 51 49 52 50 53
REMARK SMILES IDX 65 55 87 56 52 57 35 58 36 59 45 60 37 61 38 62 44 63 46 64
REMARK SMILES IDX 39 65 40 66 41 67 42 68 43 69 69 70 70 71 79 72 71 73 72 74
REMARK SMILES IDX 78 75 80 76 73 77 74 78 75 79 76 80 77 81 53 82 54 83 63 84
REMARK SMILES IDX 55 85 56 86 62 87 64 88 57 89 58 90 59 91 60 92 61 93
REMARK H PARENT 85 43 51 54
REMARK Flexibility Score: inf
ROOT
ATOM      1  C   UNL A   1      37.144  23.039  24.795  1.00  0.00     0.202 C 
ENDROOT
BRANCH   1   2
ATOM      2  O   UNL A   1      35.788  22.956  25.251  1.00  0.00    -0.374 OA
BRANCH   2   3
ATOM      3  C   UNL A   1      35.447  21.783  25.990  1.00  0.00     0.202 C 
BRANCH   3   4
ATOM      4  C   UNL A   1      34.367  22.008  27.043  1.00  0.00     0.261 C 
BRANCH   4   5
ATOM      5  O   UNL A   1      33.823  23.339  27.043  1.00  0.00    -0.460 OA
BRANCH   5   6
ATOM      6  C   UNL A   1      32.528  23.708  27.005  1.00  0.00     0.330 C 
ATOM      7  O   UNL A   1      31.701  23.075  27.662  1.00  0.00    -0.247 OA
BRANCH   6   8
ATOM      8  C   UNL A   1      32.009  24.782  26.133  1.00  0.00     0.094 C 
ATOM      9  C   UNL A   1      31.503  25.996  26.402  1.00  0.00     0.018 C 
BRANCH   9  10
ATOM     10  C   UNL A   1      31.116  26.952  25.350  1.00  0.00    -0.001 A 
ATOM     11  C   UNL A   1      30.196  26.534  24.375  1.00  0.00     0.011 A 
ATOM     12  C   UNL A   1      31.559  28.289  25.298  1.00  0.00     0.055 A 
ATOM     13  C   UNL A   1      29.715  27.419  23.407  1.00  0.00     0.016 A 
ATOM     14  C   UNL A   1      31.079  29.184  24.328  1.00  0.00     0.043 A 
ATOM     15  C   UNL A   1      30.145  28.743  23.399  1.00  0.00     0.020 A 
ATOM     16  Br  UNL A   1      29.431  29.954  22.138  1.00  0.00    -0.051 Br
BRANCH  12  17
ATOM     17  N   UNL A   1      32.507  28.810  26.202  1.00  0.00    -0.306 N 
ATOM     18  C   UNL A   1      33.866  28.663  26.104  1.00  0.00     0.113 A 
ATOM     19  C   UNL A   1      32.296  29.872  27.049  1.00  0.00     0.204 A 
ATOM     20  C   UNL A   1      34.403  29.587  26.971  1.00  0.00     0.131 A 
ATOM     21  N   UNL A   1      33.417  30.339  27.554  1.00  0.00    -0.245 NA
ENDBRANCH  12  17
ENDBRANCH   9  10
ENDBRANCH   6   8
ENDBRANCH   5   6
ENDBRANCH   4   5
ENDBRANCH   3   4
ENDBRANCH   2   3
ENDBRANCH   1   2
BRANCH   1  22
ATOM     22  C   UNL A   1      38.118  22.357  25.743  1.00  0.00     0.261 C 
BRANCH  22  23
ATOM     23  O   UNL A   1      38.785  23.371  26.473  1.00  0.00    -0.460 OA
BRANCH  23  24
ATOM     24  C   UNL A   1      40.024  23.055  26.893  1.00  0.00     0.338 C 
ATOM     25  O   UNL A   1      40.414  21.976  27.323  1.00  0.00    -0.246 OA
BRANCH  24  26
ATOM     26  C   UNL A   1      40.830  24.270  26.831  1.00  0.00     0.060 A 
ATOM     27  C   UNL A   1      41.775  24.424  27.843  1.00  0.00     0.016 A 
ATOM     28  C   UNL A   1      40.389  25.338  26.029  1.00  0.00     0.016 A 
ATOM     29  C   UNL A   1      41.993  25.698  28.293  1.00  0.00     0.010 A 
ATOM     30  C   UNL A   1      40.586  26.606  26.495  1.00  0.00     0.010 A 
ATOM     31  C   UNL A   1      41.276  26.739  27.693  1.00  0.00    -0.014 A 
BRANCH  31  32
ATOM     32  C   UNL A   1      41.205  27.980  28.417  1.00  0.00     0.031 A 
ATOM     33  C   UNL A   1      42.371  28.846  28.198  1.00  0.00     0.074 A 
ATOM     34  C   UNL A   1      40.130  28.293  29.159  1.00  0.00     0.049 A 
ATOM     35  N   UNL A   1      43.313  29.133  29.029  1.00  0.00    -0.248 NA
ATOM     36  C   UNL A   1      42.609  29.291  26.818  1.00  0.00     0.031 C 
ATOM     37  C   UNL A   1      38.810  27.652  29.176  1.00  0.00     0.029 A 
ATOM     38  N   UNL A   1      39.971  29.346  29.995  1.00  0.00    -0.354 N 
ATOM     39  C   UNL A   1      44.160  29.979  28.329  1.00  0.00     0.074 A 
ATOM     40  C   UNL A   1      43.801  29.870  26.939  1.00  0.00     0.031 C 
ATOM     41  C   UNL A   1      37.934  28.474  29.800  1.00  0.00     0.029 A 
ATOM     42  C   UNL A   1      38.655  29.621  30.324  1.00  0.00     0.049 A 
ATOM     43  H   UNL A   1      40.729  29.873  30.338  1.00  0.00     0.167 HD
ATOM     44  C   UNL A   1      44.926  30.905  28.963  1.00  0.00     0.037 A 
ATOM     45  C   UNL A   1      38.216  30.778  30.876  1.00  0.00     0.037 A 
ATOM     46  C   UNL A   1      45.051  30.626  30.368  1.00  0.00     0.049 A 
ATOM     47  C   UNL A   1      39.401  31.454  31.482  1.00  0.00     0.074 A 
ATOM     48  C   UNL A   1      45.569  29.572  31.096  1.00  0.00     0.029 A 
ATOM     49  N   UNL A   1      44.254  31.332  31.238  1.00  0.00    -0.354 N 
ATOM     50  N   UNL A   1      40.072  30.989  32.503  1.00  0.00    -0.248 NA
ATOM     51  C   UNL A   1      40.120  32.425  30.666  1.00  0.00     0.031 C 
ATOM     52  C   UNL A   1      44.715  29.441  32.229  1.00  0.00     0.029 A 
ATOM     53  C   UNL A   1      43.743  30.440  32.149  1.00  0.00     0.049 A 
ATOM     54  H   UNL A   1      44.082  32.301  31.213  1.00  0.00     0.167 HD
ATOM     55  C   UNL A   1      41.401  31.296  32.239  1.00  0.00     0.074 A 
ATOM     56  C   UNL A   1      41.357  32.258  31.143  1.00  0.00     0.031 C 
ATOM     57  C   UNL A   1      42.423  30.539  32.742  1.00  0.00     0.037 A 
BRANCH  44  58
ATOM     58  C   UNL A   1      45.260  32.234  28.349  1.00  0.00     0.058 A 
ATOM     59  C   UNL A   1      46.596  32.547  28.050  1.00  0.00     0.135 A 
ATOM     60  C   UNL A   1      44.340  33.306  28.271  1.00  0.00     0.135 A 
ATOM     61  F   UNL A   1      47.551  31.607  28.124  1.00  0.00    -0.206 F 
ATOM     62  C   UNL A   1      46.998  33.846  27.739  1.00  0.00     0.059 A 
ATOM     63  C   UNL A   1      44.706  34.589  27.898  1.00  0.00     0.059 A 
ATOM     64  F   UNL A   1      43.061  33.182  28.653  1.00  0.00    -0.206 F 
ATOM     65  C   UNL A   1      46.044  34.861  27.678  1.00  0.00     0.060 A 
BRANCH  65  66
ATOM     66  S   UNL A   1      46.568  36.559  27.398  1.00  0.00     0.124 S 
ATOM     67  O   UNL A   1      46.820  37.010  28.761  1.00  0.00    -0.237 OA
ATOM     68  O   UNL A   1      47.744  36.380  26.554  1.00  0.00    -0.237 OA
ATOM     69  O   UNL A   1      45.414  37.160  26.735  1.00  0.00    -0.744 OA
ENDBRANCH  65  66
ENDBRANCH  44  58
BRANCH  45  70
ATOM     70  C   UNL A   1      36.955  31.493  30.542  1.00  0.00     0.058 A 
ATOM     71  C   UNL A   1      36.077  31.926  31.551  1.00  0.00     0.135 A 
ATOM     72  C   UNL A   1      36.709  31.998  29.247  1.00  0.00     0.135 A 
ATOM     73  F   UNL A   1      36.255  31.520  32.817  1.00  0.00    -0.206 F 
ATOM     74  C   UNL A   1      35.040  32.831  31.298  1.00  0.00     0.059 A 
ATOM     75  C   UNL A   1      35.673  32.886  28.969  1.00  0.00     0.059 A 
ATOM     76  F   UNL A   1      37.525  31.715  28.222  1.00  0.00    -0.206 F 
ATOM     77  C   UNL A   1      34.857  33.319  30.004  1.00  0.00     0.060 A 
BRANCH  77  78
ATOM     78  S   UNL A   1      33.627  34.609  29.702  1.00  0.00     0.124 S 
ATOM     79  O   UNL A   1      34.429  35.645  29.062  1.00  0.00    -0.237 OA
ATOM     80  O   UNL A   1      32.667  33.923  28.845  1.00  0.00    -0.237 OA
ATOM     81  O   UNL A   1      33.141  34.934  31.041  1.00  0.00    -0.744 OA
ENDBRANCH  77  78
ENDBRANCH  45  70
BRANCH  57  82
ATOM     82  C   UNL A   1      42.102  29.538  33.823  1.00  0.00     0.058 A 
ATOM     83  C   UNL A   1      41.548  28.269  33.575  1.00  0.00     0.135 A 
ATOM     84  C   UNL A   1      42.546  29.798  35.128  1.00  0.00     0.135 A 
ATOM     85  F   UNL A   1      41.192  27.904  32.336  1.00  0.00    -0.206 F 
ATOM     86  C   UNL A   1      41.417  27.313  34.584  1.00  0.00     0.059 A 
ATOM     87  C   UNL A   1      42.454  28.848  36.144  1.00  0.00     0.059 A 
ATOM     88  F   UNL A   1      43.143  30.967  35.413  1.00  0.00    -0.206 F 
ATOM     89  C   UNL A   1      41.881  27.608  35.865  1.00  0.00     0.060 A 
BRANCH  89  90
ATOM     90  S   UNL A   1      41.822  26.329  37.139  1.00  0.00     0.124 S 
ATOM     91  O   UNL A   1      40.494  26.525  37.710  1.00  0.00    -0.237 OA
ATOM     92  O   UNL A   1      42.006  25.102  36.368  1.00  0.00    -0.237 OA
ATOM     93  O   UNL A   1      42.937  26.671  38.020  1.00  0.00    -0.744 OA
ENDBRANCH  89  90
ENDBRANCH  57  82
ENDBRANCH  31  32
ENDBRANCH  24  26
ENDBRANCH  23  24
ENDBRANCH  22  23
ENDBRANCH   1  22
TORSDOF 19
ENDMDL
MODEL 2
REMARK VINA RESULT:     -10.9      2.072      3.476
REMARK SMILES O=C(/C=C/c1ccc(Br)cc1-n1ccnc1)OCCOCCOC(=O)c1ccc(-c2c3nc(c(-c4c(F)cc(S(=O)(=O)[O-])cc4F)c4ccc([nH]4)c(-c4c(F)cc(S(=O)(=O)[O-])cc4F)c4nc(c(-c5c(F)cc(S(=O)(=O)[O-])cc5F)c5ccc2[nH]5)C=C4)C=C3)cc1
REMARK SMILES IDX 21 1 20 2 19 3 18 4 17 5 2 6 1 7 3 8 4 9 5 10 6 11 11 12
REMARK SMILES IDX 7 13 10 14 8 15 9 16 12 17 13 18 16 19 14 20 15 21 22 22
REMARK SMILES IDX 23 23 24 24 25 25 26 26 27 27 91 28 28 29 90 30 29 31 30 32
REMARK SMILES IDX 31 33 84 34 32 35 89 36 83 37 85 38 33 39 88 40 82 41 81 42
REMARK SMILES IDX 34 44 68 45 47 46 67 47 48 48 51 49 66 50 86 51 49 52 50 53
REMARK SMILES IDX 65 55 87 56 52 57 35 58 36 59 45 60 37 61 38 62 44 63 46 64
REMARK SMILES IDX 39 65 40 66 41 67 42 68 43 69 69 70 70 71 79 72 71 73 72 74
REMARK SMILES IDX 78 75 80 76 73 77 74 78 75 79 76 80 77 81 53 82 54 83 63 84
REMARK SMILES IDX 55 85 56 86 62 87 64 88 57 89 58 90 59 91 60 92 61 93
REMARK H PARENT 85 43 51 54
REMARK Flexibility Score: inf
ROOT
ATOM      1  C   UNL A   1      42.803  20.923  25.828  1.00  0.00     0.202 C 
ENDROOT
BRANCH   1   2
ATOM      2  O   UNL A   1      41.675  21.440  26.544  1.00  0.00    -0.374 OA
BRANCH   2   3
ATOM      3  C   UNL A   1      40.493  20.640  26.512  1.00  0.00     0.202 C 
BRANCH   3   4
ATOM      4  C   UNL A   1      39.244  21.398  26.074  1.00  0.00     0.261 C 
BRANCH   4   5
ATOM      5  O   UNL A   1      39.396  22.828  26.094  1.00  0.00    -0.460 OA
BRANCH   5   6
ATOM      6  C   UNL A   1      38.540  23.748  26.579  1.00  0.00     0.330 C 
ATOM      7  O   UNL A   1      38.821  24.343  27.620  1.00  0.00    -0.247 OA
BRANCH   6   8
ATOM      8  C   UNL A   1      37.217  24.027  25.986  1.00  0.00     0.094 C 
ATOM      9  C   UNL A   1      36.043  23.378  26.052  1.00  0.00     0.018 C 
BRANCH   9  10
ATOM     10  C   UNL A   1      34.808  23.892  25.436  1.00  0.00    -0.001 A 
ATOM     11  C   UNL A   1      34.680  25.279  25.258  1.00  0.00     0.011 A 
ATOM     12  C   UNL A   1      33.769  23.074  24.949  1.00  0.00     0.055 A 
ATOM     13  C   UNL A   1      33.577  25.825  24.595  1.00  0.00     0.016 A 
ATOM     14  C   UNL A   1      32.659  23.616  24.282  1.00  0.00     0.043 A 
ATOM     15  C   UNL A   1      32.583  24.990  24.095  1.00  0.00     0.020 A 
ATOM     16  Br  UNL A   1      31.136  25.727  23.131  1.00  0.00    -0.051 Br
BRANCH  12  17
ATOM     17  N   UNL A   1      33.773  21.672  25.103  1.00  0.00    -0.306 N 
ATOM     18  C   UNL A   1      33.410  20.994  26.237  1.00  0.00     0.113 A 
ATOM     19  C   UNL A   1      33.712  20.761  24.075  1.00  0.00     0.204 A 
ATOM     20  C   UNL A   1      33.239  19.685  25.848  1.00  0.00     0.131 A 
ATOM     21  N   UNL A   1      33.427  19.549  24.498  1.00  0.00    -0.245 NA
ENDBRANCH  12  17
ENDBRANCH   9  10
ENDBRANCH   6   8
ENDBRANCH   5   6
ENDBRANCH   4   5
ENDBRANCH   3   4
ENDBRANCH   2   3
ENDBRANCH   1   2
BRANCH   1  22
ATOM     22  C   UNL A   1      43.765  22.016  25.388  1.00  0.00     0.261 C 
BRANCH  22  23
ATOM     23  O   UNL A   1      42.994  23.067  24.837  1.00  0.00    -0.460 OA
BRANCH  23  24
ATOM     24  C   UNL A   1      43.369  24.307  25.203  1.00  0.00     0.338 C 
ATOM     25  O   UNL A   1      44.429  24.870  24.956  1.00  0.00    -0.246 OA
BRANCH  24  26
ATOM     26  C   UNL A   1      42.309  24.855  26.044  1.00  0.00     0.060 A 
ATOM     27  C   UNL A   1      41.510  25.831  25.454  1.00  0.00     0.016 A 
ATOM     28  C   UNL A   1      42.376  24.662  27.435  1.00  0.00     0.016 A 
ATOM     29  C   UNL A   1      41.077  26.845  26.265  1.00  0.00     0.010 A 
ATOM     30  C   UNL A   1      41.967  25.686  28.239  1.00  0.00     0.010 A 
ATOM     31  C   UNL A   1      41.445  26.811  27.614  1.00  0.00    -0.014 A 
BRANCH  31  32
ATOM     32  C   UNL A   1      41.338  28.044  28.348  1.00  0.00     0.031 A 
ATOM     33  C   UNL A   1      42.491  28.933  28.158  1.00  0.00     0.074 A 
ATOM     34  C   UNL A   1      40.245  28.329  29.074  1.00  0.00     0.049 A 
ATOM     35  N   UNL A   1      43.413  29.230  29.007  1.00  0.00    -0.248 NA
ATOM     36  C   UNL A   1      42.744  29.395  26.786  1.00  0.00     0.031 C 
ATOM     37  C   UNL A   1      38.937  27.663  29.062  1.00  0.00     0.029 A 
ATOM     38  N   UNL A   1      40.052  29.371  29.916  1.00  0.00    -0.354 N 
ATOM     39  C   UNL A   1      44.256  30.098  28.329  1.00  0.00     0.074 A 
ATOM     40  C   UNL A   1      43.923  29.995  26.933  1.00  0.00     0.031 C 
ATOM     41  C   UNL A   1      38.035  28.463  29.678  1.00  0.00     0.029 A 
ATOM     42  C   UNL A   1      38.726  29.618  30.226  1.00  0.00     0.049 A 
ATOM     43  H   UNL A   1      40.793  29.909  30.278  1.00  0.00     0.167 HD
ATOM     44  C   UNL A   1      44.993  31.032  28.985  1.00  0.00     0.037 A 
ATOM     45  C   UNL A   1      38.255  30.761  30.781  1.00  0.00     0.037 A 
ATOM     46  C   UNL A   1      45.100  30.742  30.390  1.00  0.00     0.049 A 
ATOM     47  C   UNL A   1      39.417  31.453  31.413  1.00  0.00     0.074 A 
ATOM     48  C   UNL A   1      45.625  29.691  31.117  1.00  0.00     0.029 A 
ATOM     49  N   UNL A   1      44.275  31.425  31.252  1.00  0.00    -0.354 N 
ATOM     50  N   UNL A   1      40.078  30.992  32.441  1.00  0.00    -0.248 NA
ATOM     51  C   UNL A   1      40.132  32.446  30.619  1.00  0.00     0.031 C 
ATOM     52  C   UNL A   1      44.754  29.533  32.233  1.00  0.00     0.029 A 
ATOM     53  C   UNL A   1      43.765  30.515  32.146  1.00  0.00     0.049 A 
ATOM     54  H   UNL A   1      44.085  32.390  31.233  1.00  0.00     0.167 HD
ATOM     55  C   UNL A   1      41.406  31.326  32.203  1.00  0.00     0.074 A 
ATOM     56  C   UNL A   1      41.363  32.297  31.116  1.00  0.00     0.031 C 
ATOM     57  C   UNL A   1      42.433  30.583  32.716  1.00  0.00     0.037 A 
BRANCH  44  58
ATOM     58  C   UNL A   1      45.313  32.372  28.390  1.00  0.00     0.058 A 
ATOM     59  C   UNL A   1      46.652  32.740  28.178  1.00  0.00     0.135 A 
ATOM     60  C   UNL A   1      44.357  33.406  28.248  1.00  0.00     0.135 A 
ATOM     61  F   UNL A   1      47.637  31.839  28.318  1.00  0.00    -0.206 F 
ATOM     62  C   UNL A   1      47.021  34.053  27.889  1.00  0.00     0.059 A 
ATOM     63  C   UNL A   1      44.695  34.702  27.894  1.00  0.00     0.059 A 
ATOM     64  F   UNL A   1      43.063  33.231  28.545  1.00  0.00    -0.206 F 
ATOM     65  C   UNL A   1      46.033  35.029  27.761  1.00  0.00     0.060 A 
BRANCH  65  66
ATOM     66  S   UNL A   1      46.505  36.746  27.510  1.00  0.00     0.124 S 
ATOM     67  O   UNL A   1      46.822  36.751  26.088  1.00  0.00    -0.237 OA
ATOM     68  O   UNL A   1      45.290  37.455  27.899  1.00  0.00    -0.237 OA
ATOM     69  O   UNL A   1      47.639  36.917  28.413  1.00  0.00    -0.744 OA
ENDBRANCH  65  66
ENDBRANCH  44  58
BRANCH  45  70
ATOM     70  C   UNL A   1      36.987  31.457  30.432  1.00  0.00     0.058 A 
ATOM     71  C   UNL A   1      36.138  31.963  31.430  1.00  0.00     0.135 A 
ATOM     72  C   UNL A   1      36.706  31.868  29.111  1.00  0.00     0.135 A 
ATOM     73  F   UNL A   1      36.351  31.649  32.717  1.00  0.00    -0.206 F 
ATOM     74  C   UNL A   1      35.097  32.852  31.142  1.00  0.00     0.059 A 
ATOM     75  C   UNL A   1      35.665  32.739  28.798  1.00  0.00     0.059 A 
ATOM     76  F   UNL A   1      37.493  31.509  28.086  1.00  0.00    -0.206 F 
ATOM     77  C   UNL A   1      34.879  33.247  29.822  1.00  0.00     0.060 A 
BRANCH  77  78
ATOM     78  S   UNL A   1      33.644  34.518  29.463  1.00  0.00     0.124 S 
ATOM     79  O   UNL A   1      33.180  34.873  30.799  1.00  0.00    -0.237 OA
ATOM     80  O   UNL A   1      34.436  35.528  28.771  1.00  0.00    -0.237 OA
ATOM     81  O   UNL A   1      32.669  33.817  28.630  1.00  0.00    -0.744 OA
ENDBRANCH  77  78
ENDBRANCH  45  70
BRANCH  57  82
ATOM     82  C   UNL A   1      42.113  29.566  33.783  1.00  0.00     0.058 A 
ATOM     83  C   UNL A   1      41.660  28.263  33.510  1.00  0.00     0.135 A 
ATOM     84  C   UNL A   1      42.457  29.858  35.111  1.00  0.00     0.135 A 
ATOM     85  F   UNL A   1      41.407  27.871  32.253  1.00  0.00    -0.206 F 
ATOM     86  C   UNL A   1      41.530  27.303  34.516  1.00  0.00     0.059 A 
ATOM     87  C   UNL A   1      42.365  28.907  36.125  1.00  0.00     0.059 A 
ATOM     88  F   UNL A   1      42.957  31.066  35.425  1.00  0.00    -0.206 F 
ATOM     89  C   UNL A   1      41.894  27.632  35.821  1.00  0.00     0.060 A 
BRANCH  89  90
ATOM     90  S   UNL A   1      41.840  26.354  37.097  1.00  0.00     0.124 S 
ATOM     91  O   UNL A   1      42.960  26.729  37.954  1.00  0.00    -0.237 OA
ATOM     92  O   UNL A   1      40.512  26.537  37.675  1.00  0.00    -0.237 OA
ATOM     93  O   UNL A   1      42.017  25.114  36.347  1.00  0.00    -0.744 OA
ENDBRANCH  89  90
ENDBRANCH  57  82
ENDBRANCH  31  32
ENDBRANCH  24  26
ENDBRANCH  23  24
ENDBRANCH  22  23
ENDBRANCH   1  22
TORSDOF 19
ENDMDL
MODEL 3
REMARK VINA RESULT:     -10.8      1.279      2.307
REMARK SMILES O=C(/C=C/c1ccc(Br)cc1-n1ccnc1)OCCOCCOC(=O)c1ccc(-c2c3nc(c(-c4c(F)cc(S(=O)(=O)[O-])cc4F)c4ccc([nH]4)c(-c4c(F)cc(S(=O)(=O)[O-])cc4F)c4nc(c(-c5c(F)cc(S(=O)(=O)[O-])cc5F)c5ccc2[nH]5)C=C4)C=C3)cc1
REMARK SMILES IDX 21 1 20 2 19 3 18 4 17 5 2 6 1 7 3 8 4 9 5 10 6 11 11 12
REMARK SMILES IDX 7 13 10 14 8 15 9 16 12 17 13 18 16 19 14 20 15 21 22 22
REMARK SMILES IDX 23 23 24 24 25 25 26 26 27 27 91 28 28 29 90 30 29 31 30 32
REMARK SMILES IDX 31 33 84 34 32 35 89 36 83 37 85 38 33 39 88 40 82 41 81 42
REMARK SMILES IDX 34 44 68 45 47 46 67 47 48 48 51 49 66 50 86 51 49 52 50 53
REMARK SMILES IDX 65 55 87 56 52 57 35 58 36 59 45 60 37 61 38 62 44 63 46 64
REMARK SMILES IDX 39 65 40 66 41 67 42 68 43 69 69 70 70 71 79 72 71 73 72 74
REMARK SMILES IDX 78 75 80 76 73 77 74 78 75 79 76 80 77 81 53 82 54 83 63 84
REMARK SMILES IDX 55 85 56 86 62 87 64 88 57 89 58 90 59 91 60 92 61 93
REMARK H PARENT 85 43 51 54
REMARK Flexibility Score: inf
ROOT
ATOM      1  C   UNL A   1      37.564  21.768  24.923  1.00  0.00     0.202 C 
ENDROOT
BRANCH   1   2
ATOM      2  O   UNL A   1      36.322  21.699  25.635  1.00  0.00    -0.374 OA
BRANCH   2   3
ATOM      3  C   UNL A   1      35.149  21.562  24.832  1.00  0.00     0.202 C 
BRANCH   3   4
ATOM      4  C   UNL A   1      34.741  22.842  24.109  1.00  0.00     0.261 C 
BRANCH   4   5
ATOM      5  O   UNL A   1      33.616  23.512  24.704  1.00  0.00    -0.460 OA
BRANCH   5   6
ATOM      6  C   UNL A   1      33.532  24.071  25.926  1.00  0.00     0.330 C 
ATOM      7  O   UNL A   1      33.662  23.361  26.924  1.00  0.00    -0.247 OA
BRANCH   6   8
ATOM      8  C   UNL A   1      33.191  25.490  26.155  1.00  0.00     0.094 C 
ATOM      9  C   UNL A   1      33.667  26.629  25.625  1.00  0.00     0.018 C 
BRANCH   9  10
ATOM     10  C   UNL A   1      33.110  27.955  25.948  1.00  0.00    -0.001 A 
ATOM     11  C   UNL A   1      33.706  28.693  26.984  1.00  0.00     0.011 A 
ATOM     12  C   UNL A   1      32.056  28.562  25.236  1.00  0.00     0.055 A 
ATOM     13  C   UNL A   1      33.288  29.994  27.278  1.00  0.00     0.016 A 
ATOM     14  C   UNL A   1      31.633  29.869  25.526  1.00  0.00     0.043 A 
ATOM     15  C   UNL A   1      32.267  30.581  26.536  1.00  0.00     0.020 A 
ATOM     16  Br  UNL A   1      31.762  32.367  26.885  1.00  0.00    -0.051 Br
BRANCH  12  17
ATOM     17  N   UNL A   1      31.362  27.903  24.201  1.00  0.00    -0.306 N 
ATOM     18  C   UNL A   1      30.179  27.225  24.342  1.00  0.00     0.113 A 
ATOM     19  C   UNL A   1      31.492  28.176  22.860  1.00  0.00     0.204 A 
ATOM     20  C   UNL A   1      29.702  27.043  23.064  1.00  0.00     0.131 A 
ATOM     21  N   UNL A   1      30.526  27.641  22.146  1.00  0.00    -0.245 NA
ENDBRANCH  12  17
ENDBRANCH   9  10
ENDBRANCH   6   8
ENDBRANCH   5   6
ENDBRANCH   4   5
ENDBRANCH   3   4
ENDBRANCH   2   3
ENDBRANCH   1   2
BRANCH   1  22
ATOM     22  C   UNL A   1      38.768  21.584  25.834  1.00  0.00     0.261 C 
BRANCH  22  23
ATOM     23  O   UNL A   1      38.979  22.807  26.515  1.00  0.00    -0.460 OA
BRANCH  23  24
ATOM     24  C   UNL A   1      40.071  22.844  27.302  1.00  0.00     0.338 C 
ATOM     25  O   UNL A   1      40.429  22.008  28.122  1.00  0.00    -0.246 OA
BRANCH  24  26
ATOM     26  C   UNL A   1      40.733  24.125  27.071  1.00  0.00     0.060 A 
ATOM     27  C   UNL A   1      41.927  24.324  27.760  1.00  0.00     0.016 A 
ATOM     28  C   UNL A   1      39.995  25.178  26.502  1.00  0.00     0.016 A 
ATOM     29  C   UNL A   1      42.181  25.596  28.197  1.00  0.00     0.010 A 
ATOM     30  C   UNL A   1      40.235  26.442  26.960  1.00  0.00     0.010 A 
ATOM     31  C   UNL A   1      41.245  26.592  27.901  1.00  0.00    -0.014 A 
BRANCH  31  32
ATOM     32  C   UNL A   1      41.309  27.798  28.684  1.00  0.00     0.031 A 
ATOM     33  C   UNL A   1      42.416  28.681  28.296  1.00  0.00     0.074 A 
ATOM     34  C   UNL A   1      40.390  28.066  29.626  1.00  0.00     0.049 A 
ATOM     35  N   UNL A   1      43.496  28.937  28.951  1.00  0.00    -0.248 NA
ATOM     36  C   UNL A   1      42.395  29.192  26.918  1.00  0.00     0.031 C 
ATOM     37  C   UNL A   1      39.095  27.415  29.854  1.00  0.00     0.029 A 
ATOM     38  N   UNL A   1      40.389  29.078  30.525  1.00  0.00    -0.354 N 
ATOM     39  C   UNL A   1      44.200  29.821  28.147  1.00  0.00     0.074 A 
ATOM     40  C   UNL A   1      43.590  29.775  26.844  1.00  0.00     0.031 C 
ATOM     41  C   UNL A   1      38.350  28.201  30.667  1.00  0.00     0.029 A 
ATOM     42  C   UNL A   1      39.157  29.327  31.104  1.00  0.00     0.049 A 
ATOM     43  H   UNL A   1      41.198  29.595  30.748  1.00  0.00     0.167 HD
ATOM     44  C   UNL A   1      45.070  30.722  28.673  1.00  0.00     0.037 A 
ATOM     45  C   UNL A   1      38.828  30.454  31.782  1.00  0.00     0.037 A 
ATOM     46  C   UNL A   1      45.452  30.379  30.016  1.00  0.00     0.049 A 
ATOM     47  C   UNL A   1      40.105  31.110  32.190  1.00  0.00     0.074 A 
ATOM     48  C   UNL A   1      46.095  29.297  30.586  1.00  0.00     0.029 A 
ATOM     49  N   UNL A   1      44.830  31.038  31.050  1.00  0.00    -0.354 N 
ATOM     50  N   UNL A   1      40.952  30.603  33.046  1.00  0.00    -0.248 NA
ATOM     51  C   UNL A   1      40.663  32.124  31.302  1.00  0.00     0.031 C 
ATOM     52  C   UNL A   1      45.464  29.106  31.848  1.00  0.00     0.029 A 
ATOM     53  C   UNL A   1      44.494  30.100  31.996  1.00  0.00     0.049 A 
ATOM     54  H   UNL A   1      44.656  32.005  31.103  1.00  0.00     0.167 HD
ATOM     55  C   UNL A   1      42.210  30.933  32.557  1.00  0.00     0.074 A 
ATOM     56  C   UNL A   1      41.966  31.944  31.535  1.00  0.00     0.031 C 
ATOM     57  C   UNL A   1      43.306  30.161  32.826  1.00  0.00     0.037 A 
BRANCH  44  58
ATOM     58  C   UNL A   1      45.286  32.081  28.072  1.00  0.00     0.058 A 
ATOM     59  C   UNL A   1      46.564  32.447  27.617  1.00  0.00     0.135 A 
ATOM     60  C   UNL A   1      44.335  33.126  28.152  1.00  0.00     0.135 A 
ATOM     61  F   UNL A   1      47.545  31.535  27.533  1.00  0.00    -0.206 F 
ATOM     62  C   UNL A   1      46.887  33.767  27.306  1.00  0.00     0.059 A 
ATOM     63  C   UNL A   1      44.615  34.431  27.784  1.00  0.00     0.059 A 
ATOM     64  F   UNL A   1      43.121  32.949  28.689  1.00  0.00    -0.206 F 
ATOM     65  C   UNL A   1      45.907  34.753  27.405  1.00  0.00     0.060 A 
BRANCH  65  66
ATOM     66  S   UNL A   1      46.344  36.475  27.124  1.00  0.00     0.124 S 
ATOM     67  O   UNL A   1      47.100  36.380  25.881  1.00  0.00    -0.237 OA
ATOM     68  O   UNL A   1      45.034  37.111  27.032  1.00  0.00    -0.237 OA
ATOM     69  O   UNL A   1      47.120  36.821  28.312  1.00  0.00    -0.744 OA
ENDBRANCH  65  66
ENDBRANCH  44  58
BRANCH  45  70
ATOM     70  C   UNL A   1      37.528  31.174  31.720  1.00  0.00     0.058 A 
ATOM     71  C   UNL A   1      36.817  31.490  32.890  1.00  0.00     0.135 A 
ATOM     72  C   UNL A   1      37.080  31.797  30.535  1.00  0.00     0.135 A 
ATOM     73  F   UNL A   1      37.192  30.967  34.067  1.00  0.00    -0.206 F 
ATOM     74  C   UNL A   1      35.750  32.395  32.892  1.00  0.00     0.059 A 
ATOM     75  C   UNL A   1      36.010  32.689  30.510  1.00  0.00     0.059 A 
ATOM     76  F   UNL A   1      37.727  31.631  29.372  1.00  0.00    -0.206 F 
ATOM     77  C   UNL A   1      35.365  33.003  31.697  1.00  0.00     0.060 A 
BRANCH  77  78
ATOM     78  S   UNL A   1      34.098  34.293  31.719  1.00  0.00     0.124 S 
ATOM     79  O   UNL A   1      33.207  33.822  32.772  1.00  0.00    -0.237 OA
ATOM     80  O   UNL A   1      34.880  35.485  32.028  1.00  0.00    -0.237 OA
ATOM     81  O   UNL A   1      33.545  34.248  30.367  1.00  0.00    -0.744 OA
ENDBRANCH  77  78
ENDBRANCH  45  70
BRANCH  57  82
ATOM     82  C   UNL A   1      43.190  29.108  33.899  1.00  0.00     0.058 A 
ATOM     83  C   UNL A   1      43.375  29.363  35.270  1.00  0.00     0.135 A 
ATOM     84  C   UNL A   1      42.690  27.846  33.546  1.00  0.00     0.135 A 
ATOM     85  F   UNL A   1      43.752  30.575  35.699  1.00  0.00    -0.206 F 
ATOM     86  C   UNL A   1      43.100  28.399  36.242  1.00  0.00     0.059 A 
ATOM     87  C   UNL A   1      42.380  26.878  34.501  1.00  0.00     0.059 A 
ATOM     88  F   UNL A   1      42.432  27.562  32.258  1.00  0.00    -0.206 F 
ATOM     89  C   UNL A   1      42.595  27.161  35.848  1.00  0.00     0.060 A 
BRANCH  89  90
ATOM     90  S   UNL A   1      42.126  25.959  37.114  1.00  0.00     0.124 S 
ATOM     91  O   UNL A   1      42.348  24.690  36.429  1.00  0.00    -0.237 OA
ATOM     92  O   UNL A   1      43.053  26.263  38.201  1.00  0.00    -0.237 OA
ATOM     93  O   UNL A   1      40.729  26.283  37.391  1.00  0.00    -0.744 OA
ENDBRANCH  89  90
ENDBRANCH  57  82
ENDBRANCH  31  32
ENDBRANCH  24  26
ENDBRANCH  23  24
ENDBRANCH  22  23
ENDBRANCH   1  22
TORSDOF 19
ENDMDL
