MODEL 1
REMARK VINA RESULT:     -11.7      0.000      0.000
REMARK SMILES O=C(OCCOCCOC(=O)c1ccccc1Nc1nc(Cl)nc(Nc2ccc(N3CCOCC3=O)cc2)n1)c1ccc(-c2c3nc(c(-c4c(F)cc(S(=O)(=O)[O-])cc4F)c4ccc([nH]4)c(-c4c(F)cc(S(=O)(=O)[O-])cc4F)c4nc(c(-c5c(F)cc(S(=O)(=O)[O-])cc5F)c5ccc2[nH]5)C=C4)C=C3)cc1
REMARK SMILES IDX 7 1 6 2 5 3 4 4 3 5 2 6 1 7 40 8 41 9 105 10 42 11 104 12
REMARK SMILES IDX 43 13 44 14 45 15 98 16 46 17 103 18 97 19 99 20 47 21
REMARK SMILES IDX 102 22 96 23 95 24 48 26 82 27 61 28 81 29 62 30 65 31 80 32
REMARK SMILES IDX 100 33 63 34 64 35 79 37 101 38 66 39 49 40 50 41 59 42
REMARK SMILES IDX 51 43 52 44 58 45 60 46 53 47 54 48 55 49 56 50 57 51 83 52
REMARK SMILES IDX 84 53 93 54 85 55 86 56 92 57 94 58 87 59 88 60 89 61 90 62
REMARK SMILES IDX 91 63 67 64 68 65 77 66 69 67 70 68 76 69 78 70 71 71 72 72
REMARK SMILES IDX 73 73 74 74 75 75 8 76 9 77 10 78 11 79 12 80 13 81 17 82
REMARK SMILES IDX 14 83 16 84 15 85 18 86 19 88 20 89 39 90 21 91 24 92 22 93
REMARK SMILES IDX 23 94 25 95 26 97 27 98 38 99 28 100 37 101 29 102 30 103
REMARK SMILES IDX 31 104 35 105 32 106 34 107 36 108 33 109
REMARK H PARENT 99 25 65 36 18 87 25 96
REMARK Flexibility Score: inf
ROOT
ATOM      1  C   UNL A   1      32.692  26.368  26.141  1.00  0.00     0.202 C 
ENDROOT
BRANCH   1   2
ATOM      2  O   UNL A   1      31.957  27.188  27.053  1.00  0.00    -0.374 OA
BRANCH   2   3
ATOM      3  C   UNL A   1      31.428  28.406  26.539  1.00  0.00     0.202 C 
BRANCH   3   4
ATOM      4  C   UNL A   1      32.083  29.661  27.116  1.00  0.00     0.261 C 
BRANCH   4   5
ATOM      5  O   UNL A   1      33.433  29.370  27.519  1.00  0.00    -0.460 OA
BRANCH   5   6
ATOM      6  C   UNL A   1      34.389  30.237  27.930  1.00  0.00     0.338 C 
ATOM      7  O   UNL A   1      34.064  31.404  28.149  1.00  0.00    -0.246 OA
BRANCH   6   8
ATOM      8  C   UNL A   1      35.824  29.863  28.111  1.00  0.00     0.060 A 
ATOM      9  C   UNL A   1      36.807  29.998  27.129  1.00  0.00     0.016 A 
ATOM     10  C   UNL A   1      36.228  29.455  29.392  1.00  0.00     0.016 A 
ATOM     11  C   UNL A   1      38.136  29.709  27.382  1.00  0.00     0.010 A 
ATOM     12  C   UNL A   1      37.575  29.195  29.670  1.00  0.00     0.010 A 
ATOM     13  C   UNL A   1      38.530  29.324  28.657  1.00  0.00    -0.014 A 
BRANCH  13  14
ATOM     14  C   UNL A   1      39.953  29.008  28.856  1.00  0.00     0.031 A 
ATOM     15  C   UNL A   1      40.824  30.037  29.500  1.00  0.00     0.074 A 
ATOM     16  C   UNL A   1      40.388  27.762  28.590  1.00  0.00     0.049 A 
ATOM     17  N   UNL A   1      42.102  29.993  29.748  1.00  0.00    -0.248 NA
ATOM     18  C   UNL A   1      40.164  31.279  29.944  1.00  0.00     0.031 C 
ATOM     19  C   UNL A   1      39.552  26.668  28.083  1.00  0.00     0.029 A 
ATOM     20  N   UNL A   1      41.622  27.192  28.739  1.00  0.00    -0.354 N 
ATOM     21  C   UNL A   1      42.409  31.209  30.344  1.00  0.00     0.074 A 
ATOM     22  C   UNL A   1      41.183  31.969  30.433  1.00  0.00     0.031 C 
ATOM     23  C   UNL A   1      40.297  25.557  27.977  1.00  0.00     0.029 A 
ATOM     24  C   UNL A   1      41.672  25.876  28.337  1.00  0.00     0.049 A 
ATOM     25  H   UNL A   1      42.401  27.676  29.098  1.00  0.00     0.167 HD
ATOM     26  C   UNL A   1      43.618  31.643  30.763  1.00  0.00     0.037 A 
ATOM     27  C   UNL A   1      42.728  25.047  28.233  1.00  0.00     0.037 A 
ATOM     28  C   UNL A   1      44.812  30.847  30.661  1.00  0.00     0.049 A 
ATOM     29  C   UNL A   1      44.077  25.591  28.624  1.00  0.00     0.074 A 
ATOM     30  C   UNL A   1      46.108  31.188  30.995  1.00  0.00     0.029 A 
ATOM     31  N   UNL A   1      44.847  29.543  30.184  1.00  0.00    -0.354 N 
ATOM     32  N   UNL A   1      44.375  26.768  29.128  1.00  0.00    -0.248 NA
ATOM     33  C   UNL A   1      45.235  24.715  28.416  1.00  0.00     0.031 C 
ATOM     34  C   UNL A   1      46.933  30.104  30.677  1.00  0.00     0.029 A 
ATOM     35  C   UNL A   1      46.145  29.069  30.194  1.00  0.00     0.049 A 
ATOM     36  H   UNL A   1      44.061  29.030  29.884  1.00  0.00     0.167 HD
ATOM     37  C   UNL A   1      45.751  26.769  29.309  1.00  0.00     0.074 A 
ATOM     38  C   UNL A   1      46.223  25.464  28.883  1.00  0.00     0.031 C 
ATOM     39  C   UNL A   1      46.560  27.754  29.771  1.00  0.00     0.037 A 
BRANCH  26  40
ATOM     40  C   UNL A   1      43.713  33.047  31.285  1.00  0.00     0.058 A 
ATOM     41  C   UNL A   1      43.561  33.352  32.646  1.00  0.00     0.135 A 
ATOM     42  C   UNL A   1      43.968  34.106  30.399  1.00  0.00     0.135 A 
ATOM     43  F   UNL A   1      43.279  32.381  33.529  1.00  0.00    -0.206 F 
ATOM     44  C   UNL A   1      43.653  34.661  33.110  1.00  0.00     0.059 A 
ATOM     45  C   UNL A   1      44.086  35.419  30.844  1.00  0.00     0.059 A 
ATOM     46  F   UNL A   1      44.101  33.870  29.084  1.00  0.00    -0.206 F 
ATOM     47  C   UNL A   1      43.919  35.688  32.201  1.00  0.00     0.060 A 
BRANCH  47  48
ATOM     48  S   UNL A   1      44.058  37.378  32.821  1.00  0.00     0.124 S 
ATOM     49  O   UNL A   1      43.824  38.154  31.607  1.00  0.00    -0.237 OA
ATOM     50  O   UNL A   1      42.996  37.430  33.821  1.00  0.00    -0.237 OA
ATOM     51  O   UNL A   1      45.417  37.436  33.350  1.00  0.00    -0.744 OA
ENDBRANCH  47  48
ENDBRANCH  26  40
BRANCH  27  52
ATOM     52  C   UNL A   1      42.573  23.675  27.672  1.00  0.00     0.058 A 
ATOM     53  C   UNL A   1      42.430  22.552  28.499  1.00  0.00     0.135 A 
ATOM     54  C   UNL A   1      42.605  23.457  26.283  1.00  0.00     0.135 A 
ATOM     55  F   UNL A   1      42.399  22.700  29.832  1.00  0.00    -0.206 F 
ATOM     56  C   UNL A   1      42.358  21.263  27.976  1.00  0.00     0.059 A 
ATOM     57  C   UNL A   1      42.502  22.181  25.735  1.00  0.00     0.059 A 
ATOM     58  F   UNL A   1      42.730  24.493  25.439  1.00  0.00    -0.206 F 
ATOM     59  C   UNL A   1      42.401  21.088  26.592  1.00  0.00     0.060 A 
BRANCH  59  60
ATOM     60  S   UNL A   1      42.316  19.414  25.918  1.00  0.00     0.124 S 
ATOM     61  O   UNL A   1      43.243  19.504  24.795  1.00  0.00    -0.237 OA
ATOM     62  O   UNL A   1      42.759  18.603  27.048  1.00  0.00    -0.237 OA
ATOM     63  O   UNL A   1      40.908  19.265  25.563  1.00  0.00    -0.744 OA
ENDBRANCH  59  60
ENDBRANCH  27  52
BRANCH  39  64
ATOM     64  C   UNL A   1      48.023  27.440  29.867  1.00  0.00     0.058 A 
ATOM     65  C   UNL A   1      48.917  27.799  28.848  1.00  0.00     0.135 A 
ATOM     66  C   UNL A   1      48.540  26.833  31.022  1.00  0.00     0.135 A 
ATOM     67  F   UNL A   1      48.465  28.373  27.722  1.00  0.00    -0.206 F 
ATOM     68  C   UNL A   1      50.279  27.548  28.964  1.00  0.00     0.059 A 
ATOM     69  C   UNL A   1      49.901  26.601  31.171  1.00  0.00     0.059 A 
ATOM     70  F   UNL A   1      47.722  26.485  32.029  1.00  0.00    -0.206 F 
ATOM     71  C   UNL A   1      50.761  26.953  30.131  1.00  0.00     0.060 A 
BRANCH  71  72
ATOM     72  S   UNL A   1      52.536  26.678  30.289  1.00  0.00     0.124 S 
ATOM     73  O   UNL A   1      52.584  25.663  31.336  1.00  0.00    -0.237 OA
ATOM     74  O   UNL A   1      52.904  26.226  28.950  1.00  0.00    -0.237 OA
ATOM     75  O   UNL A   1      53.051  27.992  30.664  1.00  0.00    -0.744 OA
ENDBRANCH  71  72
ENDBRANCH  39  64
ENDBRANCH  13  14
ENDBRANCH   6   8
ENDBRANCH   5   6
ENDBRANCH   4   5
ENDBRANCH   3   4
ENDBRANCH   2   3
ENDBRANCH   1   2
BRANCH   1  76
ATOM     76  C   UNL A   1      32.417  24.903  26.501  1.00  0.00     0.261 C 
BRANCH  76  77
ATOM     77  O   UNL A   1      33.451  24.105  25.898  1.00  0.00    -0.460 OA
BRANCH  77  78
ATOM     78  C   UNL A   1      34.040  23.192  26.717  1.00  0.00     0.340 C 
ATOM     79  O   UNL A   1      33.505  22.623  27.656  1.00  0.00    -0.246 OA
BRANCH  78  80
ATOM     80  C   UNL A   1      35.413  22.869  26.210  1.00  0.00     0.083 A 
ATOM     81  C   UNL A   1      36.317  23.940  26.144  1.00  0.00     0.018 A 
ATOM     82  C   UNL A   1      35.822  21.563  25.834  1.00  0.00     0.055 A 
ATOM     83  C   UNL A   1      37.621  23.734  25.704  1.00  0.00     0.001 A 
ATOM     84  C   UNL A   1      37.136  21.384  25.385  1.00  0.00     0.027 A 
ATOM     85  C   UNL A   1      38.027  22.459  25.319  1.00  0.00     0.002 A 
BRANCH  82  86
ATOM     86  N   UNL A   1      34.908  20.507  25.892  1.00  0.00    -0.323 N 
ATOM     87  H   UNL A   1      34.788  20.155  26.804  1.00  0.00     0.170 HD
BRANCH  86  88
ATOM     88  C   UNL A   1      34.134  19.846  24.961  1.00  0.00     0.233 A 
ATOM     89  N   UNL A   1      34.213  18.548  24.747  1.00  0.00    -0.182 NA
ATOM     90  N   UNL A   1      33.311  20.667  24.324  1.00  0.00    -0.176 NA
ATOM     91  C   UNL A   1      33.334  18.125  23.853  1.00  0.00     0.228 A 
ATOM     92  C   UNL A   1      32.554  20.145  23.379  1.00  0.00     0.233 A 
ATOM     93  Cl  UNL A   1      33.307  16.441  23.565  1.00  0.00    -0.041 Cl
ATOM     94  N   UNL A   1      32.493  18.848  23.129  1.00  0.00    -0.182 NA
BRANCH  92  95
ATOM     95  N   UNL A   1      31.911  21.076  22.575  1.00  0.00    -0.324 N 
ATOM     96  H   UNL A   1      31.382  20.709  21.829  1.00  0.00     0.170 HD
BRANCH  95  97
ATOM     97  C   UNL A   1      31.920  22.461  22.690  1.00  0.00     0.041 A 
ATOM     98  C   UNL A   1      32.913  23.208  22.052  1.00  0.00     0.028 A 
ATOM     99  C   UNL A   1      30.881  23.125  23.340  1.00  0.00     0.028 A 
ATOM    100  C   UNL A   1      32.838  24.603  22.025  1.00  0.00     0.028 A 
ATOM    101  C   UNL A   1      30.835  24.514  23.367  1.00  0.00     0.028 A 
ATOM    102  C   UNL A   1      31.798  25.262  22.686  1.00  0.00     0.044 A 
BRANCH 102 103
ATOM    103  N   UNL A   1      31.660  26.675  22.598  1.00  0.00    -0.308 N 
ATOM    104  C   UNL A   1      30.303  27.203  22.775  1.00  0.00     0.154 C 
ATOM    105  C   UNL A   1      32.778  27.505  22.731  1.00  0.00     0.253 C 
ATOM    106  C   UNL A   1      30.199  28.695  22.493  1.00  0.00     0.183 C 
ATOM    107  C   UNL A   1      32.479  29.004  22.842  1.00  0.00     0.260 C 
ATOM    108  O   UNL A   1      33.947  27.119  22.677  1.00  0.00    -0.272 OA
ATOM    109  O   UNL A   1      31.178  29.394  23.257  1.00  0.00    -0.370 OA
ENDBRANCH 102 103
ENDBRANCH  95  97
ENDBRANCH  92  95
ENDBRANCH  86  88
ENDBRANCH  82  86
ENDBRANCH  78  80
ENDBRANCH  77  78
ENDBRANCH  76  77
ENDBRANCH   1  76
TORSDOF 22
ENDMDL
MODEL 2
REMARK VINA RESULT:     -11.1      4.749      9.376
REMARK SMILES O=C(OCCOCCOC(=O)c1ccccc1Nc1nc(Cl)nc(Nc2ccc(N3CCOCC3=O)cc2)n1)c1ccc(-c2c3nc(c(-c4c(F)cc(S(=O)(=O)[O-])cc4F)c4ccc([nH]4)c(-c4c(F)cc(S(=O)(=O)[O-])cc4F)c4nc(c(-c5c(F)cc(S(=O)(=O)[O-])cc5F)c5ccc2[nH]5)C=C4)C=C3)cc1
REMARK SMILES IDX 7 1 6 2 5 3 4 4 3 5 2 6 1 7 40 8 41 9 105 10 42 11 104 12
REMARK SMILES IDX 43 13 44 14 45 15 98 16 46 17 103 18 97 19 99 20 47 21
REMARK SMILES IDX 102 22 96 23 95 24 48 26 82 27 61 28 81 29 62 30 65 31 80 32
REMARK SMILES IDX 100 33 63 34 64 35 79 37 101 38 66 39 49 40 50 41 59 42
REMARK SMILES IDX 51 43 52 44 58 45 60 46 53 47 54 48 55 49 56 50 57 51 83 52
REMARK SMILES IDX 84 53 93 54 85 55 86 56 92 57 94 58 87 59 88 60 89 61 90 62
REMARK SMILES IDX 91 63 67 64 68 65 77 66 69 67 70 68 76 69 78 70 71 71 72 72
REMARK SMILES IDX 73 73 74 74 75 75 8 76 9 77 10 78 11 79 12 80 13 81 17 82
REMARK SMILES IDX 14 83 16 84 15 85 18 86 19 88 20 89 39 90 21 91 24 92 22 93
REMARK SMILES IDX 23 94 25 95 26 97 27 98 38 99 28 100 37 101 29 102 30 103
REMARK SMILES IDX 31 104 35 105 32 106 34 107 36 108 33 109
REMARK H PARENT 99 25 65 36 18 87 25 96
REMARK Flexibility Score: inf
ROOT
ATOM      1  C   UNL A   1      38.264  21.601  25.435  1.00  0.00     0.202 C 
ENDROOT
BRANCH   1   2
ATOM      2  O   UNL A   1      39.020  22.282  26.440  1.00  0.00    -0.374 OA
BRANCH   2   3
ATOM      3  C   UNL A   1      40.310  21.758  26.739  1.00  0.00     0.202 C 
BRANCH   3   4
ATOM      4  C   UNL A   1      41.418  22.811  26.764  1.00  0.00     0.261 C 
BRANCH   4   5
ATOM      5  O   UNL A   1      40.981  24.000  26.083  1.00  0.00    -0.460 OA
BRANCH   5   6
ATOM      6  C   UNL A   1      41.507  25.246  26.154  1.00  0.00     0.338 C 
ATOM      7  O   UNL A   1      42.208  25.639  25.221  1.00  0.00    -0.246 OA
BRANCH   6   8
ATOM      8  C   UNL A   1      41.305  26.166  27.314  1.00  0.00     0.060 A 
ATOM      9  C   UNL A   1      40.324  26.001  28.293  1.00  0.00     0.016 A 
ATOM     10  C   UNL A   1      42.238  27.201  27.488  1.00  0.00     0.016 A 
ATOM     11  C   UNL A   1      40.236  26.842  29.388  1.00  0.00     0.010 A 
ATOM     12  C   UNL A   1      42.183  28.035  28.611  1.00  0.00     0.010 A 
ATOM     13  C   UNL A   1      41.175  27.851  29.563  1.00  0.00    -0.014 A 
BRANCH  13  14
ATOM     14  C   UNL A   1      41.014  28.726  30.735  1.00  0.00     0.031 A 
ATOM     15  C   UNL A   1      39.909  29.733  30.720  1.00  0.00     0.074 A 
ATOM     16  C   UNL A   1      41.762  28.496  31.829  1.00  0.00     0.049 A 
ATOM     17  N   UNL A   1      39.596  30.622  31.618  1.00  0.00    -0.248 NA
ATOM     18  C   UNL A   1      39.023  29.726  29.541  1.00  0.00     0.031 C 
ATOM     19  C   UNL A   1      42.769  27.436  31.953  1.00  0.00     0.029 A 
ATOM     20  N   UNL A   1      41.774  29.106  33.053  1.00  0.00    -0.354 N 
ATOM     21  C   UNL A   1      38.502  31.304  31.103  1.00  0.00     0.074 A 
ATOM     22  C   UNL A   1      38.194  30.720  29.818  1.00  0.00     0.031 C 
ATOM     23  C   UNL A   1      43.289  27.465  33.191  1.00  0.00     0.029 A 
ATOM     24  C   UNL A   1      42.708  28.585  33.919  1.00  0.00     0.049 A 
ATOM     25  H   UNL A   1      41.172  29.849  33.292  1.00  0.00     0.167 HD
ATOM     26  C   UNL A   1      37.832  32.335  31.664  1.00  0.00     0.037 A 
ATOM     27  C   UNL A   1      43.074  29.005  35.145  1.00  0.00     0.037 A 
ATOM     28  C   UNL A   1      38.170  32.880  32.951  1.00  0.00     0.049 A 
ATOM     29  C   UNL A   1      42.369  30.213  35.703  1.00  0.00     0.074 A 
ATOM     30  C   UNL A   1      37.609  33.958  33.607  1.00  0.00     0.029 A 
ATOM     31  N   UNL A   1      39.168  32.377  33.777  1.00  0.00    -0.354 N 
ATOM     32  N   UNL A   1      41.375  30.898  35.183  1.00  0.00    -0.248 NA
ATOM     33  C   UNL A   1      42.841  30.722  36.995  1.00  0.00     0.031 C 
ATOM     34  C   UNL A   1      38.300  34.135  34.811  1.00  0.00     0.029 A 
ATOM     35  C   UNL A   1      39.256  33.136  34.929  1.00  0.00     0.049 A 
ATOM     36  H   UNL A   1      39.729  31.594  33.573  1.00  0.00     0.167 HD
ATOM     37  C   UNL A   1      41.094  31.910  36.091  1.00  0.00     0.074 A 
ATOM     38  C   UNL A   1      42.008  31.732  37.204  1.00  0.00     0.031 C 
ATOM     39  C   UNL A   1      40.176  32.906  36.015  1.00  0.00     0.037 A 
BRANCH  26  40
ATOM     40  C   UNL A   1      36.739  32.976  30.859  1.00  0.00     0.058 A 
ATOM     41  C   UNL A   1      37.003  33.747  29.717  1.00  0.00     0.135 A 
ATOM     42  C   UNL A   1      35.398  32.803  31.239  1.00  0.00     0.135 A 
ATOM     43  F   UNL A   1      38.269  33.973  29.331  1.00  0.00    -0.206 F 
ATOM     44  C   UNL A   1      35.974  34.332  28.983  1.00  0.00     0.059 A 
ATOM     45  C   UNL A   1      34.354  33.360  30.508  1.00  0.00     0.059 A 
ATOM     46  F   UNL A   1      35.093  32.091  32.336  1.00  0.00    -0.206 F 
ATOM     47  C   UNL A   1      34.652  34.129  29.385  1.00  0.00     0.060 A 
BRANCH  47  48
ATOM     48  S   UNL A   1      33.328  34.876  28.411  1.00  0.00     0.124 S 
ATOM     49  O   UNL A   1      32.694  35.745  29.398  1.00  0.00    -0.237 OA
ATOM     50  O   UNL A   1      34.066  35.554  27.351  1.00  0.00    -0.237 OA
ATOM     51  O   UNL A   1      32.532  33.729  27.983  1.00  0.00    -0.744 OA
ENDBRANCH  47  48
ENDBRANCH  26  40
BRANCH  27  52
ATOM     52  C   UNL A   1      44.194  28.348  35.877  1.00  0.00     0.058 A 
ATOM     53  C   UNL A   1      43.968  27.304  36.785  1.00  0.00     0.135 A 
ATOM     54  C   UNL A   1      45.520  28.783  35.708  1.00  0.00     0.135 A 
ATOM     55  F   UNL A   1      42.722  26.851  36.991  1.00  0.00    -0.206 F 
ATOM     56  C   UNL A   1      45.006  26.739  37.523  1.00  0.00     0.059 A 
ATOM     57  C   UNL A   1      46.579  28.212  36.409  1.00  0.00     0.059 A 
ATOM     58  F   UNL A   1      45.801  29.771  34.845  1.00  0.00    -0.206 F 
ATOM     59  C   UNL A   1      46.308  27.205  37.332  1.00  0.00     0.060 A 
BRANCH  59  60
ATOM     60  S   UNL A   1      47.649  26.476  38.297  1.00  0.00     0.124 S 
ATOM     61  O   UNL A   1      48.647  26.219  37.264  1.00  0.00    -0.237 OA
ATOM     62  O   UNL A   1      47.967  27.543  39.241  1.00  0.00    -0.237 OA
ATOM     63  O   UNL A   1      47.033  25.290  38.887  1.00  0.00    -0.744 OA
ENDBRANCH  59  60
ENDBRANCH  27  52
BRANCH  39  64
ATOM     64  C   UNL A   1      40.102  33.849  37.179  1.00  0.00     0.058 A 
ATOM     65  C   UNL A   1      40.920  34.985  37.254  1.00  0.00     0.135 A 
ATOM     66  C   UNL A   1      39.156  33.643  38.195  1.00  0.00     0.135 A 
ATOM     67  F   UNL A   1      41.845  35.217  36.310  1.00  0.00    -0.206 F 
ATOM     68  C   UNL A   1      40.814  35.880  38.311  1.00  0.00     0.059 A 
ATOM     69  C   UNL A   1      39.013  34.541  39.244  1.00  0.00     0.059 A 
ATOM     70  F   UNL A   1      38.343  32.574  38.157  1.00  0.00    -0.206 F 
ATOM     71  C   UNL A   1      39.854  35.651  39.298  1.00  0.00     0.060 A 
BRANCH  71  72
ATOM     72  S   UNL A   1      39.693  36.847  40.639  1.00  0.00     0.124 S 
ATOM     73  O   UNL A   1      41.019  36.788  41.244  1.00  0.00    -0.237 OA
ATOM     74  O   UNL A   1      39.375  38.079  39.924  1.00  0.00    -0.237 OA
ATOM     75  O   UNL A   1      38.608  36.303  41.450  1.00  0.00    -0.744 OA
ENDBRANCH  71  72
ENDBRANCH  39  64
ENDBRANCH  13  14
ENDBRANCH   6   8
ENDBRANCH   5   6
ENDBRANCH   4   5
ENDBRANCH   3   4
ENDBRANCH   2   3
ENDBRANCH   1   2
BRANCH   1  76
ATOM     76  C   UNL A   1      36.927  22.333  25.277  1.00  0.00     0.261 C 
BRANCH  76  77
ATOM     77  O   UNL A   1      36.006  21.428  24.643  1.00  0.00    -0.460 OA
BRANCH  77  78
ATOM     78  C   UNL A   1      34.974  21.000  25.419  1.00  0.00     0.340 C 
ATOM     79  O   UNL A   1      34.699  21.414  26.535  1.00  0.00    -0.246 OA
BRANCH  78  80
ATOM     80  C   UNL A   1      34.120  20.043  24.644  1.00  0.00     0.083 A 
ATOM     81  C   UNL A   1      34.569  18.714  24.593  1.00  0.00     0.018 A 
ATOM     82  C   UNL A   1      32.908  20.413  24.008  1.00  0.00     0.055 A 
ATOM     83  C   UNL A   1      33.833  17.749  23.913  1.00  0.00     0.001 A 
ATOM     84  C   UNL A   1      32.191  19.425  23.322  1.00  0.00     0.027 A 
ATOM     85  C   UNL A   1      32.649  18.106  23.273  1.00  0.00     0.002 A 
BRANCH  82  86
ATOM     86  N   UNL A   1      32.478  21.743  24.055  1.00  0.00    -0.323 N 
ATOM     87  H   UNL A   1      32.710  22.248  23.241  1.00  0.00     0.170 HD
BRANCH  86  88
ATOM     88  C   UNL A   1      31.802  22.508  24.982  1.00  0.00     0.233 A 
ATOM     89  N   UNL A   1      30.776  22.060  25.678  1.00  0.00    -0.182 NA
ATOM     90  N   UNL A   1      32.311  23.728  25.087  1.00  0.00    -0.176 NA
ATOM     91  C   UNL A   1      30.326  22.949  26.549  1.00  0.00     0.228 A 
ATOM     92  C   UNL A   1      31.711  24.559  25.916  1.00  0.00     0.233 A 
ATOM     93  Cl  UNL A   1      29.044  22.432  27.554  1.00  0.00    -0.041 Cl
ATOM     94  N   UNL A   1      30.724  24.200  26.720  1.00  0.00    -0.182 NA
BRANCH  92  95
ATOM     95  N   UNL A   1      32.113  25.883  25.797  1.00  0.00    -0.324 N 
ATOM     96  H   UNL A   1      32.885  26.149  26.348  1.00  0.00     0.170 HD
BRANCH  95  97
ATOM     97  C   UNL A   1      31.563  26.878  24.999  1.00  0.00     0.041 A 
ATOM     98  C   UNL A   1      30.361  26.649  24.325  1.00  0.00     0.028 A 
ATOM     99  C   UNL A   1      32.138  28.148  24.953  1.00  0.00     0.028 A 
ATOM    100  C   UNL A   1      29.718  27.692  23.655  1.00  0.00     0.028 A 
ATOM    101  C   UNL A   1      31.532  29.174  24.237  1.00  0.00     0.028 A 
ATOM    102  C   UNL A   1      30.304  28.961  23.606  1.00  0.00     0.044 A 
BRANCH 102 103
ATOM    103  N   UNL A   1      29.624  30.053  23.001  1.00  0.00    -0.308 N 
ATOM    104  C   UNL A   1      28.932  29.765  21.740  1.00  0.00     0.154 C 
ATOM    105  C   UNL A   1      29.312  31.193  23.749  1.00  0.00     0.253 C 
ATOM    106  C   UNL A   1      28.379  31.010  21.062  1.00  0.00     0.183 C 
ATOM    107  C   UNL A   1      28.389  32.204  23.059  1.00  0.00     0.260 C 
ATOM    108  O   UNL A   1      29.792  31.460  24.852  1.00  0.00    -0.272 OA
ATOM    109  O   UNL A   1      27.580  31.743  21.987  1.00  0.00    -0.370 OA
ENDBRANCH 102 103
ENDBRANCH  95  97
ENDBRANCH  92  95
ENDBRANCH  86  88
ENDBRANCH  82  86
ENDBRANCH  78  80
ENDBRANCH  77  78
ENDBRANCH  76  77
ENDBRANCH   1  76
TORSDOF 22
ENDMDL
MODEL 3
REMARK VINA RESULT:     -11.0      2.517      3.320
REMARK SMILES O=C(OCCOCCOC(=O)c1ccccc1Nc1nc(Cl)nc(Nc2ccc(N3CCOCC3=O)cc2)n1)c1ccc(-c2c3nc(c(-c4c(F)cc(S(=O)(=O)[O-])cc4F)c4ccc([nH]4)c(-c4c(F)cc(S(=O)(=O)[O-])cc4F)c4nc(c(-c5c(F)cc(S(=O)(=O)[O-])cc5F)c5ccc2[nH]5)C=C4)C=C3)cc1
REMARK SMILES IDX 7 1 6 2 5 3 4 4 3 5 2 6 1 7 40 8 41 9 105 10 42 11 104 12
REMARK SMILES IDX 43 13 44 14 45 15 98 16 46 17 103 18 97 19 99 20 47 21
REMARK SMILES IDX 102 22 96 23 95 24 48 26 82 27 61 28 81 29 62 30 65 31 80 32
REMARK SMILES IDX 100 33 63 34 64 35 79 37 101 38 66 39 49 40 50 41 59 42
REMARK SMILES IDX 51 43 52 44 58 45 60 46 53 47 54 48 55 49 56 50 57 51 83 52
REMARK SMILES IDX 84 53 93 54 85 55 86 56 92 57 94 58 87 59 88 60 89 61 90 62
REMARK SMILES IDX 91 63 67 64 68 65 77 66 69 67 70 68 76 69 78 70 71 71 72 72
REMARK SMILES IDX 73 73 74 74 75 75 8 76 9 77 10 78 11 79 12 80 13 81 17 82
REMARK SMILES IDX 14 83 16 84 15 85 18 86 19 88 20 89 39 90 21 91 24 92 22 93
REMARK SMILES IDX 23 94 25 95 26 97 27 98 38 99 28 100 37 101 29 102 30 103
REMARK SMILES IDX 31 104 35 105 32 106 34 107 36 108 33 109
REMARK H PARENT 99 25 65 36 18 87 25 96
REMARK Flexibility Score: inf
ROOT
ATOM      1  C   UNL A   1      32.752  26.383  25.944  1.00  0.00     0.202 C 
ENDROOT
BRANCH   1   2
ATOM      2  O   UNL A   1      31.529  27.102  26.124  1.00  0.00    -0.374 OA
BRANCH   2   3
ATOM      3  C   UNL A   1      31.637  28.474  26.488  1.00  0.00     0.202 C 
BRANCH   3   4
ATOM      4  C   UNL A   1      32.750  28.764  27.496  1.00  0.00     0.261 C 
BRANCH   4   5
ATOM      5  O   UNL A   1      33.706  29.673  26.925  1.00  0.00    -0.460 OA
BRANCH   5   6
ATOM      6  C   UNL A   1      34.448  30.613  27.557  1.00  0.00     0.338 C 
ATOM      7  O   UNL A   1      34.054  31.779  27.540  1.00  0.00    -0.246 OA
BRANCH   6   8
ATOM      8  C   UNL A   1      35.735  30.318  28.258  1.00  0.00     0.060 A 
ATOM      9  C   UNL A   1      35.869  29.430  29.325  1.00  0.00     0.016 A 
ATOM     10  C   UNL A   1      36.904  30.890  27.729  1.00  0.00     0.016 A 
ATOM     11  C   UNL A   1      37.102  29.137  29.882  1.00  0.00     0.010 A 
ATOM     12  C   UNL A   1      38.160  30.574  28.259  1.00  0.00     0.010 A 
ATOM     13  C   UNL A   1      38.255  29.692  29.341  1.00  0.00    -0.014 A 
BRANCH  13  14
ATOM     14  C   UNL A   1      39.532  29.361  29.992  1.00  0.00     0.031 A 
ATOM     15  C   UNL A   1      39.895  30.085  31.248  1.00  0.00     0.074 A 
ATOM     16  C   UNL A   1      40.253  28.326  29.524  1.00  0.00     0.049 A 
ATOM     17  N   UNL A   1      40.972  29.983  31.973  1.00  0.00    -0.248 NA
ATOM     18  C   UNL A   1      38.903  31.043  31.770  1.00  0.00     0.031 C 
ATOM     19  C   UNL A   1      39.882  27.490  28.377  1.00  0.00     0.029 A 
ATOM     20  N   UNL A   1      41.424  27.775  29.968  1.00  0.00    -0.354 N 
ATOM     21  C   UNL A   1      40.807  30.883  33.017  1.00  0.00     0.074 A 
ATOM     22  C   UNL A   1      39.521  31.517  32.841  1.00  0.00     0.031 C 
ATOM     23  C   UNL A   1      40.802  26.525  28.218  1.00  0.00     0.029 A 
ATOM     24  C   UNL A   1      41.859  26.717  29.202  1.00  0.00     0.049 A 
ATOM     25  H   UNL A   1      41.909  28.103  30.759  1.00  0.00     0.167 HD
ATOM     26  C   UNL A   1      41.671  31.153  34.019  1.00  0.00     0.037 A 
ATOM     27  C   UNL A   1      43.009  26.021  29.271  1.00  0.00     0.037 A 
ATOM     28  C   UNL A   1      42.939  30.491  34.159  1.00  0.00     0.049 A 
ATOM     29  C   UNL A   1      43.991  26.407  30.346  1.00  0.00     0.074 A 
ATOM     30  C   UNL A   1      43.931  30.710  35.095  1.00  0.00     0.029 A 
ATOM     31  N   UNL A   1      43.387  29.471  33.327  1.00  0.00    -0.354 N 
ATOM     32  N   UNL A   1      43.859  27.307  31.295  1.00  0.00    -0.248 NA
ATOM     33  C   UNL A   1      45.281  25.710  30.352  1.00  0.00     0.031 C 
ATOM     34  C   UNL A   1      44.998  29.854  34.800  1.00  0.00     0.029 A 
ATOM     35  C   UNL A   1      44.650  29.065  33.713  1.00  0.00     0.049 A 
ATOM     36  H   UNL A   1      42.878  29.093  32.573  1.00  0.00     0.167 HD
ATOM     37  C   UNL A   1      45.042  27.274  32.019  1.00  0.00     0.074 A 
ATOM     38  C   UNL A   1      45.869  26.247  31.412  1.00  0.00     0.031 C 
ATOM     39  C   UNL A   1      45.425  28.026  33.081  1.00  0.00     0.037 A 
BRANCH  26  40
ATOM     40  C   UNL A   1      41.305  32.250  34.977  1.00  0.00     0.058 A 
ATOM     41  C   UNL A   1      41.732  33.574  34.798  1.00  0.00     0.135 A 
ATOM     42  C   UNL A   1      40.503  31.964  36.094  1.00  0.00     0.135 A 
ATOM     43  F   UNL A   1      42.530  33.894  33.767  1.00  0.00    -0.206 F 
ATOM     44  C   UNL A   1      41.381  34.577  35.697  1.00  0.00     0.059 A 
ATOM     45  C   UNL A   1      40.123  32.955  36.993  1.00  0.00     0.059 A 
ATOM     46  F   UNL A   1      40.086  30.709  36.323  1.00  0.00    -0.206 F 
ATOM     47  C   UNL A   1      40.573  34.258  36.791  1.00  0.00     0.060 A 
BRANCH  47  48
ATOM     48  S   UNL A   1      40.108  35.574  37.937  1.00  0.00     0.124 S 
ATOM     49  O   UNL A   1      41.289  35.646  38.793  1.00  0.00    -0.237 OA
ATOM     50  O   UNL A   1      39.904  36.708  37.041  1.00  0.00    -0.237 OA
ATOM     51  O   UNL A   1      38.901  35.058  38.576  1.00  0.00    -0.744 OA
ENDBRANCH  47  48
ENDBRANCH  26  40
BRANCH  27  52
ATOM     52  C   UNL A   1      43.329  24.967  28.266  1.00  0.00     0.058 A 
ATOM     53  C   UNL A   1      43.888  25.283  27.019  1.00  0.00     0.135 A 
ATOM     54  C   UNL A   1      43.042  23.615  28.522  1.00  0.00     0.135 A 
ATOM     55  F   UNL A   1      44.177  26.558  26.717  1.00  0.00    -0.206 F 
ATOM     56  C   UNL A   1      44.120  24.308  26.053  1.00  0.00     0.059 A 
ATOM     57  C   UNL A   1      43.295  22.617  27.585  1.00  0.00     0.059 A 
ATOM     58  F   UNL A   1      42.516  23.248  29.701  1.00  0.00    -0.206 F 
ATOM     59  C   UNL A   1      43.813  22.977  26.343  1.00  0.00     0.060 A 
BRANCH  59  60
ATOM     60  S   UNL A   1      44.107  21.716  25.084  1.00  0.00     0.124 S 
ATOM     61  O   UNL A   1      45.453  21.269  25.427  1.00  0.00    -0.237 OA
ATOM     62  O   UNL A   1      43.032  20.763  25.344  1.00  0.00    -0.237 OA
ATOM     63  O   UNL A   1      43.988  22.457  23.832  1.00  0.00    -0.744 OA
ENDBRANCH  59  60
ENDBRANCH  27  52
BRANCH  39  64
ATOM     64  C   UNL A   1      46.777  27.738  33.663  1.00  0.00     0.058 A 
ATOM     65  C   UNL A   1      46.953  26.769  34.661  1.00  0.00     0.135 A 
ATOM     66  C   UNL A   1      47.913  28.396  33.167  1.00  0.00     0.135 A 
ATOM     67  F   UNL A   1      45.894  26.121  35.171  1.00  0.00    -0.206 F 
ATOM     68  C   UNL A   1      48.215  26.473  35.162  1.00  0.00     0.059 A 
ATOM     69  C   UNL A   1      49.185  28.094  33.633  1.00  0.00     0.059 A 
ATOM     70  F   UNL A   1      47.792  29.322  32.202  1.00  0.00    -0.206 F 
ATOM     71  C   UNL A   1      49.324  27.138  34.638  1.00  0.00     0.060 A 
BRANCH  71  72
ATOM     72  S   UNL A   1      50.961  26.710  35.264  1.00  0.00     0.124 S 
ATOM     73  O   UNL A   1      50.994  27.443  36.525  1.00  0.00    -0.237 OA
ATOM     74  O   UNL A   1      50.884  25.257  35.376  1.00  0.00    -0.237 OA
ATOM     75  O   UNL A   1      51.861  27.205  34.226  1.00  0.00    -0.744 OA
ENDBRANCH  71  72
ENDBRANCH  39  64
ENDBRANCH  13  14
ENDBRANCH   6   8
ENDBRANCH   5   6
ENDBRANCH   4   5
ENDBRANCH   3   4
ENDBRANCH   2   3
ENDBRANCH   1   2
BRANCH   1  76
ATOM     76  C   UNL A   1      32.511  24.931  26.372  1.00  0.00     0.261 C 
BRANCH  76  77
ATOM     77  O   UNL A   1      33.565  24.130  25.809  1.00  0.00    -0.460 OA
BRANCH  77  78
ATOM     78  C   UNL A   1      34.130  23.226  26.655  1.00  0.00     0.340 C 
ATOM     79  O   UNL A   1      33.579  22.694  27.605  1.00  0.00    -0.246 OA
BRANCH  78  80
ATOM     80  C   UNL A   1      35.497  22.859  26.162  1.00  0.00     0.083 A 
ATOM     81  C   UNL A   1      36.432  23.904  26.090  1.00  0.00     0.018 A 
ATOM     82  C   UNL A   1      35.873  21.538  25.805  1.00  0.00     0.055 A 
ATOM     83  C   UNL A   1      37.733  23.657  25.663  1.00  0.00     0.001 A 
ATOM     84  C   UNL A   1      37.185  21.318  25.369  1.00  0.00     0.027 A 
ATOM     85  C   UNL A   1      38.106  22.367  25.297  1.00  0.00     0.002 A 
BRANCH  82  86
ATOM     86  N   UNL A   1      34.929  20.509  25.868  1.00  0.00    -0.323 N 
ATOM     87  H   UNL A   1      34.769  20.194  26.788  1.00  0.00     0.170 HD
BRANCH  86  88
ATOM     88  C   UNL A   1      34.171  19.834  24.935  1.00  0.00     0.233 A 
ATOM     89  N   UNL A   1      34.304  18.545  24.691  1.00  0.00    -0.182 NA
ATOM     90  N   UNL A   1      33.301  20.630  24.329  1.00  0.00    -0.176 NA
ATOM     91  C   UNL A   1      33.431  18.103  23.801  1.00  0.00     0.228 A 
ATOM     92  C   UNL A   1      32.554  20.095  23.384  1.00  0.00     0.233 A 
ATOM     93  Cl  UNL A   1      33.474  16.425  23.476  1.00  0.00    -0.041 Cl
ATOM     94  N   UNL A   1      32.546  18.802  23.107  1.00  0.00    -0.182 NA
BRANCH  92  95
ATOM     95  N   UNL A   1      31.856  21.013  22.611  1.00  0.00    -0.324 N 
ATOM     96  H   UNL A   1      31.280  20.634  21.908  1.00  0.00     0.170 HD
BRANCH  95  97
ATOM     97  C   UNL A   1      31.869  22.399  22.705  1.00  0.00     0.041 A 
ATOM     98  C   UNL A   1      32.873  23.133  22.068  1.00  0.00     0.028 A 
ATOM     99  C   UNL A   1      30.824  23.077  23.332  1.00  0.00     0.028 A 
ATOM    100  C   UNL A   1      32.804  24.527  22.019  1.00  0.00     0.028 A 
ATOM    101  C   UNL A   1      30.784  24.466  23.338  1.00  0.00     0.028 A 
ATOM    102  C   UNL A   1      31.759  25.201  22.658  1.00  0.00     0.044 A 
BRANCH 102 103
ATOM    103  N   UNL A   1      31.627  26.612  22.546  1.00  0.00    -0.308 N 
ATOM    104  C   UNL A   1      30.291  27.159  22.808  1.00  0.00     0.154 C 
ATOM    105  C   UNL A   1      32.759  27.433  22.579  1.00  0.00     0.253 C 
ATOM    106  C   UNL A   1      30.181  28.645  22.499  1.00  0.00     0.183 C 
ATOM    107  C   UNL A   1      32.482  28.938  22.676  1.00  0.00     0.260 C 
ATOM    108  O   UNL A   1      33.918  27.034  22.450  1.00  0.00    -0.272 OA
ATOM    109  O   UNL A   1      31.218  29.351  23.173  1.00  0.00    -0.370 OA
ENDBRANCH 102 103
ENDBRANCH  95  97
ENDBRANCH  92  95
ENDBRANCH  86  88
ENDBRANCH  82  86
ENDBRANCH  78  80
ENDBRANCH  77  78
ENDBRANCH  76  77
ENDBRANCH   1  76
TORSDOF 22
ENDMDL
