MODEL 1
REMARK VINA RESULT:      -9.9      0.000      0.000
REMARK SMILES Cc1ccc(S(=O)(=O)n2cc(C(=O)C(=O)N[C@@H](Cc3c[nH]c4ccccc34)C(=O)NCC(=O)OCCOCCOC(=O)c3ccc(-c4c5nc(c(-c6c(F)cc(S(=O)(=O)[O-])cc6F)c6ccc([nH]6)c(-c6c(F)cc(S(=O)(=O)[O-])cc6F)c6nc(c(-c7c(F)cc(S(=O)(=O)[O-])cc7F)c7ccc4[nH]7)C=C6)C=C5)cc3)c3ccccc32)cc1
REMARK SMILES IDX 35 1 34 2 32 3 33 4 31 5 30 6 28 7 29 8 17 10 16 11 14 12
REMARK SMILES IDX 15 13 12 15 13 16 11 17 9 18 10 19 114 20 109 21 113 22
REMARK SMILES IDX 110 23 112 24 111 25 6 26 7 27 8 28 5 29 1 30 2 31 3 32
REMARK SMILES IDX 116 33 4 34 115 35 18 36 19 37 20 38 27 39 21 40 22 41 26 42
REMARK SMILES IDX 23 44 25 45 24 46 36 47 37 48 38 49 39 50 40 51 41 52 42 53
REMARK SMILES IDX 43 54 44 55 108 56 45 57 107 58 46 59 47 60 48 61 101 62
REMARK SMILES IDX 49 63 106 64 100 65 102 66 50 67 105 68 99 69 98 70 51 72
REMARK SMILES IDX 85 73 64 74 84 75 65 76 68 77 83 78 103 79 66 80 67 81 82 83
REMARK SMILES IDX 104 84 69 85 52 86 53 87 62 88 54 89 55 90 61 91 63 92 56 93
REMARK SMILES IDX 57 94 58 95 59 96 60 97 86 98 87 99 96 100 88 101 89 102
REMARK SMILES IDX 95 103 97 104 90 105 91 106 92 107 93 108 94 109 70 110
REMARK SMILES IDX 71 111 80 112 72 113 73 114 79 115 81 116 74 117 75 118
REMARK SMILES IDX 76 119 77 120 78 121
REMARK H PARENT 30 9 16 14 21 43 102 71 68 82
REMARK Flexibility Score: inf
ROOT
ATOM      1  C   UNL A   1      39.431  28.842  30.892  1.00  0.00     0.261 C 
ENDROOT
BRANCH   1   2
ATOM      2  O   UNL A   1      38.025  28.681  31.138  1.00  0.00    -0.462 OA
BRANCH   2   3
ATOM      3  C   UNL A   1      37.408  29.807  31.559  1.00  0.00     0.325 C 
ATOM      4  O   UNL A   1      37.578  30.333  32.657  1.00  0.00    -0.250 OA
BRANCH   3   5
ATOM      5  C   UNL A   1      36.509  30.356  30.492  1.00  0.00     0.238 C 
BRANCH   5   6
ATOM      6  N   UNL A   1      36.183  29.496  29.369  1.00  0.00    -0.343 N 
ATOM      7  C   UNL A   1      35.688  29.783  28.138  1.00  0.00     0.243 C 
ATOM      8  O   UNL A   1      35.858  28.898  27.288  1.00  0.00    -0.273 OA
ATOM      9  H   UNL A   1      36.351  28.539  29.527  1.00  0.00     0.164 HD
BRANCH   7  10
ATOM     10  C   UNL A   1      35.022  31.136  27.725  1.00  0.00     0.176 C 
BRANCH  10  11
ATOM     11  N   UNL A   1      33.538  31.204  27.741  1.00  0.00    -0.337 N 
ATOM     12  C   UNL A   1      32.597  30.681  26.833  1.00  0.00     0.293 C 
ATOM     13  O   UNL A   1      31.474  31.176  26.786  1.00  0.00    -0.265 OA
ATOM     14  H   UNL A   1      33.152  31.690  28.505  1.00  0.00     0.164 HD
BRANCH  12  15
ATOM     15  C   UNL A   1      32.936  29.523  25.860  1.00  0.00     0.252 C 
ATOM     16  O   UNL A   1      33.521  29.851  24.827  1.00  0.00    -0.283 OA
BRANCH  15  17
ATOM     17  C   UNL A   1      32.467  28.105  26.020  1.00  0.00     0.054 A 
ATOM     18  N   UNL A   1      31.883  26.007  26.700  1.00  0.00    -0.240 N 
ATOM     19  C   UNL A   1      32.832  27.025  26.857  1.00  0.00     0.117 A 
ATOM     20  C   UNL A   1      30.870  26.527  25.867  1.00  0.00     0.065 A 
ATOM     21  C   UNL A   1      31.488  27.538  25.143  1.00  0.00     0.012 A 
ATOM     22  C   UNL A   1      29.641  25.969  25.454  1.00  0.00     0.028 A 
ATOM     23  C   UNL A   1      31.001  27.820  23.849  1.00  0.00     0.011 A 
ATOM     24  C   UNL A   1      29.235  26.196  24.143  1.00  0.00     0.002 A 
ATOM     25  C   UNL A   1      29.938  27.072  23.330  1.00  0.00     0.001 A 
BRANCH  18  26
ATOM     26  S   UNL A   1      32.043  24.293  26.411  1.00  0.00     0.268 S 
ATOM     27  O   UNL A   1      31.154  23.733  27.421  1.00  0.00    -0.201 OA
ATOM     28  O   UNL A   1      33.494  24.170  26.550  1.00  0.00    -0.201 OA
BRANCH  26  29
ATOM     29  C   UNL A   1      31.848  23.172  25.071  1.00  0.00     0.088 A 
ATOM     30  C   UNL A   1      32.301  19.692  22.517  1.00  0.00     0.044 C 
ATOM     31  C   UNL A   1      32.062  20.903  23.374  1.00  0.00    -0.051 A 
ATOM     32  C   UNL A   1      32.268  20.752  24.732  1.00  0.00     0.005 A 
ATOM     33  C   UNL A   1      31.699  22.181  22.881  1.00  0.00     0.005 A 
ATOM     34  C   UNL A   1      32.142  21.858  25.550  1.00  0.00     0.022 A 
ATOM     35  C   UNL A   1      31.595  23.330  23.723  1.00  0.00     0.022 A 
ENDBRANCH  26  29
ENDBRANCH  18  26
ENDBRANCH  15  17
ENDBRANCH  12  15
ENDBRANCH  10  11
BRANCH  10  36
ATOM     36  C   UNL A   1      35.728  32.437  28.249  1.00  0.00     0.072 C 
BRANCH  36  37
ATOM     37  C   UNL A   1      34.937  33.524  28.939  1.00  0.00    -0.020 A 
ATOM     38  C   UNL A   1      34.466  34.695  28.358  1.00  0.00     0.087 A 
ATOM     39  C   UNL A   1      34.538  33.589  30.318  1.00  0.00     0.003 A 
ATOM     40  N   UNL A   1      33.980  35.513  29.348  1.00  0.00    -0.361 N 
ATOM     41  C   UNL A   1      34.097  34.895  30.568  1.00  0.00     0.046 A 
ATOM     42  C   UNL A   1      34.613  32.702  31.399  1.00  0.00     0.010 A 
ATOM     43  H   UNL A   1      33.603  36.412  29.204  1.00  0.00     0.166 HD
ATOM     44  C   UNL A   1      33.894  35.405  31.856  1.00  0.00     0.026 A 
ATOM     45  C   UNL A   1      34.305  33.177  32.675  1.00  0.00     0.001 A 
ATOM     46  C   UNL A   1      34.032  34.519  32.918  1.00  0.00     0.002 A 
ENDBRANCH  36  37
ENDBRANCH  10  36
ENDBRANCH   7  10
ENDBRANCH   5   6
ENDBRANCH   3   5
ENDBRANCH   2   3
ENDBRANCH   1   2
BRANCH   1  47
ATOM     47  C   UNL A   1      39.786  29.190  29.462  1.00  0.00     0.202 C 
BRANCH  47  48
ATOM     48  O   UNL A   1      39.072  28.275  28.627  1.00  0.00    -0.374 OA
BRANCH  48  49
ATOM     49  C   UNL A   1      39.351  26.900  28.795  1.00  0.00     0.202 C 
BRANCH  49  50
ATOM     50  C   UNL A   1      40.209  26.297  27.682  1.00  0.00     0.261 C 
BRANCH  50  51
ATOM     51  O   UNL A   1      41.011  25.202  28.172  1.00  0.00    -0.460 OA
BRANCH  51  52
ATOM     52  C   UNL A   1      42.351  25.273  27.910  1.00  0.00     0.338 C 
ATOM     53  O   UNL A   1      42.819  25.316  26.789  1.00  0.00    -0.246 OA
BRANCH  52  54
ATOM     54  C   UNL A   1      43.126  25.390  29.176  1.00  0.00     0.060 A 
ATOM     55  C   UNL A   1      43.240  26.613  29.859  1.00  0.00     0.016 A 
ATOM     56  C   UNL A   1      43.866  24.291  29.601  1.00  0.00     0.016 A 
ATOM     57  C   UNL A   1      44.193  26.767  30.879  1.00  0.00     0.010 A 
ATOM     58  C   UNL A   1      44.872  24.477  30.520  1.00  0.00     0.010 A 
ATOM     59  C   UNL A   1      45.064  25.718  31.149  1.00  0.00    -0.014 A 
BRANCH  59  60
ATOM     60  C   UNL A   1      46.212  25.723  32.060  1.00  0.00     0.031 A 
ATOM     61  C   UNL A   1      45.985  25.022  33.350  1.00  0.00     0.074 A 
ATOM     62  C   UNL A   1      47.465  26.017  31.636  1.00  0.00     0.049 A 
ATOM     63  N   UNL A   1      46.903  24.477  34.056  1.00  0.00    -0.248 NA
ATOM     64  C   UNL A   1      44.648  24.791  33.903  1.00  0.00     0.031 C 
ATOM     65  C   UNL A   1      48.728  25.629  32.253  1.00  0.00     0.029 A 
ATOM     66  N   UNL A   1      47.898  26.756  30.526  1.00  0.00    -0.354 N 
ATOM     67  C   UNL A   1      46.330  23.796  35.096  1.00  0.00     0.074 A 
ATOM     68  C   UNL A   1      44.912  23.962  34.921  1.00  0.00     0.031 C 
ATOM     69  C   UNL A   1      49.752  26.292  31.692  1.00  0.00     0.029 A 
ATOM     70  C   UNL A   1      49.147  27.307  30.857  1.00  0.00     0.049 A 
ATOM     71  H   UNL A   1      47.417  26.866  29.674  1.00  0.00     0.167 HD
ATOM     72  C   UNL A   1      47.174  23.186  35.972  1.00  0.00     0.037 A 
ATOM     73  C   UNL A   1      49.257  28.647  31.075  1.00  0.00     0.037 A 
ATOM     74  C   UNL A   1      48.481  23.872  35.905  1.00  0.00     0.049 A 
ATOM     75  C   UNL A   1      49.597  28.805  32.547  1.00  0.00     0.074 A 
ATOM     76  C   UNL A   1      49.762  23.529  35.517  1.00  0.00     0.029 A 
ATOM     77  N   UNL A   1      48.490  25.275  36.034  1.00  0.00    -0.354 N 
ATOM     78  N   UNL A   1      49.042  28.120  33.529  1.00  0.00    -0.248 NA
ATOM     79  C   UNL A   1      50.857  29.442  32.933  1.00  0.00     0.031 C 
ATOM     80  C   UNL A   1      50.483  24.743  35.273  1.00  0.00     0.029 A 
ATOM     81  C   UNL A   1      49.659  25.831  35.546  1.00  0.00     0.049 A 
ATOM     82  H   UNL A   1      47.753  25.798  36.424  1.00  0.00     0.167 HD
ATOM     83  C   UNL A   1      49.925  28.095  34.589  1.00  0.00     0.074 A 
ATOM     84  C   UNL A   1      51.025  28.963  34.174  1.00  0.00     0.031 C 
ATOM     85  C   UNL A   1      49.931  27.262  35.679  1.00  0.00     0.037 A 
BRANCH  72  86
ATOM     86  C   UNL A   1      46.843  21.958  36.808  1.00  0.00     0.058 A 
ATOM     87  C   UNL A   1      46.453  22.093  38.161  1.00  0.00     0.135 A 
ATOM     88  C   UNL A   1      47.014  20.614  36.396  1.00  0.00     0.135 A 
ATOM     89  F   UNL A   1      46.294  23.300  38.719  1.00  0.00    -0.206 F 
ATOM     90  C   UNL A   1      46.250  21.000  39.019  1.00  0.00     0.059 A 
ATOM     91  C   UNL A   1      46.784  19.507  37.224  1.00  0.00     0.059 A 
ATOM     92  F   UNL A   1      47.465  20.292  35.181  1.00  0.00    -0.206 F 
ATOM     93  C   UNL A   1      46.415  19.707  38.541  1.00  0.00     0.060 A 
BRANCH  93  94
ATOM     94  S   UNL A   1      46.167  18.306  39.652  1.00  0.00     0.124 S 
ATOM     95  O   UNL A   1      45.490  17.347  38.786  1.00  0.00    -0.237 OA
ATOM     96  O   UNL A   1      47.534  17.965  40.032  1.00  0.00    -0.237 OA
ATOM     97  O   UNL A   1      45.347  18.861  40.725  1.00  0.00    -0.744 OA
ENDBRANCH  93  94
ENDBRANCH  72  86
BRANCH  73  98
ATOM     98  C   UNL A   1      48.409  29.428  30.111  1.00  0.00     0.058 A 
ATOM     99  C   UNL A   1      48.613  29.147  28.736  1.00  0.00     0.135 A 
ATOM    100  C   UNL A   1      47.143  29.927  30.447  1.00  0.00     0.135 A 
ATOM    101  F   UNL A   1      49.820  28.751  28.312  1.00  0.00    -0.206 F 
ATOM    102  C   UNL A   1      47.577  29.142  27.794  1.00  0.00     0.059 A 
ATOM    103  C   UNL A   1      46.091  29.956  29.509  1.00  0.00     0.059 A 
ATOM    104  F   UNL A   1      46.860  30.244  31.718  1.00  0.00    -0.206 F 
ATOM    105  C   UNL A   1      46.298  29.492  28.207  1.00  0.00     0.060 A 
BRANCH 105 106
ATOM    106  S   UNL A   1      44.890  29.131  27.107  1.00  0.00     0.124 S 
ATOM    107  O   UNL A   1      43.749  29.372  27.979  1.00  0.00    -0.237 OA
ATOM    108  O   UNL A   1      45.060  30.091  26.018  1.00  0.00    -0.237 OA
ATOM    109  O   UNL A   1      45.122  27.744  26.722  1.00  0.00    -0.744 OA
ENDBRANCH 105 106
ENDBRANCH  73  98
BRANCH  85 110
ATOM    110  C   UNL A   1      50.348  27.791  37.036  1.00  0.00     0.058 A 
ATOM    111  C   UNL A   1      51.677  27.740  37.499  1.00  0.00     0.135 A 
ATOM    112  C   UNL A   1      49.452  28.540  37.839  1.00  0.00     0.135 A 
ATOM    113  F   UNL A   1      52.658  27.170  36.785  1.00  0.00    -0.206 F 
ATOM    114  C   UNL A   1      52.069  28.312  38.701  1.00  0.00     0.059 A 
ATOM    115  C   UNL A   1      49.840  29.169  39.015  1.00  0.00     0.059 A 
ATOM    116  F   UNL A   1      48.170  28.726  37.499  1.00  0.00    -0.206 F 
ATOM    117  C   UNL A   1      51.145  29.024  39.452  1.00  0.00     0.060 A 
BRANCH 117 118
ATOM    118  S   UNL A   1      51.686  29.799  40.976  1.00  0.00     0.124 S 
ATOM    119  O   UNL A   1      50.564  30.689  41.256  1.00  0.00    -0.237 OA
ATOM    120  O   UNL A   1      51.829  28.658  41.875  1.00  0.00    -0.237 OA
ATOM    121  O   UNL A   1      52.935  30.452  40.599  1.00  0.00    -0.744 OA
ENDBRANCH 117 118
ENDBRANCH  85 110
ENDBRANCH  59  60
ENDBRANCH  52  54
ENDBRANCH  51  52
ENDBRANCH  50  51
ENDBRANCH  49  50
ENDBRANCH  48  49
ENDBRANCH  47  48
ENDBRANCH   1  47
TORSDOF 26
ENDMDL
MODEL 2
REMARK VINA RESULT:      -9.8      6.224     13.039
REMARK SMILES Cc1ccc(S(=O)(=O)n2cc(C(=O)C(=O)N[C@@H](Cc3c[nH]c4ccccc34)C(=O)NCC(=O)OCCOCCOC(=O)c3ccc(-c4c5nc(c(-c6c(F)cc(S(=O)(=O)[O-])cc6F)c6ccc([nH]6)c(-c6c(F)cc(S(=O)(=O)[O-])cc6F)c6nc(c(-c7c(F)cc(S(=O)(=O)[O-])cc7F)c7ccc4[nH]7)C=C6)C=C5)cc3)c3ccccc32)cc1
REMARK SMILES IDX 35 1 34 2 32 3 33 4 31 5 30 6 28 7 29 8 17 10 16 11 14 12
REMARK SMILES IDX 15 13 12 15 13 16 11 17 9 18 10 19 114 20 109 21 113 22
REMARK SMILES IDX 110 23 112 24 111 25 6 26 7 27 8 28 5 29 1 30 2 31 3 32
REMARK SMILES IDX 116 33 4 34 115 35 18 36 19 37 20 38 27 39 21 40 22 41 26 42
REMARK SMILES IDX 23 44 25 45 24 46 36 47 37 48 38 49 39 50 40 51 41 52 42 53
REMARK SMILES IDX 43 54 44 55 108 56 45 57 107 58 46 59 47 60 48 61 101 62
REMARK SMILES IDX 49 63 106 64 100 65 102 66 50 67 105 68 99 69 98 70 51 72
REMARK SMILES IDX 85 73 64 74 84 75 65 76 68 77 83 78 103 79 66 80 67 81 82 83
REMARK SMILES IDX 104 84 69 85 52 86 53 87 62 88 54 89 55 90 61 91 63 92 56 93
REMARK SMILES IDX 57 94 58 95 59 96 60 97 86 98 87 99 96 100 88 101 89 102
REMARK SMILES IDX 95 103 97 104 90 105 91 106 92 107 93 108 94 109 70 110
REMARK SMILES IDX 71 111 80 112 72 113 73 114 79 115 81 116 74 117 75 118
REMARK SMILES IDX 76 119 77 120 78 121
REMARK H PARENT 30 9 16 14 21 43 102 71 68 82
REMARK Flexibility Score: inf
ROOT
ATOM      1  C   UNL A   1      43.543  36.431  33.549  1.00  0.00     0.261 C 
ENDROOT
BRANCH   1   2
ATOM      2  O   UNL A   1      43.762  36.848  32.193  1.00  0.00    -0.462 OA
BRANCH   2   3
ATOM      3  C   UNL A   1      44.728  37.783  32.053  1.00  0.00     0.325 C 
ATOM      4  O   UNL A   1      44.782  38.835  32.684  1.00  0.00    -0.250 OA
BRANCH   3   5
ATOM      5  C   UNL A   1      45.751  37.349  31.047  1.00  0.00     0.238 C 
BRANCH   5   6
ATOM      6  N   UNL A   1      46.965  36.726  31.536  1.00  0.00    -0.343 N 
ATOM      7  C   UNL A   1      48.020  36.181  30.876  1.00  0.00     0.243 C 
ATOM      8  O   UNL A   1      49.052  36.061  31.551  1.00  0.00    -0.273 OA
ATOM      9  H   UNL A   1      47.040  36.693  32.518  1.00  0.00     0.164 HD
BRANCH   7  10
ATOM     10  C   UNL A   1      48.033  35.792  29.362  1.00  0.00     0.176 C 
BRANCH  10  11
ATOM     11  N   UNL A   1      48.579  36.785  28.402  1.00  0.00    -0.337 N 
ATOM     12  C   UNL A   1      48.149  37.121  27.103  1.00  0.00     0.293 C 
ATOM     13  O   UNL A   1      48.945  37.646  26.329  1.00  0.00    -0.265 OA
ATOM     14  H   UNL A   1      49.361  37.288  28.723  1.00  0.00     0.164 HD
BRANCH  12  15
ATOM     15  C   UNL A   1      46.716  36.818  26.598  1.00  0.00     0.252 C 
ATOM     16  O   UNL A   1      46.637  35.996  25.685  1.00  0.00    -0.283 OA
BRANCH  15  17
ATOM     17  C   UNL A   1      45.483  37.561  27.027  1.00  0.00     0.054 A 
ATOM     18  N   UNL A   1      43.784  39.030  27.429  1.00  0.00    -0.240 N 
ATOM     19  C   UNL A   1      45.170  38.920  27.258  1.00  0.00     0.117 A 
ATOM     20  C   UNL A   1      43.244  37.752  27.168  1.00  0.00     0.065 A 
ATOM     21  C   UNL A   1      44.288  36.869  27.409  1.00  0.00     0.012 A 
ATOM     22  C   UNL A   1      41.904  37.313  27.110  1.00  0.00     0.028 A 
ATOM     23  C   UNL A   1      43.967  35.568  27.854  1.00  0.00     0.011 A 
ATOM     24  C   UNL A   1      41.610  36.059  27.638  1.00  0.00     0.002 A 
ATOM     25  C   UNL A   1      42.628  35.215  28.056  1.00  0.00     0.001 A 
BRANCH  18  26
ATOM     26  S   UNL A   1      42.814  39.827  28.641  1.00  0.00     0.268 S 
ATOM     27  O   UNL A   1      42.638  38.770  29.630  1.00  0.00    -0.201 OA
ATOM     28  O   UNL A   1      41.693  40.248  27.800  1.00  0.00    -0.201 OA
BRANCH  26  29
ATOM     29  C   UNL A   1      42.900  41.270  29.640  1.00  0.00     0.088 A 
ATOM     30  C   UNL A   1      44.475  44.568  31.983  1.00  0.00     0.044 C 
ATOM     31  C   UNL A   1      43.863  43.477  31.149  1.00  0.00    -0.051 A 
ATOM     32  C   UNL A   1      44.641  42.968  30.126  1.00  0.00     0.005 A 
ATOM     33  C   UNL A   1      42.585  42.910  31.376  1.00  0.00     0.005 A 
ATOM     34  C   UNL A   1      44.154  41.907  29.386  1.00  0.00     0.022 A 
ATOM     35  C   UNL A   1      42.092  41.797  30.629  1.00  0.00     0.022 A 
ENDBRANCH  26  29
ENDBRANCH  18  26
ENDBRANCH  15  17
ENDBRANCH  12  15
ENDBRANCH  10  11
BRANCH  10  36
ATOM     36  C   UNL A   1      48.427  34.306  29.038  1.00  0.00     0.072 C 
BRANCH  36  37
ATOM     37  C   UNL A   1      47.619  33.485  28.062  1.00  0.00    -0.020 A 
ATOM     38  C   UNL A   1      47.908  33.284  26.717  1.00  0.00     0.087 A 
ATOM     39  C   UNL A   1      46.390  32.779  28.302  1.00  0.00     0.003 A 
ATOM     40  N   UNL A   1      46.838  32.659  26.125  1.00  0.00    -0.361 N 
ATOM     41  C   UNL A   1      45.858  32.422  27.056  1.00  0.00     0.046 A 
ATOM     42  C   UNL A   1      45.628  32.508  29.445  1.00  0.00     0.010 A 
ATOM     43  H   UNL A   1      46.782  32.417  25.172  1.00  0.00     0.166 HD
ATOM     44  C   UNL A   1      44.544  31.971  26.882  1.00  0.00     0.026 A 
ATOM     45  C   UNL A   1      44.357  31.953  29.284  1.00  0.00     0.001 A 
ATOM     46  C   UNL A   1      43.788  31.765  28.029  1.00  0.00     0.002 A 
ENDBRANCH  36  37
ENDBRANCH  10  36
ENDBRANCH   7  10
ENDBRANCH   5   6
ENDBRANCH   3   5
ENDBRANCH   2   3
ENDBRANCH   1   2
BRANCH   1  47
ATOM     47  C   UNL A   1      43.800  34.960  33.807  1.00  0.00     0.202 C 
BRANCH  47  48
ATOM     48  O   UNL A   1      42.742  34.501  34.653  1.00  0.00    -0.374 OA
BRANCH  48  49
ATOM     49  C   UNL A   1      42.639  35.094  35.932  1.00  0.00     0.202 C 
BRANCH  49  50
ATOM     50  C   UNL A   1      41.464  34.580  36.765  1.00  0.00     0.261 C 
BRANCH  50  51
ATOM     51  O   UNL A   1      40.376  34.142  35.925  1.00  0.00    -0.460 OA
BRANCH  51  52
ATOM     52  C   UNL A   1      39.721  33.012  36.327  1.00  0.00     0.338 C 
ATOM     53  O   UNL A   1      39.117  32.919  37.378  1.00  0.00    -0.246 OA
BRANCH  52  54
ATOM     54  C   UNL A   1      39.774  31.970  35.264  1.00  0.00     0.060 A 
ATOM     55  C   UNL A   1      39.604  30.606  35.561  1.00  0.00     0.016 A 
ATOM     56  C   UNL A   1      40.142  32.356  33.980  1.00  0.00     0.016 A 
ATOM     57  C   UNL A   1      39.935  29.630  34.607  1.00  0.00     0.010 A 
ATOM     58  C   UNL A   1      40.570  31.398  33.090  1.00  0.00     0.010 A 
ATOM     59  C   UNL A   1      40.496  30.030  33.401  1.00  0.00    -0.014 A 
BRANCH  59  60
ATOM     60  C   UNL A   1      41.042  29.176  32.343  1.00  0.00     0.031 A 
ATOM     61  C   UNL A   1      42.373  28.588  32.644  1.00  0.00     0.074 A 
ATOM     62  C   UNL A   1      40.268  28.678  31.348  1.00  0.00     0.049 A 
ATOM     63  N   UNL A   1      42.813  27.490  32.157  1.00  0.00    -0.248 NA
ATOM     64  C   UNL A   1      43.293  29.167  33.627  1.00  0.00     0.031 C 
ATOM     65  C   UNL A   1      40.517  27.496  30.532  1.00  0.00     0.029 A 
ATOM     66  N   UNL A   1      39.050  29.139  30.830  1.00  0.00    -0.354 N 
ATOM     67  C   UNL A   1      44.002  27.172  32.757  1.00  0.00     0.074 A 
ATOM     68  C   UNL A   1      44.229  28.215  33.721  1.00  0.00     0.031 C 
ATOM     69  C   UNL A   1      39.661  27.445  29.499  1.00  0.00     0.029 A 
ATOM     70  C   UNL A   1      38.989  28.726  29.488  1.00  0.00     0.049 A 
ATOM     71  H   UNL A   1      38.366  29.653  31.315  1.00  0.00     0.167 HD
ATOM     72  C   UNL A   1      44.628  26.044  32.324  1.00  0.00     0.037 A 
ATOM     73  C   UNL A   1      39.108  29.648  28.492  1.00  0.00     0.037 A 
ATOM     74  C   UNL A   1      44.163  25.758  30.950  1.00  0.00     0.049 A 
ATOM     75  C   UNL A   1      40.414  29.333  27.785  1.00  0.00     0.074 A 
ATOM     76  C   UNL A   1      43.443  24.751  30.338  1.00  0.00     0.029 A 
ATOM     77  N   UNL A   1      44.222  26.804  30.009  1.00  0.00    -0.354 N 
ATOM     78  N   UNL A   1      41.542  29.010  28.388  1.00  0.00    -0.248 NA
ATOM     79  C   UNL A   1      40.399  28.970  26.366  1.00  0.00     0.031 C 
ATOM     80  C   UNL A   1      42.951  25.263  29.092  1.00  0.00     0.029 A 
ATOM     81  C   UNL A   1      43.399  26.570  28.923  1.00  0.00     0.049 A 
ATOM     82  H   UNL A   1      44.783  27.607  30.112  1.00  0.00     0.167 HD
ATOM     83  C   UNL A   1      42.308  28.276  27.506  1.00  0.00     0.074 A 
ATOM     84  C   UNL A   1      41.561  28.312  26.251  1.00  0.00     0.031 C 
ATOM     85  C   UNL A   1      43.387  27.472  27.772  1.00  0.00     0.037 A 
BRANCH  72  86
ATOM     86  C   UNL A   1      45.577  25.188  33.151  1.00  0.00     0.058 A 
ATOM     87  C   UNL A   1      46.934  25.554  33.297  1.00  0.00     0.135 A 
ATOM     88  C   UNL A   1      45.263  23.928  33.716  1.00  0.00     0.135 A 
ATOM     89  F   UNL A   1      47.404  26.697  32.777  1.00  0.00    -0.206 F 
ATOM     90  C   UNL A   1      47.887  24.750  33.943  1.00  0.00     0.059 A 
ATOM     91  C   UNL A   1      46.188  23.123  34.395  1.00  0.00     0.059 A 
ATOM     92  F   UNL A   1      44.053  23.373  33.598  1.00  0.00    -0.206 F 
ATOM     93  C   UNL A   1      47.504  23.534  34.494  1.00  0.00     0.060 A 
BRANCH  93  94
ATOM     94  S   UNL A   1      48.736  22.497  35.311  1.00  0.00     0.124 S 
ATOM     95  O   UNL A   1      49.940  23.313  35.203  1.00  0.00    -0.237 OA
ATOM     96  O   UNL A   1      48.181  22.356  36.653  1.00  0.00    -0.237 OA
ATOM     97  O   UNL A   1      48.740  21.275  34.511  1.00  0.00    -0.744 OA
ENDBRANCH  93  94
ENDBRANCH  72  86
BRANCH  73  98
ATOM     98  C   UNL A   1      38.391  30.922  28.840  1.00  0.00     0.058 A 
ATOM     99  C   UNL A   1      36.975  30.880  28.761  1.00  0.00     0.135 A 
ATOM    100  C   UNL A   1      38.920  31.874  29.722  1.00  0.00     0.135 A 
ATOM    101  F   UNL A   1      36.384  30.063  27.879  1.00  0.00    -0.206 F 
ATOM    102  C   UNL A   1      36.138  31.565  29.648  1.00  0.00     0.059 A 
ATOM    103  C   UNL A   1      38.095  32.596  30.607  1.00  0.00     0.059 A 
ATOM    104  F   UNL A   1      40.247  32.006  29.850  1.00  0.00    -0.206 F 
ATOM    105  C   UNL A   1      36.714  32.380  30.615  1.00  0.00     0.060 A 
BRANCH 105 106
ATOM    106  S   UNL A   1      35.681  32.970  31.997  1.00  0.00     0.124 S 
ATOM    107  O   UNL A   1      34.404  32.328  31.720  1.00  0.00    -0.237 OA
ATOM    108  O   UNL A   1      36.388  32.476  33.177  1.00  0.00    -0.237 OA
ATOM    109  O   UNL A   1      35.720  34.418  31.839  1.00  0.00    -0.744 OA
ENDBRANCH 105 106
ENDBRANCH  73  98
BRANCH  85 110
ATOM    110  C   UNL A   1      44.545  27.409  26.798  1.00  0.00     0.058 A 
ATOM    111  C   UNL A   1      45.688  28.224  26.918  1.00  0.00     0.135 A 
ATOM    112  C   UNL A   1      44.626  26.389  25.817  1.00  0.00     0.135 A 
ATOM    113  F   UNL A   1      45.803  29.151  27.878  1.00  0.00    -0.206 F 
ATOM    114  C   UNL A   1      46.786  28.094  26.079  1.00  0.00     0.059 A 
ATOM    115  C   UNL A   1      45.741  26.206  25.009  1.00  0.00     0.059 A 
ATOM    116  F   UNL A   1      43.642  25.500  25.625  1.00  0.00    -0.206 F 
ATOM    117  C   UNL A   1      46.804  27.083  25.129  1.00  0.00     0.060 A 
BRANCH 117 118
ATOM    118  S   UNL A   1      48.256  26.902  24.091  1.00  0.00     0.124 S 
ATOM    119  O   UNL A   1      48.167  28.101  23.266  1.00  0.00    -0.237 OA
ATOM    120  O   UNL A   1      49.340  26.885  25.068  1.00  0.00    -0.237 OA
ATOM    121  O   UNL A   1      48.022  25.637  23.401  1.00  0.00    -0.744 OA
ENDBRANCH 117 118
ENDBRANCH  85 110
ENDBRANCH  59  60
ENDBRANCH  52  54
ENDBRANCH  51  52
ENDBRANCH  50  51
ENDBRANCH  49  50
ENDBRANCH  48  49
ENDBRANCH  47  48
ENDBRANCH   1  47
TORSDOF 26
ENDMDL
MODEL 3
REMARK VINA RESULT:      -9.6      5.501     10.004
REMARK SMILES Cc1ccc(S(=O)(=O)n2cc(C(=O)C(=O)N[C@@H](Cc3c[nH]c4ccccc34)C(=O)NCC(=O)OCCOCCOC(=O)c3ccc(-c4c5nc(c(-c6c(F)cc(S(=O)(=O)[O-])cc6F)c6ccc([nH]6)c(-c6c(F)cc(S(=O)(=O)[O-])cc6F)c6nc(c(-c7c(F)cc(S(=O)(=O)[O-])cc7F)c7ccc4[nH]7)C=C6)C=C5)cc3)c3ccccc32)cc1
REMARK SMILES IDX 35 1 34 2 32 3 33 4 31 5 30 6 28 7 29 8 17 10 16 11 14 12
REMARK SMILES IDX 15 13 12 15 13 16 11 17 9 18 10 19 114 20 109 21 113 22
REMARK SMILES IDX 110 23 112 24 111 25 6 26 7 27 8 28 5 29 1 30 2 31 3 32
REMARK SMILES IDX 116 33 4 34 115 35 18 36 19 37 20 38 27 39 21 40 22 41 26 42
REMARK SMILES IDX 23 44 25 45 24 46 36 47 37 48 38 49 39 50 40 51 41 52 42 53
REMARK SMILES IDX 43 54 44 55 108 56 45 57 107 58 46 59 47 60 48 61 101 62
REMARK SMILES IDX 49 63 106 64 100 65 102 66 50 67 105 68 99 69 98 70 51 72
REMARK SMILES IDX 85 73 64 74 84 75 65 76 68 77 83 78 103 79 66 80 67 81 82 83
REMARK SMILES IDX 104 84 69 85 52 86 53 87 62 88 54 89 55 90 61 91 63 92 56 93
REMARK SMILES IDX 57 94 58 95 59 96 60 97 86 98 87 99 96 100 88 101 89 102
REMARK SMILES IDX 95 103 97 104 90 105 91 106 92 107 93 108 94 109 70 110
REMARK SMILES IDX 71 111 80 112 72 113 73 114 79 115 81 116 74 117 75 118
REMARK SMILES IDX 76 119 77 120 78 121
REMARK H PARENT 30 9 16 14 21 43 102 71 68 82
REMARK Flexibility Score: inf
ROOT
ATOM      1  C   UNL A   1      41.656  27.283  35.949  1.00  0.00     0.261 C 
ENDROOT
BRANCH   1   2
ATOM      2  O   UNL A   1      41.000  28.532  36.218  1.00  0.00    -0.462 OA
BRANCH   2   3
ATOM      3  C   UNL A   1      41.746  29.620  35.927  1.00  0.00     0.325 C 
ATOM      4  O   UNL A   1      42.945  29.598  35.660  1.00  0.00    -0.250 OA
BRANCH   3   5
ATOM      5  C   UNL A   1      40.907  30.863  35.938  1.00  0.00     0.238 C 
BRANCH   5   6
ATOM      6  N   UNL A   1      40.853  31.636  37.164  1.00  0.00    -0.343 N 
ATOM      7  C   UNL A   1      40.075  32.690  37.524  1.00  0.00     0.243 C 
ATOM      8  O   UNL A   1      40.009  32.897  38.743  1.00  0.00    -0.273 OA
ATOM      9  H   UNL A   1      41.490  31.347  37.857  1.00  0.00     0.164 HD
BRANCH   7  10
ATOM     10  C   UNL A   1      39.230  33.565  36.542  1.00  0.00     0.176 C 
BRANCH  10  11
ATOM     11  N   UNL A   1      37.757  33.374  36.545  1.00  0.00    -0.337 N 
ATOM     12  C   UNL A   1      36.799  33.696  35.564  1.00  0.00     0.293 C 
ATOM     13  O   UNL A   1      35.628  33.845  35.901  1.00  0.00    -0.265 OA
ATOM     14  H   UNL A   1      37.394  32.957  37.359  1.00  0.00     0.164 HD
BRANCH  12  15
ATOM     15  C   UNL A   1      37.174  33.909  34.075  1.00  0.00     0.252 C 
ATOM     16  O   UNL A   1      37.465  35.063  33.760  1.00  0.00    -0.283 OA
BRANCH  15  17
ATOM     17  C   UNL A   1      37.048  32.864  33.004  1.00  0.00     0.054 A 
ATOM     18  N   UNL A   1      36.524  31.110  31.642  1.00  0.00    -0.240 N 
ATOM     19  C   UNL A   1      36.649  31.507  32.979  1.00  0.00     0.117 A 
ATOM     20  C   UNL A   1      36.717  32.268  30.859  1.00  0.00     0.065 A 
ATOM     21  C   UNL A   1      37.469  33.117  31.659  1.00  0.00     0.012 A 
ATOM     22  C   UNL A   1      36.616  32.464  29.464  1.00  0.00     0.028 A 
ATOM     23  C   UNL A   1      38.343  34.026  31.024  1.00  0.00     0.011 A 
ATOM     24  C   UNL A   1      37.549  33.299  28.859  1.00  0.00     0.002 A 
ATOM     25  C   UNL A   1      38.440  34.033  29.628  1.00  0.00     0.001 A 
BRANCH  18  26
ATOM     26  S   UNL A   1      37.123  29.721  30.772  1.00  0.00     0.268 S 
ATOM     27  O   UNL A   1      36.126  29.571  29.719  1.00  0.00    -0.201 OA
ATOM     28  O   UNL A   1      37.183  28.764  31.878  1.00  0.00    -0.201 OA
BRANCH  26  29
ATOM     29  C   UNL A   1      38.604  29.225  29.965  1.00  0.00     0.088 A 
ATOM     30  C   UNL A   1      42.395  29.384  27.859  1.00  0.00     0.044 C 
ATOM     31  C   UNL A   1      41.110  29.255  28.627  1.00  0.00    -0.051 A 
ATOM     32  C   UNL A   1      40.771  30.313  29.449  1.00  0.00     0.005 A 
ATOM     33  C   UNL A   1      40.213  28.164  28.521  1.00  0.00     0.005 A 
ATOM     34  C   UNL A   1      39.558  30.279  30.110  1.00  0.00     0.022 A 
ATOM     35  C   UNL A   1      38.948  28.140  29.184  1.00  0.00     0.022 A 
ENDBRANCH  26  29
ENDBRANCH  18  26
ENDBRANCH  15  17
ENDBRANCH  12  15
ENDBRANCH  10  11
BRANCH  10  36
ATOM     36  C   UNL A   1      39.682  35.062  36.394  1.00  0.00     0.072 C 
BRANCH  36  37
ATOM     37  C   UNL A   1      40.991  35.415  35.729  1.00  0.00    -0.020 A 
ATOM     38  C   UNL A   1      41.973  36.256  36.238  1.00  0.00     0.087 A 
ATOM     39  C   UNL A   1      41.476  34.988  34.445  1.00  0.00     0.003 A 
ATOM     40  N   UNL A   1      42.908  36.486  35.258  1.00  0.00    -0.361 N 
ATOM     41  C   UNL A   1      42.576  35.792  34.121  1.00  0.00     0.046 A 
ATOM     42  C   UNL A   1      41.020  34.078  33.483  1.00  0.00     0.010 A 
ATOM     43  H   UNL A   1      43.699  37.063  35.357  1.00  0.00     0.166 HD
ATOM     44  C   UNL A   1      43.131  35.855  32.837  1.00  0.00     0.026 A 
ATOM     45  C   UNL A   1      41.644  34.058  32.234  1.00  0.00     0.001 A 
ATOM     46  C   UNL A   1      42.622  34.982  31.883  1.00  0.00     0.002 A 
ENDBRANCH  36  37
ENDBRANCH  10  36
ENDBRANCH   7  10
ENDBRANCH   5   6
ENDBRANCH   3   5
ENDBRANCH   2   3
ENDBRANCH   1   2
BRANCH   1  47
ATOM     47  C   UNL A   1      41.688  26.322  37.118  1.00  0.00     0.202 C 
BRANCH  47  48
ATOM     48  O   UNL A   1      41.722  25.003  36.565  1.00  0.00    -0.374 OA
BRANCH  48  49
ATOM     49  C   UNL A   1      42.501  24.815  35.401  1.00  0.00     0.202 C 
BRANCH  49  50
ATOM     50  C   UNL A   1      42.853  23.355  35.115  1.00  0.00     0.261 C 
BRANCH  50  51
ATOM     51  O   UNL A   1      44.058  22.960  35.804  1.00  0.00    -0.460 OA
BRANCH  51  52
ATOM     52  C   UNL A   1      45.025  22.372  35.037  1.00  0.00     0.338 C 
ATOM     53  O   UNL A   1      45.231  21.174  35.011  1.00  0.00    -0.246 OA
BRANCH  52  54
ATOM     54  C   UNL A   1      45.703  23.385  34.182  1.00  0.00     0.060 A 
ATOM     55  C   UNL A   1      46.887  24.022  34.595  1.00  0.00     0.016 A 
ATOM     56  C   UNL A   1      45.063  23.804  33.021  1.00  0.00     0.016 A 
ATOM     57  C   UNL A   1      47.349  25.162  33.916  1.00  0.00     0.010 A 
ATOM     58  C   UNL A   1      45.455  24.983  32.429  1.00  0.00     0.010 A 
ATOM     59  C   UNL A   1      46.582  25.686  32.883  1.00  0.00    -0.014 A 
BRANCH  59  60
ATOM     60  C   UNL A   1      46.805  26.937  32.151  1.00  0.00     0.031 A 
ATOM     61  C   UNL A   1      46.687  28.167  32.975  1.00  0.00     0.074 A 
ATOM     62  C   UNL A   1      47.409  26.963  30.939  1.00  0.00     0.049 A 
ATOM     63  N   UNL A   1      47.286  29.271  32.727  1.00  0.00    -0.248 NA
ATOM     64  C   UNL A   1      45.939  28.211  34.235  1.00  0.00     0.031 C 
ATOM     65  C   UNL A   1      48.106  28.082  30.315  1.00  0.00     0.029 A 
ATOM     66  N   UNL A   1      47.532  25.963  29.964  1.00  0.00    -0.354 N 
ATOM     67  C   UNL A   1      47.075  30.143  33.763  1.00  0.00     0.074 A 
ATOM     68  C   UNL A   1      46.284  29.412  34.716  1.00  0.00     0.031 C 
ATOM     69  C   UNL A   1      48.369  27.816  29.025  1.00  0.00     0.029 A 
ATOM     70  C   UNL A   1      47.633  26.608  28.720  1.00  0.00     0.049 A 
ATOM     71  H   UNL A   1      47.546  24.992  30.122  1.00  0.00     0.167 HD
ATOM     72  C   UNL A   1      47.615  31.385  33.640  1.00  0.00     0.037 A 
ATOM     73  C   UNL A   1      46.596  26.543  27.839  1.00  0.00     0.037 A 
ATOM     74  C   UNL A   1      47.807  31.664  32.202  1.00  0.00     0.049 A 
ATOM     75  C   UNL A   1      46.054  27.958  27.725  1.00  0.00     0.074 A 
ATOM     76  C   UNL A   1      48.889  31.877  31.370  1.00  0.00     0.029 A 
ATOM     77  N   UNL A   1      46.707  31.467  31.345  1.00  0.00    -0.354 N 
ATOM     78  N   UNL A   1      45.880  28.784  28.739  1.00  0.00    -0.248 NA
ATOM     79  C   UNL A   1      46.075  28.637  26.428  1.00  0.00     0.031 C 
ATOM     80  C   UNL A   1      48.453  31.656  30.023  1.00  0.00     0.029 A 
ATOM     81  C   UNL A   1      47.096  31.345  30.023  1.00  0.00     0.049 A 
ATOM     82  H   UNL A   1      45.772  31.421  31.649  1.00  0.00     0.167 HD
ATOM     83  C   UNL A   1      45.926  30.075  28.255  1.00  0.00     0.074 A 
ATOM     84  C   UNL A   1      46.016  29.923  26.804  1.00  0.00     0.031 C 
ATOM     85  C   UNL A   1      46.110  31.244  28.948  1.00  0.00     0.037 A 
BRANCH  72  86
ATOM     86  C   UNL A   1      48.023  32.288  34.796  1.00  0.00     0.058 A 
ATOM     87  C   UNL A   1      47.091  33.178  35.378  1.00  0.00     0.135 A 
ATOM     88  C   UNL A   1      49.340  32.436  35.296  1.00  0.00     0.135 A 
ATOM     89  F   UNL A   1      45.811  33.197  34.981  1.00  0.00    -0.206 F 
ATOM     90  C   UNL A   1      47.432  34.119  36.363  1.00  0.00     0.059 A 
ATOM     91  C   UNL A   1      49.697  33.343  36.302  1.00  0.00     0.059 A 
ATOM     92  F   UNL A   1      50.372  31.746  34.803  1.00  0.00    -0.206 F 
ATOM     93  C   UNL A   1      48.740  34.194  36.823  1.00  0.00     0.060 A 
BRANCH  93  94
ATOM     94  S   UNL A   1      49.176  35.416  38.078  1.00  0.00     0.124 S 
ATOM     95  O   UNL A   1      47.998  35.401  38.939  1.00  0.00    -0.237 OA
ATOM     96  O   UNL A   1      50.392  34.851  38.653  1.00  0.00    -0.237 OA
ATOM     97  O   UNL A   1      49.367  36.643  37.310  1.00  0.00    -0.744 OA
ENDBRANCH  93  94
ENDBRANCH  72  86
BRANCH  73  98
ATOM     98  C   UNL A   1      45.961  25.180  27.844  1.00  0.00     0.058 A 
ATOM     99  C   UNL A   1      44.565  25.147  28.092  1.00  0.00     0.135 A 
ATOM    100  C   UNL A   1      46.472  24.103  27.107  1.00  0.00     0.135 A 
ATOM    101  F   UNL A   1      44.005  26.088  28.862  1.00  0.00    -0.206 F 
ATOM    102  C   UNL A   1      43.699  24.240  27.470  1.00  0.00     0.059 A 
ATOM    103  C   UNL A   1      45.622  23.162  26.494  1.00  0.00     0.059 A 
ATOM    104  F   UNL A   1      47.784  24.034  26.840  1.00  0.00    -0.206 F 
ATOM    105  C   UNL A   1      44.235  23.282  26.619  1.00  0.00     0.060 A 
BRANCH 105 106
ATOM    106  S   UNL A   1      43.112  22.353  25.523  1.00  0.00     0.124 S 
ATOM    107  O   UNL A   1      43.511  20.975  25.771  1.00  0.00    -0.237 OA
ATOM    108  O   UNL A   1      41.785  22.719  26.015  1.00  0.00    -0.237 OA
ATOM    109  O   UNL A   1      43.428  22.886  24.203  1.00  0.00    -0.744 OA
ENDBRANCH 105 106
ENDBRANCH  73  98
BRANCH  85 110
ATOM    110  C   UNL A   1      45.377  32.501  28.526  1.00  0.00     0.058 A 
ATOM    111  C   UNL A   1      45.811  33.316  27.463  1.00  0.00     0.135 A 
ATOM    112  C   UNL A   1      44.104  32.822  29.058  1.00  0.00     0.135 A 
ATOM    113  F   UNL A   1      46.938  33.061  26.785  1.00  0.00    -0.206 F 
ATOM    114  C   UNL A   1      45.084  34.412  27.020  1.00  0.00     0.059 A 
ATOM    115  C   UNL A   1      43.334  33.879  28.588  1.00  0.00     0.059 A 
ATOM    116  F   UNL A   1      43.532  32.102  30.033  1.00  0.00    -0.206 F 
ATOM    117  C   UNL A   1      43.847  34.686  27.587  1.00  0.00     0.060 A 
BRANCH 117 118
ATOM    118  S   UNL A   1      42.901  36.075  26.964  1.00  0.00     0.124 S 
ATOM    119  O   UNL A   1      42.650  35.654  25.589  1.00  0.00    -0.237 OA
ATOM    120  O   UNL A   1      41.738  36.084  27.845  1.00  0.00    -0.237 OA
ATOM    121  O   UNL A   1      43.812  37.204  27.126  1.00  0.00    -0.744 OA
ENDBRANCH 117 118
ENDBRANCH  85 110
ENDBRANCH  59  60
ENDBRANCH  52  54
ENDBRANCH  51  52
ENDBRANCH  50  51
ENDBRANCH  49  50
ENDBRANCH  48  49
ENDBRANCH  47  48
ENDBRANCH   1  47
TORSDOF 26
ENDMDL
