MODEL 1
REMARK VINA RESULT:     -13.1      0.000      0.000
REMARK SMILES Cc1c(C(=O)OCCOCCOC(=O)c2ccc(-c3c4nc(c(-c5c(F)cc(S(=O)(=O)[O-])cc5F)c5ccc([nH]5)c(-c5c(F)cc(S(=O)(=O)[O-])cc5F)c5nc(c(-c6c(F)cc(S(=O)(=O)[O-])cc6F)c6ccc3[nH]6)C=C5)C=C4)cc2)cccc1-n1c(C)cc(/C=C2/C(=O)NC(=S)N=C2O)c1C
REMARK SMILES IDX 9 1 8 2 7 3 6 4 4 5 5 6 3 7 1 8 2 9 84 10 81 11 83 12 82 13
REMARK SMILES IDX 85 14 86 15 100 16 87 17 88 18 89 19 101 20 90 21 91 22
REMARK SMILES IDX 92 23 98 24 93 25 94 26 97 27 95 28 96 30 99 31 10 33 11 34
REMARK SMILES IDX 12 35 13 36 14 37 15 38 16 39 80 40 17 41 79 42 18 43 19 44
REMARK SMILES IDX 20 45 73 46 21 47 78 48 72 49 74 50 22 51 77 52 71 53 70 54
REMARK SMILES IDX 23 56 57 57 36 58 56 59 37 60 40 61 55 62 75 63 38 64 39 65
REMARK SMILES IDX 54 67 76 68 41 69 24 70 25 71 34 72 26 73 27 74 33 75 35 76
REMARK SMILES IDX 28 77 29 78 30 79 31 80 32 81 58 82 59 83 68 84 60 85 61 86
REMARK SMILES IDX 67 87 69 88 62 89 63 90 64 91 65 92 66 93 42 94 43 95 52 96
REMARK SMILES IDX 44 97 45 98 51 99 53 100 46 101 47 102 48 103 49 104 50 105
REMARK H PARENT 94 29 99 32 74 55 40 66
REMARK Flexibility Score: inf
ROOT
ATOM      1  O   UNL A   1      31.781  30.748  25.197  1.00  0.00    -0.374 OA
ENDROOT
BRANCH   1   2
ATOM      2  C   UNL A   1      30.662  30.117  24.601  1.00  0.00     0.202 C 
BRANCH   2   3
ATOM      3  C   UNL A   1      31.129  28.738  24.283  1.00  0.00     0.261 C 
BRANCH   3   4
ATOM      4  O   UNL A   1      31.823  28.650  23.024  1.00  0.00    -0.460 OA
BRANCH   4   5
ATOM      5  C   UNL A   1      33.068  28.191  22.796  1.00  0.00     0.338 C 
ATOM      6  O   UNL A   1      33.883  28.557  21.989  1.00  0.00    -0.246 OA
BRANCH   5   7
ATOM      7  C   UNL A   1      33.288  27.101  23.794  1.00  0.00     0.065 A 
ATOM      8  C   UNL A   1      31.831  25.370  22.536  1.00  0.00     0.047 C 
ATOM      9  C   UNL A   1      32.766  25.794  23.659  1.00  0.00    -0.012 A 
ATOM     10  C   UNL A   1      33.055  24.888  24.688  1.00  0.00     0.049 A 
ATOM     11  C   UNL A   1      33.985  27.472  24.963  1.00  0.00     0.016 A 
ATOM     12  C   UNL A   1      33.711  25.261  25.867  1.00  0.00     0.027 A 
ATOM     13  C   UNL A   1      34.171  26.564  26.006  1.00  0.00     0.003 A 
BRANCH  10  14
ATOM     14  N   UNL A   1      32.520  23.592  24.611  1.00  0.00    -0.318 N 
ATOM     15  C   UNL A   1      31.506  23.091  25.412  1.00  0.00     0.020 A 
ATOM     16  C   UNL A   1      33.213  22.525  24.049  1.00  0.00     0.027 A 
ATOM     17  C   UNL A   1      30.813  23.886  26.470  1.00  0.00     0.065 C 
ATOM     18  C   UNL A   1      31.345  21.769  25.053  1.00  0.00     0.031 A 
ATOM     19  C   UNL A   1      32.369  21.432  24.122  1.00  0.00    -0.003 A 
ATOM     20  C   UNL A   1      34.633  22.692  23.597  1.00  0.00     0.065 C 
BRANCH  19  21
ATOM     21  C   UNL A   1      32.540  20.125  23.583  1.00  0.00     0.029 C 
ATOM     22  C   UNL A   1      32.765  18.941  24.180  1.00  0.00     0.102 C 
ATOM     23  C   UNL A   1      32.825  17.767  23.277  1.00  0.00     0.262 C 
ATOM     24  C   UNL A   1      32.897  18.591  25.597  1.00  0.00     0.226 C 
ATOM     25  O   UNL A   1      33.012  17.827  22.067  1.00  0.00    -0.269 OA
ATOM     26  N   UNL A   1      32.643  16.570  23.915  1.00  0.00    -0.297 N 
ATOM     27  N   UNL A   1      32.768  17.424  26.113  1.00  0.00    -0.184 NA
ATOM     28  C   UNL A   1      32.533  16.373  25.269  1.00  0.00     0.203 C 
ATOM     29  H   UNL A   1      32.585  15.769  23.345  1.00  0.00     0.172 HD
ATOM     30  S   UNL A   1      32.201  14.820  25.803  1.00  0.00    -0.038 S 
BRANCH  24  31
ATOM     31  O   UNL A   1      33.262  19.566  26.429  1.00  0.00    -0.493 OA
ATOM     32  H   UNL A   1      32.805  19.689  27.238  1.00  0.00     0.295 HD
ENDBRANCH  24  31
ENDBRANCH  19  21
ENDBRANCH  10  14
ENDBRANCH   5   7
ENDBRANCH   4   5
ENDBRANCH   3   4
ENDBRANCH   2   3
ENDBRANCH   1   2
BRANCH   1  33
ATOM     33  C   UNL A   1      31.917  30.590  26.584  1.00  0.00     0.202 C 
BRANCH  33  34
ATOM     34  C   UNL A   1      33.353  30.234  26.967  1.00  0.00     0.261 C 
BRANCH  34  35
ATOM     35  O   UNL A   1      33.782  31.046  28.086  1.00  0.00    -0.460 OA
BRANCH  35  36
ATOM     36  C   UNL A   1      35.050  31.554  28.008  1.00  0.00     0.338 C 
ATOM     37  O   UNL A   1      35.304  32.681  27.621  1.00  0.00    -0.246 OA
BRANCH  36  38
ATOM     38  C   UNL A   1      36.057  30.531  28.432  1.00  0.00     0.060 A 
ATOM     39  C   UNL A   1      36.057  29.983  29.731  1.00  0.00     0.016 A 
ATOM     40  C   UNL A   1      37.143  30.299  27.597  1.00  0.00     0.016 A 
ATOM     41  C   UNL A   1      37.199  29.322  30.236  1.00  0.00     0.010 A 
ATOM     42  C   UNL A   1      38.292  29.758  28.133  1.00  0.00     0.010 A 
ATOM     43  C   UNL A   1      38.350  29.276  29.455  1.00  0.00    -0.014 A 
BRANCH  43  44
ATOM     44  C   UNL A   1      39.698  28.836  29.854  1.00  0.00     0.031 A 
ATOM     45  C   UNL A   1      40.161  27.521  29.346  1.00  0.00     0.074 A 
ATOM     46  C   UNL A   1      40.639  29.714  30.287  1.00  0.00     0.049 A 
ATOM     47  N   UNL A   1      41.276  26.970  29.676  1.00  0.00    -0.248 NA
ATOM     48  C   UNL A   1      39.387  26.712  28.406  1.00  0.00     0.031 C 
ATOM     49  C   UNL A   1      42.076  29.691  29.995  1.00  0.00     0.029 A 
ATOM     50  N   UNL A   1      40.504  30.872  31.057  1.00  0.00    -0.354 N 
ATOM     51  C   UNL A   1      41.534  25.992  28.746  1.00  0.00     0.074 A 
ATOM     52  C   UNL A   1      40.292  25.804  28.036  1.00  0.00     0.031 C 
ATOM     53  C   UNL A   1      42.705  30.620  30.733  1.00  0.00     0.029 A 
ATOM     54  C   UNL A   1      41.735  31.169  31.662  1.00  0.00     0.049 A 
ATOM     55  H   UNL A   1      39.676  31.396  31.158  1.00  0.00     0.167 HD
ATOM     56  C   UNL A   1      42.815  25.564  28.563  1.00  0.00     0.037 A 
ATOM     57  C   UNL A   1      41.827  31.281  33.016  1.00  0.00     0.037 A 
ATOM     58  C   UNL A   1      43.753  26.310  29.419  1.00  0.00     0.049 A 
ATOM     59  C   UNL A   1      42.660  30.152  33.564  1.00  0.00     0.074 A 
ATOM     60  C   UNL A   1      44.682  27.313  29.196  1.00  0.00     0.029 A 
ATOM     61  N   UNL A   1      43.576  26.286  30.794  1.00  0.00    -0.354 N 
ATOM     62  N   UNL A   1      43.248  29.282  32.792  1.00  0.00    -0.248 NA
ATOM     63  C   UNL A   1      42.874  29.854  34.974  1.00  0.00     0.031 C 
ATOM     64  C   UNL A   1      45.085  27.849  30.457  1.00  0.00     0.029 A 
ATOM     65  C   UNL A   1      44.409  27.168  31.454  1.00  0.00     0.049 A 
ATOM     66  H   UNL A   1      42.927  25.703  31.251  1.00  0.00     0.167 HD
ATOM     67  C   UNL A   1      43.803  28.283  33.520  1.00  0.00     0.074 A 
ATOM     68  C   UNL A   1      43.549  28.688  34.896  1.00  0.00     0.031 C 
ATOM     69  C   UNL A   1      44.389  27.207  32.915  1.00  0.00     0.037 A 
BRANCH  56  70
ATOM     70  C   UNL A   1      43.227  24.649  27.425  1.00  0.00     0.058 A 
ATOM     71  C   UNL A   1      42.967  23.265  27.476  1.00  0.00     0.135 A 
ATOM     72  C   UNL A   1      43.878  25.076  26.246  1.00  0.00     0.135 A 
ATOM     73  F   UNL A   1      42.272  22.717  28.482  1.00  0.00    -0.206 F 
ATOM     74  C   UNL A   1      43.395  22.372  26.492  1.00  0.00     0.059 A 
ATOM     75  C   UNL A   1      44.378  24.195  25.280  1.00  0.00     0.059 A 
ATOM     76  F   UNL A   1      43.998  26.377  25.944  1.00  0.00    -0.206 F 
ATOM     77  C   UNL A   1      44.123  22.841  25.407  1.00  0.00     0.060 A 
BRANCH  77  78
ATOM     78  S   UNL A   1      44.673  21.667  24.156  1.00  0.00     0.124 S 
ATOM     79  O   UNL A   1      46.126  21.722  24.294  1.00  0.00    -0.237 OA
ATOM     80  O   UNL A   1      44.039  20.432  24.606  1.00  0.00    -0.237 OA
ATOM     81  O   UNL A   1      44.149  22.223  22.913  1.00  0.00    -0.744 OA
ENDBRANCH  77  78
ENDBRANCH  56  70
BRANCH  57  82
ATOM     82  C   UNL A   1      40.612  31.947  33.595  1.00  0.00     0.058 A 
ATOM     83  C   UNL A   1      40.439  33.318  33.298  1.00  0.00     0.135 A 
ATOM     84  C   UNL A   1      39.448  31.205  33.855  1.00  0.00     0.135 A 
ATOM     85  F   UNL A   1      41.511  34.086  33.036  1.00  0.00    -0.206 F 
ATOM     86  C   UNL A   1      39.177  33.882  33.091  1.00  0.00     0.059 A 
ATOM     87  C   UNL A   1      38.175  31.743  33.624  1.00  0.00     0.059 A 
ATOM     88  F   UNL A   1      39.538  29.898  34.142  1.00  0.00    -0.206 F 
ATOM     89  C   UNL A   1      38.052  33.066  33.188  1.00  0.00     0.060 A 
BRANCH  89  90
ATOM     90  S   UNL A   1      36.488  33.644  32.452  1.00  0.00     0.124 S 
ATOM     91  O   UNL A   1      36.743  33.487  31.027  1.00  0.00    -0.237 OA
ATOM     92  O   UNL A   1      35.501  32.726  33.022  1.00  0.00    -0.237 OA
ATOM     93  O   UNL A   1      36.388  35.013  32.943  1.00  0.00    -0.744 OA
ENDBRANCH  89  90
ENDBRANCH  57  82
BRANCH  69  94
ATOM     94  C   UNL A   1      44.970  26.064  33.689  1.00  0.00     0.058 A 
ATOM     95  C   UNL A   1      46.348  25.811  33.724  1.00  0.00     0.135 A 
ATOM     96  C   UNL A   1      44.150  25.145  34.379  1.00  0.00     0.135 A 
ATOM     97  F   UNL A   1      47.204  26.532  32.982  1.00  0.00    -0.206 F 
ATOM     98  C   UNL A   1      46.888  24.804  34.517  1.00  0.00     0.059 A 
ATOM     99  C   UNL A   1      44.662  24.091  35.119  1.00  0.00     0.059 A 
ATOM    100  F   UNL A   1      42.816  25.248  34.400  1.00  0.00    -0.206 F 
ATOM    101  C   UNL A   1      46.036  23.964  35.228  1.00  0.00     0.060 A 
BRANCH 101 102
ATOM    102  S   UNL A   1      46.729  22.707  36.304  1.00  0.00     0.124 S 
ATOM    103  O   UNL A   1      47.888  23.388  36.874  1.00  0.00    -0.237 OA
ATOM    104  O   UNL A   1      45.618  22.471  37.221  1.00  0.00    -0.237 OA
ATOM    105  O   UNL A   1      47.038  21.609  35.393  1.00  0.00    -0.744 OA
ENDBRANCH 101 102
ENDBRANCH  69  94
ENDBRANCH  43  44
ENDBRANCH  36  38
ENDBRANCH  35  36
ENDBRANCH  34  35
ENDBRANCH  33  34
ENDBRANCH   1  33
TORSDOF 20
ENDMDL
MODEL 2
REMARK VINA RESULT:     -12.3      2.694      3.880
REMARK SMILES Cc1c(C(=O)OCCOCCOC(=O)c2ccc(-c3c4nc(c(-c5c(F)cc(S(=O)(=O)[O-])cc5F)c5ccc([nH]5)c(-c5c(F)cc(S(=O)(=O)[O-])cc5F)c5nc(c(-c6c(F)cc(S(=O)(=O)[O-])cc6F)c6ccc3[nH]6)C=C5)C=C4)cc2)cccc1-n1c(C)cc(/C=C2/C(=O)NC(=S)N=C2O)c1C
REMARK SMILES IDX 9 1 8 2 7 3 6 4 4 5 5 6 3 7 1 8 2 9 84 10 81 11 83 12 82 13
REMARK SMILES IDX 85 14 86 15 100 16 87 17 88 18 89 19 101 20 90 21 91 22
REMARK SMILES IDX 92 23 98 24 93 25 94 26 97 27 95 28 96 30 99 31 10 33 11 34
REMARK SMILES IDX 12 35 13 36 14 37 15 38 16 39 80 40 17 41 79 42 18 43 19 44
REMARK SMILES IDX 20 45 73 46 21 47 78 48 72 49 74 50 22 51 77 52 71 53 70 54
REMARK SMILES IDX 23 56 57 57 36 58 56 59 37 60 40 61 55 62 75 63 38 64 39 65
REMARK SMILES IDX 54 67 76 68 41 69 24 70 25 71 34 72 26 73 27 74 33 75 35 76
REMARK SMILES IDX 28 77 29 78 30 79 31 80 32 81 58 82 59 83 68 84 60 85 61 86
REMARK SMILES IDX 67 87 69 88 62 89 63 90 64 91 65 92 66 93 42 94 43 95 52 96
REMARK SMILES IDX 44 97 45 98 51 99 53 100 46 101 47 102 48 103 49 104 50 105
REMARK H PARENT 94 29 99 32 74 55 40 66
REMARK Flexibility Score: inf
ROOT
ATOM      1  O   UNL A   1      31.802  30.282  25.861  1.00  0.00    -0.374 OA
ENDROOT
BRANCH   1   2
ATOM      2  C   UNL A   1      31.961  28.922  25.501  1.00  0.00     0.202 C 
BRANCH   2   3
ATOM      3  C   UNL A   1      31.922  28.179  26.792  1.00  0.00     0.261 C 
BRANCH   3   4
ATOM      4  O   UNL A   1      31.032  27.047  26.769  1.00  0.00    -0.460 OA
BRANCH   4   5
ATOM      5  C   UNL A   1      30.525  26.415  25.694  1.00  0.00     0.338 C 
ATOM      6  O   UNL A   1      29.831  26.846  24.810  1.00  0.00    -0.246 OA
BRANCH   5   7
ATOM      7  C   UNL A   1      31.023  25.009  25.778  1.00  0.00     0.065 A 
ATOM      8  C   UNL A   1      33.221  25.490  24.499  1.00  0.00     0.047 C 
ATOM      9  C   UNL A   1      32.276  24.587  25.277  1.00  0.00    -0.012 A 
ATOM     10  C   UNL A   1      32.592  23.230  25.426  1.00  0.00     0.049 A 
ATOM     11  C   UNL A   1      30.118  24.069  26.314  1.00  0.00     0.016 A 
ATOM     12  C   UNL A   1      31.684  22.287  25.920  1.00  0.00     0.027 A 
ATOM     13  C   UNL A   1      30.436  22.712  26.359  1.00  0.00     0.003 A 
BRANCH  10  14
ATOM     14  N   UNL A   1      33.810  22.764  24.905  1.00  0.00    -0.318 N 
ATOM     15  C   UNL A   1      34.101  22.605  23.559  1.00  0.00     0.020 A 
ATOM     16  C   UNL A   1      34.701  21.996  25.647  1.00  0.00     0.027 A 
ATOM     17  C   UNL A   1      33.148  22.940  22.457  1.00  0.00     0.065 C 
ATOM     18  C   UNL A   1      35.366  22.058  23.497  1.00  0.00     0.031 A 
ATOM     19  C   UNL A   1      35.785  21.755  24.824  1.00  0.00    -0.003 A 
ATOM     20  C   UNL A   1      34.339  21.528  27.025  1.00  0.00     0.065 C 
BRANCH  19  21
ATOM     21  C   UNL A   1      37.025  21.123  25.129  1.00  0.00     0.029 C 
ATOM     22  C   UNL A   1      38.176  21.618  25.619  1.00  0.00     0.102 C 
ATOM     23  C   UNL A   1      39.248  20.623  25.868  1.00  0.00     0.262 C 
ATOM     24  C   UNL A   1      38.542  22.979  26.019  1.00  0.00     0.226 C 
ATOM     25  O   UNL A   1      39.286  19.501  25.377  1.00  0.00    -0.269 OA
ATOM     26  N   UNL A   1      40.221  21.065  26.723  1.00  0.00    -0.297 N 
ATOM     27  N   UNL A   1      39.514  23.317  26.784  1.00  0.00    -0.184 NA
ATOM     28  C   UNL A   1      40.340  22.328  27.246  1.00  0.00     0.203 C 
ATOM     29  H   UNL A   1      40.906  20.409  26.990  1.00  0.00     0.172 HD
ATOM     30  S   UNL A   1      41.560  22.595  28.363  1.00  0.00    -0.038 S 
BRANCH  24  31
ATOM     31  O   UNL A   1      37.845  23.976  25.476  1.00  0.00    -0.493 OA
ATOM     32  H   UNL A   1      37.145  23.790  24.881  1.00  0.00     0.295 HD
ENDBRANCH  24  31
ENDBRANCH  19  21
ENDBRANCH  10  14
ENDBRANCH   5   7
ENDBRANCH   4   5
ENDBRANCH   3   4
ENDBRANCH   2   3
ENDBRANCH   1   2
BRANCH   1  33
ATOM     33  C   UNL A   1      32.187  30.629  27.164  1.00  0.00     0.202 C 
BRANCH  33  34
ATOM     34  C   UNL A   1      33.499  31.413  27.168  1.00  0.00     0.261 C 
BRANCH  34  35
ATOM     35  O   UNL A   1      34.376  30.905  28.202  1.00  0.00    -0.460 OA
BRANCH  35  36
ATOM     36  C   UNL A   1      35.284  29.960  27.808  1.00  0.00     0.338 C 
ATOM     37  O   UNL A   1      35.067  29.132  26.943  1.00  0.00    -0.246 OA
BRANCH  36  38
ATOM     38  C   UNL A   1      36.547  30.078  28.604  1.00  0.00     0.060 A 
ATOM     39  C   UNL A   1      37.689  30.727  28.092  1.00  0.00     0.016 A 
ATOM     40  C   UNL A   1      36.655  29.332  29.771  1.00  0.00     0.016 A 
ATOM     41  C   UNL A   1      38.961  30.515  28.671  1.00  0.00     0.010 A 
ATOM     42  C   UNL A   1      37.910  29.037  30.259  1.00  0.00     0.010 A 
ATOM     43  C   UNL A   1      39.080  29.604  29.717  1.00  0.00    -0.014 A 
BRANCH  43  44
ATOM     44  C   UNL A   1      40.315  29.074  30.320  1.00  0.00     0.031 A 
ATOM     45  C   UNL A   1      40.889  27.844  29.720  1.00  0.00     0.074 A 
ATOM     46  C   UNL A   1      41.133  29.849  31.077  1.00  0.00     0.049 A 
ATOM     47  N   UNL A   1      41.912  27.220  30.188  1.00  0.00    -0.248 NA
ATOM     48  C   UNL A   1      40.343  27.212  28.520  1.00  0.00     0.031 C 
ATOM     49  C   UNL A   1      42.599  29.837  31.098  1.00  0.00     0.029 A 
ATOM     50  N   UNL A   1      40.824  30.875  31.974  1.00  0.00    -0.354 N 
ATOM     51  C   UNL A   1      42.373  26.394  29.192  1.00  0.00     0.074 A 
ATOM     52  C   UNL A   1      41.314  26.352  28.213  1.00  0.00     0.031 C 
ATOM     53  C   UNL A   1      43.045  30.622  32.092  1.00  0.00     0.029 A 
ATOM     54  C   UNL A   1      41.894  31.043  32.868  1.00  0.00     0.049 A 
ATOM     55  H   UNL A   1      39.989  31.396  31.979  1.00  0.00     0.167 HD
ATOM     56  C   UNL A   1      43.668  25.969  29.221  1.00  0.00     0.037 A 
ATOM     57  C   UNL A   1      41.692  30.938  34.210  1.00  0.00     0.037 A 
ATOM     58  C   UNL A   1      44.393  26.548  30.364  1.00  0.00     0.049 A 
ATOM     59  C   UNL A   1      42.399  29.717  34.737  1.00  0.00     0.074 A 
ATOM     60  C   UNL A   1      45.339  27.551  30.506  1.00  0.00     0.029 A 
ATOM     61  N   UNL A   1      43.925  26.312  31.648  1.00  0.00    -0.354 N 
ATOM     62  N   UNL A   1      43.148  28.964  33.980  1.00  0.00    -0.248 NA
ATOM     63  C   UNL A   1      42.309  29.195  36.094  1.00  0.00     0.031 C 
ATOM     64  C   UNL A   1      45.456  27.872  31.893  1.00  0.00     0.029 A 
ATOM     65  C   UNL A   1      44.589  27.059  32.603  1.00  0.00     0.049 A 
ATOM     66  H   UNL A   1      43.199  25.681  31.858  1.00  0.00     0.167 HD
ATOM     67  C   UNL A   1      43.543  27.850  34.642  1.00  0.00     0.074 A 
ATOM     68  C   UNL A   1      42.996  28.040  35.979  1.00  0.00     0.031 C 
ATOM     69  C   UNL A   1      44.256  26.869  34.013  1.00  0.00     0.037 A 
BRANCH  56  70
ATOM     70  C   UNL A   1      44.323  25.234  28.066  1.00  0.00     0.058 A 
ATOM     71  C   UNL A   1      44.495  25.856  26.814  1.00  0.00     0.135 A 
ATOM     72  C   UNL A   1      44.813  23.910  28.131  1.00  0.00     0.135 A 
ATOM     73  F   UNL A   1      44.171  27.142  26.618  1.00  0.00    -0.206 F 
ATOM     74  C   UNL A   1      45.019  25.198  25.700  1.00  0.00     0.059 A 
ATOM     75  C   UNL A   1      45.277  23.206  27.014  1.00  0.00     0.059 A 
ATOM     76  F   UNL A   1      44.927  23.261  29.298  1.00  0.00    -0.206 F 
ATOM     77  C   UNL A   1      45.385  23.863  25.800  1.00  0.00     0.060 A 
BRANCH  77  78
ATOM     78  S   UNL A   1      46.050  23.031  24.346  1.00  0.00     0.124 S 
ATOM     79  O   UNL A   1      46.528  21.768  24.900  1.00  0.00    -0.237 OA
ATOM     80  O   UNL A   1      44.872  22.944  23.489  1.00  0.00    -0.237 OA
ATOM     81  O   UNL A   1      47.096  23.938  23.883  1.00  0.00    -0.744 OA
ENDBRANCH  77  78
ENDBRANCH  56  70
BRANCH  57  82
ATOM     82  C   UNL A   1      40.375  31.534  34.615  1.00  0.00     0.058 A 
ATOM     83  C   UNL A   1      39.307  30.632  34.819  1.00  0.00     0.135 A 
ATOM     84  C   UNL A   1      40.330  32.741  35.333  1.00  0.00     0.135 A 
ATOM     85  F   UNL A   1      39.289  29.457  34.165  1.00  0.00    -0.206 F 
ATOM     86  C   UNL A   1      38.344  30.830  35.813  1.00  0.00     0.059 A 
ATOM     87  C   UNL A   1      39.391  32.945  36.355  1.00  0.00     0.059 A 
ATOM     88  F   UNL A   1      41.312  33.643  35.189  1.00  0.00    -0.206 F 
ATOM     89  C   UNL A   1      38.437  31.959  36.624  1.00  0.00     0.060 A 
BRANCH  89  90
ATOM     90  S   UNL A   1      37.520  31.982  38.199  1.00  0.00     0.124 S 
ATOM     91  O   UNL A   1      38.557  32.358  39.151  1.00  0.00    -0.237 OA
ATOM     92  O   UNL A   1      36.487  32.989  37.960  1.00  0.00    -0.237 OA
ATOM     93  O   UNL A   1      37.017  30.617  38.297  1.00  0.00    -0.744 OA
ENDBRANCH  89  90
ENDBRANCH  57  82
BRANCH  69  94
ATOM     94  C   UNL A   1      44.668  25.604  34.701  1.00  0.00     0.058 A 
ATOM     95  C   UNL A   1      43.777  24.542  34.908  1.00  0.00     0.135 A 
ATOM     96  C   UNL A   1      45.967  25.440  35.231  1.00  0.00     0.135 A 
ATOM     97  F   UNL A   1      42.480  24.653  34.580  1.00  0.00    -0.206 F 
ATOM     98  C   UNL A   1      44.190  23.337  35.466  1.00  0.00     0.059 A 
ATOM     99  C   UNL A   1      46.381  24.274  35.855  1.00  0.00     0.059 A 
ATOM    100  F   UNL A   1      46.908  26.387  35.135  1.00  0.00    -0.206 F 
ATOM    101  C   UNL A   1      45.501  23.207  35.915  1.00  0.00     0.060 A 
BRANCH 101 102
ATOM    102  S   UNL A   1      46.057  21.633  36.574  1.00  0.00     0.124 S 
ATOM    103  O   UNL A   1      45.248  20.677  35.825  1.00  0.00    -0.237 OA
ATOM    104  O   UNL A   1      47.476  21.666  36.235  1.00  0.00    -0.237 OA
ATOM    105  O   UNL A   1      45.747  21.729  37.998  1.00  0.00    -0.744 OA
ENDBRANCH 101 102
ENDBRANCH  69  94
ENDBRANCH  43  44
ENDBRANCH  36  38
ENDBRANCH  35  36
ENDBRANCH  34  35
ENDBRANCH  33  34
ENDBRANCH   1  33
TORSDOF 20
ENDMDL
MODEL 3
REMARK VINA RESULT:     -12.3      5.276     10.946
REMARK SMILES Cc1c(C(=O)OCCOCCOC(=O)c2ccc(-c3c4nc(c(-c5c(F)cc(S(=O)(=O)[O-])cc5F)c5ccc([nH]5)c(-c5c(F)cc(S(=O)(=O)[O-])cc5F)c5nc(c(-c6c(F)cc(S(=O)(=O)[O-])cc6F)c6ccc3[nH]6)C=C5)C=C4)cc2)cccc1-n1c(C)cc(/C=C2/C(=O)NC(=S)N=C2O)c1C
REMARK SMILES IDX 9 1 8 2 7 3 6 4 4 5 5 6 3 7 1 8 2 9 84 10 81 11 83 12 82 13
REMARK SMILES IDX 85 14 86 15 100 16 87 17 88 18 89 19 101 20 90 21 91 22
REMARK SMILES IDX 92 23 98 24 93 25 94 26 97 27 95 28 96 30 99 31 10 33 11 34
REMARK SMILES IDX 12 35 13 36 14 37 15 38 16 39 80 40 17 41 79 42 18 43 19 44
REMARK SMILES IDX 20 45 73 46 21 47 78 48 72 49 74 50 22 51 77 52 71 53 70 54
REMARK SMILES IDX 23 56 57 57 36 58 56 59 37 60 40 61 55 62 75 63 38 64 39 65
REMARK SMILES IDX 54 67 76 68 41 69 24 70 25 71 34 72 26 73 27 74 33 75 35 76
REMARK SMILES IDX 28 77 29 78 30 79 31 80 32 81 58 82 59 83 68 84 60 85 61 86
REMARK SMILES IDX 67 87 69 88 62 89 63 90 64 91 65 92 66 93 42 94 43 95 52 96
REMARK SMILES IDX 44 97 45 98 51 99 53 100 46 101 47 102 48 103 49 104 50 105
REMARK H PARENT 94 29 99 32 74 55 40 66
REMARK Flexibility Score: inf
ROOT
ATOM      1  O   UNL A   1      44.779  29.390  26.142  1.00  0.00    -0.374 OA
ENDROOT
BRANCH   1   2
ATOM      2  C   UNL A   1      44.432  29.921  27.408  1.00  0.00     0.202 C 
BRANCH   2   3
ATOM      3  C   UNL A   1      43.781  28.790  28.128  1.00  0.00     0.261 C 
BRANCH   3   4
ATOM      4  O   UNL A   1      42.344  28.883  28.148  1.00  0.00    -0.460 OA
BRANCH   4   5
ATOM      5  C   UNL A   1      41.478  28.529  27.180  1.00  0.00     0.338 C 
ATOM      6  O   UNL A   1      41.288  29.030  26.102  1.00  0.00    -0.246 OA
BRANCH   5   7
ATOM      7  C   UNL A   1      40.769  27.317  27.693  1.00  0.00     0.065 A 
ATOM      8  C   UNL A   1      41.472  25.810  25.710  1.00  0.00     0.047 C 
ATOM      9  C   UNL A   1      40.801  26.057  27.052  1.00  0.00    -0.012 A 
ATOM     10  C   UNL A   1      40.075  25.022  27.656  1.00  0.00     0.049 A 
ATOM     11  C   UNL A   1      39.964  27.516  28.834  1.00  0.00     0.016 A 
ATOM     12  C   UNL A   1      39.243  25.222  28.765  1.00  0.00     0.027 A 
ATOM     13  C   UNL A   1      39.183  26.481  29.349  1.00  0.00     0.003 A 
BRANCH  10  14
ATOM     14  N   UNL A   1      40.048  23.766  27.029  1.00  0.00    -0.318 N 
ATOM     15  C   UNL A   1      38.952  23.210  26.388  1.00  0.00     0.020 A 
ATOM     16  C   UNL A   1      40.945  22.750  27.341  1.00  0.00     0.027 A 
ATOM     17  C   UNL A   1      37.632  23.896  26.254  1.00  0.00     0.065 C 
ATOM     18  C   UNL A   1      39.337  21.948  25.984  1.00  0.00     0.031 A 
ATOM     19  C   UNL A   1      40.635  21.690  26.510  1.00  0.00    -0.003 A 
ATOM     20  C   UNL A   1      41.925  22.917  28.464  1.00  0.00     0.065 C 
BRANCH  19  21
ATOM     21  C   UNL A   1      41.319  20.453  26.336  1.00  0.00     0.029 C 
ATOM     22  C   UNL A   1      42.523  20.171  25.805  1.00  0.00     0.102 C 
ATOM     23  C   UNL A   1      42.930  18.746  25.856  1.00  0.00     0.262 C 
ATOM     24  C   UNL A   1      43.549  21.047  25.235  1.00  0.00     0.226 C 
ATOM     25  O   UNL A   1      42.161  17.807  26.028  1.00  0.00    -0.269 OA
ATOM     26  N   UNL A   1      44.275  18.550  25.699  1.00  0.00    -0.297 N 
ATOM     27  N   UNL A   1      44.789  20.767  25.066  1.00  0.00    -0.184 NA
ATOM     28  C   UNL A   1      45.211  19.508  25.396  1.00  0.00     0.203 C 
ATOM     29  H   UNL A   1      44.605  17.630  25.815  1.00  0.00     0.172 HD
ATOM     30  S   UNL A   1      46.820  19.039  25.366  1.00  0.00    -0.038 S 
BRANCH  24  31
ATOM     31  O   UNL A   1      43.144  22.231  24.774  1.00  0.00    -0.493 OA
ATOM     32  H   UNL A   1      43.049  22.955  25.361  1.00  0.00     0.295 HD
ENDBRANCH  24  31
ENDBRANCH  19  21
ENDBRANCH  10  14
ENDBRANCH   5   7
ENDBRANCH   4   5
ENDBRANCH   3   4
ENDBRANCH   2   3
ENDBRANCH   1   2
BRANCH   1  33
ATOM     33  C   UNL A   1      46.007  28.719  26.065  1.00  0.00     0.202 C 
BRANCH  33  34
ATOM     34  C   UNL A   1      45.857  27.353  25.396  1.00  0.00     0.261 C 
BRANCH  34  35
ATOM     35  O   UNL A   1      45.531  26.350  26.388  1.00  0.00    -0.460 OA
BRANCH  35  36
ATOM     36  C   UNL A   1      46.567  25.925  27.174  1.00  0.00     0.338 C 
ATOM     37  O   UNL A   1      47.730  25.909  26.811  1.00  0.00    -0.246 OA
BRANCH  36  38
ATOM     38  C   UNL A   1      46.065  25.464  28.506  1.00  0.00     0.060 A 
ATOM     39  C   UNL A   1      44.708  25.146  28.719  1.00  0.00     0.016 A 
ATOM     40  C   UNL A   1      46.916  25.576  29.600  1.00  0.00     0.016 A 
ATOM     41  C   UNL A   1      44.178  25.078  30.027  1.00  0.00     0.010 A 
ATOM     42  C   UNL A   1      46.371  25.624  30.865  1.00  0.00     0.010 A 
ATOM     43  C   UNL A   1      45.003  25.393  31.104  1.00  0.00    -0.014 A 
BRANCH  43  44
ATOM     44  C   UNL A   1      44.617  25.594  32.511  1.00  0.00     0.031 A 
ATOM     45  C   UNL A   1      44.026  26.906  32.871  1.00  0.00     0.074 A 
ATOM     46  C   UNL A   1      44.397  24.549  33.350  1.00  0.00     0.049 A 
ATOM     47  N   UNL A   1      43.718  27.256  34.071  1.00  0.00    -0.248 NA
ATOM     48  C   UNL A   1      43.727  27.944  31.886  1.00  0.00     0.031 C 
ATOM     49  C   UNL A   1      43.360  24.442  34.382  1.00  0.00     0.029 A 
ATOM     50  N   UNL A   1      45.035  23.309  33.429  1.00  0.00    -0.354 N 
ATOM     51  C   UNL A   1      42.868  28.332  33.973  1.00  0.00     0.074 A 
ATOM     52  C   UNL A   1      42.979  28.781  32.606  1.00  0.00     0.031 C 
ATOM     53  C   UNL A   1      43.564  23.337  35.117  1.00  0.00     0.029 A 
ATOM     54  C   UNL A   1      44.835  22.770  34.711  1.00  0.00     0.049 A 
ATOM     55  H   UNL A   1      45.542  22.881  32.702  1.00  0.00     0.167 HD
ATOM     56  C   UNL A   1      42.035  28.622  35.012  1.00  0.00     0.037 A 
ATOM     57  C   UNL A   1      45.901  22.433  35.488  1.00  0.00     0.037 A 
ATOM     58  C   UNL A   1      42.177  27.640  36.099  1.00  0.00     0.049 A 
ATOM     59  C   UNL A   1      45.970  23.348  36.682  1.00  0.00     0.074 A 
ATOM     60  C   UNL A   1      41.411  26.578  36.554  1.00  0.00     0.029 A 
ATOM     61  N   UNL A   1      43.419  27.466  36.693  1.00  0.00    -0.354 N 
ATOM     62  N   UNL A   1      45.060  24.252  36.919  1.00  0.00    -0.248 NA
ATOM     63  C   UNL A   1      47.041  23.389  37.668  1.00  0.00     0.031 C 
ATOM     64  C   UNL A   1      42.200  25.802  37.458  1.00  0.00     0.029 A 
ATOM     65  C   UNL A   1      43.447  26.393  37.564  1.00  0.00     0.049 A 
ATOM     66  H   UNL A   1      44.196  28.043  36.513  1.00  0.00     0.167 HD
ATOM     67  C   UNL A   1      45.424  25.045  37.956  1.00  0.00     0.074 A 
ATOM     68  C   UNL A   1      46.680  24.460  38.405  1.00  0.00     0.031 C 
ATOM     69  C   UNL A   1      44.668  26.124  38.320  1.00  0.00     0.037 A 
BRANCH  56  70
ATOM     70  C   UNL A   1      40.923  29.650  34.917  1.00  0.00     0.058 A 
ATOM     71  C   UNL A   1      40.942  30.816  35.709  1.00  0.00     0.135 A 
ATOM     72  C   UNL A   1      39.807  29.549  34.056  1.00  0.00     0.135 A 
ATOM     73  F   UNL A   1      41.979  31.107  36.506  1.00  0.00    -0.206 F 
ATOM     74  C   UNL A   1      39.905  31.751  35.715  1.00  0.00     0.059 A 
ATOM     75  C   UNL A   1      38.723  30.434  34.093  1.00  0.00     0.059 A 
ATOM     76  F   UNL A   1      39.750  28.623  33.088  1.00  0.00    -0.206 F 
ATOM     77  C   UNL A   1      38.785  31.541  34.922  1.00  0.00     0.060 A 
BRANCH  77  78
ATOM     78  S   UNL A   1      37.455  32.756  34.956  1.00  0.00     0.124 S 
ATOM     79  O   UNL A   1      37.069  32.757  36.364  1.00  0.00    -0.237 OA
ATOM     80  O   UNL A   1      38.136  33.956  34.483  1.00  0.00    -0.237 OA
ATOM     81  O   UNL A   1      36.462  32.199  34.043  1.00  0.00    -0.744 OA
ENDBRANCH  77  78
ENDBRANCH  56  70
BRANCH  57  82
ATOM     82  C   UNL A   1      47.010  21.837  34.670  1.00  0.00     0.058 A 
ATOM     83  C   UNL A   1      48.152  22.645  34.465  1.00  0.00     0.135 A 
ATOM     84  C   UNL A   1      47.208  20.446  34.641  1.00  0.00     0.135 A 
ATOM     85  F   UNL A   1      48.034  23.985  34.483  1.00  0.00    -0.206 F 
ATOM     86  C   UNL A   1      49.443  22.113  34.418  1.00  0.00     0.059 A 
ATOM     87  C   UNL A   1      48.496  19.894  34.626  1.00  0.00     0.059 A 
ATOM     88  F   UNL A   1      46.169  19.619  34.830  1.00  0.00    -0.206 F 
ATOM     89  C   UNL A   1      49.609  20.738  34.570  1.00  0.00     0.060 A 
BRANCH  89  90
ATOM     90  S   UNL A   1      51.261  20.100  35.002  1.00  0.00     0.124 S 
ATOM     91  O   UNL A   1      51.932  20.087  33.710  1.00  0.00    -0.237 OA
ATOM     92  O   UNL A   1      51.753  21.091  35.960  1.00  0.00    -0.237 OA
ATOM     93  O   UNL A   1      50.960  18.798  35.586  1.00  0.00    -0.744 OA
ENDBRANCH  89  90
ENDBRANCH  57  82
BRANCH  69  94
ATOM     94  C   UNL A   1      45.064  27.048  39.430  1.00  0.00     0.058 A 
ATOM     95  C   UNL A   1      45.779  28.231  39.196  1.00  0.00     0.135 A 
ATOM     96  C   UNL A   1      44.787  26.745  40.781  1.00  0.00     0.135 A 
ATOM     97  F   UNL A   1      46.224  28.540  37.968  1.00  0.00    -0.206 F 
ATOM     98  C   UNL A   1      46.064  29.129  40.219  1.00  0.00     0.059 A 
ATOM     99  C   UNL A   1      45.124  27.591  41.825  1.00  0.00     0.059 A 
ATOM    100  F   UNL A   1      44.141  25.631  41.149  1.00  0.00    -0.206 F 
ATOM    101  C   UNL A   1      45.711  28.808  41.527  1.00  0.00     0.060 A 
BRANCH 101 102
ATOM    102  S   UNL A   1      46.017  29.992  42.840  1.00  0.00     0.124 S 
ATOM    103  O   UNL A   1      47.354  30.480  42.517  1.00  0.00    -0.237 OA
ATOM    104  O   UNL A   1      44.928  30.941  42.630  1.00  0.00    -0.237 OA
ATOM    105  O   UNL A   1      45.925  29.188  44.055  1.00  0.00    -0.744 OA
ENDBRANCH 101 102
ENDBRANCH  69  94
ENDBRANCH  43  44
ENDBRANCH  36  38
ENDBRANCH  35  36
ENDBRANCH  34  35
ENDBRANCH  33  34
ENDBRANCH   1  33
TORSDOF 20
ENDMDL
