MODEL 1
REMARK VINA RESULT:     -10.5      0.000      0.000
REMARK SMILES COc1cccc(-c2cc(OCC(=O)OCCOCCOC(=O)c3ccc(-c4c5nc(c(-c6c(F)cc(S(=O)(=O)[O-])cc6F)c6ccc([nH]6)c(-c6c(F)cc(S(=O)(=O)[O-])cc6F)c6nc(c(-c7c(F)cc(S(=O)(=O)[O-])cc7F)c7ccc4[nH]7)C=C6)C=C5)cc3)nc(Nc3ccccc3Br)n2)c1
REMARK SMILES IDX 17 1 16 2 15 3 13 4 14 5 12 6 11 7 10 8 8 9 9 10 100 11
REMARK SMILES IDX 91 12 90 13 7 14 3 15 4 16 101 17 5 18 6 19 2 20 1 21 92 22
REMARK SMILES IDX 93 24 94 25 98 26 95 27 97 28 99 29 96 30 18 31 19 32 20 33
REMARK SMILES IDX 21 34 22 35 23 36 24 37 25 38 89 39 26 40 88 41 27 42 28 43
REMARK SMILES IDX 29 44 82 45 30 46 87 47 81 48 83 49 31 50 86 51 80 52 79 53
REMARK SMILES IDX 32 55 66 56 45 57 65 58 46 59 49 60 64 61 84 62 47 63 48 64
REMARK SMILES IDX 63 66 85 67 50 68 33 69 34 70 43 71 35 72 36 73 42 74 44 75
REMARK SMILES IDX 37 76 38 77 39 78 40 79 41 80 67 81 68 82 77 83 69 84 70 85
REMARK SMILES IDX 76 86 78 87 71 88 72 89 73 90 74 91 75 92 51 93 52 94 61 95
REMARK SMILES IDX 53 96 54 97 60 98 62 99 55 100 56 101 57 102 58 103 59 104
REMARK H PARENT 92 23 83 54 49 65
REMARK Flexibility Score: inf
ROOT
ATOM      1  C   UNL A   1      38.294  21.794  25.629  1.00  0.00     0.202 C 
ENDROOT
BRANCH   1   2
ATOM      2  C   UNL A   1      36.954  21.964  24.895  1.00  0.00     0.261 C 
BRANCH   2   3
ATOM      3  O   UNL A   1      36.431  23.316  24.934  1.00  0.00    -0.461 OA
BRANCH   3   4
ATOM      4  C   UNL A   1      35.086  23.439  24.743  1.00  0.00     0.344 C 
ATOM      5  O   UNL A   1      34.240  22.721  25.271  1.00  0.00    -0.248 OA
BRANCH   4   6
ATOM      6  C   UNL A   1      34.675  24.594  23.812  1.00  0.00     0.353 C 
BRANCH   6   7
ATOM      7  O   UNL A   1      33.326  24.935  23.588  1.00  0.00    -0.466 OA
BRANCH   7   8
ATOM      8  C   UNL A   1      32.827  26.189  23.790  1.00  0.00     0.219 A 
ATOM      9  C   UNL A   1      31.241  27.923  23.612  1.00  0.00     0.080 A 
ATOM     10  C   UNL A   1      31.885  26.841  23.016  1.00  0.00     0.097 A 
ATOM     11  N   UNL A   1      31.582  28.368  24.832  1.00  0.00    -0.212 NA
ATOM     12  C   UNL A   1      32.552  27.720  25.492  1.00  0.00     0.231 A 
ATOM     13  N   UNL A   1      33.192  26.654  24.998  1.00  0.00    -0.177 NA
BRANCH   9  14
ATOM     14  C   UNL A   1      30.040  28.570  23.039  1.00  0.00     0.004 A 
ATOM     15  C   UNL A   1      29.037  30.397  21.715  1.00  0.00     0.119 A 
ATOM     16  C   UNL A   1      27.773  29.917  22.032  1.00  0.00     0.046 A 
ATOM     17  C   UNL A   1      30.140  29.678  22.168  1.00  0.00     0.056 A 
ATOM     18  C   UNL A   1      27.631  28.748  22.783  1.00  0.00     0.005 A 
ATOM     19  C   UNL A   1      28.755  28.088  23.296  1.00  0.00     0.010 A 
BRANCH  15  20
ATOM     20  O   UNL A   1      29.067  31.551  20.983  1.00  0.00    -0.497 OA
ATOM     21  C   UNL A   1      27.834  32.083  20.496  1.00  0.00     0.278 C 
ENDBRANCH  15  20
ENDBRANCH   9  14
BRANCH  12  22
ATOM     22  N   UNL A   1      32.928  28.133  26.765  1.00  0.00    -0.323 N 
ATOM     23  H   UNL A   1      32.576  27.599  27.514  1.00  0.00     0.170 HD
BRANCH  22  24
ATOM     24  C   UNL A   1      33.744  29.214  27.112  1.00  0.00     0.055 A 
ATOM     25  C   UNL A   1      35.063  28.944  27.504  1.00  0.00     0.027 A 
ATOM     26  C   UNL A   1      33.318  30.555  27.102  1.00  0.00     0.041 A 
ATOM     27  C   UNL A   1      35.956  29.980  27.791  1.00  0.00     0.002 A 
ATOM     28  C   UNL A   1      34.211  31.593  27.390  1.00  0.00     0.018 A 
ATOM     29  Br  UNL A   1      31.506  31.039  26.799  1.00  0.00    -0.049 Br
ATOM     30  C   UNL A   1      35.534  31.304  27.718  1.00  0.00     0.001 A 
ENDBRANCH  22  24
ENDBRANCH  12  22
ENDBRANCH   7   8
ENDBRANCH   6   7
ENDBRANCH   4   6
ENDBRANCH   3   4
ENDBRANCH   2   3
ENDBRANCH   1   2
BRANCH   1  31
ATOM     31  O   UNL A   1      38.760  22.890  26.411  1.00  0.00    -0.374 OA
BRANCH  31  32
ATOM     32  C   UNL A   1      39.978  22.706  27.105  1.00  0.00     0.202 C 
BRANCH  32  33
ATOM     33  C   UNL A   1      41.289  23.161  26.457  1.00  0.00     0.261 C 
BRANCH  33  34
ATOM     34  O   UNL A   1      41.933  24.243  27.069  1.00  0.00    -0.460 OA
BRANCH  34  35
ATOM     35  C   UNL A   1      41.674  25.418  26.467  1.00  0.00     0.338 C 
ATOM     36  O   UNL A   1      41.530  25.664  25.281  1.00  0.00    -0.246 OA
BRANCH  35  37
ATOM     37  C   UNL A   1      41.459  26.321  27.580  1.00  0.00     0.060 A 
ATOM     38  C   UNL A   1      42.282  27.441  27.654  1.00  0.00     0.016 A 
ATOM     39  C   UNL A   1      40.378  26.109  28.447  1.00  0.00     0.016 A 
ATOM     40  C   UNL A   1      42.046  28.357  28.656  1.00  0.00     0.010 A 
ATOM     41  C   UNL A   1      40.134  27.038  29.438  1.00  0.00     0.010 A 
ATOM     42  C   UNL A   1      40.993  28.139  29.559  1.00  0.00    -0.014 A 
BRANCH  42  43
ATOM     43  C   UNL A   1      40.904  28.998  30.742  1.00  0.00     0.031 A 
ATOM     44  C   UNL A   1      39.842  30.052  30.755  1.00  0.00     0.074 A 
ATOM     45  C   UNL A   1      41.722  28.767  31.779  1.00  0.00     0.049 A 
ATOM     46  N   UNL A   1      39.542  30.901  31.697  1.00  0.00    -0.248 NA
ATOM     47  C   UNL A   1      39.003  30.167  29.547  1.00  0.00     0.031 C 
ATOM     48  C   UNL A   1      42.764  27.737  31.821  1.00  0.00     0.029 A 
ATOM     49  N   UNL A   1      41.797  29.374  32.999  1.00  0.00    -0.354 N 
ATOM     50  C   UNL A   1      38.479  31.644  31.199  1.00  0.00     0.074 A 
ATOM     51  C   UNL A   1      38.215  31.185  29.857  1.00  0.00     0.031 C 
ATOM     52  C   UNL A   1      43.369  27.781  33.019  1.00  0.00     0.029 A 
ATOM     53  C   UNL A   1      42.778  28.856  33.807  1.00  0.00     0.049 A 
ATOM     54  H   UNL A   1      41.205  30.112  33.272  1.00  0.00     0.167 HD
ATOM     55  C   UNL A   1      37.776  32.609  31.831  1.00  0.00     0.037 A 
ATOM     56  C   UNL A   1      43.149  29.232  35.044  1.00  0.00     0.037 A 
ATOM     57  C   UNL A   1      38.070  33.038  33.171  1.00  0.00     0.049 A 
ATOM     58  C   UNL A   1      42.384  30.351  35.698  1.00  0.00     0.074 A 
ATOM     59  C   UNL A   1      37.438  34.008  33.924  1.00  0.00     0.029 A 
ATOM     60  N   UNL A   1      39.088  32.514  33.958  1.00  0.00    -0.354 N 
ATOM     61  N   UNL A   1      41.365  31.036  35.233  1.00  0.00    -0.248 NA
ATOM     62  C   UNL A   1      42.811  30.745  37.045  1.00  0.00     0.031 C 
ATOM     63  C   UNL A   1      38.103  34.104  35.150  1.00  0.00     0.029 A 
ATOM     64  C   UNL A   1      39.114  33.153  35.182  1.00  0.00     0.049 A 
ATOM     65  H   UNL A   1      39.700  31.794  33.683  1.00  0.00     0.167 HD
ATOM     66  C   UNL A   1      41.008  31.923  36.241  1.00  0.00     0.074 A 
ATOM     67  C   UNL A   1      41.913  31.673  37.347  1.00  0.00     0.031 C 
ATOM     68  C   UNL A   1      40.028  32.860  36.259  1.00  0.00     0.037 A 
BRANCH  55  69
ATOM     69  C   UNL A   1      36.650  33.259  31.082  1.00  0.00     0.058 A 
ATOM     70  C   UNL A   1      35.308  33.057  31.445  1.00  0.00     0.135 A 
ATOM     71  C   UNL A   1      36.914  34.124  30.008  1.00  0.00     0.135 A 
ATOM     72  F   UNL A   1      34.997  32.215  32.444  1.00  0.00    -0.206 F 
ATOM     73  C   UNL A   1      34.269  33.685  30.767  1.00  0.00     0.059 A 
ATOM     74  C   UNL A   1      35.891  34.783  29.332  1.00  0.00     0.059 A 
ATOM     75  F   UNL A   1      38.177  34.337  29.607  1.00  0.00    -0.206 F 
ATOM     76  C   UNL A   1      34.571  34.553  29.716  1.00  0.00     0.060 A 
BRANCH  76  77
ATOM     77  S   UNL A   1      33.213  35.393  28.877  1.00  0.00     0.124 S 
ATOM     78  O   UNL A   1      32.623  34.302  28.106  1.00  0.00    -0.237 OA
ATOM     79  O   UNL A   1      32.413  35.883  29.995  1.00  0.00    -0.237 OA
ATOM     80  O   UNL A   1      33.884  36.424  28.090  1.00  0.00    -0.744 OA
ENDBRANCH  76  77
ENDBRANCH  55  69
BRANCH  56  81
ATOM     81  C   UNL A   1      44.285  28.558  35.725  1.00  0.00     0.058 A 
ATOM     82  C   UNL A   1      44.082  27.448  36.556  1.00  0.00     0.135 A 
ATOM     83  C   UNL A   1      45.601  29.019  35.562  1.00  0.00     0.135 A 
ATOM     84  F   UNL A   1      42.843  26.966  36.740  1.00  0.00    -0.206 F 
ATOM     85  C   UNL A   1      45.135  26.841  37.232  1.00  0.00     0.059 A 
ATOM     86  C   UNL A   1      46.676  28.412  36.204  1.00  0.00     0.059 A 
ATOM     87  F   UNL A   1      45.856  30.065  34.758  1.00  0.00    -0.206 F 
ATOM     88  C   UNL A   1      46.429  27.334  37.053  1.00  0.00     0.060 A 
BRANCH  88  89
ATOM     89  S   UNL A   1      47.790  26.538  37.930  1.00  0.00     0.124 S 
ATOM     90  O   UNL A   1      47.281  26.510  39.297  1.00  0.00    -0.237 OA
ATOM     91  O   UNL A   1      47.878  25.247  37.254  1.00  0.00    -0.237 OA
ATOM     92  O   UNL A   1      48.914  27.438  37.693  1.00  0.00    -0.744 OA
ENDBRANCH  88  89
ENDBRANCH  56  81
BRANCH  68  93
ATOM     93  C   UNL A   1      39.863  33.648  37.526  1.00  0.00     0.058 A 
ATOM     94  C   UNL A   1      38.965  33.252  38.528  1.00  0.00     0.135 A 
ATOM     95  C   UNL A   1      40.657  34.783  37.760  1.00  0.00     0.135 A 
ATOM     96  F   UNL A   1      38.181  32.177  38.347  1.00  0.00    -0.206 F 
ATOM     97  C   UNL A   1      38.839  33.970  39.711  1.00  0.00     0.059 A 
ATOM     98  C   UNL A   1      40.571  35.497  38.949  1.00  0.00     0.059 A 
ATOM     99  F   UNL A   1      41.541  35.193  36.837  1.00  0.00    -0.206 F 
ATOM    100  C   UNL A   1      39.649  35.090  39.913  1.00  0.00     0.060 A 
BRANCH 100 101
ATOM    101  S   UNL A   1      39.500  35.994  41.466  1.00  0.00     0.124 S 
ATOM    102  O   UNL A   1      39.972  37.319  41.080  1.00  0.00    -0.237 OA
ATOM    103  O   UNL A   1      38.072  35.887  41.752  1.00  0.00    -0.237 OA
ATOM    104  O   UNL A   1      40.371  35.256  42.375  1.00  0.00    -0.744 OA
ENDBRANCH 100 101
ENDBRANCH  68  93
ENDBRANCH  42  43
ENDBRANCH  35  37
ENDBRANCH  34  35
ENDBRANCH  33  34
ENDBRANCH  32  33
ENDBRANCH  31  32
ENDBRANCH   1  31
TORSDOF 23
ENDMDL
MODEL 2
REMARK VINA RESULT:     -10.4      1.847      8.664
REMARK SMILES COc1cccc(-c2cc(OCC(=O)OCCOCCOC(=O)c3ccc(-c4c5nc(c(-c6c(F)cc(S(=O)(=O)[O-])cc6F)c6ccc([nH]6)c(-c6c(F)cc(S(=O)(=O)[O-])cc6F)c6nc(c(-c7c(F)cc(S(=O)(=O)[O-])cc7F)c7ccc4[nH]7)C=C6)C=C5)cc3)nc(Nc3ccccc3Br)n2)c1
REMARK SMILES IDX 17 1 16 2 15 3 13 4 14 5 12 6 11 7 10 8 8 9 9 10 100 11
REMARK SMILES IDX 91 12 90 13 7 14 3 15 4 16 101 17 5 18 6 19 2 20 1 21 92 22
REMARK SMILES IDX 93 24 94 25 98 26 95 27 97 28 99 29 96 30 18 31 19 32 20 33
REMARK SMILES IDX 21 34 22 35 23 36 24 37 25 38 89 39 26 40 88 41 27 42 28 43
REMARK SMILES IDX 29 44 82 45 30 46 87 47 81 48 83 49 31 50 86 51 80 52 79 53
REMARK SMILES IDX 32 55 66 56 45 57 65 58 46 59 49 60 64 61 84 62 47 63 48 64
REMARK SMILES IDX 63 66 85 67 50 68 33 69 34 70 43 71 35 72 36 73 42 74 44 75
REMARK SMILES IDX 37 76 38 77 39 78 40 79 41 80 67 81 68 82 77 83 69 84 70 85
REMARK SMILES IDX 76 86 78 87 71 88 72 89 73 90 74 91 75 92 51 93 52 94 61 95
REMARK SMILES IDX 53 96 54 97 60 98 62 99 55 100 56 101 57 102 58 103 59 104
REMARK H PARENT 92 23 83 54 49 65
REMARK Flexibility Score: inf
ROOT
ATOM      1  C   UNL A   1      35.850  23.952  25.309  1.00  0.00     0.202 C 
ENDROOT
BRANCH   1   2
ATOM      2  C   UNL A   1      34.443  23.349  25.446  1.00  0.00     0.261 C 
BRANCH   2   3
ATOM      3  O   UNL A   1      33.933  23.354  26.804  1.00  0.00    -0.461 OA
BRANCH   3   4
ATOM      4  C   UNL A   1      32.649  23.791  26.955  1.00  0.00     0.344 C 
ATOM      5  O   UNL A   1      31.813  23.257  27.680  1.00  0.00    -0.248 OA
BRANCH   4   6
ATOM      6  C   UNL A   1      32.308  25.061  26.153  1.00  0.00     0.353 C 
BRANCH   6   7
ATOM      7  O   UNL A   1      31.569  26.124  26.709  1.00  0.00    -0.466 OA
BRANCH   7   8
ATOM      8  C   UNL A   1      31.936  27.433  26.589  1.00  0.00     0.219 A 
ATOM      9  C   UNL A   1      33.395  29.276  26.749  1.00  0.00     0.080 A 
ATOM     10  C   UNL A   1      32.929  28.083  27.296  1.00  0.00     0.097 A 
ATOM     11  N   UNL A   1      32.845  29.815  25.648  1.00  0.00    -0.212 NA
ATOM     12  C   UNL A   1      31.840  29.154  25.057  1.00  0.00     0.231 A 
ATOM     13  N   UNL A   1      31.362  27.987  25.506  1.00  0.00    -0.177 NA
BRANCH   9  14
ATOM     14  C   UNL A   1      34.615  29.967  27.223  1.00  0.00     0.004 A 
ATOM     15  C   UNL A   1      35.749  32.052  27.903  1.00  0.00     0.119 A 
ATOM     16  C   UNL A   1      36.946  31.355  28.002  1.00  0.00     0.046 A 
ATOM     17  C   UNL A   1      34.600  31.333  27.581  1.00  0.00     0.056 A 
ATOM     18  C   UNL A   1      36.979  29.976  27.782  1.00  0.00     0.005 A 
ATOM     19  C   UNL A   1      35.826  29.289  27.381  1.00  0.00     0.010 A 
BRANCH  15  20
ATOM     20  O   UNL A   1      35.825  33.398  28.128  1.00  0.00    -0.497 OA
ATOM     21  C   UNL A   1      34.614  34.156  28.146  1.00  0.00     0.278 C 
ENDBRANCH  15  20
ENDBRANCH   9  14
BRANCH  12  22
ATOM     22  N   UNL A   1      31.251  29.662  23.906  1.00  0.00    -0.323 N 
ATOM     23  H   UNL A   1      31.865  29.903  23.176  1.00  0.00     0.170 HD
BRANCH  22  24
ATOM     24  C   UNL A   1      29.891  29.873  23.658  1.00  0.00     0.055 A 
ATOM     25  C   UNL A   1      29.378  31.163  23.852  1.00  0.00     0.027 A 
ATOM     26  C   UNL A   1      29.004  28.865  23.238  1.00  0.00     0.041 A 
ATOM     27  C   UNL A   1      28.046  31.463  23.552  1.00  0.00     0.002 A 
ATOM     28  C   UNL A   1      27.670  29.164  22.936  1.00  0.00     0.018 A 
ATOM     29  Br  UNL A   1      29.519  27.038  23.143  1.00  0.00    -0.049 Br
ATOM     30  C   UNL A   1      27.198  30.466  23.079  1.00  0.00     0.001 A 
ENDBRANCH  22  24
ENDBRANCH  12  22
ENDBRANCH   7   8
ENDBRANCH   6   7
ENDBRANCH   4   6
ENDBRANCH   3   4
ENDBRANCH   2   3
ENDBRANCH   1   2
BRANCH   1  31
ATOM     31  O   UNL A   1      36.801  23.645  26.325  1.00  0.00    -0.374 OA
BRANCH  31  32
ATOM     32  C   UNL A   1      38.105  23.306  25.897  1.00  0.00     0.202 C 
BRANCH  32  33
ATOM     33  C   UNL A   1      39.301  23.641  26.794  1.00  0.00     0.261 C 
BRANCH  33  34
ATOM     34  O   UNL A   1      39.161  24.770  27.608  1.00  0.00    -0.460 OA
BRANCH  34  35
ATOM     35  C   UNL A   1      40.035  25.748  27.306  1.00  0.00     0.338 C 
ATOM     36  O   UNL A   1      40.648  25.944  26.270  1.00  0.00    -0.246 OA
BRANCH  35  37
ATOM     37  C   UNL A   1      39.975  26.617  28.464  1.00  0.00     0.060 A 
ATOM     38  C   UNL A   1      40.775  27.755  28.443  1.00  0.00     0.016 A 
ATOM     39  C   UNL A   1      39.046  26.355  29.481  1.00  0.00     0.016 A 
ATOM     40  C   UNL A   1      40.677  28.640  29.495  1.00  0.00     0.010 A 
ATOM     41  C   UNL A   1      38.938  27.253  30.524  1.00  0.00     0.010 A 
ATOM     42  C   UNL A   1      39.782  28.371  30.543  1.00  0.00    -0.014 A 
BRANCH  42  43
ATOM     43  C   UNL A   1      39.858  29.198  31.750  1.00  0.00     0.031 A 
ATOM     44  C   UNL A   1      40.963  28.916  32.717  1.00  0.00     0.074 A 
ATOM     45  C   UNL A   1      38.985  30.205  31.906  1.00  0.00     0.049 A 
ATOM     46  N   UNL A   1      41.259  29.531  33.827  1.00  0.00    -0.248 NA
ATOM     47  C   UNL A   1      41.859  27.788  32.394  1.00  0.00     0.031 C 
ATOM     48  C   UNL A   1      37.898  30.533  30.979  1.00  0.00     0.029 A 
ATOM     49  N   UNL A   1      38.883  31.142  32.892  1.00  0.00    -0.354 N 
ATOM     50  C   UNL A   1      42.374  28.873  34.328  1.00  0.00     0.074 A 
ATOM     51  C   UNL A   1      42.676  27.781  33.435  1.00  0.00     0.031 C 
ATOM     52  C   UNL A   1      37.243  31.610  31.442  1.00  0.00     0.029 A 
ATOM     53  C   UNL A   1      37.846  32.021  32.705  1.00  0.00     0.049 A 
ATOM     54  H   UNL A   1      39.494  31.184  33.663  1.00  0.00     0.167 HD
ATOM     55  C   UNL A   1      43.090  29.181  35.432  1.00  0.00     0.037 A 
ATOM     56  C   UNL A   1      37.437  33.036  33.487  1.00  0.00     0.037 A 
ATOM     57  C   UNL A   1      42.757  30.279  36.297  1.00  0.00     0.049 A 
ATOM     58  C   UNL A   1      38.221  33.317  34.741  1.00  0.00     0.074 A 
ATOM     59  C   UNL A   1      43.397  30.695  37.448  1.00  0.00     0.029 A 
ATOM     60  N   UNL A   1      41.683  31.138  36.098  1.00  0.00    -0.354 N 
ATOM     61  N   UNL A   1      39.289  32.706  35.201  1.00  0.00    -0.248 NA
ATOM     62  C   UNL A   1      37.753  34.426  35.579  1.00  0.00     0.031 C 
ATOM     63  C   UNL A   1      42.683  31.778  37.971  1.00  0.00     0.029 A 
ATOM     64  C   UNL A   1      41.631  32.072  37.115  1.00  0.00     0.049 A 
ATOM     65  H   UNL A   1      41.052  31.088  35.344  1.00  0.00     0.167 HD
ATOM     66  C   UNL A   1      39.640  33.375  36.366  1.00  0.00     0.074 A 
ATOM     67  C   UNL A   1      38.676  34.447  36.531  1.00  0.00     0.031 C 
ATOM     68  C   UNL A   1      40.659  33.131  37.229  1.00  0.00     0.037 A 
BRANCH  55  69
ATOM     69  C   UNL A   1      44.276  28.322  35.759  1.00  0.00     0.058 A 
ATOM     70  C   UNL A   1      44.174  27.221  36.626  1.00  0.00     0.135 A 
ATOM     71  C   UNL A   1      45.525  28.579  35.172  1.00  0.00     0.135 A 
ATOM     72  F   UNL A   1      43.011  26.950  37.240  1.00  0.00    -0.206 F 
ATOM     73  C   UNL A   1      45.269  26.410  36.903  1.00  0.00     0.059 A 
ATOM     74  C   UNL A   1      46.628  27.764  35.414  1.00  0.00     0.059 A 
ATOM     75  F   UNL A   1      45.683  29.628  34.351  1.00  0.00    -0.206 F 
ATOM     76  C   UNL A   1      46.490  26.685  36.285  1.00  0.00     0.060 A 
BRANCH  76  77
ATOM     77  S   UNL A   1      47.888  25.594  36.621  1.00  0.00     0.124 S 
ATOM     78  O   UNL A   1      47.761  25.388  38.061  1.00  0.00    -0.237 OA
ATOM     79  O   UNL A   1      47.586  24.436  35.786  1.00  0.00    -0.237 OA
ATOM     80  O   UNL A   1      49.043  26.383  36.202  1.00  0.00    -0.744 OA
ENDBRANCH  76  77
ENDBRANCH  55  69
BRANCH  56  81
ATOM     81  C   UNL A   1      36.244  33.839  33.114  1.00  0.00     0.058 A 
ATOM     82  C   UNL A   1      34.999  33.621  33.721  1.00  0.00     0.135 A 
ATOM     83  C   UNL A   1      36.325  34.840  32.134  1.00  0.00     0.135 A 
ATOM     84  F   UNL A   1      34.871  32.679  34.669  1.00  0.00    -0.206 F 
ATOM     85  C   UNL A   1      33.869  34.339  33.345  1.00  0.00     0.059 A 
ATOM     86  C   UNL A   1      35.216  35.592  31.759  1.00  0.00     0.059 A 
ATOM     87  F   UNL A   1      37.498  35.107  31.536  1.00  0.00    -0.206 F 
ATOM     88  C   UNL A   1      33.987  35.320  32.358  1.00  0.00     0.060 A 
BRANCH  88  89
ATOM     89  S   UNL A   1      32.516  36.249  31.879  1.00  0.00     0.124 S 
ATOM     90  O   UNL A   1      31.454  35.435  32.460  1.00  0.00    -0.237 OA
ATOM     91  O   UNL A   1      32.750  37.543  32.513  1.00  0.00    -0.237 OA
ATOM     92  O   UNL A   1      32.582  36.253  30.421  1.00  0.00    -0.744 OA
ENDBRANCH  88  89
ENDBRANCH  56  81
BRANCH  68  93
ATOM     93  C   UNL A   1      40.802  34.065  38.394  1.00  0.00     0.058 A 
ATOM     94  C   UNL A   1      41.582  35.229  38.314  1.00  0.00     0.135 A 
ATOM     95  C   UNL A   1      40.103  33.818  39.587  1.00  0.00     0.135 A 
ATOM     96  F   UNL A   1      42.273  35.504  37.197  1.00  0.00    -0.206 F 
ATOM     97  C   UNL A   1      41.686  36.104  39.389  1.00  0.00     0.059 A 
ATOM     98  C   UNL A   1      40.166  34.696  40.662  1.00  0.00     0.059 A 
ATOM     99  F   UNL A   1      39.332  32.726  39.706  1.00  0.00    -0.206 F 
ATOM    100  C   UNL A   1      40.972  35.830  40.557  1.00  0.00     0.060 A 
BRANCH 100 101
ATOM    101  S   UNL A   1      41.090  36.991  41.932  1.00  0.00     0.124 S 
ATOM    102  O   UNL A   1      39.706  37.435  42.060  1.00  0.00    -0.237 OA
ATOM    103  O   UNL A   1      41.589  36.145  43.012  1.00  0.00    -0.237 OA
ATOM    104  O   UNL A   1      42.029  37.998  41.448  1.00  0.00    -0.744 OA
ENDBRANCH 100 101
ENDBRANCH  68  93
ENDBRANCH  42  43
ENDBRANCH  35  37
ENDBRANCH  34  35
ENDBRANCH  33  34
ENDBRANCH  32  33
ENDBRANCH  31  32
ENDBRANCH   1  31
TORSDOF 23
ENDMDL
MODEL 3
REMARK VINA RESULT:      -9.7      6.724     12.225
REMARK SMILES COc1cccc(-c2cc(OCC(=O)OCCOCCOC(=O)c3ccc(-c4c5nc(c(-c6c(F)cc(S(=O)(=O)[O-])cc6F)c6ccc([nH]6)c(-c6c(F)cc(S(=O)(=O)[O-])cc6F)c6nc(c(-c7c(F)cc(S(=O)(=O)[O-])cc7F)c7ccc4[nH]7)C=C6)C=C5)cc3)nc(Nc3ccccc3Br)n2)c1
REMARK SMILES IDX 17 1 16 2 15 3 13 4 14 5 12 6 11 7 10 8 8 9 9 10 100 11
REMARK SMILES IDX 91 12 90 13 7 14 3 15 4 16 101 17 5 18 6 19 2 20 1 21 92 22
REMARK SMILES IDX 93 24 94 25 98 26 95 27 97 28 99 29 96 30 18 31 19 32 20 33
REMARK SMILES IDX 21 34 22 35 23 36 24 37 25 38 89 39 26 40 88 41 27 42 28 43
REMARK SMILES IDX 29 44 82 45 30 46 87 47 81 48 83 49 31 50 86 51 80 52 79 53
REMARK SMILES IDX 32 55 66 56 45 57 65 58 46 59 49 60 64 61 84 62 47 63 48 64
REMARK SMILES IDX 63 66 85 67 50 68 33 69 34 70 43 71 35 72 36 73 42 74 44 75
REMARK SMILES IDX 37 76 38 77 39 78 40 79 41 80 67 81 68 82 77 83 69 84 70 85
REMARK SMILES IDX 76 86 78 87 71 88 72 89 73 90 74 91 75 92 51 93 52 94 61 95
REMARK SMILES IDX 53 96 54 97 60 98 62 99 55 100 56 101 57 102 58 103 59 104
REMARK H PARENT 92 23 83 54 49 65
REMARK Flexibility Score: inf
ROOT
ATOM      1  C   UNL A   1      37.767  20.562  24.644  1.00  0.00     0.202 C 
ENDROOT
BRANCH   1   2
ATOM      2  C   UNL A   1      36.342  20.882  25.124  1.00  0.00     0.261 C 
BRANCH   2   3
ATOM      3  O   UNL A   1      36.259  22.053  25.976  1.00  0.00    -0.461 OA
BRANCH   3   4
ATOM      4  C   UNL A   1      36.686  23.224  25.421  1.00  0.00     0.344 C 
ATOM      5  O   UNL A   1      36.365  23.621  24.303  1.00  0.00    -0.248 OA
BRANCH   4   6
ATOM      6  C   UNL A   1      37.607  24.063  26.326  1.00  0.00     0.353 C 
BRANCH   6   7
ATOM      7  O   UNL A   1      39.011  24.009  26.224  1.00  0.00    -0.466 OA
BRANCH   7   8
ATOM      8  C   UNL A   1      39.846  24.775  26.986  1.00  0.00     0.219 A 
ATOM      9  C   UNL A   1      41.671  26.210  27.388  1.00  0.00     0.080 A 
ATOM     10  C   UNL A   1      41.150  25.124  26.689  1.00  0.00     0.097 A 
ATOM     11  N   UNL A   1      40.980  26.824  28.363  1.00  0.00    -0.212 NA
ATOM     12  C   UNL A   1      39.744  26.383  28.635  1.00  0.00     0.231 A 
ATOM     13  N   UNL A   1      39.166  25.367  27.983  1.00  0.00    -0.177 NA
BRANCH   9  14
ATOM     14  C   UNL A   1      42.940  26.879  27.025  1.00  0.00     0.004 A 
ATOM     15  C   UNL A   1      44.783  28.410  27.621  1.00  0.00     0.119 A 
ATOM     16  C   UNL A   1      45.292  28.280  26.336  1.00  0.00     0.046 A 
ATOM     17  C   UNL A   1      43.660  27.658  27.958  1.00  0.00     0.056 A 
ATOM     18  C   UNL A   1      44.683  27.417  25.421  1.00  0.00     0.005 A 
ATOM     19  C   UNL A   1      43.508  26.733  25.758  1.00  0.00     0.010 A 
BRANCH  15  20
ATOM     20  O   UNL A   1      45.446  29.285  28.437  1.00  0.00    -0.497 OA
ATOM     21  C   UNL A   1      45.174  30.681  28.302  1.00  0.00     0.278 C 
ENDBRANCH  15  20
ENDBRANCH   9  14
BRANCH  12  22
ATOM     22  N   UNL A   1      38.984  26.997  29.622  1.00  0.00    -0.323 N 
ATOM     23  H   UNL A   1      38.875  26.493  30.461  1.00  0.00     0.170 HD
BRANCH  22  24
ATOM     24  C   UNL A   1      38.353  28.244  29.570  1.00  0.00     0.055 A 
ATOM     25  C   UNL A   1      38.230  28.868  28.320  1.00  0.00     0.027 A 
ATOM     26  C   UNL A   1      37.846  28.915  30.698  1.00  0.00     0.041 A 
ATOM     27  C   UNL A   1      37.546  30.079  28.184  1.00  0.00     0.002 A 
ATOM     28  C   UNL A   1      37.159  30.127  30.561  1.00  0.00     0.018 A 
ATOM     29  Br  UNL A   1      38.134  28.284  32.467  1.00  0.00    -0.049 Br
ATOM     30  C   UNL A   1      36.997  30.699  29.302  1.00  0.00     0.001 A 
ENDBRANCH  22  24
ENDBRANCH  12  22
ENDBRANCH   7   8
ENDBRANCH   6   7
ENDBRANCH   4   6
ENDBRANCH   3   4
ENDBRANCH   2   3
ENDBRANCH   1   2
BRANCH   1  31
ATOM     31  O   UNL A   1      38.792  20.482  25.631  1.00  0.00    -0.374 OA
BRANCH  31  32
ATOM     32  C   UNL A   1      39.456  19.241  25.762  1.00  0.00     0.202 C 
BRANCH  32  33
ATOM     33  C   UNL A   1      40.940  19.218  26.138  1.00  0.00     0.261 C 
BRANCH  33  34
ATOM     34  O   UNL A   1      41.831  19.649  25.148  1.00  0.00    -0.460 OA
BRANCH  34  35
ATOM     35  C   UNL A   1      43.097  19.248  25.369  1.00  0.00     0.338 C 
ATOM     36  O   UNL A   1      43.593  18.143  25.231  1.00  0.00    -0.246 OA
BRANCH  35  37
ATOM     37  C   UNL A   1      43.787  20.484  25.682  1.00  0.00     0.060 A 
ATOM     38  C   UNL A   1      45.172  20.486  25.550  1.00  0.00     0.016 A 
ATOM     39  C   UNL A   1      43.046  21.637  25.975  1.00  0.00     0.016 A 
ATOM     40  C   UNL A   1      45.845  21.669  25.762  1.00  0.00     0.010 A 
ATOM     41  C   UNL A   1      43.722  22.825  26.169  1.00  0.00     0.010 A 
ATOM     42  C   UNL A   1      45.122  22.825  26.098  1.00  0.00    -0.014 A 
BRANCH  42  43
ATOM     43  C   UNL A   1      45.866  24.007  26.539  1.00  0.00     0.031 A 
ATOM     44  C   UNL A   1      45.689  24.451  27.956  1.00  0.00     0.074 A 
ATOM     45  C   UNL A   1      46.717  24.597  25.686  1.00  0.00     0.049 A 
ATOM     46  N   UNL A   1      46.265  25.436  28.585  1.00  0.00    -0.248 NA
ATOM     47  C   UNL A   1      44.735  23.684  28.780  1.00  0.00     0.031 C 
ATOM     48  C   UNL A   1      46.939  24.189  24.296  1.00  0.00     0.029 A 
ATOM     49  N   UNL A   1      47.559  25.655  25.865  1.00  0.00    -0.354 N 
ATOM     50  C   UNL A   1      45.751  25.403  29.874  1.00  0.00     0.074 A 
ATOM     51  C   UNL A   1      44.780  24.336  29.931  1.00  0.00     0.031 C 
ATOM     52  C   UNL A   1      47.870  24.988  23.751  1.00  0.00     0.029 A 
ATOM     53  C   UNL A   1      48.282  25.976  24.744  1.00  0.00     0.049 A 
ATOM     54  H   UNL A   1      47.640  26.142  26.718  1.00  0.00     0.167 HD
ATOM     55  C   UNL A   1      46.088  26.188  30.921  1.00  0.00     0.037 A 
ATOM     56  C   UNL A   1      49.167  26.970  24.556  1.00  0.00     0.037 A 
ATOM     57  C   UNL A   1      47.062  27.241  30.824  1.00  0.00     0.049 A 
ATOM     58  C   UNL A   1      49.478  27.865  25.725  1.00  0.00     0.074 A 
ATOM     59  C   UNL A   1      47.491  28.111  31.807  1.00  0.00     0.029 A 
ATOM     60  N   UNL A   1      47.761  27.561  29.666  1.00  0.00    -0.354 N 
ATOM     61  N   UNL A   1      49.005  27.817  26.950  1.00  0.00    -0.248 NA
ATOM     62  C   UNL A   1      50.444  28.944  25.494  1.00  0.00     0.031 C 
ATOM     63  C   UNL A   1      48.415  28.989  31.232  1.00  0.00     0.029 A 
ATOM     64  C   UNL A   1      48.604  28.628  29.905  1.00  0.00     0.049 A 
ATOM     65  H   UNL A   1      47.667  27.096  28.803  1.00  0.00     0.167 HD
ATOM     66  C   UNL A   1      49.639  28.839  27.645  1.00  0.00     0.074 A 
ATOM     67  C   UNL A   1      50.539  29.478  26.704  1.00  0.00     0.031 C 
ATOM     68  C   UNL A   1      49.494  29.223  28.938  1.00  0.00     0.037 A 
BRANCH  55  69
ATOM     69  C   UNL A   1      45.398  25.944  32.230  1.00  0.00     0.058 A 
ATOM     70  C   UNL A   1      44.166  26.543  32.538  1.00  0.00     0.135 A 
ATOM     71  C   UNL A   1      45.957  25.071  33.177  1.00  0.00     0.135 A 
ATOM     72  F   UNL A   1      43.603  27.411  31.683  1.00  0.00    -0.206 F 
ATOM     73  C   UNL A   1      43.515  26.290  33.742  1.00  0.00     0.059 A 
ATOM     74  C   UNL A   1      45.310  24.783  34.376  1.00  0.00     0.059 A 
ATOM     75  F   UNL A   1      47.141  24.486  32.942  1.00  0.00    -0.206 F 
ATOM     76  C   UNL A   1      44.092  25.402  34.651  1.00  0.00     0.060 A 
BRANCH  76  77
ATOM     77  S   UNL A   1      43.211  25.051  36.187  1.00  0.00     0.124 S 
ATOM     78  O   UNL A   1      44.253  24.409  36.983  1.00  0.00    -0.237 OA
ATOM     79  O   UNL A   1      42.809  26.384  36.625  1.00  0.00    -0.237 OA
ATOM     80  O   UNL A   1      42.121  24.178  35.762  1.00  0.00    -0.744 OA
ENDBRANCH  76  77
ENDBRANCH  55  69
BRANCH  56  81
ATOM     81  C   UNL A   1      49.804  27.168  23.228  1.00  0.00     0.058 A 
ATOM     82  C   UNL A   1      51.142  26.816  23.001  1.00  0.00     0.135 A 
ATOM     83  C   UNL A   1      49.085  27.724  22.158  1.00  0.00     0.135 A 
ATOM     84  F   UNL A   1      51.870  26.276  23.991  1.00  0.00    -0.206 F 
ATOM     85  C   UNL A   1      51.757  27.041  21.774  1.00  0.00     0.059 A 
ATOM     86  C   UNL A   1      49.668  27.932  20.912  1.00  0.00     0.059 A 
ATOM     87  F   UNL A   1      47.793  28.057  22.313  1.00  0.00    -0.206 F 
ATOM     88  C   UNL A   1      51.012  27.605  20.736  1.00  0.00     0.060 A 
BRANCH  88  89
ATOM     89  S   UNL A   1      51.816  27.889  19.146  1.00  0.00     0.124 S 
ATOM     90  O   UNL A   1      53.016  27.070  19.275  1.00  0.00    -0.237 OA
ATOM     91  O   UNL A   1      50.812  27.407  18.203  1.00  0.00    -0.237 OA
ATOM     92  O   UNL A   1      52.035  29.332  19.134  1.00  0.00    -0.744 OA
ENDBRANCH  88  89
ENDBRANCH  56  81
BRANCH  68  93
ATOM     93  C   UNL A   1      50.358  30.355  29.412  1.00  0.00     0.058 A 
ATOM     94  C   UNL A   1      49.949  31.692  29.296  1.00  0.00     0.135 A 
ATOM     95  C   UNL A   1      51.586  30.091  30.041  1.00  0.00     0.135 A 
ATOM     96  F   UNL A   1      48.786  31.994  28.698  1.00  0.00    -0.206 F 
ATOM     97  C   UNL A   1      50.742  32.733  29.764  1.00  0.00     0.059 A 
ATOM     98  C   UNL A   1      52.380  31.114  30.545  1.00  0.00     0.059 A 
ATOM     99  F   UNL A   1      52.013  28.826  30.188  1.00  0.00    -0.206 F 
ATOM    100  C   UNL A   1      51.954  32.432  30.390  1.00  0.00     0.060 A 
BRANCH 100 101
ATOM    101  S   UNL A   1      52.958  33.791  31.023  1.00  0.00     0.124 S 
ATOM    102  O   UNL A   1      54.298  33.217  30.964  1.00  0.00    -0.237 OA
ATOM    103  O   UNL A   1      52.679  34.856  30.063  1.00  0.00    -0.237 OA
ATOM    104  O   UNL A   1      52.427  34.011  32.364  1.00  0.00    -0.744 OA
ENDBRANCH 100 101
ENDBRANCH  68  93
ENDBRANCH  42  43
ENDBRANCH  35  37
ENDBRANCH  34  35
ENDBRANCH  33  34
ENDBRANCH  32  33
ENDBRANCH  31  32
ENDBRANCH   1  31
TORSDOF 23
ENDMDL
