MODEL 1
REMARK VINA RESULT:     -12.3      0.000      0.000
REMARK SMILES Cc1ccc(C)c(N2C(=O)S[C@H](CC(=O)Nc3ccc(C(=O)OCCOCCOC(=O)c4ccc(-c5c6nc(c(-c7c(F)cc(S(=O)(=O)[O-])cc7F)c7ccc([nH]7)c(-c7c(F)cc(S(=O)(=O)[O-])cc7F)c7nc(c(-c8c(F)cc(S(=O)(=O)[O-])cc8F)c8ccc5[nH]8)C=C7)C=C6)cc4)c(O)c3)C2=O)c1
REMARK SMILES IDX 25 1 24 2 23 3 21 4 22 5 20 6 17 7 18 8 100 9 19 10 98 11
REMARK SMILES IDX 16 12 14 13 15 14 13 16 12 17 8 18 9 19 101 20 10 21 11 22
REMARK SMILES IDX 102 23 7 24 1 25 2 26 3 27 103 28 4 29 5 30 6 31 99 32 26 34
REMARK SMILES IDX 27 35 28 36 29 37 30 38 31 39 32 40 33 41 97 42 34 43 96 44
REMARK SMILES IDX 35 45 36 46 37 47 90 48 38 49 95 50 89 51 91 52 39 53 94 54
REMARK SMILES IDX 88 55 87 56 40 58 74 59 53 60 73 61 54 62 57 63 72 64 92 65
REMARK SMILES IDX 55 66 56 67 71 69 93 70 58 71 41 72 42 73 51 74 43 75 44 76
REMARK SMILES IDX 50 77 52 78 45 79 46 80 47 81 48 82 49 83 75 84 76 85 85 86
REMARK SMILES IDX 77 87 78 88 84 89 86 90 79 91 80 92 81 93 82 94 83 95 59 96
REMARK SMILES IDX 60 97 69 98 61 99 62 100 68 101 70 102 63 103 64 104 65 105
REMARK SMILES IDX 66 106 67 107
REMARK H PARENT 16 15 99 33 91 57 57 68
REMARK Flexibility Score: inf
ROOT
ATOM      1  C   UNL A   1      40.563  19.988  26.701  1.00  0.00     0.202 C 
ENDROOT
BRANCH   1   2
ATOM      2  C   UNL A   1      40.178  21.329  26.063  1.00  0.00     0.261 C 
BRANCH   2   3
ATOM      3  O   UNL A   1      38.785  21.237  25.690  1.00  0.00    -0.460 OA
BRANCH   3   4
ATOM      4  C   UNL A   1      38.171  22.431  25.859  1.00  0.00     0.341 C 
ATOM      5  O   UNL A   1      38.674  23.389  26.425  1.00  0.00    -0.246 OA
BRANCH   4   6
ATOM      6  C   UNL A   1      36.886  22.501  25.137  1.00  0.00     0.101 A 
ATOM      7  C   UNL A   1      34.394  22.988  23.916  1.00  0.00     0.044 A 
ATOM      8  C   UNL A   1      35.370  23.963  23.995  1.00  0.00     0.027 A 
ATOM      9  C   UNL A   1      34.650  21.753  24.515  1.00  0.00     0.073 A 
ATOM     10  C   UNL A   1      36.633  23.701  24.488  1.00  0.00     0.022 A 
ATOM     11  C   UNL A   1      35.896  21.515  25.132  1.00  0.00     0.132 A 
BRANCH   7  12
ATOM     12  N   UNL A   1      33.165  23.296  23.302  1.00  0.00    -0.326 N 
ATOM     13  C   UNL A   1      32.067  23.934  23.856  1.00  0.00     0.226 C 
ATOM     14  O   UNL A   1      30.970  23.831  23.306  1.00  0.00    -0.275 OA
ATOM     15  H   UNL A   1      33.074  23.023  22.361  1.00  0.00     0.169 HD
BRANCH  13  16
ATOM     16  C   UNL A   1      32.275  24.955  24.983  1.00  0.00     0.125 C 
BRANCH  16  17
ATOM     17  C   UNL A   1      32.576  26.406  24.586  1.00  0.00     0.156 C 
ATOM     18  N   UNL A   1      30.726  27.407  23.409  1.00  0.00    -0.240 N 
ATOM     19  C   UNL A   1      31.446  26.962  22.338  1.00  0.00     0.293 C 
ATOM     20  C   UNL A   1      31.281  27.219  24.667  1.00  0.00     0.248 C 
ATOM     21  O   UNL A   1      31.067  26.802  21.191  1.00  0.00    -0.261 OA
ATOM     22  S   UNL A   1      33.068  26.649  22.858  1.00  0.00    -0.050 SA
ATOM     23  O   UNL A   1      30.783  27.579  25.730  1.00  0.00    -0.273 OA
BRANCH  18  24
ATOM     24  C   UNL A   1      29.634  28.263  23.160  1.00  0.00     0.056 A 
ATOM     25  C   UNL A   1      29.022  31.993  22.617  1.00  0.00     0.044 C 
ATOM     26  C   UNL A   1      28.798  30.529  22.848  1.00  0.00    -0.049 A 
ATOM     27  C   UNL A   1      27.495  30.055  23.035  1.00  0.00     0.004 A 
ATOM     28  C   UNL A   1      29.867  29.622  22.897  1.00  0.00     0.030 A 
ATOM     29  C   UNL A   1      27.262  28.708  23.311  1.00  0.00     0.006 A 
ATOM     30  C   UNL A   1      28.325  27.801  23.405  1.00  0.00    -0.027 A 
ATOM     31  C   UNL A   1      28.004  26.388  23.817  1.00  0.00     0.046 C 
ENDBRANCH  18  24
ENDBRANCH  16  17
ENDBRANCH  13  16
ENDBRANCH   7  12
BRANCH  11  32
ATOM     32  O   UNL A   1      36.080  20.291  25.714  1.00  0.00    -0.507 OA
ATOM     33  H   UNL A   1      36.711  20.187  26.398  1.00  0.00     0.293 HD
ENDBRANCH  11  32
ENDBRANCH   4   6
ENDBRANCH   3   4
ENDBRANCH   2   3
ENDBRANCH   1   2
BRANCH   1  34
ATOM     34  O   UNL A   1      41.260  19.199  25.740  1.00  0.00    -0.374 OA
BRANCH  34  35
ATOM     35  C   UNL A   1      42.482  18.607  26.152  1.00  0.00     0.202 C 
BRANCH  35  36
ATOM     36  C   UNL A   1      43.711  19.127  25.395  1.00  0.00     0.261 C 
BRANCH  36  37
ATOM     37  O   UNL A   1      43.584  20.488  24.930  1.00  0.00    -0.460 OA
BRANCH  37  38
ATOM     38  C   UNL A   1      44.761  21.160  24.784  1.00  0.00     0.338 C 
ATOM     39  O   UNL A   1      45.776  20.674  24.316  1.00  0.00    -0.246 OA
BRANCH  38  40
ATOM     40  C   UNL A   1      44.643  22.500  25.418  1.00  0.00     0.060 A 
ATOM     41  C   UNL A   1      45.354  22.775  26.594  1.00  0.00     0.016 A 
ATOM     42  C   UNL A   1      43.636  23.369  24.989  1.00  0.00     0.016 A 
ATOM     43  C   UNL A   1      44.965  23.856  27.396  1.00  0.00     0.010 A 
ATOM     44  C   UNL A   1      43.202  24.380  25.832  1.00  0.00     0.010 A 
ATOM     45  C   UNL A   1      43.843  24.627  27.053  1.00  0.00    -0.014 A 
BRANCH  45  46
ATOM     46  C   UNL A   1      43.598  25.957  27.652  1.00  0.00     0.031 A 
ATOM     47  C   UNL A   1      44.748  26.826  27.365  1.00  0.00     0.074 A 
ATOM     48  C   UNL A   1      42.519  26.462  28.301  1.00  0.00     0.049 A 
ATOM     49  N   UNL A   1      45.622  27.168  28.255  1.00  0.00    -0.248 NA
ATOM     50  C   UNL A   1      45.128  27.157  25.983  1.00  0.00     0.031 C 
ATOM     51  C   UNL A   1      41.400  25.719  28.833  1.00  0.00     0.029 A 
ATOM     52  N   UNL A   1      42.139  27.758  28.598  1.00  0.00    -0.354 N 
ATOM     53  C   UNL A   1      46.444  28.050  27.593  1.00  0.00     0.074 A 
ATOM     54  C   UNL A   1      46.285  27.791  26.183  1.00  0.00     0.031 C 
ATOM     55  C   UNL A   1      40.352  26.516  29.116  1.00  0.00     0.029 A 
ATOM     56  C   UNL A   1      40.786  27.885  28.960  1.00  0.00     0.049 A 
ATOM     57  H   UNL A   1      42.760  28.521  28.561  1.00  0.00     0.167 HD
ATOM     58  C   UNL A   1      46.812  29.192  28.224  1.00  0.00     0.037 A 
ATOM     59  C   UNL A   1      40.072  28.971  29.361  1.00  0.00     0.037 A 
ATOM     60  C   UNL A   1      46.611  29.121  29.650  1.00  0.00     0.049 A 
ATOM     61  C   UNL A   1      41.029  29.789  30.128  1.00  0.00     0.074 A 
ATOM     62  C   UNL A   1      47.209  28.467  30.707  1.00  0.00     0.029 A 
ATOM     63  N   UNL A   1      45.370  29.516  30.078  1.00  0.00    -0.354 N 
ATOM     64  N   UNL A   1      41.460  29.446  31.311  1.00  0.00    -0.248 NA
ATOM     65  C   UNL A   1      41.781  30.848  29.461  1.00  0.00     0.031 C 
ATOM     66  C   UNL A   1      46.257  28.434  31.769  1.00  0.00     0.029 A 
ATOM     67  C   UNL A   1      45.100  29.079  31.351  1.00  0.00     0.049 A 
ATOM     68  H   UNL A   1      44.746  30.051  29.536  1.00  0.00     0.167 HD
ATOM     69  C   UNL A   1      42.769  29.876  31.305  1.00  0.00     0.074 A 
ATOM     70  C   UNL A   1      42.845  30.891  30.264  1.00  0.00     0.031 C 
ATOM     71  C   UNL A   1      43.752  29.131  31.879  1.00  0.00     0.037 A 
BRANCH  58  72
ATOM     72  C   UNL A   1      46.867  30.497  27.491  1.00  0.00     0.058 A 
ATOM     73  C   UNL A   1      48.074  31.202  27.416  1.00  0.00     0.135 A 
ATOM     74  C   UNL A   1      45.710  31.186  27.054  1.00  0.00     0.135 A 
ATOM     75  F   UNL A   1      49.209  30.654  27.876  1.00  0.00    -0.206 F 
ATOM     76  C   UNL A   1      48.131  32.503  26.920  1.00  0.00     0.059 A 
ATOM     77  C   UNL A   1      45.754  32.447  26.486  1.00  0.00     0.059 A 
ATOM     78  F   UNL A   1      44.476  30.701  27.249  1.00  0.00    -0.206 F 
ATOM     79  C   UNL A   1      46.967  33.112  26.450  1.00  0.00     0.060 A 
BRANCH  79  80
ATOM     80  S   UNL A   1      47.027  34.799  25.835  1.00  0.00     0.124 S 
ATOM     81  O   UNL A   1      45.728  34.913  25.180  1.00  0.00    -0.237 OA
ATOM     82  O   UNL A   1      47.197  35.568  27.064  1.00  0.00    -0.237 OA
ATOM     83  O   UNL A   1      48.186  34.789  24.946  1.00  0.00    -0.744 OA
ENDBRANCH  79  80
ENDBRANCH  58  72
BRANCH  59  84
ATOM     84  C   UNL A   1      38.635  29.352  29.201  1.00  0.00     0.058 A 
ATOM     85  C   UNL A   1      37.829  29.536  30.341  1.00  0.00     0.135 A 
ATOM     86  C   UNL A   1      38.102  29.861  28.008  1.00  0.00     0.135 A 
ATOM     87  F   UNL A   1      38.172  28.989  31.515  1.00  0.00    -0.206 F 
ATOM     88  C   UNL A   1      36.696  30.355  30.339  1.00  0.00     0.059 A 
ATOM     89  C   UNL A   1      36.999  30.724  27.982  1.00  0.00     0.059 A 
ATOM     90  F   UNL A   1      38.651  29.544  26.829  1.00  0.00    -0.206 F 
ATOM     91  C   UNL A   1      36.334  31.011  29.168  1.00  0.00     0.060 A 
BRANCH  91  92
ATOM     92  S   UNL A   1      35.112  32.343  29.219  1.00  0.00     0.124 S 
ATOM     93  O   UNL A   1      35.937  33.524  29.001  1.00  0.00    -0.237 OA
ATOM     94  O   UNL A   1      34.204  31.997  28.128  1.00  0.00    -0.237 OA
ATOM     95  O   UNL A   1      34.539  32.205  30.557  1.00  0.00    -0.744 OA
ENDBRANCH  91  92
ENDBRANCH  59  84
BRANCH  71  96
ATOM     96  C   UNL A   1      43.372  28.260  33.040  1.00  0.00     0.058 A 
ATOM     97  C   UNL A   1      43.363  26.855  33.035  1.00  0.00     0.135 A 
ATOM     98  C   UNL A   1      43.031  28.899  34.240  1.00  0.00     0.135 A 
ATOM     99  F   UNL A   1      43.725  26.166  31.945  1.00  0.00    -0.206 F 
ATOM    100  C   UNL A   1      43.010  26.123  34.173  1.00  0.00     0.059 A 
ATOM    101  C   UNL A   1      42.698  28.192  35.391  1.00  0.00     0.059 A 
ATOM    102  F   UNL A   1      43.044  30.242  34.314  1.00  0.00    -0.206 F 
ATOM    103  C   UNL A   1      42.681  26.800  35.348  1.00  0.00     0.060 A 
BRANCH 103 104
ATOM    104  S   UNL A   1      42.297  25.857  36.840  1.00  0.00     0.124 S 
ATOM    105  O   UNL A   1      42.993  26.614  37.874  1.00  0.00    -0.237 OA
ATOM    106  O   UNL A   1      40.839  25.912  36.887  1.00  0.00    -0.237 OA
ATOM    107  O   UNL A   1      42.850  24.533  36.559  1.00  0.00    -0.744 OA
ENDBRANCH 103 104
ENDBRANCH  71  96
ENDBRANCH  45  46
ENDBRANCH  38  40
ENDBRANCH  37  38
ENDBRANCH  36  37
ENDBRANCH  35  36
ENDBRANCH  34  35
ENDBRANCH   1  34
TORSDOF 22
ENDMDL
MODEL 2
REMARK VINA RESULT:     -12.1      2.993      4.098
REMARK SMILES Cc1ccc(C)c(N2C(=O)S[C@H](CC(=O)Nc3ccc(C(=O)OCCOCCOC(=O)c4ccc(-c5c6nc(c(-c7c(F)cc(S(=O)(=O)[O-])cc7F)c7ccc([nH]7)c(-c7c(F)cc(S(=O)(=O)[O-])cc7F)c7nc(c(-c8c(F)cc(S(=O)(=O)[O-])cc8F)c8ccc5[nH]8)C=C7)C=C6)cc4)c(O)c3)C2=O)c1
REMARK SMILES IDX 25 1 24 2 23 3 21 4 22 5 20 6 17 7 18 8 100 9 19 10 98 11
REMARK SMILES IDX 16 12 14 13 15 14 13 16 12 17 8 18 9 19 101 20 10 21 11 22
REMARK SMILES IDX 102 23 7 24 1 25 2 26 3 27 103 28 4 29 5 30 6 31 99 32 26 34
REMARK SMILES IDX 27 35 28 36 29 37 30 38 31 39 32 40 33 41 97 42 34 43 96 44
REMARK SMILES IDX 35 45 36 46 37 47 90 48 38 49 95 50 89 51 91 52 39 53 94 54
REMARK SMILES IDX 88 55 87 56 40 58 74 59 53 60 73 61 54 62 57 63 72 64 92 65
REMARK SMILES IDX 55 66 56 67 71 69 93 70 58 71 41 72 42 73 51 74 43 75 44 76
REMARK SMILES IDX 50 77 52 78 45 79 46 80 47 81 48 82 49 83 75 84 76 85 85 86
REMARK SMILES IDX 77 87 78 88 84 89 86 90 79 91 80 92 81 93 82 94 83 95 59 96
REMARK SMILES IDX 60 97 69 98 61 99 62 100 68 101 70 102 63 103 64 104 65 105
REMARK SMILES IDX 66 106 67 107
REMARK H PARENT 16 15 99 33 91 57 57 68
REMARK Flexibility Score: inf
ROOT
ATOM      1  C   UNL A   1      42.712  18.578  27.244  1.00  0.00     0.202 C 
ENDROOT
BRANCH   1   2
ATOM      2  C   UNL A   1      41.659  19.541  27.810  1.00  0.00     0.261 C 
BRANCH   2   3
ATOM      3  O   UNL A   1      41.459  20.578  26.825  1.00  0.00    -0.460 OA
BRANCH   3   4
ATOM      4  C   UNL A   1      40.792  21.623  27.368  1.00  0.00     0.341 C 
ATOM      5  O   UNL A   1      41.137  22.206  28.383  1.00  0.00    -0.246 OA
BRANCH   4   6
ATOM      6  C   UNL A   1      39.689  22.085  26.504  1.00  0.00     0.101 A 
ATOM      7  C   UNL A   1      37.449  23.155  25.170  1.00  0.00     0.044 A 
ATOM      8  C   UNL A   1      38.196  23.905  26.059  1.00  0.00     0.027 A 
ATOM      9  C   UNL A   1      37.800  21.815  24.987  1.00  0.00     0.073 A 
ATOM     10  C   UNL A   1      39.359  23.428  26.629  1.00  0.00     0.022 A 
ATOM     11  C   UNL A   1      38.917  21.281  25.662  1.00  0.00     0.132 A 
BRANCH   7  12
ATOM     12  N   UNL A   1      36.335  23.743  24.542  1.00  0.00    -0.326 N 
ATOM     13  C   UNL A   1      35.034  23.827  25.010  1.00  0.00     0.226 C 
ATOM     14  O   UNL A   1      34.123  24.067  24.217  1.00  0.00    -0.275 OA
ATOM     15  H   UNL A   1      36.501  24.144  23.659  1.00  0.00     0.169 HD
BRANCH  13  16
ATOM     16  C   UNL A   1      34.776  23.877  26.522  1.00  0.00     0.125 C 
BRANCH  16  17
ATOM     17  C   UNL A   1      34.221  22.615  27.194  1.00  0.00     0.156 C 
ATOM     18  N   UNL A   1      32.956  21.267  25.647  1.00  0.00    -0.240 N 
ATOM     19  C   UNL A   1      31.935  22.001  26.176  1.00  0.00     0.293 C 
ATOM     20  C   UNL A   1      34.223  21.471  26.176  1.00  0.00     0.248 C 
ATOM     21  O   UNL A   1      30.815  22.167  25.724  1.00  0.00    -0.261 OA
ATOM     22  S   UNL A   1      32.472  22.696  27.669  1.00  0.00    -0.050 SA
ATOM     23  O   UNL A   1      35.244  20.880  25.837  1.00  0.00    -0.273 OA
BRANCH  18  24
ATOM     24  C   UNL A   1      32.625  20.173  24.823  1.00  0.00     0.056 A 
ATOM     25  C   UNL A   1      32.712  16.359  25.003  1.00  0.00     0.044 C 
ATOM     26  C   UNL A   1      32.580  17.761  24.488  1.00  0.00    -0.049 A 
ATOM     27  C   UNL A   1      32.342  17.972  23.125  1.00  0.00     0.004 A 
ATOM     28  C   UNL A   1      32.707  18.869  25.338  1.00  0.00     0.030 A 
ATOM     29  C   UNL A   1      32.274  19.265  22.609  1.00  0.00     0.006 A 
ATOM     30  C   UNL A   1      32.442  20.380  23.440  1.00  0.00    -0.027 A 
ATOM     31  C   UNL A   1      32.468  21.739  22.791  1.00  0.00     0.046 C 
ENDBRANCH  18  24
ENDBRANCH  16  17
ENDBRANCH  13  16
ENDBRANCH   7  12
BRANCH  11  32
ATOM     32  O   UNL A   1      39.198  19.959  25.452  1.00  0.00    -0.507 OA
ATOM     33  H   UNL A   1      38.502  19.335  25.398  1.00  0.00     0.293 HD
ENDBRANCH  11  32
ENDBRANCH   4   6
ENDBRANCH   3   4
ENDBRANCH   2   3
ENDBRANCH   1   2
BRANCH   1  34
ATOM     34  O   UNL A   1      42.426  18.334  25.869  1.00  0.00    -0.374 OA
BRANCH  34  35
ATOM     35  C   UNL A   1      43.431  18.679  24.929  1.00  0.00     0.202 C 
BRANCH  35  36
ATOM     36  C   UNL A   1      44.841  18.765  25.528  1.00  0.00     0.261 C 
BRANCH  36  37
ATOM     37  O   UNL A   1      45.550  19.978  25.193  1.00  0.00    -0.460 OA
BRANCH  37  38
ATOM     38  C   UNL A   1      44.868  20.840  24.387  1.00  0.00     0.338 C 
ATOM     39  O   UNL A   1      44.696  20.673  23.192  1.00  0.00    -0.246 OA
BRANCH  38  40
ATOM     40  C   UNL A   1      44.514  22.060  25.161  1.00  0.00     0.060 A 
ATOM     41  C   UNL A   1      43.507  22.912  24.688  1.00  0.00     0.016 A 
ATOM     42  C   UNL A   1      45.357  22.478  26.194  1.00  0.00     0.016 A 
ATOM     43  C   UNL A   1      43.432  24.225  25.173  1.00  0.00     0.010 A 
ATOM     44  C   UNL A   1      45.332  23.802  26.602  1.00  0.00     0.010 A 
ATOM     45  C   UNL A   1      44.387  24.699  26.087  1.00  0.00    -0.014 A 
BRANCH  45  46
ATOM     46  C   UNL A   1      44.164  25.927  26.881  1.00  0.00     0.031 A 
ATOM     47  C   UNL A   1      45.281  26.853  26.645  1.00  0.00     0.074 A 
ATOM     48  C   UNL A   1      43.125  26.312  27.662  1.00  0.00     0.049 A 
ATOM     49  N   UNL A   1      46.208  27.088  27.515  1.00  0.00    -0.248 NA
ATOM     50  C   UNL A   1      45.562  27.382  25.301  1.00  0.00     0.031 C 
ATOM     51  C   UNL A   1      42.054  25.477  28.156  1.00  0.00     0.029 A 
ATOM     52  N   UNL A   1      42.748  27.545  28.162  1.00  0.00    -0.354 N 
ATOM     53  C   UNL A   1      46.971  28.072  26.932  1.00  0.00     0.074 A 
ATOM     54  C   UNL A   1      46.721  28.008  25.513  1.00  0.00     0.031 C 
ATOM     55  C   UNL A   1      41.017  26.203  28.615  1.00  0.00     0.029 A 
ATOM     56  C   UNL A   1      41.420  27.590  28.625  1.00  0.00     0.049 A 
ATOM     57  H   UNL A   1      43.354  28.320  28.192  1.00  0.00     0.167 HD
ATOM     58  C   UNL A   1      47.365  29.123  27.692  1.00  0.00     0.037 A 
ATOM     59  C   UNL A   1      40.720  28.593  29.220  1.00  0.00     0.037 A 
ATOM     60  C   UNL A   1      47.261  28.850  29.104  1.00  0.00     0.049 A 
ATOM     61  C   UNL A   1      41.715  29.318  30.030  1.00  0.00     0.074 A 
ATOM     62  C   UNL A   1      47.937  28.070  30.018  1.00  0.00     0.029 A 
ATOM     63  N   UNL A   1      46.046  29.154  29.662  1.00  0.00    -0.354 N 
ATOM     64  N   UNL A   1      42.230  28.824  31.123  1.00  0.00    -0.248 NA
ATOM     65  C   UNL A   1      42.407  30.476  29.471  1.00  0.00     0.031 C 
ATOM     66  C   UNL A   1      47.060  27.868  31.124  1.00  0.00     0.029 A 
ATOM     67  C   UNL A   1      45.869  28.538  30.876  1.00  0.00     0.049 A 
ATOM     68  H   UNL A   1      45.380  29.744  29.242  1.00  0.00     0.167 HD
ATOM     69  C   UNL A   1      43.529  29.280  31.092  1.00  0.00     0.074 A 
ATOM     70  C   UNL A   1      43.522  30.432  30.202  1.00  0.00     0.031 C 
ATOM     71  C   UNL A   1      44.559  28.485  31.492  1.00  0.00     0.037 A 
BRANCH  58  72
ATOM     72  C   UNL A   1      47.353  30.519  27.147  1.00  0.00     0.058 A 
ATOM     73  C   UNL A   1      48.532  31.272  27.139  1.00  0.00     0.135 A 
ATOM     74  C   UNL A   1      46.160  31.217  26.840  1.00  0.00     0.135 A 
ATOM     75  F   UNL A   1      49.699  30.709  27.487  1.00  0.00    -0.206 F 
ATOM     76  C   UNL A   1      48.530  32.630  26.828  1.00  0.00     0.059 A 
ATOM     77  C   UNL A   1      46.144  32.546  26.453  1.00  0.00     0.059 A 
ATOM     78  F   UNL A   1      44.950  30.664  26.999  1.00  0.00    -0.206 F 
ATOM     79  C   UNL A   1      47.332  33.254  26.478  1.00  0.00     0.060 A 
BRANCH  79  80
ATOM     80  S   UNL A   1      47.315  35.012  26.103  1.00  0.00     0.124 S 
ATOM     81  O   UNL A   1      46.018  35.155  25.453  1.00  0.00    -0.237 OA
ATOM     82  O   UNL A   1      47.439  35.610  27.429  1.00  0.00    -0.237 OA
ATOM     83  O   UNL A   1      48.480  35.179  25.239  1.00  0.00    -0.744 OA
ENDBRANCH  79  80
ENDBRANCH  58  72
BRANCH  59  84
ATOM     84  C   UNL A   1      39.270  28.960  29.207  1.00  0.00     0.058 A 
ATOM     85  C   UNL A   1      38.538  28.957  30.410  1.00  0.00     0.135 A 
ATOM     86  C   UNL A   1      38.654  29.625  28.138  1.00  0.00     0.135 A 
ATOM     87  F   UNL A   1      38.966  28.252  31.468  1.00  0.00    -0.206 F 
ATOM     88  C   UNL A   1      37.396  29.741  30.600  1.00  0.00     0.059 A 
ATOM     89  C   UNL A   1      37.539  30.456  28.308  1.00  0.00     0.059 A 
ATOM     90  F   UNL A   1      39.129  29.496  26.894  1.00  0.00    -0.206 F 
ATOM     91  C   UNL A   1      36.950  30.551  29.563  1.00  0.00     0.060 A 
BRANCH  91  92
ATOM     92  S   UNL A   1      35.715  31.833  29.886  1.00  0.00     0.124 S 
ATOM     93  O   UNL A   1      35.327  31.546  31.261  1.00  0.00    -0.237 OA
ATOM     94  O   UNL A   1      36.467  33.070  29.686  1.00  0.00    -0.237 OA
ATOM     95  O   UNL A   1      34.699  31.565  28.869  1.00  0.00    -0.744 OA
ENDBRANCH  91  92
ENDBRANCH  59  84
BRANCH  71  96
ATOM     96  C   UNL A   1      44.270  27.453  32.541  1.00  0.00     0.058 A 
ATOM     97  C   UNL A   1      44.058  27.715  33.905  1.00  0.00     0.135 A 
ATOM     98  C   UNL A   1      44.167  26.118  32.122  1.00  0.00     0.135 A 
ATOM     99  F   UNL A   1      44.087  28.968  34.380  1.00  0.00    -0.206 F 
ATOM    100  C   UNL A   1      43.776  26.689  34.812  1.00  0.00     0.059 A 
ATOM    101  C   UNL A   1      43.866  25.084  33.001  1.00  0.00     0.059 A 
ATOM    102  F   UNL A   1      44.337  25.808  30.825  1.00  0.00    -0.206 F 
ATOM    103  C   UNL A   1      43.680  25.376  34.350  1.00  0.00     0.060 A 
BRANCH 103 104
ATOM    104  S   UNL A   1      43.242  24.057  35.505  1.00  0.00     0.124 S 
ATOM    105  O   UNL A   1      41.844  24.353  35.798  1.00  0.00    -0.237 OA
ATOM    106  O   UNL A   1      43.484  22.850  34.720  1.00  0.00    -0.237 OA
ATOM    107  O   UNL A   1      44.168  24.258  36.618  1.00  0.00    -0.744 OA
ENDBRANCH 103 104
ENDBRANCH  71  96
ENDBRANCH  45  46
ENDBRANCH  38  40
ENDBRANCH  37  38
ENDBRANCH  36  37
ENDBRANCH  35  36
ENDBRANCH  34  35
ENDBRANCH   1  34
TORSDOF 22
ENDMDL
MODEL 3
REMARK VINA RESULT:     -11.6      2.705      9.765
REMARK SMILES Cc1ccc(C)c(N2C(=O)S[C@H](CC(=O)Nc3ccc(C(=O)OCCOCCOC(=O)c4ccc(-c5c6nc(c(-c7c(F)cc(S(=O)(=O)[O-])cc7F)c7ccc([nH]7)c(-c7c(F)cc(S(=O)(=O)[O-])cc7F)c7nc(c(-c8c(F)cc(S(=O)(=O)[O-])cc8F)c8ccc5[nH]8)C=C7)C=C6)cc4)c(O)c3)C2=O)c1
REMARK SMILES IDX 25 1 24 2 23 3 21 4 22 5 20 6 17 7 18 8 100 9 19 10 98 11
REMARK SMILES IDX 16 12 14 13 15 14 13 16 12 17 8 18 9 19 101 20 10 21 11 22
REMARK SMILES IDX 102 23 7 24 1 25 2 26 3 27 103 28 4 29 5 30 6 31 99 32 26 34
REMARK SMILES IDX 27 35 28 36 29 37 30 38 31 39 32 40 33 41 97 42 34 43 96 44
REMARK SMILES IDX 35 45 36 46 37 47 90 48 38 49 95 50 89 51 91 52 39 53 94 54
REMARK SMILES IDX 88 55 87 56 40 58 74 59 53 60 73 61 54 62 57 63 72 64 92 65
REMARK SMILES IDX 55 66 56 67 71 69 93 70 58 71 41 72 42 73 51 74 43 75 44 76
REMARK SMILES IDX 50 77 52 78 45 79 46 80 47 81 48 82 49 83 75 84 76 85 85 86
REMARK SMILES IDX 77 87 78 88 84 89 86 90 79 91 80 92 81 93 82 94 83 95 59 96
REMARK SMILES IDX 60 97 69 98 61 99 62 100 68 101 70 102 63 103 64 104 65 105
REMARK SMILES IDX 66 106 67 107
REMARK H PARENT 16 15 99 33 91 57 57 68
REMARK Flexibility Score: inf
ROOT
ATOM      1  C   UNL A   1      36.354  33.109  29.439  1.00  0.00     0.202 C 
ENDROOT
BRANCH   1   2
ATOM      2  C   UNL A   1      36.765  31.676  29.074  1.00  0.00     0.261 C 
BRANCH   2   3
ATOM      3  O   UNL A   1      35.553  30.892  29.005  1.00  0.00    -0.460 OA
BRANCH   3   4
ATOM      4  C   UNL A   1      35.619  30.012  27.979  1.00  0.00     0.341 C 
ATOM      5  O   UNL A   1      36.572  29.281  27.760  1.00  0.00    -0.246 OA
BRANCH   4   6
ATOM      6  C   UNL A   1      34.340  29.916  27.249  1.00  0.00     0.101 A 
ATOM      7  C   UNL A   1      32.114  29.627  25.546  1.00  0.00     0.044 A 
ATOM      8  C   UNL A   1      33.158  28.723  25.541  1.00  0.00     0.027 A 
ATOM      9  C   UNL A   1      32.213  30.738  26.388  1.00  0.00     0.073 A 
ATOM     10  C   UNL A   1      34.196  28.791  26.448  1.00  0.00     0.022 A 
ATOM     11  C   UNL A   1      33.333  30.883  27.233  1.00  0.00     0.132 A 
BRANCH   7  12
ATOM     12  N   UNL A   1      31.034  29.434  24.665  1.00  0.00    -0.326 N 
ATOM     13  C   UNL A   1      30.712  28.299  23.940  1.00  0.00     0.226 C 
ATOM     14  O   UNL A   1      29.949  28.394  22.978  1.00  0.00    -0.275 OA
ATOM     15  H   UNL A   1      30.431  30.203  24.548  1.00  0.00     0.169 HD
BRANCH  13  16
ATOM     16  C   UNL A   1      31.097  26.918  24.487  1.00  0.00     0.125 C 
BRANCH  16  17
ATOM     17  C   UNL A   1      30.839  25.697  23.593  1.00  0.00     0.156 C 
ATOM     18  N   UNL A   1      32.530  24.005  23.891  1.00  0.00    -0.240 N 
ATOM     19  C   UNL A   1      33.075  24.669  22.830  1.00  0.00     0.293 C 
ATOM     20  C   UNL A   1      31.289  24.436  24.337  1.00  0.00     0.248 C 
ATOM     21  O   UNL A   1      34.226  24.630  22.430  1.00  0.00    -0.261 OA
ATOM     22  S   UNL A   1      31.837  25.621  22.081  1.00  0.00    -0.050 SA
ATOM     23  O   UNL A   1      30.647  23.939  25.258  1.00  0.00    -0.273 OA
BRANCH  18  24
ATOM     24  C   UNL A   1      33.109  22.777  24.269  1.00  0.00     0.056 A 
ATOM     25  C   UNL A   1      32.538  19.056  23.627  1.00  0.00     0.044 C 
ATOM     26  C   UNL A   1      33.057  20.344  24.193  1.00  0.00    -0.049 A 
ATOM     27  C   UNL A   1      33.963  20.308  25.259  1.00  0.00     0.004 A 
ATOM     28  C   UNL A   1      32.643  21.586  23.690  1.00  0.00     0.030 A 
ATOM     29  C   UNL A   1      34.417  21.490  25.844  1.00  0.00     0.006 A 
ATOM     30  C   UNL A   1      33.977  22.736  25.379  1.00  0.00    -0.027 A 
ATOM     31  C   UNL A   1      34.422  23.961  26.134  1.00  0.00     0.046 C 
ENDBRANCH  18  24
ENDBRANCH  16  17
ENDBRANCH  13  16
ENDBRANCH   7  12
BRANCH  11  32
ATOM     32  O   UNL A   1      33.378  32.000  28.021  1.00  0.00    -0.507 OA
ATOM     33  H   UNL A   1      32.641  32.229  28.551  1.00  0.00     0.293 HD
ENDBRANCH  11  32
ENDBRANCH   4   6
ENDBRANCH   3   4
ENDBRANCH   2   3
ENDBRANCH   1   2
BRANCH   1  34
ATOM     34  O   UNL A   1      35.016  33.097  29.934  1.00  0.00    -0.374 OA
BRANCH  34  35
ATOM     35  C   UNL A   1      34.485  34.331  30.391  1.00  0.00     0.202 C 
BRANCH  35  36
ATOM     36  C   UNL A   1      34.331  34.415  31.916  1.00  0.00     0.261 C 
BRANCH  36  37
ATOM     37  O   UNL A   1      35.581  34.531  32.628  1.00  0.00    -0.460 OA
BRANCH  37  38
ATOM     38  C   UNL A   1      35.826  33.537  33.527  1.00  0.00     0.338 C 
ATOM     39  O   UNL A   1      35.333  33.479  34.640  1.00  0.00    -0.246 OA
BRANCH  38  40
ATOM     40  C   UNL A   1      36.888  32.642  32.993  1.00  0.00     0.060 A 
ATOM     41  C   UNL A   1      36.636  31.271  32.859  1.00  0.00     0.016 A 
ATOM     42  C   UNL A   1      38.194  33.128  32.883  1.00  0.00     0.016 A 
ATOM     43  C   UNL A   1      37.712  30.381  32.736  1.00  0.00     0.010 A 
ATOM     44  C   UNL A   1      39.254  32.236  32.852  1.00  0.00     0.010 A 
ATOM     45  C   UNL A   1      39.033  30.853  32.798  1.00  0.00    -0.014 A 
BRANCH  45  46
ATOM     46  C   UNL A   1      40.175  30.035  32.337  1.00  0.00     0.031 A 
ATOM     47  C   UNL A   1      41.089  29.816  33.468  1.00  0.00     0.074 A 
ATOM     48  C   UNL A   1      40.431  29.445  31.143  1.00  0.00     0.049 A 
ATOM     49  N   UNL A   1      42.234  30.405  33.583  1.00  0.00    -0.248 NA
ATOM     50  C   UNL A   1      40.648  29.105  34.677  1.00  0.00     0.031 C 
ATOM     51  C   UNL A   1      39.763  29.702  29.888  1.00  0.00     0.029 A 
ATOM     52  N   UNL A   1      41.311  28.446  30.772  1.00  0.00    -0.354 N 
ATOM     53  C   UNL A   1      42.787  29.841  34.708  1.00  0.00     0.074 A 
ATOM     54  C   UNL A   1      41.699  29.292  35.478  1.00  0.00     0.031 C 
ATOM     55  C   UNL A   1      40.008  28.740  28.978  1.00  0.00     0.029 A 
ATOM     56  C   UNL A   1      41.021  27.867  29.522  1.00  0.00     0.049 A 
ATOM     57  H   UNL A   1      42.071  28.166  31.330  1.00  0.00     0.167 HD
ATOM     58  C   UNL A   1      44.092  29.474  34.675  1.00  0.00     0.037 A 
ATOM     59  C   UNL A   1      41.677  26.909  28.813  1.00  0.00     0.037 A 
ATOM     60  C   UNL A   1      44.812  30.101  33.594  1.00  0.00     0.049 A 
ATOM     61  C   UNL A   1      43.103  27.130  29.112  1.00  0.00     0.074 A 
ATOM     62  C   UNL A   1      45.269  31.370  33.308  1.00  0.00     0.029 A 
ATOM     63  N   UNL A   1      44.790  29.409  32.410  1.00  0.00    -0.354 N 
ATOM     64  N   UNL A   1      43.772  28.149  28.644  1.00  0.00    -0.248 NA
ATOM     65  C   UNL A   1      43.742  26.400  30.202  1.00  0.00     0.031 C 
ATOM     66  C   UNL A   1      45.468  31.433  31.897  1.00  0.00     0.029 A 
ATOM     67  C   UNL A   1      45.143  30.201  31.345  1.00  0.00     0.049 A 
ATOM     68  H   UNL A   1      44.551  28.458  32.333  1.00  0.00     0.167 HD
ATOM     69  C   UNL A   1      44.629  28.463  29.676  1.00  0.00     0.074 A 
ATOM     70  C   UNL A   1      44.718  27.261  30.493  1.00  0.00     0.031 C 
ATOM     71  C   UNL A   1      44.904  29.758  29.987  1.00  0.00     0.037 A 
BRANCH  58  72
ATOM     72  C   UNL A   1      44.551  28.193  35.301  1.00  0.00     0.058 A 
ATOM     73  C   UNL A   1      45.550  28.217  36.281  1.00  0.00     0.135 A 
ATOM     74  C   UNL A   1      44.194  26.918  34.800  1.00  0.00     0.135 A 
ATOM     75  F   UNL A   1      46.002  29.386  36.761  1.00  0.00    -0.206 F 
ATOM     76  C   UNL A   1      46.145  27.046  36.748  1.00  0.00     0.059 A 
ATOM     77  C   UNL A   1      44.715  25.738  35.303  1.00  0.00     0.059 A 
ATOM     78  F   UNL A   1      43.396  26.769  33.734  1.00  0.00    -0.206 F 
ATOM     79  C   UNL A   1      45.713  25.813  36.258  1.00  0.00     0.060 A 
BRANCH  79  80
ATOM     80  S   UNL A   1      46.494  24.300  36.833  1.00  0.00     0.124 S 
ATOM     81  O   UNL A   1      47.471  24.822  37.780  1.00  0.00    -0.237 OA
ATOM     82  O   UNL A   1      45.367  23.572  37.407  1.00  0.00    -0.237 OA
ATOM     83  O   UNL A   1      47.042  23.722  35.608  1.00  0.00    -0.744 OA
ENDBRANCH  79  80
ENDBRANCH  58  72
BRANCH  59  84
ATOM     84  C   UNL A   1      41.207  25.857  27.860  1.00  0.00     0.058 A 
ATOM     85  C   UNL A   1      42.140  25.178  27.053  1.00  0.00     0.135 A 
ATOM     86  C   UNL A   1      39.942  25.258  27.938  1.00  0.00     0.135 A 
ATOM     87  F   UNL A   1      43.344  25.714  26.803  1.00  0.00    -0.206 F 
ATOM     88  C   UNL A   1      41.908  23.896  26.547  1.00  0.00     0.059 A 
ATOM     89  C   UNL A   1      39.694  23.956  27.484  1.00  0.00     0.059 A 
ATOM     90  F   UNL A   1      38.909  25.920  28.472  1.00  0.00    -0.206 F 
ATOM     91  C   UNL A   1      40.708  23.259  26.837  1.00  0.00     0.060 A 
BRANCH  91  92
ATOM     92  S   UNL A   1      40.523  21.489  26.516  1.00  0.00     0.124 S 
ATOM     93  O   UNL A   1      40.647  20.920  27.852  1.00  0.00    -0.237 OA
ATOM     94  O   UNL A   1      39.196  21.402  25.912  1.00  0.00    -0.237 OA
ATOM     95  O   UNL A   1      41.630  21.209  25.602  1.00  0.00    -0.744 OA
ENDBRANCH  91  92
ENDBRANCH  59  84
BRANCH  71  96
ATOM     96  C   UNL A   1      44.851  30.763  28.874  1.00  0.00     0.058 A 
ATOM     97  C   UNL A   1      43.775  31.626  28.607  1.00  0.00     0.135 A 
ATOM     98  C   UNL A   1      45.982  30.876  28.052  1.00  0.00     0.135 A 
ATOM     99  F   UNL A   1      42.677  31.619  29.375  1.00  0.00    -0.206 F 
ATOM    100  C   UNL A   1      43.819  32.546  27.555  1.00  0.00     0.059 A 
ATOM    101  C   UNL A   1      46.058  31.799  27.015  1.00  0.00     0.059 A 
ATOM    102  F   UNL A   1      47.053  30.093  28.273  1.00  0.00    -0.206 F 
ATOM    103  C   UNL A   1      44.966  32.627  26.765  1.00  0.00     0.060 A 
BRANCH 103 104
ATOM    104  S   UNL A   1      45.057  33.865  25.452  1.00  0.00     0.124 S 
ATOM    105  O   UNL A   1      44.535  33.136  24.301  1.00  0.00    -0.237 OA
ATOM    106  O   UNL A   1      44.206  34.936  25.963  1.00  0.00    -0.237 OA
ATOM    107  O   UNL A   1      46.480  34.192  25.389  1.00  0.00    -0.744 OA
ENDBRANCH 103 104
ENDBRANCH  71  96
ENDBRANCH  45  46
ENDBRANCH  38  40
ENDBRANCH  37  38
ENDBRANCH  36  37
ENDBRANCH  35  36
ENDBRANCH  34  35
ENDBRANCH   1  34
TORSDOF 22
ENDMDL
