MODEL 1
REMARK VINA RESULT:     -12.1      0.000      0.000
REMARK SMILES O=C(OCCOCCOC(=O)c1cc2c(c(S(=O)(=O)Nc3cc(C(F)(F)F)ccc3-n3cccn3)c1)CCC2)c1ccc(-c2c3nc(c(-c4c(F)cc(S(=O)(=O)[O-])cc4F)c4ccc([nH]4)c(-c4c(F)cc(S(=O)(=O)[O-])cc4F)c4nc(c(-c5c(F)cc(S(=O)(=O)[O-])cc5F)c5ccc2[nH]5)C=C4)C=C3)cc1
REMARK SMILES IDX 7 1 6 2 5 3 4 4 3 5 2 6 1 7 40 8 41 9 105 10 42 11 104 12
REMARK SMILES IDX 43 13 44 14 45 15 98 16 46 17 103 18 97 19 99 20 47 21
REMARK SMILES IDX 102 22 96 23 95 24 48 26 82 27 61 28 81 29 62 30 65 31 80 32
REMARK SMILES IDX 100 33 63 34 64 35 79 37 101 38 66 39 49 40 50 41 59 42
REMARK SMILES IDX 51 43 52 44 58 45 60 46 53 47 54 48 55 49 56 50 57 51 83 52
REMARK SMILES IDX 84 53 93 54 85 55 86 56 92 57 94 58 87 59 88 60 89 61 90 62
REMARK SMILES IDX 91 63 67 64 68 65 77 66 69 67 70 68 76 69 78 70 71 71 72 72
REMARK SMILES IDX 73 73 74 74 75 75 8 76 9 77 10 78 11 79 12 80 13 81 36 82
REMARK SMILES IDX 14 83 16 84 15 85 39 86 37 87 38 88 17 89 18 90 19 91 20 92
REMARK SMILES IDX 21 94 22 95 30 96 23 97 29 98 28 99 31 100 32 101 35 102
REMARK SMILES IDX 33 103 34 104 24 105 25 106 26 107 27 108
REMARK H PARENT 99 25 65 36 20 93
REMARK Flexibility Score: inf
ROOT
ATOM      1  C   UNL A   1      39.216  22.868  26.362  1.00  0.00     0.202 C 
ENDROOT
BRANCH   1   2
ATOM      2  O   UNL A   1      40.085  21.992  27.094  1.00  0.00    -0.374 OA
BRANCH   2   3
ATOM      3  C   UNL A   1      40.372  20.733  26.497  1.00  0.00     0.202 C 
BRANCH   3   4
ATOM      4  C   UNL A   1      41.766  20.150  26.708  1.00  0.00     0.261 C 
BRANCH   4   5
ATOM      5  O   UNL A   1      42.528  20.001  25.494  1.00  0.00    -0.460 OA
BRANCH   5   6
ATOM      6  C   UNL A   1      43.695  20.623  25.220  1.00  0.00     0.338 C 
ATOM      7  O   UNL A   1      44.521  20.087  24.482  1.00  0.00    -0.246 OA
BRANCH   6   8
ATOM      8  C   UNL A   1      43.874  22.050  25.599  1.00  0.00     0.060 A 
ATOM      9  C   UNL A   1      44.691  22.504  26.630  1.00  0.00     0.016 A 
ATOM     10  C   UNL A   1      43.048  22.971  24.930  1.00  0.00     0.016 A 
ATOM     11  C   UNL A   1      44.493  23.758  27.166  1.00  0.00     0.010 A 
ATOM     12  C   UNL A   1      42.897  24.257  25.418  1.00  0.00     0.010 A 
ATOM     13  C   UNL A   1      43.541  24.601  26.598  1.00  0.00    -0.014 A 
BRANCH  13  14
ATOM     14  C   UNL A   1      43.312  25.872  27.261  1.00  0.00     0.031 A 
ATOM     15  C   UNL A   1      44.365  26.888  26.989  1.00  0.00     0.074 A 
ATOM     16  C   UNL A   1      42.221  26.098  28.019  1.00  0.00     0.049 A 
ATOM     17  N   UNL A   1      45.215  27.398  27.818  1.00  0.00    -0.248 NA
ATOM     18  C   UNL A   1      44.624  27.236  25.581  1.00  0.00     0.031 C 
ATOM     19  C   UNL A   1      41.025  25.265  28.174  1.00  0.00     0.029 A 
ATOM     20  N   UNL A   1      41.919  27.194  28.761  1.00  0.00    -0.354 N 
ATOM     21  C   UNL A   1      45.976  28.300  27.077  1.00  0.00     0.074 A 
ATOM     22  C   UNL A   1      45.686  28.034  25.693  1.00  0.00     0.031 C 
ATOM     23  C   UNL A   1      40.041  25.998  28.744  1.00  0.00     0.029 A 
ATOM     24  C   UNL A   1      40.583  27.289  29.129  1.00  0.00     0.049 A 
ATOM     25  H   UNL A   1      42.591  27.867  29.015  1.00  0.00     0.167 HD
ATOM     26  C   UNL A   1      46.622  29.341  27.671  1.00  0.00     0.037 A 
ATOM     27  C   UNL A   1      39.973  28.391  29.636  1.00  0.00     0.037 A 
ATOM     28  C   UNL A   1      46.784  29.117  29.083  1.00  0.00     0.049 A 
ATOM     29  C   UNL A   1      41.049  29.253  30.201  1.00  0.00     0.074 A 
ATOM     30  C   UNL A   1      47.454  28.176  29.841  1.00  0.00     0.029 A 
ATOM     31  N   UNL A   1      45.888  29.717  29.934  1.00  0.00    -0.354 N 
ATOM     32  N   UNL A   1      41.782  28.910  31.228  1.00  0.00    -0.248 NA
ATOM     33  C   UNL A   1      41.637  30.256  29.323  1.00  0.00     0.031 C 
ATOM     34  C   UNL A   1      46.594  27.919  30.947  1.00  0.00     0.029 A 
ATOM     35  C   UNL A   1      45.490  28.767  30.840  1.00  0.00     0.049 A 
ATOM     36  H   UNL A   1      45.586  30.654  29.899  1.00  0.00     0.167 HD
ATOM     37  C   UNL A   1      43.067  29.328  30.908  1.00  0.00     0.074 A 
ATOM     38  C   UNL A   1      42.903  30.202  29.746  1.00  0.00     0.031 C 
ATOM     39  C   UNL A   1      44.169  28.713  31.427  1.00  0.00     0.037 A 
BRANCH  26  40
ATOM     40  C   UNL A   1      46.773  30.708  27.049  1.00  0.00     0.058 A 
ATOM     41  C   UNL A   1      48.046  31.314  27.007  1.00  0.00     0.135 A 
ATOM     42  C   UNL A   1      45.682  31.563  26.769  1.00  0.00     0.135 A 
ATOM     43  F   UNL A   1      49.153  30.598  27.256  1.00  0.00    -0.206 F 
ATOM     44  C   UNL A   1      48.214  32.683  26.792  1.00  0.00     0.059 A 
ATOM     45  C   UNL A   1      45.833  32.918  26.502  1.00  0.00     0.059 A 
ATOM     46  F   UNL A   1      44.411  31.152  26.837  1.00  0.00    -0.206 F 
ATOM     47  C   UNL A   1      47.097  33.479  26.559  1.00  0.00     0.060 A 
BRANCH  47  48
ATOM     48  S   UNL A   1      47.298  35.260  26.395  1.00  0.00     0.124 S 
ATOM     49  O   UNL A   1      46.035  35.639  25.771  1.00  0.00    -0.237 OA
ATOM     50  O   UNL A   1      47.475  35.673  27.783  1.00  0.00    -0.237 OA
ATOM     51  O   UNL A   1      48.484  35.388  25.553  1.00  0.00    -0.744 OA
ENDBRANCH  47  48
ENDBRANCH  26  40
BRANCH  27  52
ATOM     52  C   UNL A   1      38.629  28.915  29.256  1.00  0.00     0.058 A 
ATOM     53  C   UNL A   1      37.630  29.144  30.219  1.00  0.00     0.135 A 
ATOM     54  C   UNL A   1      38.389  29.461  27.978  1.00  0.00     0.135 A 
ATOM     55  F   UNL A   1      37.785  28.686  31.471  1.00  0.00    -0.206 F 
ATOM     56  C   UNL A   1      36.482  29.899  29.943  1.00  0.00     0.059 A 
ATOM     57  C   UNL A   1      37.251  30.208  27.677  1.00  0.00     0.059 A 
ATOM     58  F   UNL A   1      39.301  29.361  26.999  1.00  0.00    -0.206 F 
ATOM     59  C   UNL A   1      36.311  30.444  28.670  1.00  0.00     0.060 A 
BRANCH  59  60
ATOM     60  S   UNL A   1      34.917  31.553  28.348  1.00  0.00     0.124 S 
ATOM     61  O   UNL A   1      35.525  32.561  27.488  1.00  0.00    -0.237 OA
ATOM     62  O   UNL A   1      33.955  30.663  27.706  1.00  0.00    -0.237 OA
ATOM     63  O   UNL A   1      34.537  32.017  29.680  1.00  0.00    -0.744 OA
ENDBRANCH  59  60
ENDBRANCH  27  52
BRANCH  39  64
ATOM     64  C   UNL A   1      43.991  27.731  32.556  1.00  0.00     0.058 A 
ATOM     65  C   UNL A   1      43.917  26.335  32.390  1.00  0.00     0.135 A 
ATOM     66  C   UNL A   1      44.123  28.215  33.865  1.00  0.00     0.135 A 
ATOM     67  F   UNL A   1      43.883  25.788  31.168  1.00  0.00    -0.206 F 
ATOM     68  C   UNL A   1      43.959  25.464  33.483  1.00  0.00     0.059 A 
ATOM     69  C   UNL A   1      44.196  27.366  34.964  1.00  0.00     0.059 A 
ATOM     70  F   UNL A   1      44.260  29.534  34.081  1.00  0.00    -0.206 F 
ATOM     71  C   UNL A   1      44.110  25.990  34.767  1.00  0.00     0.060 A 
BRANCH  71  72
ATOM     72  S   UNL A   1      44.284  24.865  36.171  1.00  0.00     0.124 S 
ATOM     73  O   UNL A   1      45.558  25.284  36.744  1.00  0.00    -0.237 OA
ATOM     74  O   UNL A   1      43.099  25.167  36.969  1.00  0.00    -0.237 OA
ATOM     75  O   UNL A   1      44.283  23.542  35.551  1.00  0.00    -0.744 OA
ENDBRANCH  71  72
ENDBRANCH  39  64
ENDBRANCH  13  14
ENDBRANCH   6   8
ENDBRANCH   5   6
ENDBRANCH   4   5
ENDBRANCH   3   4
ENDBRANCH   2   3
ENDBRANCH   1   2
BRANCH   1  76
ATOM     76  C   UNL A   1      38.142  22.249  25.452  1.00  0.00     0.261 C 
BRANCH  76  77
ATOM     77  O   UNL A   1      36.808  22.449  25.959  1.00  0.00    -0.460 OA
BRANCH  77  78
ATOM     78  C   UNL A   1      35.790  22.245  25.080  1.00  0.00     0.338 C 
ATOM     79  O   UNL A   1      35.358  21.187  24.679  1.00  0.00    -0.246 OA
BRANCH  78  80
ATOM     80  C   UNL A   1      35.140  23.551  24.809  1.00  0.00     0.061 A 
ATOM     81  C   UNL A   1      35.135  24.525  25.802  1.00  0.00     0.019 A 
ATOM     82  C   UNL A   1      34.545  23.794  23.546  1.00  0.00     0.038 A 
ATOM     83  C   UNL A   1      34.547  25.734  25.499  1.00  0.00    -0.043 A 
ATOM     84  C   UNL A   1      33.911  25.023  23.258  1.00  0.00     0.092 A 
ATOM     85  C   UNL A   1      33.892  25.974  24.269  1.00  0.00    -0.024 A 
ATOM     86  C   UNL A   1      34.530  26.954  26.372  1.00  0.00     0.036 C 
ATOM     87  C   UNL A   1      33.252  27.324  24.357  1.00  0.00     0.037 C 
ATOM     88  C   UNL A   1      34.234  28.013  25.310  1.00  0.00     0.010 C 
BRANCH  84  89
ATOM     89  S   UNL A   1      33.013  25.193  21.725  1.00  0.00     0.262 S 
ATOM     90  O   UNL A   1      33.424  26.451  21.132  1.00  0.00    -0.201 OA
ATOM     91  O   UNL A   1      33.189  23.961  20.986  1.00  0.00    -0.201 OA
BRANCH  89  92
ATOM     92  N   UNL A   1      31.320  25.368  21.926  1.00  0.00    -0.277 N 
ATOM     93  H   UNL A   1      30.765  25.508  21.124  1.00  0.00     0.180 HD
BRANCH  92  94
ATOM     94  C   UNL A   1      30.675  25.320  23.206  1.00  0.00     0.075 A 
ATOM     95  C   UNL A   1      30.851  24.174  24.008  1.00  0.00     0.042 A 
ATOM     96  C   UNL A   1      29.962  26.412  23.723  1.00  0.00     0.089 A 
ATOM     97  C   UNL A   1      30.388  24.140  25.341  1.00  0.00     0.058 A 
ATOM     98  C   UNL A   1      29.485  26.375  25.044  1.00  0.00     0.031 A 
ATOM     99  C   UNL A   1      29.695  25.250  25.844  1.00  0.00     0.015 A 
BRANCH  96 100
ATOM    100  N   UNL A   1      29.752  27.591  22.966  1.00  0.00    -0.239 N 
ATOM    101  C   UNL A   1      30.690  28.407  22.375  1.00  0.00     0.115 A 
ATOM    102  N   UNL A   1      28.503  28.112  22.846  1.00  0.00    -0.177 NA
ATOM    103  C   UNL A   1      30.057  29.586  22.069  1.00  0.00     0.042 A 
ATOM    104  C   UNL A   1      28.716  29.357  22.412  1.00  0.00     0.135 A 
ENDBRANCH  96 100
BRANCH  97 105
ATOM    105  C   UNL A   1      30.699  22.958  26.234  1.00  0.00     0.416 C 
ATOM    106  F   UNL A   1      32.033  22.780  26.424  1.00  0.00    -0.166 F 
ATOM    107  F   UNL A   1      30.152  23.089  27.475  1.00  0.00    -0.166 F 
ATOM    108  F   UNL A   1      30.227  21.774  25.750  1.00  0.00    -0.166 F 
ENDBRANCH  97 105
ENDBRANCH  92  94
ENDBRANCH  89  92
ENDBRANCH  84  89
ENDBRANCH  78  80
ENDBRANCH  77  78
ENDBRANCH  76  77
ENDBRANCH   1  76
TORSDOF 22
ENDMDL
MODEL 2
REMARK VINA RESULT:     -12.1      2.330      3.300
REMARK SMILES O=C(OCCOCCOC(=O)c1cc2c(c(S(=O)(=O)Nc3cc(C(F)(F)F)ccc3-n3cccn3)c1)CCC2)c1ccc(-c2c3nc(c(-c4c(F)cc(S(=O)(=O)[O-])cc4F)c4ccc([nH]4)c(-c4c(F)cc(S(=O)(=O)[O-])cc4F)c4nc(c(-c5c(F)cc(S(=O)(=O)[O-])cc5F)c5ccc2[nH]5)C=C4)C=C3)cc1
REMARK SMILES IDX 7 1 6 2 5 3 4 4 3 5 2 6 1 7 40 8 41 9 105 10 42 11 104 12
REMARK SMILES IDX 43 13 44 14 45 15 98 16 46 17 103 18 97 19 99 20 47 21
REMARK SMILES IDX 102 22 96 23 95 24 48 26 82 27 61 28 81 29 62 30 65 31 80 32
REMARK SMILES IDX 100 33 63 34 64 35 79 37 101 38 66 39 49 40 50 41 59 42
REMARK SMILES IDX 51 43 52 44 58 45 60 46 53 47 54 48 55 49 56 50 57 51 83 52
REMARK SMILES IDX 84 53 93 54 85 55 86 56 92 57 94 58 87 59 88 60 89 61 90 62
REMARK SMILES IDX 91 63 67 64 68 65 77 66 69 67 70 68 76 69 78 70 71 71 72 72
REMARK SMILES IDX 73 73 74 74 75 75 8 76 9 77 10 78 11 79 12 80 13 81 36 82
REMARK SMILES IDX 14 83 16 84 15 85 39 86 37 87 38 88 17 89 18 90 19 91 20 92
REMARK SMILES IDX 21 94 22 95 30 96 23 97 29 98 28 99 31 100 32 101 35 102
REMARK SMILES IDX 33 103 34 104 24 105 25 106 26 107 27 108
REMARK H PARENT 99 25 65 36 20 93
REMARK Flexibility Score: inf
ROOT
ATOM      1  C   UNL A   1      36.855  20.785  25.367  1.00  0.00     0.202 C 
ENDROOT
BRANCH   1   2
ATOM      2  O   UNL A   1      38.218  21.020  24.985  1.00  0.00    -0.374 OA
BRANCH   2   3
ATOM      3  C   UNL A   1      38.984  21.863  25.838  1.00  0.00     0.202 C 
BRANCH   3   4
ATOM      4  C   UNL A   1      40.350  21.357  26.292  1.00  0.00     0.261 C 
BRANCH   4   5
ATOM      5  O   UNL A   1      41.438  21.760  25.438  1.00  0.00    -0.460 OA
BRANCH   5   6
ATOM      6  C   UNL A   1      42.186  22.874  25.594  1.00  0.00     0.338 C 
ATOM      7  O   UNL A   1      43.202  23.034  24.920  1.00  0.00    -0.246 OA
BRANCH   6   8
ATOM      8  C   UNL A   1      41.651  24.012  26.388  1.00  0.00     0.060 A 
ATOM      9  C   UNL A   1      40.905  25.066  25.867  1.00  0.00     0.016 A 
ATOM     10  C   UNL A   1      42.049  24.061  27.736  1.00  0.00     0.016 A 
ATOM     11  C   UNL A   1      40.801  26.249  26.568  1.00  0.00     0.010 A 
ATOM     12  C   UNL A   1      41.884  25.222  28.472  1.00  0.00     0.010 A 
ATOM     13  C   UNL A   1      41.358  26.341  27.841  1.00  0.00    -0.014 A 
BRANCH  13  14
ATOM     14  C   UNL A   1      41.296  27.638  28.490  1.00  0.00     0.031 A 
ATOM     15  C   UNL A   1      42.485  28.495  28.230  1.00  0.00     0.074 A 
ATOM     16  C   UNL A   1      40.235  28.020  29.226  1.00  0.00     0.049 A 
ATOM     17  N   UNL A   1      43.383  28.891  29.071  1.00  0.00    -0.248 NA
ATOM     18  C   UNL A   1      42.813  28.790  26.825  1.00  0.00     0.031 C 
ATOM     19  C   UNL A   1      38.932  27.363  29.365  1.00  0.00     0.029 A 
ATOM     20  N   UNL A   1      40.075  29.155  29.954  1.00  0.00    -0.354 N 
ATOM     21  C   UNL A   1      44.275  29.671  28.338  1.00  0.00     0.074 A 
ATOM     22  C   UNL A   1      43.974  29.434  26.950  1.00  0.00     0.031 C 
ATOM     23  C   UNL A   1      38.050  28.231  29.911  1.00  0.00     0.029 A 
ATOM     24  C   UNL A   1      38.758  29.438  30.297  1.00  0.00     0.049 A 
ATOM     25  H   UNL A   1      40.829  29.730  30.216  1.00  0.00     0.167 HD
ATOM     26  C   UNL A   1      45.049  30.618  28.935  1.00  0.00     0.037 A 
ATOM     27  C   UNL A   1      38.299  30.619  30.785  1.00  0.00     0.037 A 
ATOM     28  C   UNL A   1      45.153  30.388  30.352  1.00  0.00     0.049 A 
ATOM     29  C   UNL A   1      39.474  31.329  31.363  1.00  0.00     0.074 A 
ATOM     30  C   UNL A   1      45.673  29.370  31.129  1.00  0.00     0.029 A 
ATOM     31  N   UNL A   1      44.335  31.114  31.181  1.00  0.00    -0.354 N 
ATOM     32  N   UNL A   1      40.135  30.897  32.405  1.00  0.00    -0.248 NA
ATOM     33  C   UNL A   1      40.211  32.231  30.489  1.00  0.00     0.031 C 
ATOM     34  C   UNL A   1      44.767  29.245  32.220  1.00  0.00     0.029 A 
ATOM     35  C   UNL A   1      43.794  30.238  32.087  1.00  0.00     0.049 A 
ATOM     36  H   UNL A   1      44.167  32.083  31.135  1.00  0.00     0.167 HD
ATOM     37  C   UNL A   1      41.471  31.130  32.106  1.00  0.00     0.074 A 
ATOM     38  C   UNL A   1      41.450  32.007  30.935  1.00  0.00     0.031 C 
ATOM     39  C   UNL A   1      42.468  30.373  32.650  1.00  0.00     0.037 A 
BRANCH  26  40
ATOM     40  C   UNL A   1      45.398  31.945  28.306  1.00  0.00     0.058 A 
ATOM     41  C   UNL A   1      46.754  32.288  28.120  1.00  0.00     0.135 A 
ATOM     42  C   UNL A   1      44.476  33.005  28.158  1.00  0.00     0.135 A 
ATOM     43  F   UNL A   1      47.717  31.360  28.236  1.00  0.00    -0.206 F 
ATOM     44  C   UNL A   1      47.167  33.601  27.894  1.00  0.00     0.059 A 
ATOM     45  C   UNL A   1      44.863  34.311  27.882  1.00  0.00     0.059 A 
ATOM     46  F   UNL A   1      43.164  32.852  28.371  1.00  0.00    -0.206 F 
ATOM     47  C   UNL A   1      46.213  34.609  27.795  1.00  0.00     0.060 A 
BRANCH  47  48
ATOM     48  S   UNL A   1      46.745  36.318  27.617  1.00  0.00     0.124 S 
ATOM     49  O   UNL A   1      47.214  36.335  26.235  1.00  0.00    -0.237 OA
ATOM     50  O   UNL A   1      45.510  37.049  27.883  1.00  0.00    -0.237 OA
ATOM     51  O   UNL A   1      47.781  36.456  28.637  1.00  0.00    -0.744 OA
ENDBRANCH  47  48
ENDBRANCH  26  40
BRANCH  27  52
ATOM     52  C   UNL A   1      37.048  31.320  30.376  1.00  0.00     0.058 A 
ATOM     53  C   UNL A   1      36.140  31.819  31.327  1.00  0.00     0.135 A 
ATOM     54  C   UNL A   1      36.851  31.758  29.049  1.00  0.00     0.135 A 
ATOM     55  F   UNL A   1      36.266  31.480  32.620  1.00  0.00    -0.206 F 
ATOM     56  C   UNL A   1      35.125  32.725  30.992  1.00  0.00     0.059 A 
ATOM     57  C   UNL A   1      35.844  32.651  28.689  1.00  0.00     0.059 A 
ATOM     58  F   UNL A   1      37.694  31.398  28.069  1.00  0.00    -0.206 F 
ATOM     59  C   UNL A   1      34.996  33.150  29.670  1.00  0.00     0.060 A 
BRANCH  59  60
ATOM     60  S   UNL A   1      33.796  34.440  29.253  1.00  0.00     0.124 S 
ATOM     61  O   UNL A   1      34.633  35.425  28.577  1.00  0.00    -0.237 OA
ATOM     62  O   UNL A   1      32.849  33.720  28.408  1.00  0.00    -0.237 OA
ATOM     63  O   UNL A   1      33.275  34.852  30.554  1.00  0.00    -0.744 OA
ENDBRANCH  59  60
ENDBRANCH  27  52
BRANCH  39  64
ATOM     64  C   UNL A   1      42.136  29.436  33.782  1.00  0.00     0.058 A 
ATOM     65  C   UNL A   1      41.474  28.204  33.626  1.00  0.00     0.135 A 
ATOM     66  C   UNL A   1      42.706  29.703  35.035  1.00  0.00     0.135 A 
ATOM     67  F   UNL A   1      40.983  27.833  32.436  1.00  0.00    -0.206 F 
ATOM     68  C   UNL A   1      41.377  27.286  34.676  1.00  0.00     0.059 A 
ATOM     69  C   UNL A   1      42.646  28.793  36.085  1.00  0.00     0.059 A 
ATOM     70  F   UNL A   1      43.403  30.836  35.227  1.00  0.00    -0.206 F 
ATOM     71  C   UNL A   1      41.976  27.585  35.900  1.00  0.00     0.060 A 
BRANCH  71  72
ATOM     72  S   UNL A   1      41.956  26.354  37.223  1.00  0.00     0.124 S 
ATOM     73  O   UNL A   1      43.047  26.804  38.079  1.00  0.00    -0.237 OA
ATOM     74  O   UNL A   1      40.613  26.505  37.776  1.00  0.00    -0.237 OA
ATOM     75  O   UNL A   1      42.191  25.094  36.521  1.00  0.00    -0.744 OA
ENDBRANCH  71  72
ENDBRANCH  39  64
ENDBRANCH  13  14
ENDBRANCH   6   8
ENDBRANCH   5   6
ENDBRANCH   4   5
ENDBRANCH   3   4
ENDBRANCH   2   3
ENDBRANCH   1   2
BRANCH   1  76
ATOM     76  C   UNL A   1      35.733  21.344  24.478  1.00  0.00     0.261 C 
BRANCH  76  77
ATOM     77  O   UNL A   1      35.873  22.758  24.237  1.00  0.00    -0.460 OA
BRANCH  77  78
ATOM     78  C   UNL A   1      35.574  23.583  25.276  1.00  0.00     0.338 C 
ATOM     79  O   UNL A   1      36.296  23.914  26.191  1.00  0.00    -0.246 OA
BRANCH  78  80
ATOM     80  C   UNL A   1      34.242  24.186  25.024  1.00  0.00     0.061 A 
ATOM     81  C   UNL A   1      33.169  23.822  25.831  1.00  0.00     0.019 A 
ATOM     82  C   UNL A   1      34.081  25.127  23.977  1.00  0.00     0.038 A 
ATOM     83  C   UNL A   1      31.956  24.428  25.582  1.00  0.00    -0.043 A 
ATOM     84  C   UNL A   1      32.825  25.714  23.705  1.00  0.00     0.092 A 
ATOM     85  C   UNL A   1      31.759  25.320  24.503  1.00  0.00    -0.024 A 
ATOM     86  C   UNL A   1      30.704  24.272  26.394  1.00  0.00     0.036 C 
ATOM     87  C   UNL A   1      30.302  25.654  24.456  1.00  0.00     0.037 C 
ATOM     88  C   UNL A   1      29.961  25.528  25.945  1.00  0.00     0.010 C 
BRANCH  84  89
ATOM     89  S   UNL A   1      32.647  26.739  22.256  1.00  0.00     0.262 S 
ATOM     90  O   UNL A   1      33.952  26.815  21.629  1.00  0.00    -0.201 OA
ATOM     91  O   UNL A   1      31.520  26.228  21.504  1.00  0.00    -0.201 OA
BRANCH  89  92
ATOM     92  N   UNL A   1      32.262  28.373  22.601  1.00  0.00    -0.277 N 
ATOM     93  H   UNL A   1      32.090  28.984  21.847  1.00  0.00     0.180 HD
BRANCH  92  94
ATOM     94  C   UNL A   1      32.181  28.892  23.936  1.00  0.00     0.075 A 
ATOM     95  C   UNL A   1      33.289  28.727  24.793  1.00  0.00     0.042 A 
ATOM     96  C   UNL A   1      31.081  29.641  24.379  1.00  0.00     0.089 A 
ATOM     97  C   UNL A   1      33.337  29.364  26.052  1.00  0.00     0.058 A 
ATOM     98  C   UNL A   1      31.118  30.262  25.639  1.00  0.00     0.031 A 
ATOM     99  C   UNL A   1      32.234  30.123  26.467  1.00  0.00     0.015 A 
BRANCH  96 100
ATOM    100  N   UNL A   1      29.939  29.842  23.566  1.00  0.00    -0.239 N 
ATOM    101  C   UNL A   1      29.190  30.986  23.410  1.00  0.00     0.115 A 
ATOM    102  N   UNL A   1      29.382  28.797  22.900  1.00  0.00    -0.177 NA
ATOM    103  C   UNL A   1      28.008  30.613  22.819  1.00  0.00     0.042 A 
ATOM    104  C   UNL A   1      28.170  29.244  22.558  1.00  0.00     0.135 A 
ENDBRANCH  96 100
BRANCH  97 105
ATOM    105  C   UNL A   1      34.583  29.289  26.906  1.00  0.00     0.416 C 
ATOM    106  F   UNL A   1      34.396  29.792  28.155  1.00  0.00    -0.166 F 
ATOM    107  F   UNL A   1      35.021  28.010  27.073  1.00  0.00    -0.166 F 
ATOM    108  F   UNL A   1      35.641  29.972  26.382  1.00  0.00    -0.166 F 
ENDBRANCH  97 105
ENDBRANCH  92  94
ENDBRANCH  89  92
ENDBRANCH  84  89
ENDBRANCH  78  80
ENDBRANCH  77  78
ENDBRANCH  76  77
ENDBRANCH   1  76
TORSDOF 22
ENDMDL
MODEL 3
REMARK VINA RESULT:     -12.1      2.109      3.043
REMARK SMILES O=C(OCCOCCOC(=O)c1cc2c(c(S(=O)(=O)Nc3cc(C(F)(F)F)ccc3-n3cccn3)c1)CCC2)c1ccc(-c2c3nc(c(-c4c(F)cc(S(=O)(=O)[O-])cc4F)c4ccc([nH]4)c(-c4c(F)cc(S(=O)(=O)[O-])cc4F)c4nc(c(-c5c(F)cc(S(=O)(=O)[O-])cc5F)c5ccc2[nH]5)C=C4)C=C3)cc1
REMARK SMILES IDX 7 1 6 2 5 3 4 4 3 5 2 6 1 7 40 8 41 9 105 10 42 11 104 12
REMARK SMILES IDX 43 13 44 14 45 15 98 16 46 17 103 18 97 19 99 20 47 21
REMARK SMILES IDX 102 22 96 23 95 24 48 26 82 27 61 28 81 29 62 30 65 31 80 32
REMARK SMILES IDX 100 33 63 34 64 35 79 37 101 38 66 39 49 40 50 41 59 42
REMARK SMILES IDX 51 43 52 44 58 45 60 46 53 47 54 48 55 49 56 50 57 51 83 52
REMARK SMILES IDX 84 53 93 54 85 55 86 56 92 57 94 58 87 59 88 60 89 61 90 62
REMARK SMILES IDX 91 63 67 64 68 65 77 66 69 67 70 68 76 69 78 70 71 71 72 72
REMARK SMILES IDX 73 73 74 74 75 75 8 76 9 77 10 78 11 79 12 80 13 81 36 82
REMARK SMILES IDX 14 83 16 84 15 85 39 86 37 87 38 88 17 89 18 90 19 91 20 92
REMARK SMILES IDX 21 94 22 95 30 96 23 97 29 98 28 99 31 100 32 101 35 102
REMARK SMILES IDX 33 103 34 104 24 105 25 106 26 107 27 108
REMARK H PARENT 99 25 65 36 20 93
REMARK Flexibility Score: inf
ROOT
ATOM      1  C   UNL A   1      38.698  24.060  26.306  1.00  0.00     0.202 C 
ENDROOT
BRANCH   1   2
ATOM      2  O   UNL A   1      39.521  23.025  26.859  1.00  0.00    -0.374 OA
BRANCH   2   3
ATOM      3  C   UNL A   1      39.507  21.771  26.187  1.00  0.00     0.202 C 
BRANCH   3   4
ATOM      4  C   UNL A   1      40.512  20.715  26.636  1.00  0.00     0.261 C 
BRANCH   4   5
ATOM      5  O   UNL A   1      41.541  20.434  25.667  1.00  0.00    -0.460 OA
BRANCH   5   6
ATOM      6  C   UNL A   1      42.831  20.822  25.758  1.00  0.00     0.338 C 
ATOM      7  O   UNL A   1      43.721  20.117  25.285  1.00  0.00    -0.246 OA
BRANCH   6   8
ATOM      8  C   UNL A   1      43.152  22.206  26.198  1.00  0.00     0.060 A 
ATOM      9  C   UNL A   1      43.701  22.542  27.433  1.00  0.00     0.016 A 
ATOM     10  C   UNL A   1      42.746  23.236  25.331  1.00  0.00     0.016 A 
ATOM     11  C   UNL A   1      43.590  23.831  27.908  1.00  0.00     0.010 A 
ATOM     12  C   UNL A   1      42.700  24.546  25.775  1.00  0.00     0.010 A 
ATOM     13  C   UNL A   1      43.021  24.812  27.099  1.00  0.00    -0.014 A 
BRANCH  13  14
ATOM     14  C   UNL A   1      42.849  26.127  27.688  1.00  0.00     0.031 A 
ATOM     15  C   UNL A   1      43.936  27.085  27.345  1.00  0.00     0.074 A 
ATOM     16  C   UNL A   1      41.776  26.439  28.441  1.00  0.00     0.049 A 
ATOM     17  N   UNL A   1      44.814  27.610  28.134  1.00  0.00    -0.248 NA
ATOM     18  C   UNL A   1      44.190  27.339  25.917  1.00  0.00     0.031 C 
ATOM     19  C   UNL A   1      40.552  25.663  28.657  1.00  0.00     0.029 A 
ATOM     20  N   UNL A   1      41.525  27.588  29.119  1.00  0.00    -0.354 N 
ATOM     21  C   UNL A   1      45.600  28.436  27.333  1.00  0.00     0.074 A 
ATOM     22  C   UNL A   1      45.283  28.100  25.970  1.00  0.00     0.031 C 
ATOM     23  C   UNL A   1      39.603  26.466  29.192  1.00  0.00     0.029 A 
ATOM     24  C   UNL A   1      40.197  27.756  29.494  1.00  0.00     0.049 A 
ATOM     25  H   UNL A   1      42.224  28.248  29.326  1.00  0.00     0.167 HD
ATOM     26  C   UNL A   1      46.292  29.485  27.857  1.00  0.00     0.037 A 
ATOM     27  C   UNL A   1      39.635  28.908  29.941  1.00  0.00     0.037 A 
ATOM     28  C   UNL A   1      46.462  29.339  29.279  1.00  0.00     0.049 A 
ATOM     29  C   UNL A   1      40.749  29.761  30.442  1.00  0.00     0.074 A 
ATOM     30  C   UNL A   1      47.105  28.420  30.085  1.00  0.00     0.029 A 
ATOM     31  N   UNL A   1      45.599  30.023  30.101  1.00  0.00    -0.354 N 
ATOM     32  N   UNL A   1      41.482  29.451  31.481  1.00  0.00    -0.248 NA
ATOM     33  C   UNL A   1      41.365  30.686  29.501  1.00  0.00     0.031 C 
ATOM     34  C   UNL A   1      46.250  28.261  31.212  1.00  0.00     0.029 A 
ATOM     35  C   UNL A   1      45.177  29.144  31.066  1.00  0.00     0.049 A 
ATOM     36  H   UNL A   1      45.333  30.966  30.014  1.00  0.00     0.167 HD
ATOM     37  C   UNL A   1      42.777  29.800  31.124  1.00  0.00     0.074 A 
ATOM     38  C   UNL A   1      42.633  30.609  29.914  1.00  0.00     0.031 C 
ATOM     39  C   UNL A   1      43.862  29.175  31.668  1.00  0.00     0.037 A 
BRANCH  26  40
ATOM     40  C   UNL A   1      46.486  30.806  27.153  1.00  0.00     0.058 A 
ATOM     41  C   UNL A   1      47.781  31.357  27.059  1.00  0.00     0.135 A 
ATOM     42  C   UNL A   1      45.426  31.686  26.839  1.00  0.00     0.135 A 
ATOM     43  F   UNL A   1      48.863  30.612  27.334  1.00  0.00    -0.206 F 
ATOM     44  C   UNL A   1      48.000  32.703  26.761  1.00  0.00     0.059 A 
ATOM     45  C   UNL A   1      45.625  33.016  26.490  1.00  0.00     0.059 A 
ATOM     46  F   UNL A   1      44.141  31.331  26.948  1.00  0.00    -0.206 F 
ATOM     47  C   UNL A   1      46.912  33.528  26.497  1.00  0.00     0.060 A 
BRANCH  47  48
ATOM     48  S   UNL A   1      47.180  35.287  26.225  1.00  0.00     0.124 S 
ATOM     49  O   UNL A   1      48.138  35.269  25.124  1.00  0.00    -0.237 OA
ATOM     50  O   UNL A   1      45.836  35.750  25.897  1.00  0.00    -0.237 OA
ATOM     51  O   UNL A   1      47.701  35.750  27.508  1.00  0.00    -0.744 OA
ENDBRANCH  47  48
ENDBRANCH  26  40
BRANCH  27  52
ATOM     52  C   UNL A   1      38.308  29.460  29.543  1.00  0.00     0.058 A 
ATOM     53  C   UNL A   1      37.368  29.878  30.502  1.00  0.00     0.135 A 
ATOM     54  C   UNL A   1      38.041  29.844  28.212  1.00  0.00     0.135 A 
ATOM     55  F   UNL A   1      37.553  29.582  31.798  1.00  0.00    -0.206 F 
ATOM     56  C   UNL A   1      36.254  30.660  30.169  1.00  0.00     0.059 A 
ATOM     57  C   UNL A   1      36.936  30.614  27.854  1.00  0.00     0.059 A 
ATOM     58  F   UNL A   1      38.901  29.557  27.222  1.00  0.00    -0.206 F 
ATOM     59  C   UNL A   1      36.056  31.039  28.841  1.00  0.00     0.060 A 
BRANCH  59  60
ATOM     60  S   UNL A   1      34.715  32.181  28.423  1.00  0.00     0.124 S 
ATOM     61  O   UNL A   1      35.412  33.191  27.635  1.00  0.00    -0.237 OA
ATOM     62  O   UNL A   1      33.795  31.320  27.686  1.00  0.00    -0.237 OA
ATOM     63  O   UNL A   1      34.232  32.630  29.726  1.00  0.00    -0.744 OA
ENDBRANCH  59  60
ENDBRANCH  27  52
BRANCH  39  64
ATOM     64  C   UNL A   1      43.661  28.269  32.855  1.00  0.00     0.058 A 
ATOM     65  C   UNL A   1      43.532  26.869  32.773  1.00  0.00     0.135 A 
ATOM     66  C   UNL A   1      43.826  28.824  34.131  1.00  0.00     0.135 A 
ATOM     67  F   UNL A   1      43.463  26.253  31.586  1.00  0.00    -0.206 F 
ATOM     68  C   UNL A   1      43.555  26.064  33.916  1.00  0.00     0.059 A 
ATOM     69  C   UNL A   1      43.880  28.040  35.279  1.00  0.00     0.059 A 
ATOM     70  F   UNL A   1      44.014  30.148  34.268  1.00  0.00    -0.206 F 
ATOM     71  C   UNL A   1      43.740  26.659  35.165  1.00  0.00     0.060 A 
BRANCH  71  72
ATOM     72  S   UNL A   1      43.888  25.613  36.632  1.00  0.00     0.124 S 
ATOM     73  O   UNL A   1      42.680  25.953  37.374  1.00  0.00    -0.237 OA
ATOM     74  O   UNL A   1      43.926  24.269  36.062  1.00  0.00    -0.237 OA
ATOM     75  O   UNL A   1      45.141  26.055  37.241  1.00  0.00    -0.744 OA
ENDBRANCH  71  72
ENDBRANCH  39  64
ENDBRANCH  13  14
ENDBRANCH   6   8
ENDBRANCH   5   6
ENDBRANCH   4   5
ENDBRANCH   3   4
ENDBRANCH   2   3
ENDBRANCH   1   2
BRANCH   1  76
ATOM     76  C   UNL A   1      37.509  23.661  25.418  1.00  0.00     0.261 C 
BRANCH  76  77
ATOM     77  O   UNL A   1      36.239  23.887  26.060  1.00  0.00    -0.460 OA
BRANCH  77  78
ATOM     78  C   UNL A   1      35.201  23.113  25.640  1.00  0.00     0.338 C 
ATOM     79  O   UNL A   1      35.225  21.939  25.345  1.00  0.00    -0.246 OA
BRANCH  78  80
ATOM     80  C   UNL A   1      33.950  23.900  25.772  1.00  0.00     0.061 A 
ATOM     81  C   UNL A   1      32.727  23.241  25.727  1.00  0.00     0.019 A 
ATOM     82  C   UNL A   1      34.017  25.305  25.952  1.00  0.00     0.038 A 
ATOM     83  C   UNL A   1      31.590  24.005  25.884  1.00  0.00    -0.043 A 
ATOM     84  C   UNL A   1      32.845  26.085  26.073  1.00  0.00     0.092 A 
ATOM     85  C   UNL A   1      31.631  25.414  26.000  1.00  0.00    -0.024 A 
ATOM     86  C   UNL A   1      30.184  23.492  25.982  1.00  0.00     0.036 C 
ATOM     87  C   UNL A   1      30.219  25.907  26.000  1.00  0.00     0.037 C 
ATOM     88  C   UNL A   1      29.526  24.701  26.646  1.00  0.00     0.010 C 
BRANCH  84  89
ATOM     89  S   UNL A   1      32.991  27.863  26.101  1.00  0.00     0.262 S 
ATOM     90  O   UNL A   1      31.857  28.368  26.851  1.00  0.00    -0.201 OA
ATOM     91  O   UNL A   1      34.335  28.176  26.536  1.00  0.00    -0.201 OA
BRANCH  89  92
ATOM     92  N   UNL A   1      32.826  28.598  24.562  1.00  0.00    -0.277 N 
ATOM     93  H   UNL A   1      33.635  28.940  24.116  1.00  0.00     0.180 HD
BRANCH  92  94
ATOM     94  C   UNL A   1      31.564  28.740  23.893  1.00  0.00     0.075 A 
ATOM     95  C   UNL A   1      30.757  29.854  24.205  1.00  0.00     0.042 A 
ATOM     96  C   UNL A   1      31.157  27.866  22.874  1.00  0.00     0.089 A 
ATOM     97  C   UNL A   1      29.593  30.141  23.460  1.00  0.00     0.058 A 
ATOM     98  C   UNL A   1      29.990  28.139  22.142  1.00  0.00     0.031 A 
ATOM     99  C   UNL A   1      29.215  29.264  22.434  1.00  0.00     0.015 A 
BRANCH  96 100
ATOM    100  N   UNL A   1      31.924  26.731  22.516  1.00  0.00    -0.239 N 
ATOM    101  C   UNL A   1      31.523  25.415  22.445  1.00  0.00     0.115 A 
ATOM    102  N   UNL A   1      33.260  26.848  22.300  1.00  0.00    -0.177 NA
ATOM    103  C   UNL A   1      32.663  24.652  22.407  1.00  0.00     0.042 A 
ATOM    104  C   UNL A   1      33.705  25.590  22.354  1.00  0.00     0.135 A 
ENDBRANCH  96 100
BRANCH  97 105
ATOM    105  C   UNL A   1      28.808  31.409  23.716  1.00  0.00     0.416 C 
ATOM    106  F   UNL A   1      27.681  31.191  24.445  1.00  0.00    -0.166 F 
ATOM    107  F   UNL A   1      29.532  32.336  24.403  1.00  0.00    -0.166 F 
ATOM    108  F   UNL A   1      28.401  32.034  22.575  1.00  0.00    -0.166 F 
ENDBRANCH  97 105
ENDBRANCH  92  94
ENDBRANCH  89  92
ENDBRANCH  84  89
ENDBRANCH  78  80
ENDBRANCH  77  78
ENDBRANCH  76  77
ENDBRANCH   1  76
TORSDOF 22
ENDMDL
