MODEL 1
REMARK VINA RESULT:     -10.8      0.000      0.000
REMARK SMILES O=C(CCc1ccc(S(=O)(=O)Nc2cccc(I)c2)cc1)OCCOCCOC(=O)c1ccc(-c2c3nc(c(-c4c(F)cc(S(=O)(=O)[O-])cc4F)c4ccc([nH]4)c(-c4c(F)cc(S(=O)(=O)[O-])cc4F)c4nc(c(-c5c(F)cc(S(=O)(=O)[O-])cc5F)c5ccc2[nH]5)C=C4)C=C3)cc1
REMARK SMILES IDX 24 1 23 2 22 3 2 4 1 5 3 6 4 7 5 8 6 9 21 10 7 11 20 12 8 13
REMARK SMILES IDX 9 14 10 15 11 16 12 17 13 19 14 20 19 21 15 22 17 23 16 24
REMARK SMILES IDX 18 25 25 26 26 27 27 28 28 29 29 30 30 31 31 32 32 33 96 34
REMARK SMILES IDX 33 35 95 36 34 37 35 38 36 39 89 40 37 41 94 42 88 43 90 44
REMARK SMILES IDX 38 45 93 46 87 47 86 48 39 50 73 51 52 52 72 53 53 54 56 55
REMARK SMILES IDX 71 56 91 57 54 58 55 59 70 61 92 62 57 63 40 64 41 65 50 66
REMARK SMILES IDX 42 67 43 68 49 69 51 70 44 71 45 72 46 73 47 74 48 75 74 76
REMARK SMILES IDX 75 77 84 78 76 79 77 80 83 81 85 82 78 83 79 84 80 85 81 86
REMARK SMILES IDX 82 87 58 88 59 89 68 90 60 91 61 92 67 93 69 94 62 95 63 96
REMARK SMILES IDX 64 97 65 98 66 99
REMARK H PARENT 12 18 90 49 56 60
REMARK Flexibility Score: inf
ROOT
ATOM      1  C   UNL A   1      38.860  22.352  25.965  1.00  0.00     0.202 C 
ENDROOT
BRANCH   1   2
ATOM      2  C   UNL A   1      37.941  21.383  25.215  1.00  0.00     0.261 C 
BRANCH   2   3
ATOM      3  O   UNL A   1      36.634  21.116  25.770  1.00  0.00    -0.463 OA
BRANCH   3   4
ATOM      4  C   UNL A   1      35.512  20.692  25.166  1.00  0.00     0.306 C 
ATOM      5  O   UNL A   1      35.422  19.519  24.803  1.00  0.00    -0.252 OA
BRANCH   4   6
ATOM      6  C   UNL A   1      34.401  21.653  24.859  1.00  0.00     0.127 C 
BRANCH   6   7
ATOM      7  C   UNL A   1      34.710  22.527  23.648  1.00  0.00     0.047 C 
BRANCH   7   8
ATOM      8  C   UNL A   1      34.450  23.984  23.926  1.00  0.00    -0.047 A 
ATOM      9  C   UNL A   1      33.949  24.838  22.938  1.00  0.00     0.005 A 
ATOM     10  C   UNL A   1      34.624  24.476  25.223  1.00  0.00     0.005 A 
ATOM     11  C   UNL A   1      33.632  26.165  23.246  1.00  0.00     0.022 A 
ATOM     12  C   UNL A   1      34.209  25.763  25.552  1.00  0.00     0.022 A 
ATOM     13  C   UNL A   1      33.769  26.633  24.557  1.00  0.00     0.087 A 
BRANCH  13  14
ATOM     14  S   UNL A   1      33.458  28.366  24.845  1.00  0.00     0.261 S 
ATOM     15  O   UNL A   1      34.230  28.743  26.007  1.00  0.00    -0.201 OA
ATOM     16  O   UNL A   1      33.637  29.013  23.560  1.00  0.00    -0.201 OA
BRANCH  14  17
ATOM     17  N   UNL A   1      31.834  28.566  25.191  1.00  0.00    -0.280 N 
ATOM     18  H   UNL A   1      31.594  28.647  26.143  1.00  0.00     0.180 HD
BRANCH  17  19
ATOM     19  C   UNL A   1      30.765  28.630  24.258  1.00  0.00     0.050 A 
ATOM     20  C   UNL A   1      30.074  27.435  24.031  1.00  0.00     0.027 A 
ATOM     21  C   UNL A   1      30.260  29.824  23.738  1.00  0.00     0.041 A 
ATOM     22  C   UNL A   1      28.830  27.447  23.398  1.00  0.00     0.003 A 
ATOM     23  C   UNL A   1      28.992  29.838  23.152  1.00  0.00     0.015 A 
ATOM     24  C   UNL A   1      28.270  28.656  22.991  1.00  0.00     0.015 A 
ATOM     25  I   UNL A   1      28.108  31.657  22.660  1.00  0.00    -0.044 I 
ENDBRANCH  17  19
ENDBRANCH  14  17
ENDBRANCH  13  14
ENDBRANCH   7   8
ENDBRANCH   6   7
ENDBRANCH   4   6
ENDBRANCH   3   4
ENDBRANCH   2   3
ENDBRANCH   1   2
BRANCH   1  26
ATOM     26  O   UNL A   1      39.630  21.847  27.047  1.00  0.00    -0.374 OA
BRANCH  26  27
ATOM     27  C   UNL A   1      41.046  21.831  26.912  1.00  0.00     0.202 C 
BRANCH  27  28
ATOM     28  C   UNL A   1      41.655  22.975  26.102  1.00  0.00     0.261 C 
BRANCH  28  29
ATOM     29  O   UNL A   1      42.033  24.083  26.936  1.00  0.00    -0.460 OA
BRANCH  29  30
ATOM     30  C   UNL A   1      41.845  25.313  26.400  1.00  0.00     0.338 C 
ATOM     31  O   UNL A   1      41.861  25.613  25.217  1.00  0.00    -0.246 OA
BRANCH  30  32
ATOM     32  C   UNL A   1      41.425  26.248  27.460  1.00  0.00     0.060 A 
ATOM     33  C   UNL A   1      42.133  27.448  27.610  1.00  0.00     0.016 A 
ATOM     34  C   UNL A   1      40.382  25.924  28.332  1.00  0.00     0.016 A 
ATOM     35  C   UNL A   1      41.821  28.314  28.658  1.00  0.00     0.010 A 
ATOM     36  C   UNL A   1      40.083  26.787  29.388  1.00  0.00     0.010 A 
ATOM     37  C   UNL A   1      40.819  27.970  29.573  1.00  0.00    -0.014 A 
BRANCH  37  38
ATOM     38  C   UNL A   1      40.619  28.771  30.804  1.00  0.00     0.031 A 
ATOM     39  C   UNL A   1      39.563  29.842  30.809  1.00  0.00     0.074 A 
ATOM     40  C   UNL A   1      41.382  28.559  31.892  1.00  0.00     0.049 A 
ATOM     41  N   UNL A   1      39.285  30.727  31.729  1.00  0.00    -0.248 NA
ATOM     42  C   UNL A   1      38.704  29.926  29.615  1.00  0.00     0.031 C 
ATOM     43  C   UNL A   1      42.403  27.521  32.018  1.00  0.00     0.029 A 
ATOM     44  N   UNL A   1      41.427  29.224  33.092  1.00  0.00    -0.354 N 
ATOM     45  C   UNL A   1      38.233  31.482  31.225  1.00  0.00     0.074 A 
ATOM     46  C   UNL A   1      37.930  30.960  29.909  1.00  0.00     0.031 C 
ATOM     47  C   UNL A   1      42.995  27.635  33.219  1.00  0.00     0.029 A 
ATOM     48  C   UNL A   1      42.419  28.776  33.931  1.00  0.00     0.049 A 
ATOM     49  H   UNL A   1      40.808  29.952  33.329  1.00  0.00     0.167 HD
ATOM     50  C   UNL A   1      37.580  32.514  31.808  1.00  0.00     0.037 A 
ATOM     51  C   UNL A   1      42.835  29.252  35.121  1.00  0.00     0.037 A 
ATOM     52  C   UNL A   1      37.889  33.025  33.118  1.00  0.00     0.049 A 
ATOM     53  C   UNL A   1      42.137  30.448  35.717  1.00  0.00     0.074 A 
ATOM     54  C   UNL A   1      37.268  34.051  33.809  1.00  0.00     0.029 A 
ATOM     55  N   UNL A   1      38.912  32.558  33.930  1.00  0.00    -0.354 N 
ATOM     56  N   UNL A   1      41.122  31.134  35.244  1.00  0.00    -0.248 NA
ATOM     57  C   UNL A   1      42.638  30.936  37.009  1.00  0.00     0.031 C 
ATOM     58  C   UNL A   1      37.948  34.238  35.017  1.00  0.00     0.029 A 
ATOM     59  C   UNL A   1      38.959  33.295  35.102  1.00  0.00     0.049 A 
ATOM     60  H   UNL A   1      39.516  31.813  33.706  1.00  0.00     0.167 HD
ATOM     61  C   UNL A   1      40.849  32.115  36.192  1.00  0.00     0.074 A 
ATOM     62  C   UNL A   1      41.795  31.926  37.272  1.00  0.00     0.031 C 
ATOM     63  C   UNL A   1      39.904  33.087  36.171  1.00  0.00     0.037 A 
BRANCH  50  64
ATOM     64  C   UNL A   1      36.479  33.180  31.031  1.00  0.00     0.058 A 
ATOM     65  C   UNL A   1      35.129  33.039  31.392  1.00  0.00     0.135 A 
ATOM     66  C   UNL A   1      36.785  34.024  29.951  1.00  0.00     0.135 A 
ATOM     67  F   UNL A   1      34.781  32.228  32.402  1.00  0.00    -0.206 F 
ATOM     68  C   UNL A   1      34.121  33.706  30.704  1.00  0.00     0.059 A 
ATOM     69  C   UNL A   1      35.794  34.720  29.264  1.00  0.00     0.059 A 
ATOM     70  F   UNL A   1      38.059  34.188  29.560  1.00  0.00    -0.206 F 
ATOM     71  C   UNL A   1      34.464  34.550  29.644  1.00  0.00     0.060 A 
BRANCH  71  72
ATOM     72  S   UNL A   1      33.146  35.434  28.785  1.00  0.00     0.124 S 
ATOM     73  O   UNL A   1      32.371  35.961  29.905  1.00  0.00    -0.237 OA
ATOM     74  O   UNL A   1      33.889  36.422  28.010  1.00  0.00    -0.237 OA
ATOM     75  O   UNL A   1      32.488  34.393  28.004  1.00  0.00    -0.744 OA
ENDBRANCH  71  72
ENDBRANCH  50  64
BRANCH  51  76
ATOM     76  C   UNL A   1      43.992  28.626  35.818  1.00  0.00     0.058 A 
ATOM     77  C   UNL A   1      43.810  27.586  36.740  1.00  0.00     0.135 A 
ATOM     78  C   UNL A   1      45.303  29.082  35.600  1.00  0.00     0.135 A 
ATOM     79  F   UNL A   1      42.576  27.124  36.996  1.00  0.00    -0.206 F 
ATOM     80  C   UNL A   1      44.879  27.039  37.443  1.00  0.00     0.059 A 
ATOM     81  C   UNL A   1      46.391  28.531  36.269  1.00  0.00     0.059 A 
ATOM     82  F   UNL A   1      45.535  30.070  34.721  1.00  0.00    -0.206 F 
ATOM     83  C   UNL A   1      46.167  27.521  37.203  1.00  0.00     0.060 A 
BRANCH  83  84
ATOM     84  S   UNL A   1      47.551  26.798  38.112  1.00  0.00     0.124 S 
ATOM     85  O   UNL A   1      47.318  27.312  39.456  1.00  0.00    -0.237 OA
ATOM     86  O   UNL A   1      47.328  25.367  37.927  1.00  0.00    -0.237 OA
ATOM     87  O   UNL A   1      48.720  27.337  37.424  1.00  0.00    -0.744 OA
ENDBRANCH  83  84
ENDBRANCH  51  76
BRANCH  63  88
ATOM     88  C   UNL A   1      39.821  34.002  37.363  1.00  0.00     0.058 A 
ATOM     89  C   UNL A   1      40.448  35.256  37.375  1.00  0.00     0.135 A 
ATOM     90  C   UNL A   1      39.058  33.640  38.485  1.00  0.00     0.135 A 
ATOM     91  F   UNL A   1      41.193  35.649  36.329  1.00  0.00    -0.206 F 
ATOM     92  C   UNL A   1      40.342  36.112  38.467  1.00  0.00     0.059 A 
ATOM     93  C   UNL A   1      38.914  34.491  39.576  1.00  0.00     0.059 A 
ATOM     94  F   UNL A   1      38.425  32.456  38.520  1.00  0.00    -0.206 F 
ATOM     95  C   UNL A   1      39.569  35.721  39.562  1.00  0.00     0.060 A 
BRANCH  95  96
ATOM     96  S   UNL A   1      39.411  36.855  40.959  1.00  0.00     0.124 S 
ATOM     97  O   UNL A   1      38.775  38.008  40.331  1.00  0.00    -0.237 OA
ATOM     98  O   UNL A   1      38.575  36.095  41.883  1.00  0.00    -0.237 OA
ATOM     99  O   UNL A   1      40.790  37.056  41.392  1.00  0.00    -0.744 OA
ENDBRANCH  95  96
ENDBRANCH  63  88
ENDBRANCH  37  38
ENDBRANCH  30  32
ENDBRANCH  29  30
ENDBRANCH  28  29
ENDBRANCH  27  28
ENDBRANCH  26  27
ENDBRANCH   1  26
TORSDOF 22
ENDMDL
MODEL 2
REMARK VINA RESULT:     -10.4      6.493     12.218
REMARK SMILES O=C(CCc1ccc(S(=O)(=O)Nc2cccc(I)c2)cc1)OCCOCCOC(=O)c1ccc(-c2c3nc(c(-c4c(F)cc(S(=O)(=O)[O-])cc4F)c4ccc([nH]4)c(-c4c(F)cc(S(=O)(=O)[O-])cc4F)c4nc(c(-c5c(F)cc(S(=O)(=O)[O-])cc5F)c5ccc2[nH]5)C=C4)C=C3)cc1
REMARK SMILES IDX 24 1 23 2 22 3 2 4 1 5 3 6 4 7 5 8 6 9 21 10 7 11 20 12 8 13
REMARK SMILES IDX 9 14 10 15 11 16 12 17 13 19 14 20 19 21 15 22 17 23 16 24
REMARK SMILES IDX 18 25 25 26 26 27 27 28 28 29 29 30 30 31 31 32 32 33 96 34
REMARK SMILES IDX 33 35 95 36 34 37 35 38 36 39 89 40 37 41 94 42 88 43 90 44
REMARK SMILES IDX 38 45 93 46 87 47 86 48 39 50 73 51 52 52 72 53 53 54 56 55
REMARK SMILES IDX 71 56 91 57 54 58 55 59 70 61 92 62 57 63 40 64 41 65 50 66
REMARK SMILES IDX 42 67 43 68 49 69 51 70 44 71 45 72 46 73 47 74 48 75 74 76
REMARK SMILES IDX 75 77 84 78 76 79 77 80 83 81 85 82 78 83 79 84 80 85 81 86
REMARK SMILES IDX 82 87 58 88 59 89 68 90 60 91 61 92 67 93 69 94 62 95 63 96
REMARK SMILES IDX 64 97 65 98 66 99
REMARK H PARENT 12 18 90 49 56 60
REMARK Flexibility Score: inf
ROOT
ATOM      1  C   UNL A   1      34.568  33.110  29.641  1.00  0.00     0.202 C 
ENDROOT
BRANCH   1   2
ATOM      2  C   UNL A   1      35.021  32.740  28.226  1.00  0.00     0.261 C 
BRANCH   2   3
ATOM      3  O   UNL A   1      34.431  31.577  27.604  1.00  0.00    -0.463 OA
BRANCH   3   4
ATOM      4  C   UNL A   1      33.149  31.324  27.292  1.00  0.00     0.306 C 
ATOM      5  O   UNL A   1      32.354  32.257  27.183  1.00  0.00    -0.252 OA
BRANCH   4   6
ATOM      6  C   UNL A   1      32.663  29.911  27.155  1.00  0.00     0.127 C 
BRANCH   6   7
ATOM      7  C   UNL A   1      33.810  28.908  27.090  1.00  0.00     0.047 C 
BRANCH   7   8
ATOM      8  C   UNL A   1      33.691  27.994  25.898  1.00  0.00    -0.047 A 
ATOM      9  C   UNL A   1      33.628  28.499  24.595  1.00  0.00     0.005 A 
ATOM     10  C   UNL A   1      33.739  26.611  26.089  1.00  0.00     0.005 A 
ATOM     11  C   UNL A   1      33.608  27.628  23.501  1.00  0.00     0.022 A 
ATOM     12  C   UNL A   1      33.827  25.751  24.998  1.00  0.00     0.022 A 
ATOM     13  C   UNL A   1      33.700  26.246  23.702  1.00  0.00     0.087 A 
BRANCH  13  14
ATOM     14  S   UNL A   1      33.550  25.197  22.267  1.00  0.00     0.261 S 
ATOM     15  O   UNL A   1      33.525  26.068  21.114  1.00  0.00    -0.201 OA
ATOM     16  O   UNL A   1      34.555  24.166  22.430  1.00  0.00    -0.201 OA
BRANCH  14  17
ATOM     17  N   UNL A   1      32.093  24.380  22.355  1.00  0.00    -0.280 N 
ATOM     18  H   UNL A   1      31.396  24.652  21.714  1.00  0.00     0.180 HD
BRANCH  17  19
ATOM     19  C   UNL A   1      31.755  23.335  23.256  1.00  0.00     0.050 A 
ATOM     20  C   UNL A   1      32.517  22.165  23.155  1.00  0.00     0.027 A 
ATOM     21  C   UNL A   1      30.876  23.491  24.330  1.00  0.00     0.041 A 
ATOM     22  C   UNL A   1      32.495  21.217  24.179  1.00  0.00     0.003 A 
ATOM     23  C   UNL A   1      30.896  22.565  25.376  1.00  0.00     0.015 A 
ATOM     24  C   UNL A   1      31.711  21.435  25.310  1.00  0.00     0.015 A 
ATOM     25  I   UNL A   1      29.821  22.955  27.114  1.00  0.00    -0.044 I 
ENDBRANCH  17  19
ENDBRANCH  14  17
ENDBRANCH  13  14
ENDBRANCH   7   8
ENDBRANCH   6   7
ENDBRANCH   4   6
ENDBRANCH   3   4
ENDBRANCH   2   3
ENDBRANCH   1   2
BRANCH   1  26
ATOM     26  O   UNL A   1      34.840  32.197  30.695  1.00  0.00    -0.374 OA
BRANCH  26  27
ATOM     27  C   UNL A   1      35.520  32.683  31.846  1.00  0.00     0.202 C 
BRANCH  27  28
ATOM     28  C   UNL A   1      36.449  31.691  32.544  1.00  0.00     0.261 C 
BRANCH  28  29
ATOM     29  O   UNL A   1      36.487  30.423  31.868  1.00  0.00    -0.460 OA
BRANCH  29  30
ATOM     30  C   UNL A   1      37.338  29.505  32.388  1.00  0.00     0.338 C 
ATOM     31  O   UNL A   1      37.083  28.653  33.223  1.00  0.00    -0.246 OA
BRANCH  30  32
ATOM     32  C   UNL A   1      38.617  29.554  31.655  1.00  0.00     0.060 A 
ATOM     33  C   UNL A   1      38.582  29.716  30.263  1.00  0.00     0.016 A 
ATOM     34  C   UNL A   1      39.833  29.387  32.321  1.00  0.00     0.016 A 
ATOM     35  C   UNL A   1      39.766  29.677  29.528  1.00  0.00     0.010 A 
ATOM     36  C   UNL A   1      41.015  29.334  31.580  1.00  0.00     0.010 A 
ATOM     37  C   UNL A   1      40.985  29.449  30.180  1.00  0.00    -0.014 A 
BRANCH  37  38
ATOM     38  C   UNL A   1      42.219  29.197  29.398  1.00  0.00     0.031 A 
ATOM     39  C   UNL A   1      42.435  27.831  28.805  1.00  0.00     0.074 A 
ATOM     40  C   UNL A   1      43.140  30.164  29.239  1.00  0.00     0.049 A 
ATOM     41  N   UNL A   1      43.478  27.357  28.178  1.00  0.00    -0.248 NA
ATOM     42  C   UNL A   1      41.324  26.873  28.935  1.00  0.00     0.031 C 
ATOM     43  C   UNL A   1      43.018  31.535  29.729  1.00  0.00     0.029 A 
ATOM     44  N   UNL A   1      44.372  30.130  28.636  1.00  0.00    -0.354 N 
ATOM     45  C   UNL A   1      43.160  26.044  27.851  1.00  0.00     0.074 A 
ATOM     46  C   UNL A   1      41.829  25.790  28.362  1.00  0.00     0.031 C 
ATOM     47  C   UNL A   1      44.143  32.207  29.432  1.00  0.00     0.029 A 
ATOM     48  C   UNL A   1      45.077  31.303  28.763  1.00  0.00     0.049 A 
ATOM     49  H   UNL A   1      44.718  29.342  28.158  1.00  0.00     0.167 HD
ATOM     50  C   UNL A   1      43.910  25.135  27.185  1.00  0.00     0.037 A 
ATOM     51  C   UNL A   1      46.343  31.602  28.408  1.00  0.00     0.037 A 
ATOM     52  C   UNL A   1      45.233  25.397  26.681  1.00  0.00     0.049 A 
ATOM     53  C   UNL A   1      47.182  30.549  27.730  1.00  0.00     0.074 A 
ATOM     54  C   UNL A   1      46.064  24.551  25.969  1.00  0.00     0.029 A 
ATOM     55  N   UNL A   1      45.921  26.590  26.844  1.00  0.00    -0.354 N 
ATOM     56  N   UNL A   1      46.858  29.320  27.399  1.00  0.00    -0.248 NA
ATOM     57  C   UNL A   1      48.560  30.920  27.377  1.00  0.00     0.031 C 
ATOM     58  C   UNL A   1      47.276  25.214  25.747  1.00  0.00     0.029 A 
ATOM     59  C   UNL A   1      47.179  26.492  26.274  1.00  0.00     0.049 A 
ATOM     60  H   UNL A   1      45.568  27.389  27.299  1.00  0.00     0.167 HD
ATOM     61  C   UNL A   1      47.982  28.784  26.777  1.00  0.00     0.074 A 
ATOM     62  C   UNL A   1      48.989  29.825  26.764  1.00  0.00     0.031 C 
ATOM     63  C   UNL A   1      48.166  27.542  26.263  1.00  0.00     0.037 A 
BRANCH  50  64
ATOM     64  C   UNL A   1      43.334  23.762  26.978  1.00  0.00     0.058 A 
ATOM     65  C   UNL A   1      42.904  23.323  25.716  1.00  0.00     0.135 A 
ATOM     66  C   UNL A   1      43.272  22.852  28.046  1.00  0.00     0.135 A 
ATOM     67  F   UNL A   1      42.921  24.160  24.667  1.00  0.00    -0.206 F 
ATOM     68  C   UNL A   1      42.428  22.031  25.521  1.00  0.00     0.059 A 
ATOM     69  C   UNL A   1      42.822  21.546  27.869  1.00  0.00     0.059 A 
ATOM     70  F   UNL A   1      43.664  23.223  29.275  1.00  0.00    -0.206 F 
ATOM     71  C   UNL A   1      42.395  21.147  26.603  1.00  0.00     0.060 A 
BRANCH  71  72
ATOM     72  S   UNL A   1      41.806  19.464  26.324  1.00  0.00     0.124 S 
ATOM     73  O   UNL A   1      42.227  18.801  27.555  1.00  0.00    -0.237 OA
ATOM     74  O   UNL A   1      40.368  19.660  26.171  1.00  0.00    -0.237 OA
ATOM     75  O   UNL A   1      42.513  19.050  25.117  1.00  0.00    -0.744 OA
ENDBRANCH  71  72
ENDBRANCH  50  64
BRANCH  51  76
ATOM     76  C   UNL A   1      46.913  32.942  28.715  1.00  0.00     0.058 A 
ATOM     77  C   UNL A   1      47.602  33.183  29.913  1.00  0.00     0.135 A 
ATOM     78  C   UNL A   1      46.751  34.020  27.829  1.00  0.00     0.135 A 
ATOM     79  F   UNL A   1      47.771  32.190  30.800  1.00  0.00    -0.206 F 
ATOM     80  C   UNL A   1      48.082  34.448  30.237  1.00  0.00     0.059 A 
ATOM     81  C   UNL A   1      47.248  35.286  28.117  1.00  0.00     0.059 A 
ATOM     82  F   UNL A   1      46.107  33.843  26.664  1.00  0.00    -0.206 F 
ATOM     83  C   UNL A   1      47.897  35.495  29.333  1.00  0.00     0.060 A 
BRANCH  83  84
ATOM     84  S   UNL A   1      48.533  37.133  29.756  1.00  0.00     0.124 S 
ATOM     85  O   UNL A   1      48.132  37.250  31.153  1.00  0.00    -0.237 OA
ATOM     86  O   UNL A   1      49.964  36.980  29.512  1.00  0.00    -0.237 OA
ATOM     87  O   UNL A   1      47.836  38.013  28.823  1.00  0.00    -0.744 OA
ENDBRANCH  83  84
ENDBRANCH  51  76
BRANCH  63  88
ATOM     88  C   UNL A   1      49.492  27.247  25.616  1.00  0.00     0.058 A 
ATOM     89  C   UNL A   1      49.695  27.416  24.238  1.00  0.00     0.135 A 
ATOM     90  C   UNL A   1      50.589  26.844  26.395  1.00  0.00     0.135 A 
ATOM     91  F   UNL A   1      48.678  27.795  23.448  1.00  0.00    -0.206 F 
ATOM     92  C   UNL A   1      50.932  27.172  23.650  1.00  0.00     0.059 A 
ATOM     93  C   UNL A   1      51.843  26.624  25.833  1.00  0.00     0.059 A 
ATOM     94  F   UNL A   1      50.455  26.681  27.721  1.00  0.00    -0.206 F 
ATOM     95  C   UNL A   1      52.001  26.779  24.457  1.00  0.00     0.060 A 
BRANCH  95  96
ATOM     96  S   UNL A   1      53.611  26.500  23.687  1.00  0.00     0.124 S 
ATOM     97  O   UNL A   1      54.225  25.562  24.620  1.00  0.00    -0.237 OA
ATOM     98  O   UNL A   1      53.243  25.951  22.386  1.00  0.00    -0.237 OA
ATOM     99  O   UNL A   1      54.206  27.833  23.652  1.00  0.00    -0.744 OA
ENDBRANCH  95  96
ENDBRANCH  63  88
ENDBRANCH  37  38
ENDBRANCH  30  32
ENDBRANCH  29  30
ENDBRANCH  28  29
ENDBRANCH  27  28
ENDBRANCH  26  27
ENDBRANCH   1  26
TORSDOF 22
ENDMDL
MODEL 3
REMARK VINA RESULT:     -10.1      4.932     11.318
REMARK SMILES O=C(CCc1ccc(S(=O)(=O)Nc2cccc(I)c2)cc1)OCCOCCOC(=O)c1ccc(-c2c3nc(c(-c4c(F)cc(S(=O)(=O)[O-])cc4F)c4ccc([nH]4)c(-c4c(F)cc(S(=O)(=O)[O-])cc4F)c4nc(c(-c5c(F)cc(S(=O)(=O)[O-])cc5F)c5ccc2[nH]5)C=C4)C=C3)cc1
REMARK SMILES IDX 24 1 23 2 22 3 2 4 1 5 3 6 4 7 5 8 6 9 21 10 7 11 20 12 8 13
REMARK SMILES IDX 9 14 10 15 11 16 12 17 13 19 14 20 19 21 15 22 17 23 16 24
REMARK SMILES IDX 18 25 25 26 26 27 27 28 28 29 29 30 30 31 31 32 32 33 96 34
REMARK SMILES IDX 33 35 95 36 34 37 35 38 36 39 89 40 37 41 94 42 88 43 90 44
REMARK SMILES IDX 38 45 93 46 87 47 86 48 39 50 73 51 52 52 72 53 53 54 56 55
REMARK SMILES IDX 71 56 91 57 54 58 55 59 70 61 92 62 57 63 40 64 41 65 50 66
REMARK SMILES IDX 42 67 43 68 49 69 51 70 44 71 45 72 46 73 47 74 48 75 74 76
REMARK SMILES IDX 75 77 84 78 76 79 77 80 83 81 85 82 78 83 79 84 80 85 81 86
REMARK SMILES IDX 82 87 58 88 59 89 68 90 60 91 61 92 67 93 69 94 62 95 63 96
REMARK SMILES IDX 64 97 65 98 66 99
REMARK H PARENT 12 18 90 49 56 60
REMARK Flexibility Score: inf
ROOT
ATOM      1  C   UNL A   1      34.202  34.705  31.446  1.00  0.00     0.202 C 
ENDROOT
BRANCH   1   2
ATOM      2  C   UNL A   1      34.827  33.594  32.294  1.00  0.00     0.261 C 
BRANCH   2   3
ATOM      3  O   UNL A   1      36.208  33.246  32.051  1.00  0.00    -0.463 OA
BRANCH   3   4
ATOM      4  C   UNL A   1      37.218  34.001  31.589  1.00  0.00     0.306 C 
ATOM      5  O   UNL A   1      37.620  34.954  32.255  1.00  0.00    -0.252 OA
BRANCH   4   6
ATOM      6  C   UNL A   1      37.806  33.740  30.233  1.00  0.00     0.127 C 
BRANCH   6   7
ATOM      7  C   UNL A   1      38.615  34.924  29.715  1.00  0.00     0.047 C 
BRANCH   7   8
ATOM      8  C   UNL A   1      40.075  34.585  29.562  1.00  0.00    -0.047 A 
ATOM      9  C   UNL A   1      40.921  35.352  28.756  1.00  0.00     0.005 A 
ATOM     10  C   UNL A   1      40.617  33.539  30.314  1.00  0.00     0.005 A 
ATOM     11  C   UNL A   1      42.291  35.070  28.702  1.00  0.00     0.022 A 
ATOM     12  C   UNL A   1      41.992  33.328  30.341  1.00  0.00     0.022 A 
ATOM     13  C   UNL A   1      42.829  34.048  29.492  1.00  0.00     0.087 A 
BRANCH  13  14
ATOM     14  S   UNL A   1      44.560  33.673  29.278  1.00  0.00     0.261 S 
ATOM     15  O   UNL A   1      44.781  33.513  27.859  1.00  0.00    -0.201 OA
ATOM     16  O   UNL A   1      45.273  34.662  30.061  1.00  0.00    -0.201 OA
BRANCH  14  17
ATOM     17  N   UNL A   1      44.888  32.220  30.040  1.00  0.00    -0.280 N 
ATOM     18  H   UNL A   1      45.131  32.268  30.994  1.00  0.00     0.180 HD
BRANCH  17  19
ATOM     19  C   UNL A   1      44.854  30.925  29.458  1.00  0.00     0.050 A 
ATOM     20  C   UNL A   1      43.628  30.529  28.910  1.00  0.00     0.027 A 
ATOM     21  C   UNL A   1      45.991  30.148  29.227  1.00  0.00     0.041 A 
ATOM     22  C   UNL A   1      43.561  29.438  28.042  1.00  0.00     0.003 A 
ATOM     23  C   UNL A   1      45.929  29.089  28.318  1.00  0.00     0.015 A 
ATOM     24  C   UNL A   1      44.721  28.739  27.716  1.00  0.00     0.015 A 
ATOM     25  I   UNL A   1      47.682  28.128  27.739  1.00  0.00    -0.044 I 
ENDBRANCH  17  19
ENDBRANCH  14  17
ENDBRANCH  13  14
ENDBRANCH   7   8
ENDBRANCH   6   7
ENDBRANCH   4   6
ENDBRANCH   3   4
ENDBRANCH   2   3
ENDBRANCH   1   2
BRANCH   1  26
ATOM     26  O   UNL A   1      33.667  34.360  30.176  1.00  0.00    -0.374 OA
BRANCH  26  27
ATOM     27  C   UNL A   1      34.209  33.228  29.505  1.00  0.00     0.202 C 
BRANCH  27  28
ATOM     28  C   UNL A   1      33.792  33.051  28.046  1.00  0.00     0.261 C 
BRANCH  28  29
ATOM     29  O   UNL A   1      34.672  32.161  27.339  1.00  0.00    -0.460 OA
BRANCH  29  30
ATOM     30  C   UNL A   1      34.447  30.838  27.529  1.00  0.00     0.338 C 
ATOM     31  O   UNL A   1      33.456  30.204  27.204  1.00  0.00    -0.246 OA
BRANCH  30  32
ATOM     32  C   UNL A   1      35.675  30.202  28.040  1.00  0.00     0.060 A 
ATOM     33  C   UNL A   1      35.661  29.671  29.337  1.00  0.00     0.016 A 
ATOM     34  C   UNL A   1      36.843  30.177  27.274  1.00  0.00     0.016 A 
ATOM     35  C   UNL A   1      36.830  29.143  29.885  1.00  0.00     0.010 A 
ATOM     36  C   UNL A   1      38.014  29.662  27.831  1.00  0.00     0.010 A 
ATOM     37  C   UNL A   1      38.021  29.170  29.148  1.00  0.00    -0.014 A 
BRANCH  37  38
ATOM     38  C   UNL A   1      39.308  28.808  29.788  1.00  0.00     0.031 A 
ATOM     39  C   UNL A   1      39.783  29.613  30.967  1.00  0.00     0.074 A 
ATOM     40  C   UNL A   1      40.050  27.793  29.311  1.00  0.00     0.049 A 
ATOM     41  N   UNL A   1      40.917  29.545  31.613  1.00  0.00    -0.248 NA
ATOM     42  C   UNL A   1      38.855  30.631  31.487  1.00  0.00     0.031 C 
ATOM     43  C   UNL A   1      39.670  26.916  28.205  1.00  0.00     0.029 A 
ATOM     44  N   UNL A   1      41.291  27.342  29.687  1.00  0.00    -0.354 N 
ATOM     45  C   UNL A   1      40.847  30.516  32.605  1.00  0.00     0.074 A 
ATOM     46  C   UNL A   1      39.564  31.172  32.467  1.00  0.00     0.031 C 
ATOM     47  C   UNL A   1      40.670  26.049  27.972  1.00  0.00     0.029 A 
ATOM     48  C   UNL A   1      41.773  26.332  28.888  1.00  0.00     0.049 A 
ATOM     49  H   UNL A   1      41.787  27.707  30.455  1.00  0.00     0.167 HD
ATOM     50  C   UNL A   1      41.770  30.829  33.544  1.00  0.00     0.037 A 
ATOM     51  C   UNL A   1      42.978  25.730  28.879  1.00  0.00     0.037 A 
ATOM     52  C   UNL A   1      43.044  30.172  33.673  1.00  0.00     0.049 A 
ATOM     53  C   UNL A   1      44.015  26.147  29.891  1.00  0.00     0.074 A 
ATOM     54  C   UNL A   1      44.037  30.398  34.609  1.00  0.00     0.029 A 
ATOM     55  N   UNL A   1      43.505  29.167  32.835  1.00  0.00    -0.354 N 
ATOM     56  N   UNL A   1      43.925  27.046  30.844  1.00  0.00    -0.248 NA
ATOM     57  C   UNL A   1      45.318  25.469  29.828  1.00  0.00     0.031 C 
ATOM     58  C   UNL A   1      45.121  29.566  34.305  1.00  0.00     0.029 A 
ATOM     59  C   UNL A   1      44.781  28.784  33.213  1.00  0.00     0.049 A 
ATOM     60  H   UNL A   1      43.000  28.782  32.082  1.00  0.00     0.167 HD
ATOM     61  C   UNL A   1      45.148  27.021  31.508  1.00  0.00     0.074 A 
ATOM     62  C   UNL A   1      45.956  26.009  30.859  1.00  0.00     0.031 C 
ATOM     63  C   UNL A   1      45.567  27.768  32.559  1.00  0.00     0.037 A 
BRANCH  50  64
ATOM     64  C   UNL A   1      41.453  31.948  34.497  1.00  0.00     0.058 A 
ATOM     65  C   UNL A   1      41.913  33.256  34.282  1.00  0.00     0.135 A 
ATOM     66  C   UNL A   1      40.623  31.719  35.607  1.00  0.00     0.135 A 
ATOM     67  F   UNL A   1      42.727  33.525  33.249  1.00  0.00    -0.206 F 
ATOM     68  C   UNL A   1      41.566  34.297  35.136  1.00  0.00     0.059 A 
ATOM     69  C   UNL A   1      40.243  32.750  36.462  1.00  0.00     0.059 A 
ATOM     70  F   UNL A   1      40.161  30.484  35.863  1.00  0.00    -0.206 F 
ATOM     71  C   UNL A   1      40.726  34.036  36.221  1.00  0.00     0.060 A 
BRANCH  71  72
ATOM     72  S   UNL A   1      40.258  35.406  37.300  1.00  0.00     0.124 S 
ATOM     73  O   UNL A   1      41.502  35.642  38.026  1.00  0.00    -0.237 OA
ATOM     74  O   UNL A   1      39.879  36.439  36.342  1.00  0.00    -0.237 OA
ATOM     75  O   UNL A   1      39.164  34.858  38.093  1.00  0.00    -0.744 OA
ENDBRANCH  71  72
ENDBRANCH  50  64
BRANCH  51  76
ATOM     76  C   UNL A   1      43.292  24.693  27.858  1.00  0.00     0.058 A 
ATOM     77  C   UNL A   1      43.075  23.331  28.114  1.00  0.00     0.135 A 
ATOM     78  C   UNL A   1      43.848  25.042  26.617  1.00  0.00     0.135 A 
ATOM     79  F   UNL A   1      42.559  22.944  29.291  1.00  0.00    -0.206 F 
ATOM     80  C   UNL A   1      43.424  22.350  27.190  1.00  0.00     0.059 A 
ATOM     81  C   UNL A   1      44.178  24.082  25.666  1.00  0.00     0.059 A 
ATOM     82  F   UNL A   1      44.069  26.332  26.316  1.00  0.00    -0.206 F 
ATOM     83  C   UNL A   1      43.979  22.736  25.969  1.00  0.00     0.060 A 
BRANCH  83  84
ATOM     84  S   UNL A   1      44.421  21.458  24.771  1.00  0.00     0.124 S 
ATOM     85  O   UNL A   1      44.177  22.144  23.508  1.00  0.00    -0.237 OA
ATOM     86  O   UNL A   1      45.820  21.198  25.099  1.00  0.00    -0.237 OA
ATOM     87  O   UNL A   1      43.499  20.371  25.088  1.00  0.00    -0.744 OA
ENDBRANCH  83  84
ENDBRANCH  51  76
BRANCH  63  88
ATOM     88  C   UNL A   1      46.948  27.502  33.095  1.00  0.00     0.058 A 
ATOM     89  C   UNL A   1      48.086  28.094  32.529  1.00  0.00     0.135 A 
ATOM     90  C   UNL A   1      47.126  26.685  34.224  1.00  0.00     0.135 A 
ATOM     91  F   UNL A   1      47.972  28.879  31.446  1.00  0.00    -0.206 F 
ATOM     92  C   UNL A   1      49.358  27.869  33.049  1.00  0.00     0.059 A 
ATOM     93  C   UNL A   1      48.385  26.470  34.778  1.00  0.00     0.059 A 
ATOM     94  F   UNL A   1      46.069  26.104  34.814  1.00  0.00    -0.206 F 
ATOM     95  C   UNL A   1      49.496  27.057  34.176  1.00  0.00     0.060 A 
BRANCH  95  96
ATOM     96  S   UNL A   1      51.146  26.801  34.861  1.00  0.00     0.124 S 
ATOM     97  O   UNL A   1      51.534  25.542  34.234  1.00  0.00    -0.237 OA
ATOM     98  O   UNL A   1      51.863  27.986  34.401  1.00  0.00    -0.237 OA
ATOM     99  O   UNL A   1      50.911  26.739  36.301  1.00  0.00    -0.744 OA
ENDBRANCH  95  96
ENDBRANCH  63  88
ENDBRANCH  37  38
ENDBRANCH  30  32
ENDBRANCH  29  30
ENDBRANCH  28  29
ENDBRANCH  27  28
ENDBRANCH  26  27
ENDBRANCH   1  26
TORSDOF 22
ENDMDL
