MODEL 1
REMARK VINA RESULT:     -11.4      0.000      0.000
REMARK SMILES CC1(C)[C@H](C(=O)Nc2cccc3[nH]ccc23)[C@H]1C(=O)OCCOCCOC(=O)c1ccc(-c2c3nc(c(-c4c(F)cc(S(=O)(=O)[O-])cc4F)c4ccc([nH]4)c(-c4c(F)cc(S(=O)(=O)[O-])cc4F)c4nc(c(-c5c(F)cc(S(=O)(=O)[O-])cc5F)c5ccc2[nH]5)C=C4)C=C3)cc1
REMARK SMILES IDX 24 1 23 2 22 3 21 4 20 5 18 6 19 7 17 8 1 9 2 10 3 11 4 12
REMARK SMILES IDX 5 13 6 14 7 15 8 17 9 18 16 19 10 20 12 21 15 22 11 23 13 24
REMARK SMILES IDX 14 25 25 27 26 28 27 29 28 30 29 31 30 32 94 33 31 34 93 35
REMARK SMILES IDX 32 36 33 37 34 38 87 39 35 40 92 41 86 42 88 43 36 44 91 45
REMARK SMILES IDX 85 46 84 47 37 49 71 50 50 51 70 52 51 53 54 54 69 55 89 56
REMARK SMILES IDX 52 57 53 58 68 60 90 61 55 62 38 63 39 64 48 65 40 66 41 67
REMARK SMILES IDX 47 68 49 69 42 70 43 71 44 72 45 73 46 74 72 75 73 76 82 77
REMARK SMILES IDX 74 78 75 79 81 80 83 81 76 82 77 83 78 84 79 85 80 86 56 87
REMARK SMILES IDX 57 88 66 89 58 90 59 91 65 92 67 93 60 94 61 95 62 96 63 97
REMARK SMILES IDX 64 98
REMARK H PARENT 7 16 13 26 88 48 54 59
REMARK Flexibility Score: inf
ROOT
ATOM      1  C   UNL A   1      39.172  22.326  26.338  1.00  0.00     0.202 C 
ENDROOT
BRANCH   1   2
ATOM      2  O   UNL A   1      38.475  21.385  25.521  1.00  0.00    -0.374 OA
BRANCH   2   3
ATOM      3  C   UNL A   1      37.416  21.877  24.692  1.00  0.00     0.202 C 
BRANCH   3   4
ATOM      4  C   UNL A   1      36.055  22.024  25.378  1.00  0.00     0.261 C 
BRANCH   4   5
ATOM      5  O   UNL A   1      35.553  23.346  25.145  1.00  0.00    -0.463 OA
BRANCH   5   6
ATOM      6  C   UNL A   1      34.961  23.548  23.944  1.00  0.00     0.310 C 
ATOM      7  O   UNL A   1      35.449  23.335  22.844  1.00  0.00    -0.252 OA
BRANCH   6   8
ATOM      8  C   UNL A   1      33.531  23.895  24.090  1.00  0.00     0.118 C 
ATOM      9  C   UNL A   1      32.603  21.430  23.923  1.00  0.00     0.013 C 
ATOM     10  C   UNL A   1      32.366  22.913  24.081  1.00  0.00    -0.009 C 
ATOM     11  C   UNL A   1      31.100  23.360  23.390  1.00  0.00     0.013 C 
ATOM     12  C   UNL A   1      32.843  23.559  25.387  1.00  0.00     0.100 C 
BRANCH  12  13
ATOM     13  C   UNL A   1      32.093  24.571  26.188  1.00  0.00     0.228 C 
ATOM     14  O   UNL A   1      31.488  24.214  27.192  1.00  0.00    -0.274 OA
ATOM     15  N   UNL A   1      32.335  25.894  25.900  1.00  0.00    -0.325 N 
ATOM     16  H   UNL A   1      33.036  26.352  26.417  1.00  0.00     0.169 HD
BRANCH  15  17
ATOM     17  C   UNL A   1      31.654  26.642  24.921  1.00  0.00     0.050 A 
ATOM     18  C   UNL A   1      30.260  26.578  24.795  1.00  0.00     0.027 A 
ATOM     19  C   UNL A   1      32.372  27.468  24.025  1.00  0.00     0.023 A 
ATOM     20  C   UNL A   1      29.596  27.193  23.738  1.00  0.00     0.004 A 
ATOM     21  C   UNL A   1      31.677  28.079  22.975  1.00  0.00     0.047 A 
ATOM     22  C   UNL A   1      33.740  27.847  23.880  1.00  0.00     0.030 A 
ATOM     23  C   UNL A   1      30.297  27.933  22.789  1.00  0.00     0.027 A 
ATOM     24  N   UNL A   1      32.594  28.781  22.227  1.00  0.00    -0.361 N 
ATOM     25  C   UNL A   1      33.840  28.671  22.780  1.00  0.00     0.083 A 
ATOM     26  H   UNL A   1      32.384  29.289  21.411  1.00  0.00     0.166 HD
ENDBRANCH  15  17
ENDBRANCH  12  13
ENDBRANCH   6   8
ENDBRANCH   5   6
ENDBRANCH   4   5
ENDBRANCH   3   4
ENDBRANCH   2   3
ENDBRANCH   1   2
BRANCH   1  27
ATOM     27  C   UNL A   1      40.698  22.188  26.408  1.00  0.00     0.261 C 
BRANCH  27  28
ATOM     28  O   UNL A   1      41.309  23.133  27.301  1.00  0.00    -0.460 OA
BRANCH  28  29
ATOM     29  C   UNL A   1      41.655  24.313  26.725  1.00  0.00     0.338 C 
ATOM     30  O   UNL A   1      42.050  24.488  25.584  1.00  0.00    -0.246 OA
BRANCH  29  31
ATOM     31  C   UNL A   1      41.333  25.432  27.630  1.00  0.00     0.060 A 
ATOM     32  C   UNL A   1      42.274  26.463  27.748  1.00  0.00     0.016 A 
ATOM     33  C   UNL A   1      40.171  25.440  28.405  1.00  0.00     0.016 A 
ATOM     34  C   UNL A   1      42.069  27.493  28.663  1.00  0.00     0.010 A 
ATOM     35  C   UNL A   1      39.974  26.469  29.333  1.00  0.00     0.010 A 
ATOM     36  C   UNL A   1      40.933  27.487  29.483  1.00  0.00    -0.014 A 
BRANCH  36  37
ATOM     37  C   UNL A   1      40.800  28.492  30.565  1.00  0.00     0.031 A 
ATOM     38  C   UNL A   1      41.691  28.398  31.772  1.00  0.00     0.074 A 
ATOM     39  C   UNL A   1      39.901  29.488  30.464  1.00  0.00     0.049 A 
ATOM     40  N   UNL A   1      41.712  29.144  32.846  1.00  0.00    -0.248 NA
ATOM     41  C   UNL A   1      42.694  27.320  31.767  1.00  0.00     0.031 C 
ATOM     42  C   UNL A   1      39.008  29.706  29.326  1.00  0.00     0.029 A 
ATOM     43  N   UNL A   1      39.586  30.497  31.338  1.00  0.00    -0.354 N 
ATOM     44  C   UNL A   1      42.725  28.629  33.646  1.00  0.00     0.074 A 
ATOM     45  C   UNL A   1      43.279  27.490  32.944  1.00  0.00     0.031 C 
ATOM     46  C   UNL A   1      38.235  30.775  29.579  1.00  0.00     0.029 A 
ATOM     47  C   UNL A   1      38.556  31.297  30.907  1.00  0.00     0.049 A 
ATOM     48  H   UNL A   1      40.055  30.636  32.193  1.00  0.00     0.167 HD
ATOM     49  C   UNL A   1      43.157  29.068  34.852  1.00  0.00     0.037 A 
ATOM     50  C   UNL A   1      37.926  32.316  31.523  1.00  0.00     0.037 A 
ATOM     51  C   UNL A   1      42.599  30.197  35.550  1.00  0.00     0.049 A 
ATOM     52  C   UNL A   1      38.368  32.736  32.901  1.00  0.00     0.074 A 
ATOM     53  C   UNL A   1      42.987  30.737  36.764  1.00  0.00     0.029 A 
ATOM     54  N   UNL A   1      41.525  30.952  35.103  1.00  0.00    -0.354 N 
ATOM     55  N   UNL A   1      39.345  32.257  33.635  1.00  0.00    -0.248 NA
ATOM     56  C   UNL A   1      37.619  33.829  33.537  1.00  0.00     0.031 C 
ATOM     57  C   UNL A   1      42.118  31.790  37.072  1.00  0.00     0.029 A 
ATOM     58  C   UNL A   1      41.214  31.933  36.031  1.00  0.00     0.049 A 
ATOM     59  H   UNL A   1      41.052  30.813  34.251  1.00  0.00     0.167 HD
ATOM     60  C   UNL A   1      39.335  32.997  34.811  1.00  0.00     0.074 A 
ATOM     61  C   UNL A   1      38.266  33.967  34.687  1.00  0.00     0.031 C 
ATOM     62  C   UNL A   1      40.140  32.886  35.898  1.00  0.00     0.037 A 
BRANCH  49  63
ATOM     63  C   UNL A   1      44.276  28.307  35.505  1.00  0.00     0.058 A 
ATOM     64  C   UNL A   1      45.621  28.623  35.263  1.00  0.00     0.135 A 
ATOM     65  C   UNL A   1      43.997  27.262  36.401  1.00  0.00     0.135 A 
ATOM     66  F   UNL A   1      45.942  29.603  34.404  1.00  0.00    -0.206 F 
ATOM     67  C   UNL A   1      46.654  27.911  35.866  1.00  0.00     0.059 A 
ATOM     68  C   UNL A   1      45.013  26.550  37.031  1.00  0.00     0.059 A 
ATOM     69  F   UNL A   1      42.726  26.919  36.664  1.00  0.00    -0.206 F 
ATOM     70  C   UNL A   1      46.339  26.872  36.745  1.00  0.00     0.060 A 
BRANCH  70  71
ATOM     71  S   UNL A   1      47.689  25.950  37.511  1.00  0.00     0.124 S 
ATOM     72  O   UNL A   1      47.887  26.700  38.748  1.00  0.00    -0.237 OA
ATOM     73  O   UNL A   1      47.112  24.618  37.664  1.00  0.00    -0.237 OA
ATOM     74  O   UNL A   1      48.769  26.054  36.534  1.00  0.00    -0.744 OA
ENDBRANCH  70  71
ENDBRANCH  49  63
BRANCH  50  75
ATOM     75  C   UNL A   1      36.791  32.998  30.851  1.00  0.00     0.058 A 
ATOM     76  C   UNL A   1      35.467  32.765  31.250  1.00  0.00     0.135 A 
ATOM     77  C   UNL A   1      37.009  33.904  29.801  1.00  0.00     0.135 A 
ATOM     78  F   UNL A   1      35.208  31.898  32.240  1.00  0.00    -0.206 F 
ATOM     79  C   UNL A   1      34.397  33.402  30.628  1.00  0.00     0.059 A 
ATOM     80  C   UNL A   1      35.958  34.570  29.179  1.00  0.00     0.059 A 
ATOM     81  F   UNL A   1      38.259  34.166  29.389  1.00  0.00    -0.206 F 
ATOM     82  C   UNL A   1      34.654  34.306  29.596  1.00  0.00     0.060 A 
BRANCH  82  83
ATOM     83  S   UNL A   1      33.264  35.172  28.835  1.00  0.00     0.124 S 
ATOM     84  O   UNL A   1      33.945  36.233  28.102  1.00  0.00    -0.237 OA
ATOM     85  O   UNL A   1      32.655  34.124  28.023  1.00  0.00    -0.237 OA
ATOM     86  O   UNL A   1      32.471  35.605  29.982  1.00  0.00    -0.744 OA
ENDBRANCH  82  83
ENDBRANCH  50  75
BRANCH  62  87
ATOM     87  C   UNL A   1      39.902  33.837  37.037  1.00  0.00     0.058 A 
ATOM     88  C   UNL A   1      40.485  35.113  37.058  1.00  0.00     0.135 A 
ATOM     89  C   UNL A   1      39.044  33.489  38.092  1.00  0.00     0.135 A 
ATOM     90  F   UNL A   1      41.320  35.491  36.078  1.00  0.00    -0.206 F 
ATOM     91  C   UNL A   1      40.236  36.009  38.094  1.00  0.00     0.059 A 
ATOM     92  C   UNL A   1      38.762  34.377  39.126  1.00  0.00     0.059 A 
ATOM     93  F   UNL A   1      38.455  32.283  38.115  1.00  0.00    -0.206 F 
ATOM     94  C   UNL A   1      39.371  35.631  39.124  1.00  0.00     0.060 A 
BRANCH  94  95
ATOM     95  S   UNL A   1      39.022  36.815  40.442  1.00  0.00     0.124 S 
ATOM     96  O   UNL A   1      40.354  37.040  40.994  1.00  0.00    -0.237 OA
ATOM     97  O   UNL A   1      38.442  37.938  39.711  1.00  0.00    -0.237 OA
ATOM     98  O   UNL A   1      38.095  36.095  41.309  1.00  0.00    -0.744 OA
ENDBRANCH  94  95
ENDBRANCH  62  87
ENDBRANCH  36  37
ENDBRANCH  29  31
ENDBRANCH  28  29
ENDBRANCH  27  28
ENDBRANCH   1  27
TORSDOF 19
ENDMDL
MODEL 2
REMARK VINA RESULT:     -11.3      1.332      2.733
REMARK SMILES CC1(C)[C@H](C(=O)Nc2cccc3[nH]ccc23)[C@H]1C(=O)OCCOCCOC(=O)c1ccc(-c2c3nc(c(-c4c(F)cc(S(=O)(=O)[O-])cc4F)c4ccc([nH]4)c(-c4c(F)cc(S(=O)(=O)[O-])cc4F)c4nc(c(-c5c(F)cc(S(=O)(=O)[O-])cc5F)c5ccc2[nH]5)C=C4)C=C3)cc1
REMARK SMILES IDX 24 1 23 2 22 3 21 4 20 5 18 6 19 7 17 8 1 9 2 10 3 11 4 12
REMARK SMILES IDX 5 13 6 14 7 15 8 17 9 18 16 19 10 20 12 21 15 22 11 23 13 24
REMARK SMILES IDX 14 25 25 27 26 28 27 29 28 30 29 31 30 32 94 33 31 34 93 35
REMARK SMILES IDX 32 36 33 37 34 38 87 39 35 40 92 41 86 42 88 43 36 44 91 45
REMARK SMILES IDX 85 46 84 47 37 49 71 50 50 51 70 52 51 53 54 54 69 55 89 56
REMARK SMILES IDX 52 57 53 58 68 60 90 61 55 62 38 63 39 64 48 65 40 66 41 67
REMARK SMILES IDX 47 68 49 69 42 70 43 71 44 72 45 73 46 74 72 75 73 76 82 77
REMARK SMILES IDX 74 78 75 79 81 80 83 81 76 82 77 83 78 84 79 85 80 86 56 87
REMARK SMILES IDX 57 88 66 89 58 90 59 91 65 92 67 93 60 94 61 95 62 96 63 97
REMARK SMILES IDX 64 98
REMARK H PARENT 7 16 13 26 88 48 54 59
REMARK Flexibility Score: inf
ROOT
ATOM      1  C   UNL A   1      37.574  22.258  25.694  1.00  0.00     0.202 C 
ENDROOT
BRANCH   1   2
ATOM      2  O   UNL A   1      37.377  21.959  24.311  1.00  0.00    -0.374 OA
BRANCH   2   3
ATOM      3  C   UNL A   1      36.795  22.974  23.485  1.00  0.00     0.202 C 
BRANCH   3   4
ATOM      4  C   UNL A   1      35.296  23.208  23.685  1.00  0.00     0.261 C 
BRANCH   4   5
ATOM      5  O   UNL A   1      34.724  23.662  22.451  1.00  0.00    -0.463 OA
BRANCH   5   6
ATOM      6  C   UNL A   1      34.035  24.825  22.514  1.00  0.00     0.310 C 
ATOM      7  O   UNL A   1      33.680  25.515  21.570  1.00  0.00    -0.252 OA
BRANCH   6   8
ATOM      8  C   UNL A   1      33.566  25.110  23.887  1.00  0.00     0.118 C 
ATOM      9  C   UNL A   1      33.554  27.740  23.661  1.00  0.00     0.013 C 
ATOM     10  C   UNL A   1      33.325  26.493  24.482  1.00  0.00    -0.009 C 
ATOM     11  C   UNL A   1      33.707  26.690  25.930  1.00  0.00     0.013 C 
ATOM     12  C   UNL A   1      32.152  25.596  24.073  1.00  0.00     0.100 C 
BRANCH  12  13
ATOM     13  C   UNL A   1      31.188  24.936  25.003  1.00  0.00     0.228 C 
ATOM     14  O   UNL A   1      30.296  25.602  25.514  1.00  0.00    -0.274 OA
ATOM     15  N   UNL A   1      31.198  23.561  25.035  1.00  0.00    -0.325 N 
ATOM     16  H   UNL A   1      30.579  23.087  24.435  1.00  0.00     0.169 HD
BRANCH  15  17
ATOM     17  C   UNL A   1      32.028  22.781  25.862  1.00  0.00     0.050 A 
ATOM     18  C   UNL A   1      32.392  23.214  27.143  1.00  0.00     0.027 A 
ATOM     19  C   UNL A   1      32.532  21.541  25.403  1.00  0.00     0.023 A 
ATOM     20  C   UNL A   1      33.330  22.524  27.906  1.00  0.00     0.004 A 
ATOM     21  C   UNL A   1      33.470  20.867  26.194  1.00  0.00     0.047 A 
ATOM     22  C   UNL A   1      32.343  20.747  24.234  1.00  0.00     0.030 A 
ATOM     23  C   UNL A   1      33.910  21.350  27.431  1.00  0.00     0.027 A 
ATOM     24  N   UNL A   1      33.834  19.725  25.516  1.00  0.00    -0.361 N 
ATOM     25  C   UNL A   1      33.139  19.629  24.343  1.00  0.00     0.083 A 
ATOM     26  H   UNL A   1      34.501  19.073  25.831  1.00  0.00     0.166 HD
ENDBRANCH  15  17
ENDBRANCH  12  13
ENDBRANCH   6   8
ENDBRANCH   5   6
ENDBRANCH   4   5
ENDBRANCH   3   4
ENDBRANCH   2   3
ENDBRANCH   1   2
BRANCH   1  27
ATOM     27  C   UNL A   1      39.016  22.522  26.146  1.00  0.00     0.261 C 
BRANCH  27  28
ATOM     28  O   UNL A   1      39.362  23.917  26.138  1.00  0.00    -0.460 OA
BRANCH  28  29
ATOM     29  C   UNL A   1      40.526  24.214  26.772  1.00  0.00     0.338 C 
ATOM     30  O   UNL A   1      41.618  23.704  26.585  1.00  0.00    -0.246 OA
BRANCH  29  31
ATOM     31  C   UNL A   1      40.341  25.389  27.644  1.00  0.00     0.060 A 
ATOM     32  C   UNL A   1      41.281  26.423  27.546  1.00  0.00     0.016 A 
ATOM     33  C   UNL A   1      39.315  25.450  28.589  1.00  0.00     0.016 A 
ATOM     34  C   UNL A   1      41.214  27.511  28.415  1.00  0.00     0.010 A 
ATOM     35  C   UNL A   1      39.259  26.536  29.470  1.00  0.00     0.010 A 
ATOM     36  C   UNL A   1      40.221  27.559  29.402  1.00  0.00    -0.014 A 
BRANCH  36  37
ATOM     37  C   UNL A   1      40.252  28.632  30.426  1.00  0.00     0.031 A 
ATOM     38  C   UNL A   1      41.249  28.551  31.549  1.00  0.00     0.074 A 
ATOM     39  C   UNL A   1      39.408  29.676  30.345  1.00  0.00     0.049 A 
ATOM     40  N   UNL A   1      41.416  29.354  32.566  1.00  0.00    -0.248 NA
ATOM     41  C   UNL A   1      42.181  27.412  31.519  1.00  0.00     0.031 C 
ATOM     42  C   UNL A   1      38.424  29.885  29.283  1.00  0.00     0.029 A 
ATOM     43  N   UNL A   1      39.238  30.752  31.179  1.00  0.00    -0.354 N 
ATOM     44  C   UNL A   1      42.469  28.822  33.300  1.00  0.00     0.074 A 
ATOM     45  C   UNL A   1      42.885  27.612  32.624  1.00  0.00     0.031 C 
ATOM     46  C   UNL A   1      37.742  31.014  29.538  1.00  0.00     0.029 A 
ATOM     47  C   UNL A   1      38.220  31.591  30.795  1.00  0.00     0.049 A 
ATOM     48  H   UNL A   1      39.794  30.910  31.976  1.00  0.00     0.167 HD
ATOM     49  C   UNL A   1      43.041  29.302  34.431  1.00  0.00     0.037 A 
ATOM     50  C   UNL A   1      37.713  32.682  31.401  1.00  0.00     0.037 A 
ATOM     51  C   UNL A   1      42.620  30.503  35.104  1.00  0.00     0.049 A 
ATOM     52  C   UNL A   1      38.309  33.151  32.702  1.00  0.00     0.074 A 
ATOM     53  C   UNL A   1      43.153  31.086  36.240  1.00  0.00     0.029 A 
ATOM     54  N   UNL A   1      41.554  31.299  34.711  1.00  0.00    -0.354 N 
ATOM     55  N   UNL A   1      39.323  32.654  33.371  1.00  0.00    -0.248 NA
ATOM     56  C   UNL A   1      37.690  34.325  33.334  1.00  0.00     0.031 C 
ATOM     57  C   UNL A   1      42.382  32.209  36.560  1.00  0.00     0.029 A 
ATOM     58  C   UNL A   1      41.392  32.349  35.600  1.00  0.00     0.049 A 
ATOM     59  H   UNL A   1      40.994  31.141  33.917  1.00  0.00     0.167 HD
ATOM     60  C   UNL A   1      39.469  33.460  34.494  1.00  0.00     0.074 A 
ATOM     61  C   UNL A   1      38.452  34.488  34.407  1.00  0.00     0.031 C 
ATOM     62  C   UNL A   1      40.367  33.360  35.506  1.00  0.00     0.037 A 
BRANCH  49  63
ATOM     63  C   UNL A   1      44.170  28.509  35.025  1.00  0.00     0.058 A 
ATOM     64  C   UNL A   1      45.500  28.710  34.625  1.00  0.00     0.135 A 
ATOM     65  C   UNL A   1      43.921  27.552  36.022  1.00  0.00     0.135 A 
ATOM     66  F   UNL A   1      45.791  29.602  33.665  1.00  0.00    -0.206 F 
ATOM     67  C   UNL A   1      46.543  27.968  35.174  1.00  0.00     0.059 A 
ATOM     68  C   UNL A   1      44.950  26.815  36.599  1.00  0.00     0.059 A 
ATOM     69  F   UNL A   1      42.665  27.322  36.438  1.00  0.00    -0.206 F 
ATOM     70  C   UNL A   1      46.256  27.020  36.157  1.00  0.00     0.060 A 
BRANCH  70  71
ATOM     71  S   UNL A   1      47.617  26.058  36.853  1.00  0.00     0.124 S 
ATOM     72  O   UNL A   1      47.242  26.003  38.263  1.00  0.00    -0.237 OA
ATOM     73  O   UNL A   1      47.517  24.799  36.122  1.00  0.00    -0.237 OA
ATOM     74  O   UNL A   1      48.794  26.865  36.547  1.00  0.00    -0.744 OA
ENDBRANCH  70  71
ENDBRANCH  49  63
BRANCH  50  75
ATOM     75  C   UNL A   1      36.560  33.396  30.794  1.00  0.00     0.058 A 
ATOM     76  C   UNL A   1      35.279  33.311  31.357  1.00  0.00     0.135 A 
ATOM     77  C   UNL A   1      36.720  34.184  29.643  1.00  0.00     0.135 A 
ATOM     78  F   UNL A   1      35.074  32.560  32.449  1.00  0.00    -0.206 F 
ATOM     79  C   UNL A   1      34.193  33.979  30.798  1.00  0.00     0.059 A 
ATOM     80  C   UNL A   1      35.656  34.878  29.079  1.00  0.00     0.059 A 
ATOM     81  F   UNL A   1      37.929  34.302  29.073  1.00  0.00    -0.206 F 
ATOM     82  C   UNL A   1      34.393  34.763  29.660  1.00  0.00     0.060 A 
BRANCH  82  83
ATOM     83  S   UNL A   1      32.992  35.674  28.976  1.00  0.00     0.124 S 
ATOM     84  O   UNL A   1      33.663  36.760  28.272  1.00  0.00    -0.237 OA
ATOM     85  O   UNL A   1      32.352  34.667  28.136  1.00  0.00    -0.237 OA
ATOM     86  O   UNL A   1      32.234  36.062  30.162  1.00  0.00    -0.744 OA
ENDBRANCH  82  83
ENDBRANCH  50  75
BRANCH  62  87
ATOM     87  C   UNL A   1      40.296  34.388  36.600  1.00  0.00     0.058 A 
ATOM     88  C   UNL A   1      41.139  35.511  36.604  1.00  0.00     0.135 A 
ATOM     89  C   UNL A   1      39.343  34.278  37.625  1.00  0.00     0.135 A 
ATOM     90  F   UNL A   1      42.073  35.658  35.652  1.00  0.00    -0.206 F 
ATOM     91  C   UNL A   1      41.049  36.483  37.595  1.00  0.00     0.059 A 
ATOM     92  C   UNL A   1      39.220  35.250  38.613  1.00  0.00     0.059 A 
ATOM     93  F   UNL A   1      38.508  33.229  37.662  1.00  0.00    -0.206 F 
ATOM     94  C   UNL A   1      40.084  36.344  38.596  1.00  0.00     0.060 A 
BRANCH  94  95
ATOM     95  S   UNL A   1      39.949  37.632  39.855  1.00  0.00     0.124 S 
ATOM     96  O   UNL A   1      40.005  36.848  41.084  1.00  0.00    -0.237 OA
ATOM     97  O   UNL A   1      41.117  38.464  39.581  1.00  0.00    -0.237 OA
ATOM     98  O   UNL A   1      38.661  38.256  39.566  1.00  0.00    -0.744 OA
ENDBRANCH  94  95
ENDBRANCH  62  87
ENDBRANCH  36  37
ENDBRANCH  29  31
ENDBRANCH  28  29
ENDBRANCH  27  28
ENDBRANCH   1  27
TORSDOF 19
ENDMDL
MODEL 3
REMARK VINA RESULT:     -11.3      4.571     10.484
REMARK SMILES CC1(C)[C@H](C(=O)Nc2cccc3[nH]ccc23)[C@H]1C(=O)OCCOCCOC(=O)c1ccc(-c2c3nc(c(-c4c(F)cc(S(=O)(=O)[O-])cc4F)c4ccc([nH]4)c(-c4c(F)cc(S(=O)(=O)[O-])cc4F)c4nc(c(-c5c(F)cc(S(=O)(=O)[O-])cc5F)c5ccc2[nH]5)C=C4)C=C3)cc1
REMARK SMILES IDX 24 1 23 2 22 3 21 4 20 5 18 6 19 7 17 8 1 9 2 10 3 11 4 12
REMARK SMILES IDX 5 13 6 14 7 15 8 17 9 18 16 19 10 20 12 21 15 22 11 23 13 24
REMARK SMILES IDX 14 25 25 27 26 28 27 29 28 30 29 31 30 32 94 33 31 34 93 35
REMARK SMILES IDX 32 36 33 37 34 38 87 39 35 40 92 41 86 42 88 43 36 44 91 45
REMARK SMILES IDX 85 46 84 47 37 49 71 50 50 51 70 52 51 53 54 54 69 55 89 56
REMARK SMILES IDX 52 57 53 58 68 60 90 61 55 62 38 63 39 64 48 65 40 66 41 67
REMARK SMILES IDX 47 68 49 69 42 70 43 71 44 72 45 73 46 74 72 75 73 76 82 77
REMARK SMILES IDX 74 78 75 79 81 80 83 81 76 82 77 83 78 84 79 85 80 86 56 87
REMARK SMILES IDX 57 88 66 89 58 90 59 91 65 92 67 93 60 94 61 95 62 96 63 97
REMARK SMILES IDX 64 98
REMARK H PARENT 7 16 13 26 88 48 54 59
REMARK Flexibility Score: inf
ROOT
ATOM      1  C   UNL A   1      31.736  29.541  25.818  1.00  0.00     0.202 C 
ENDROOT
BRANCH   1   2
ATOM      2  O   UNL A   1      30.877  30.065  24.804  1.00  0.00    -0.374 OA
BRANCH   2   3
ATOM      3  C   UNL A   1      30.613  29.241  23.663  1.00  0.00     0.202 C 
BRANCH   3   4
ATOM      4  C   UNL A   1      31.799  29.018  22.721  1.00  0.00     0.261 C 
BRANCH   4   5
ATOM      5  O   UNL A   1      32.022  27.610  22.576  1.00  0.00    -0.463 OA
BRANCH   5   6
ATOM      6  C   UNL A   1      32.936  27.068  23.415  1.00  0.00     0.310 C 
ATOM      7  O   UNL A   1      33.943  27.611  23.847  1.00  0.00    -0.252 OA
BRANCH   6   8
ATOM      8  C   UNL A   1      32.492  25.758  23.937  1.00  0.00     0.118 C 
ATOM      9  C   UNL A   1      32.894  24.395  21.712  1.00  0.00     0.013 C 
ATOM     10  C   UNL A   1      32.451  24.450  23.155  1.00  0.00    -0.009 C 
ATOM     11  C   UNL A   1      31.284  23.529  23.423  1.00  0.00     0.013 C 
ATOM     12  C   UNL A   1      33.535  24.706  24.207  1.00  0.00     0.100 C 
BRANCH  12  13
ATOM     13  C   UNL A   1      33.658  24.012  25.524  1.00  0.00     0.228 C 
ATOM     14  O   UNL A   1      33.003  24.414  26.478  1.00  0.00    -0.274 OA
ATOM     15  N   UNL A   1      34.305  22.798  25.527  1.00  0.00    -0.325 N 
ATOM     16  H   UNL A   1      33.756  21.989  25.419  1.00  0.00     0.169 HD
BRANCH  15  17
ATOM     17  C   UNL A   1      35.694  22.627  25.675  1.00  0.00     0.050 A 
ATOM     18  C   UNL A   1      36.515  23.678  26.105  1.00  0.00     0.027 A 
ATOM     19  C   UNL A   1      36.298  21.384  25.372  1.00  0.00     0.023 A 
ATOM     20  C   UNL A   1      37.902  23.563  26.108  1.00  0.00     0.004 A 
ATOM     21  C   UNL A   1      37.695  21.297  25.389  1.00  0.00     0.047 A 
ATOM     22  C   UNL A   1      35.817  20.097  24.990  1.00  0.00     0.030 A 
ATOM     23  C   UNL A   1      38.521  22.377  25.722  1.00  0.00     0.027 A 
ATOM     24  N   UNL A   1      38.032  20.015  25.019  1.00  0.00    -0.361 N 
ATOM     25  C   UNL A   1      36.904  19.272  24.802  1.00  0.00     0.083 A 
ATOM     26  H   UNL A   1      38.953  19.680  24.924  1.00  0.00     0.166 HD
ENDBRANCH  15  17
ENDBRANCH  12  13
ENDBRANCH   6   8
ENDBRANCH   5   6
ENDBRANCH   4   5
ENDBRANCH   3   4
ENDBRANCH   2   3
ENDBRANCH   1   2
BRANCH   1  27
ATOM     27  C   UNL A   1      32.695  30.529  26.493  1.00  0.00     0.261 C 
BRANCH  27  28
ATOM     28  O   UNL A   1      33.696  29.883  27.296  1.00  0.00    -0.460 OA
BRANCH  28  29
ATOM     29  C   UNL A   1      34.485  30.730  28.005  1.00  0.00     0.338 C 
ATOM     30  O   UNL A   1      34.153  31.777  28.536  1.00  0.00    -0.246 OA
BRANCH  29  31
ATOM     31  C   UNL A   1      35.819  30.132  28.203  1.00  0.00     0.060 A 
ATOM     32  C   UNL A   1      36.170  29.746  29.503  1.00  0.00     0.016 A 
ATOM     33  C   UNL A   1      36.737  30.019  27.158  1.00  0.00     0.016 A 
ATOM     34  C   UNL A   1      37.453  29.270  29.767  1.00  0.00     0.010 A 
ATOM     35  C   UNL A   1      38.029  29.554  27.428  1.00  0.00     0.010 A 
ATOM     36  C   UNL A   1      38.400  29.200  28.737  1.00  0.00    -0.014 A 
BRANCH  36  37
ATOM     37  C   UNL A   1      39.806  28.850  29.052  1.00  0.00     0.031 A 
ATOM     38  C   UNL A   1      40.693  29.874  29.704  1.00  0.00     0.074 A 
ATOM     39  C   UNL A   1      40.283  27.623  28.772  1.00  0.00     0.049 A 
ATOM     40  N   UNL A   1      41.957  29.791  30.025  1.00  0.00    -0.248 NA
ATOM     41  C   UNL A   1      40.069  31.164  30.040  1.00  0.00     0.031 C 
ATOM     42  C   UNL A   1      39.510  26.534  28.176  1.00  0.00     0.029 A 
ATOM     43  N   UNL A   1      41.536  27.093  28.944  1.00  0.00    -0.354 N 
ATOM     44  C   UNL A   1      42.285  31.013  30.599  1.00  0.00     0.074 A 
ATOM     45  C   UNL A   1      41.091  31.830  30.559  1.00  0.00     0.031 C 
ATOM     46  C   UNL A   1      40.312  25.468  28.018  1.00  0.00     0.029 A 
ATOM     47  C   UNL A   1      41.660  25.809  28.473  1.00  0.00     0.049 A 
ATOM     48  H   UNL A   1      42.277  27.585  29.366  1.00  0.00     0.167 HD
ATOM     49  C   UNL A   1      43.471  31.415  31.116  1.00  0.00     0.037 A 
ATOM     50  C   UNL A   1      42.741  25.008  28.393  1.00  0.00     0.037 A 
ATOM     51  C   UNL A   1      44.657  30.601  31.148  1.00  0.00     0.049 A 
ATOM     52  C   UNL A   1      44.070  25.506  28.899  1.00  0.00     0.074 A 
ATOM     53  C   UNL A   1      45.899  30.909  31.676  1.00  0.00     0.029 A 
ATOM     54  N   UNL A   1      44.755  29.323  30.618  1.00  0.00    -0.354 N 
ATOM     55  N   UNL A   1      44.359  26.655  29.464  1.00  0.00    -0.248 NA
ATOM     56  C   UNL A   1      45.220  24.603  28.751  1.00  0.00     0.031 C 
ATOM     57  C   UNL A   1      46.761  29.834  31.425  1.00  0.00     0.029 A 
ATOM     58  C   UNL A   1      46.045  28.841  30.776  1.00  0.00     0.049 A 
ATOM     59  H   UNL A   1      44.018  28.830  30.192  1.00  0.00     0.167 HD
ATOM     60  C   UNL A   1      45.719  26.607  29.748  1.00  0.00     0.074 A 
ATOM     61  C   UNL A   1      46.193  25.310  29.309  1.00  0.00     0.031 C 
ATOM     62  C   UNL A   1      46.505  27.551  30.324  1.00  0.00     0.037 A 
BRANCH  49  63
ATOM     63  C   UNL A   1      43.546  32.810  31.669  1.00  0.00     0.058 A 
ATOM     64  C   UNL A   1      43.220  33.091  33.004  1.00  0.00     0.135 A 
ATOM     65  C   UNL A   1      43.972  33.875  30.858  1.00  0.00     0.135 A 
ATOM     66  F   UNL A   1      42.793  32.112  33.818  1.00  0.00    -0.206 F 
ATOM     67  C   UNL A   1      43.285  34.387  33.510  1.00  0.00     0.059 A 
ATOM     68  C   UNL A   1      44.065  35.173  31.349  1.00  0.00     0.059 A 
ATOM     69  F   UNL A   1      44.294  33.658  29.573  1.00  0.00    -0.206 F 
ATOM     70  C   UNL A   1      43.705  35.422  32.673  1.00  0.00     0.060 A 
BRANCH  70  71
ATOM     71  S   UNL A   1      43.776  37.098  33.339  1.00  0.00     0.124 S 
ATOM     72  O   UNL A   1      45.074  37.091  34.005  1.00  0.00    -0.237 OA
ATOM     73  O   UNL A   1      43.687  37.919  32.136  1.00  0.00    -0.237 OA
ATOM     74  O   UNL A   1      42.617  37.161  34.224  1.00  0.00    -0.744 OA
ENDBRANCH  70  71
ENDBRANCH  49  63
BRANCH  50  75
ATOM     75  C   UNL A   1      42.618  23.658  27.787  1.00  0.00     0.058 A 
ATOM     76  C   UNL A   1      42.674  23.479  26.398  1.00  0.00     0.135 A 
ATOM     77  C   UNL A   1      42.451  22.517  28.589  1.00  0.00     0.135 A 
ATOM     78  F   UNL A   1      42.820  24.540  25.591  1.00  0.00    -0.206 F 
ATOM     79  C   UNL A   1      42.563  22.217  25.822  1.00  0.00     0.059 A 
ATOM     80  C   UNL A   1      42.359  21.243  28.038  1.00  0.00     0.059 A 
ATOM     81  F   UNL A   1      42.399  22.636  29.925  1.00  0.00    -0.206 F 
ATOM     82  C   UNL A   1      42.410  21.105  26.651  1.00  0.00     0.060 A 
BRANCH  82  83
ATOM     83  S   UNL A   1      42.327  19.465  25.899  1.00  0.00     0.124 S 
ATOM     84  O   UNL A   1      42.776  18.615  26.995  1.00  0.00    -0.237 OA
ATOM     85  O   UNL A   1      40.915  19.360  25.546  1.00  0.00    -0.237 OA
ATOM     86  O   UNL A   1      43.241  19.571  24.765  1.00  0.00    -0.744 OA
ENDBRANCH  82  83
ENDBRANCH  50  75
BRANCH  62  87
ATOM     87  C   UNL A   1      47.958  27.219  30.518  1.00  0.00     0.058 A 
ATOM     88  C   UNL A   1      48.929  27.611  29.583  1.00  0.00     0.135 A 
ATOM     89  C   UNL A   1      48.391  26.548  31.673  1.00  0.00     0.135 A 
ATOM     90  F   UNL A   1      48.566  28.247  28.458  1.00  0.00    -0.206 F 
ATOM     91  C   UNL A   1      50.279  27.338  29.779  1.00  0.00     0.059 A 
ATOM     92  C   UNL A   1      49.739  26.285  31.901  1.00  0.00     0.059 A 
ATOM     93  F   UNL A   1      47.504  26.159  32.602  1.00  0.00    -0.206 F 
ATOM     94  C   UNL A   1      50.674  26.675  30.943  1.00  0.00     0.060 A 
BRANCH  94  95
ATOM     95  S   UNL A   1      52.433  26.360  31.208  1.00  0.00     0.124 S 
ATOM     96  O   UNL A   1      52.800  27.464  32.088  1.00  0.00    -0.237 OA
ATOM     97  O   UNL A   1      52.426  25.035  31.823  1.00  0.00    -0.237 OA
ATOM     98  O   UNL A   1      52.994  26.416  29.862  1.00  0.00    -0.744 OA
ENDBRANCH  94  95
ENDBRANCH  62  87
ENDBRANCH  36  37
ENDBRANCH  29  31
ENDBRANCH  28  29
ENDBRANCH  27  28
ENDBRANCH   1  27
TORSDOF 19
ENDMDL
