MODEL 1
REMARK VINA RESULT:     -11.5      0.000      0.000
REMARK SMILES Cc1ccccc1-n1nc(Cl)c(C(=O)OCCOCCOC(=O)c2ccc(-c3c4nc(c(-c5c(F)cc(S(=O)(=O)[O-])cc5F)c5ccc([nH]5)c(-c5c(F)cc(S(=O)(=O)[O-])cc5F)c5nc(c(-c6c(F)cc(S(=O)(=O)[O-])cc6F)c6ccc3[nH]6)C=C5)C=C4)cc2)n1
REMARK SMILES IDX 19 1 18 2 17 3 16 4 15 5 13 6 14 7 12 8 8 9 9 10 90 11 10 12
REMARK SMILES IDX 11 13 7 14 1 15 2 16 3 17 4 18 6 19 5 20 20 21 21 22 22 23
REMARK SMILES IDX 23 24 24 25 25 26 89 27 26 28 88 29 27 30 28 31 29 32 82 33
REMARK SMILES IDX 30 34 87 35 81 36 83 37 31 38 86 39 80 40 79 41 32 43 66 44
REMARK SMILES IDX 45 45 65 46 46 47 49 48 64 49 84 50 47 51 48 52 63 54 85 55
REMARK SMILES IDX 50 56 33 57 34 58 43 59 35 60 36 61 42 62 44 63 37 64 38 65
REMARK SMILES IDX 39 66 40 67 41 68 67 69 68 70 77 71 69 72 70 73 76 74 78 75
REMARK SMILES IDX 71 76 72 77 73 78 74 79 75 80 51 81 52 82 61 83 53 84 54 85
REMARK SMILES IDX 60 86 62 87 55 88 56 89 57 90 58 91 59 92
REMARK H PARENT 83 42 49 53
REMARK Flexibility Score: inf
ROOT
ATOM      1  C   UNL A   1      31.404  29.691  25.209  1.00  0.00     0.202 C 
ENDROOT
BRANCH   1   2
ATOM      2  O   UNL A   1      31.639  28.637  24.296  1.00  0.00    -0.374 OA
BRANCH   2   3
ATOM      3  C   UNL A   1      30.573  28.321  23.409  1.00  0.00     0.202 C 
BRANCH   3   4
ATOM      4  C   UNL A   1      29.977  27.020  23.898  1.00  0.00     0.261 C 
BRANCH   4   5
ATOM      5  O   UNL A   1      30.917  26.221  24.641  1.00  0.00    -0.458 OA
BRANCH   5   6
ATOM      6  C   UNL A   1      30.605  25.656  25.847  1.00  0.00     0.362 C 
ATOM      7  O   UNL A   1      29.605  25.842  26.511  1.00  0.00    -0.244 OA
BRANCH   6   8
ATOM      8  C   UNL A   1      31.620  24.666  26.153  1.00  0.00     0.209 A 
ATOM      9  N   UNL A   1      33.468  23.709  25.916  1.00  0.00    -0.149 N 
ATOM     10  N   UNL A   1      32.635  22.664  26.181  1.00  0.00    -0.135 NA
ATOM     11  N   UNL A   1      32.930  24.936  26.043  1.00  0.00    -0.139 NA
ATOM     12  C   UNL A   1      31.468  23.291  26.373  1.00  0.00     0.186 A 
ATOM     13  Cl  UNL A   1      30.043  22.410  26.606  1.00  0.00    -0.057 Cl
BRANCH   9  14
ATOM     14  C   UNL A   1      34.712  23.560  25.245  1.00  0.00     0.089 A 
ATOM     15  C   UNL A   1      33.611  23.250  22.923  1.00  0.00     0.047 C 
ATOM     16  C   UNL A   1      34.784  23.239  23.871  1.00  0.00    -0.023 A 
ATOM     17  C   UNL A   1      36.032  22.883  23.334  1.00  0.00     0.006 A 
ATOM     18  C   UNL A   1      37.180  22.865  24.128  1.00  0.00     0.000 A 
ATOM     19  C   UNL A   1      35.881  23.590  26.027  1.00  0.00     0.030 A 
ATOM     20  C   UNL A   1      37.107  23.227  25.469  1.00  0.00     0.002 A 
ENDBRANCH   9  14
ENDBRANCH   6   8
ENDBRANCH   5   6
ENDBRANCH   4   5
ENDBRANCH   3   4
ENDBRANCH   2   3
ENDBRANCH   1   2
BRANCH   1  21
ATOM     21  C   UNL A   1      32.259  29.595  26.477  1.00  0.00     0.261 C 
BRANCH  21  22
ATOM     22  O   UNL A   1      33.560  30.158  26.231  1.00  0.00    -0.460 OA
BRANCH  22  23
ATOM     23  C   UNL A   1      34.060  30.893  27.264  1.00  0.00     0.338 C 
ATOM     24  O   UNL A   1      33.637  31.986  27.593  1.00  0.00    -0.246 OA
BRANCH  23  25
ATOM     25  C   UNL A   1      35.232  30.192  27.862  1.00  0.00     0.060 A 
ATOM     26  C   UNL A   1      35.202  29.765  29.201  1.00  0.00     0.016 A 
ATOM     27  C   UNL A   1      36.426  30.131  27.143  1.00  0.00     0.016 A 
ATOM     28  C   UNL A   1      36.389  29.369  29.846  1.00  0.00     0.010 A 
ATOM     29  C   UNL A   1      37.597  29.800  27.797  1.00  0.00     0.010 A 
ATOM     30  C   UNL A   1      37.599  29.432  29.154  1.00  0.00    -0.014 A 
BRANCH  30  31
ATOM     31  C   UNL A   1      38.941  29.256  29.721  1.00  0.00     0.031 A 
ATOM     32  C   UNL A   1      39.722  28.024  29.427  1.00  0.00     0.074 A 
ATOM     33  C   UNL A   1      39.632  30.329  30.177  1.00  0.00     0.049 A 
ATOM     34  N   UNL A   1      40.899  27.799  29.911  1.00  0.00    -0.248 NA
ATOM     35  C   UNL A   1      39.241  26.915  28.600  1.00  0.00     0.031 C 
ATOM     36  C   UNL A   1      41.076  30.544  30.077  1.00  0.00     0.029 A 
ATOM     37  N   UNL A   1      39.190  31.424  30.923  1.00  0.00    -0.354 N 
ATOM     38  C   UNL A   1      41.466  26.817  29.141  1.00  0.00     0.074 A 
ATOM     39  C   UNL A   1      40.349  26.169  28.499  1.00  0.00     0.031 C 
ATOM     40  C   UNL A   1      41.438  31.532  30.903  1.00  0.00     0.029 A 
ATOM     41  C   UNL A   1      40.277  31.897  31.684  1.00  0.00     0.049 A 
ATOM     42  H   UNL A   1      38.280  31.799  30.917  1.00  0.00     0.167 HD
ATOM     43  C   UNL A   1      42.822  26.785  29.001  1.00  0.00     0.037 A 
ATOM     44  C   UNL A   1      40.202  32.000  33.040  1.00  0.00     0.037 A 
ATOM     45  C   UNL A   1      43.510  27.675  29.951  1.00  0.00     0.049 A 
ATOM     46  C   UNL A   1      41.191  31.098  33.741  1.00  0.00     0.074 A 
ATOM     47  C   UNL A   1      44.411  28.724  29.872  1.00  0.00     0.029 A 
ATOM     48  N   UNL A   1      43.148  27.609  31.288  1.00  0.00    -0.354 N 
ATOM     49  N   UNL A   1      42.173  30.485  33.136  1.00  0.00    -0.248 NA
ATOM     50  C   UNL A   1      41.107  30.732  35.153  1.00  0.00     0.031 C 
ATOM     51  C   UNL A   1      44.573  29.274  31.189  1.00  0.00     0.029 A 
ATOM     52  C   UNL A   1      43.805  28.534  32.070  1.00  0.00     0.049 A 
ATOM     53  H   UNL A   1      42.491  26.966  31.642  1.00  0.00     0.167 HD
ATOM     54  C   UNL A   1      42.686  29.521  33.960  1.00  0.00     0.074 A 
ATOM     55  C   UNL A   1      42.038  29.764  35.238  1.00  0.00     0.031 C 
ATOM     56  C   UNL A   1      43.526  28.543  33.505  1.00  0.00     0.037 A 
BRANCH  43  57
ATOM     57  C   UNL A   1      43.544  26.015  27.911  1.00  0.00     0.058 A 
ATOM     58  C   UNL A   1      43.732  24.620  28.024  1.00  0.00     0.135 A 
ATOM     59  C   UNL A   1      44.152  26.599  26.776  1.00  0.00     0.135 A 
ATOM     60  F   UNL A   1      43.241  23.941  29.072  1.00  0.00    -0.206 F 
ATOM     61  C   UNL A   1      44.446  23.869  27.082  1.00  0.00     0.059 A 
ATOM     62  C   UNL A   1      44.813  25.862  25.792  1.00  0.00     0.059 A 
ATOM     63  F   UNL A   1      44.195  27.926  26.598  1.00  0.00    -0.206 F 
ATOM     64  C   UNL A   1      44.975  24.497  25.961  1.00  0.00     0.060 A 
BRANCH  64  65
ATOM     65  S   UNL A   1      45.890  23.533  24.742  1.00  0.00     0.124 S 
ATOM     66  O   UNL A   1      46.431  22.452  25.560  1.00  0.00    -0.237 OA
ATOM     67  O   UNL A   1      44.850  23.154  23.792  1.00  0.00    -0.237 OA
ATOM     68  O   UNL A   1      46.876  24.481  24.231  1.00  0.00    -0.744 OA
ENDBRANCH  64  65
ENDBRANCH  43  57
BRANCH  44  69
ATOM     69  C   UNL A   1      38.836  32.409  33.487  1.00  0.00     0.058 A 
ATOM     70  C   UNL A   1      38.478  33.759  33.279  1.00  0.00     0.135 A 
ATOM     71  C   UNL A   1      37.793  31.477  33.586  1.00  0.00     0.135 A 
ATOM     72  F   UNL A   1      39.435  34.697  33.182  1.00  0.00    -0.206 F 
ATOM     73  C   UNL A   1      37.164  34.143  33.017  1.00  0.00     0.059 A 
ATOM     74  C   UNL A   1      36.469  31.839  33.316  1.00  0.00     0.059 A 
ATOM     75  F   UNL A   1      38.066  30.178  33.781  1.00  0.00    -0.206 F 
ATOM     76  C   UNL A   1      36.174  33.164  32.976  1.00  0.00     0.060 A 
BRANCH  76  77
ATOM     77  S   UNL A   1      34.565  33.566  32.232  1.00  0.00     0.124 S 
ATOM     78  O   UNL A   1      33.638  33.166  33.283  1.00  0.00    -0.237 OA
ATOM     79  O   UNL A   1      34.665  35.004  31.989  1.00  0.00    -0.237 OA
ATOM     80  O   UNL A   1      34.561  32.750  31.022  1.00  0.00    -0.744 OA
ENDBRANCH  76  77
ENDBRANCH  44  69
BRANCH  56  81
ATOM     81  C   UNL A   1      44.080  27.442  34.380  1.00  0.00     0.058 A 
ATOM     82  C   UNL A   1      45.444  27.343  34.695  1.00  0.00     0.135 A 
ATOM     83  C   UNL A   1      43.266  26.383  34.850  1.00  0.00     0.135 A 
ATOM     84  F   UNL A   1      46.325  28.245  34.233  1.00  0.00    -0.206 F 
ATOM     85  C   UNL A   1      45.956  26.303  35.476  1.00  0.00     0.059 A 
ATOM     86  C   UNL A   1      43.764  25.310  35.582  1.00  0.00     0.059 A 
ATOM     87  F   UNL A   1      41.943  26.362  34.645  1.00  0.00    -0.206 F 
ATOM     88  C   UNL A   1      45.106  25.292  35.919  1.00  0.00     0.060 A 
BRANCH  88  89
ATOM     89  S   UNL A   1      45.767  23.945  36.915  1.00  0.00     0.124 S 
ATOM     90  O   UNL A   1      45.310  22.762  36.191  1.00  0.00    -0.237 OA
ATOM     91  O   UNL A   1      47.201  24.210  36.849  1.00  0.00    -0.237 OA
ATOM     92  O   UNL A   1      45.150  24.149  38.221  1.00  0.00    -0.744 OA
ENDBRANCH  88  89
ENDBRANCH  56  81
ENDBRANCH  30  31
ENDBRANCH  23  25
ENDBRANCH  22  23
ENDBRANCH  21  22
ENDBRANCH   1  21
TORSDOF 18
ENDMDL
MODEL 2
REMARK VINA RESULT:     -11.5      1.016      1.925
REMARK SMILES Cc1ccccc1-n1nc(Cl)c(C(=O)OCCOCCOC(=O)c2ccc(-c3c4nc(c(-c5c(F)cc(S(=O)(=O)[O-])cc5F)c5ccc([nH]5)c(-c5c(F)cc(S(=O)(=O)[O-])cc5F)c5nc(c(-c6c(F)cc(S(=O)(=O)[O-])cc6F)c6ccc3[nH]6)C=C5)C=C4)cc2)n1
REMARK SMILES IDX 19 1 18 2 17 3 16 4 15 5 13 6 14 7 12 8 8 9 9 10 90 11 10 12
REMARK SMILES IDX 11 13 7 14 1 15 2 16 3 17 4 18 6 19 5 20 20 21 21 22 22 23
REMARK SMILES IDX 23 24 24 25 25 26 89 27 26 28 88 29 27 30 28 31 29 32 82 33
REMARK SMILES IDX 30 34 87 35 81 36 83 37 31 38 86 39 80 40 79 41 32 43 66 44
REMARK SMILES IDX 45 45 65 46 46 47 49 48 64 49 84 50 47 51 48 52 63 54 85 55
REMARK SMILES IDX 50 56 33 57 34 58 43 59 35 60 36 61 42 62 44 63 37 64 38 65
REMARK SMILES IDX 39 66 40 67 41 68 67 69 68 70 77 71 69 72 70 73 76 74 78 75
REMARK SMILES IDX 71 76 72 77 73 78 74 79 75 80 51 81 52 82 61 83 53 84 54 85
REMARK SMILES IDX 60 86 62 87 55 88 56 89 57 90 58 91 59 92
REMARK H PARENT 83 42 49 53
REMARK Flexibility Score: inf
ROOT
ATOM      1  C   UNL A   1      32.318  29.231  24.764  1.00  0.00     0.202 C 
ENDROOT
BRANCH   1   2
ATOM      2  O   UNL A   1      31.272  28.299  24.567  1.00  0.00    -0.374 OA
BRANCH   2   3
ATOM      3  C   UNL A   1      31.615  26.927  24.714  1.00  0.00     0.202 C 
BRANCH   3   4
ATOM      4  C   UNL A   1      30.753  26.385  25.833  1.00  0.00     0.261 C 
BRANCH   4   5
ATOM      5  O   UNL A   1      31.385  25.309  26.551  1.00  0.00    -0.458 OA
BRANCH   5   6
ATOM      6  C   UNL A   1      30.843  24.054  26.614  1.00  0.00     0.362 C 
ATOM      7  O   UNL A   1      29.832  23.717  27.196  1.00  0.00    -0.244 OA
BRANCH   6   8
ATOM      8  C   UNL A   1      31.612  23.190  25.739  1.00  0.00     0.209 A 
ATOM      9  N   UNL A   1      33.353  22.244  25.060  1.00  0.00    -0.149 N 
ATOM     10  N   UNL A   1      32.716  22.545  23.895  1.00  0.00    -0.135 NA
ATOM     11  N   UNL A   1      32.655  22.473  26.188  1.00  0.00    -0.139 NA
ATOM     12  C   UNL A   1      31.587  23.109  24.341  1.00  0.00     0.186 A 
ATOM     13  Cl  UNL A   1      30.482  23.799  23.263  1.00  0.00    -0.057 Cl
BRANCH   9  14
ATOM     14  C   UNL A   1      34.753  22.011  25.144  1.00  0.00     0.089 A 
ATOM     15  C   UNL A   1      35.329  24.529  25.314  1.00  0.00     0.047 C 
ATOM     16  C   UNL A   1      35.685  23.073  25.153  1.00  0.00    -0.023 A 
ATOM     17  C   UNL A   1      37.048  22.763  25.005  1.00  0.00     0.006 A 
ATOM     18  C   UNL A   1      37.478  21.443  24.871  1.00  0.00     0.000 A 
ATOM     19  C   UNL A   1      35.198  20.679  25.061  1.00  0.00     0.030 A 
ATOM     20  C   UNL A   1      36.556  20.402  24.909  1.00  0.00     0.002 A 
ENDBRANCH   9  14
ENDBRANCH   6   8
ENDBRANCH   5   6
ENDBRANCH   4   5
ENDBRANCH   3   4
ENDBRANCH   2   3
ENDBRANCH   1   2
BRANCH   1  21
ATOM     21  C   UNL A   1      32.112  30.118  25.996  1.00  0.00     0.261 C 
BRANCH  21  22
ATOM     22  O   UNL A   1      33.376  30.354  26.643  1.00  0.00    -0.460 OA
BRANCH  22  23
ATOM     23  C   UNL A   1      33.844  29.298  27.367  1.00  0.00     0.338 C 
ATOM     24  O   UNL A   1      33.192  28.302  27.622  1.00  0.00    -0.246 OA
BRANCH  23  25
ATOM     25  C   UNL A   1      35.223  29.589  27.850  1.00  0.00     0.060 A 
ATOM     26  C   UNL A   1      36.285  29.730  26.939  1.00  0.00     0.016 A 
ATOM     27  C   UNL A   1      35.490  29.532  29.218  1.00  0.00     0.016 A 
ATOM     28  C   UNL A   1      37.616  29.716  27.394  1.00  0.00     0.010 A 
ATOM     29  C   UNL A   1      36.799  29.458  29.653  1.00  0.00     0.010 A 
ATOM     30  C   UNL A   1      37.875  29.533  28.752  1.00  0.00    -0.014 A 
BRANCH  30  31
ATOM     31  C   UNL A   1      39.185  29.291  29.368  1.00  0.00     0.031 A 
ATOM     32  C   UNL A   1      39.880  27.991  29.161  1.00  0.00     0.074 A 
ATOM     33  C   UNL A   1      39.942  30.334  29.789  1.00  0.00     0.049 A 
ATOM     34  N   UNL A   1      41.024  27.707  29.692  1.00  0.00    -0.248 NA
ATOM     35  C   UNL A   1      39.340  26.877  28.379  1.00  0.00     0.031 C 
ATOM     36  C   UNL A   1      41.400  30.437  29.720  1.00  0.00     0.029 A 
ATOM     37  N   UNL A   1      39.564  31.496  30.463  1.00  0.00    -0.354 N 
ATOM     38  C   UNL A   1      41.537  26.647  28.991  1.00  0.00     0.074 A 
ATOM     39  C   UNL A   1      40.392  26.048  28.351  1.00  0.00     0.031 C 
ATOM     40  C   UNL A   1      41.813  31.440  30.504  1.00  0.00     0.029 A 
ATOM     41  C   UNL A   1      40.663  31.930  31.231  1.00  0.00     0.049 A 
ATOM     42  H   UNL A   1      38.684  31.936  30.410  1.00  0.00     0.167 HD
ATOM     43  C   UNL A   1      42.890  26.509  28.893  1.00  0.00     0.037 A 
ATOM     44  C   UNL A   1      40.560  32.111  32.576  1.00  0.00     0.037 A 
ATOM     45  C   UNL A   1      43.617  27.396  29.816  1.00  0.00     0.049 A 
ATOM     46  C   UNL A   1      41.461  31.179  33.353  1.00  0.00     0.074 A 
ATOM     47  C   UNL A   1      44.595  28.371  29.710  1.00  0.00     0.029 A 
ATOM     48  N   UNL A   1      43.217  27.429  31.144  1.00  0.00    -0.354 N 
ATOM     49  N   UNL A   1      42.410  30.463  32.810  1.00  0.00    -0.248 NA
ATOM     50  C   UNL A   1      41.313  30.895  34.778  1.00  0.00     0.031 C 
ATOM     51  C   UNL A   1      44.763  28.977  31.001  1.00  0.00     0.029 A 
ATOM     52  C   UNL A   1      43.920  28.345  31.896  1.00  0.00     0.049 A 
ATOM     53  H   UNL A   1      42.505  26.856  31.511  1.00  0.00     0.167 HD
ATOM     54  C   UNL A   1      42.829  29.511  33.698  1.00  0.00     0.074 A 
ATOM     55  C   UNL A   1      42.168  29.869  34.941  1.00  0.00     0.031 C 
ATOM     56  C   UNL A   1      43.605  28.451  33.319  1.00  0.00     0.037 A 
BRANCH  43  57
ATOM     57  C   UNL A   1      43.580  25.630  27.867  1.00  0.00     0.058 A 
ATOM     58  C   UNL A   1      44.008  26.169  26.634  1.00  0.00     0.135 A 
ATOM     59  C   UNL A   1      43.769  24.235  27.995  1.00  0.00     0.135 A 
ATOM     60  F   UNL A   1      43.856  27.475  26.362  1.00  0.00    -0.206 F 
ATOM     61  C   UNL A   1      44.591  25.394  25.625  1.00  0.00     0.059 A 
ATOM     62  C   UNL A   1      44.405  23.452  27.029  1.00  0.00     0.059 A 
ATOM     63  F   UNL A   1      43.285  23.545  29.036  1.00  0.00    -0.206 F 
ATOM     64  C   UNL A   1      44.797  24.035  25.835  1.00  0.00     0.060 A 
BRANCH  64  65
ATOM     65  S   UNL A   1      45.552  23.032  24.540  1.00  0.00     0.124 S 
ATOM     66  O   UNL A   1      44.389  22.626  23.759  1.00  0.00    -0.237 OA
ATOM     67  O   UNL A   1      46.456  23.977  23.894  1.00  0.00    -0.237 OA
ATOM     68  O   UNL A   1      46.210  21.960  25.282  1.00  0.00    -0.744 OA
ENDBRANCH  64  65
ENDBRANCH  43  57
BRANCH  44  69
ATOM     69  C   UNL A   1      39.218  32.642  32.961  1.00  0.00     0.058 A 
ATOM     70  C   UNL A   1      38.902  33.947  32.523  1.00  0.00     0.135 A 
ATOM     71  C   UNL A   1      38.145  31.780  33.234  1.00  0.00     0.135 A 
ATOM     72  F   UNL A   1      39.889  34.817  32.252  1.00  0.00    -0.206 F 
ATOM     73  C   UNL A   1      37.598  34.327  32.213  1.00  0.00     0.059 A 
ATOM     74  C   UNL A   1      36.830  32.138  32.919  1.00  0.00     0.059 A 
ATOM     75  F   UNL A   1      38.377  30.526  33.650  1.00  0.00    -0.206 F 
ATOM     76  C   UNL A   1      36.574  33.393  32.356  1.00  0.00     0.060 A 
BRANCH  76  77
ATOM     77  S   UNL A   1      34.967  33.717  31.572  1.00  0.00     0.124 S 
ATOM     78  O   UNL A   1      34.328  34.595  32.543  1.00  0.00    -0.237 OA
ATOM     79  O   UNL A   1      35.340  34.341  30.304  1.00  0.00    -0.237 OA
ATOM     80  O   UNL A   1      34.400  32.378  31.440  1.00  0.00    -0.744 OA
ENDBRANCH  76  77
ENDBRANCH  44  69
BRANCH  56  81
ATOM     81  C   UNL A   1      44.053  27.362  34.266  1.00  0.00     0.058 A 
ATOM     82  C   UNL A   1      43.174  26.387  34.766  1.00  0.00     0.135 A 
ATOM     83  C   UNL A   1      45.368  27.322  34.789  1.00  0.00     0.135 A 
ATOM     84  F   UNL A   1      41.881  26.378  34.406  1.00  0.00    -0.206 F 
ATOM     85  C   UNL A   1      43.586  25.403  35.669  1.00  0.00     0.059 A 
ATOM     86  C   UNL A   1      45.785  26.386  35.729  1.00  0.00     0.059 A 
ATOM     87  F   UNL A   1      46.317  28.175  34.381  1.00  0.00    -0.206 F 
ATOM     88  C   UNL A   1      44.896  25.408  36.143  1.00  0.00     0.060 A 
BRANCH  88  89
ATOM     89  S   UNL A   1      45.424  24.148  37.316  1.00  0.00     0.124 S 
ATOM     90  O   UNL A   1      44.659  24.488  38.512  1.00  0.00    -0.237 OA
ATOM     91  O   UNL A   1      45.017  22.925  36.632  1.00  0.00    -0.237 OA
ATOM     92  O   UNL A   1      46.864  24.360  37.421  1.00  0.00    -0.744 OA
ENDBRANCH  88  89
ENDBRANCH  56  81
ENDBRANCH  30  31
ENDBRANCH  23  25
ENDBRANCH  22  23
ENDBRANCH  21  22
ENDBRANCH   1  21
TORSDOF 18
ENDMDL
MODEL 3
REMARK VINA RESULT:     -11.5      1.411      1.899
REMARK SMILES Cc1ccccc1-n1nc(Cl)c(C(=O)OCCOCCOC(=O)c2ccc(-c3c4nc(c(-c5c(F)cc(S(=O)(=O)[O-])cc5F)c5ccc([nH]5)c(-c5c(F)cc(S(=O)(=O)[O-])cc5F)c5nc(c(-c6c(F)cc(S(=O)(=O)[O-])cc6F)c6ccc3[nH]6)C=C5)C=C4)cc2)n1
REMARK SMILES IDX 19 1 18 2 17 3 16 4 15 5 13 6 14 7 12 8 8 9 9 10 90 11 10 12
REMARK SMILES IDX 11 13 7 14 1 15 2 16 3 17 4 18 6 19 5 20 20 21 21 22 22 23
REMARK SMILES IDX 23 24 24 25 25 26 89 27 26 28 88 29 27 30 28 31 29 32 82 33
REMARK SMILES IDX 30 34 87 35 81 36 83 37 31 38 86 39 80 40 79 41 32 43 66 44
REMARK SMILES IDX 45 45 65 46 46 47 49 48 64 49 84 50 47 51 48 52 63 54 85 55
REMARK SMILES IDX 50 56 33 57 34 58 43 59 35 60 36 61 42 62 44 63 37 64 38 65
REMARK SMILES IDX 39 66 40 67 41 68 67 69 68 70 77 71 69 72 70 73 76 74 78 75
REMARK SMILES IDX 71 76 72 77 73 78 74 79 75 80 51 81 52 82 61 83 53 84 54 85
REMARK SMILES IDX 60 86 62 87 55 88 56 89 57 90 58 91 59 92
REMARK H PARENT 83 42 49 53
REMARK Flexibility Score: inf
ROOT
ATOM      1  C   UNL A   1      31.739  29.932  25.282  1.00  0.00     0.202 C 
ENDROOT
BRANCH   1   2
ATOM      2  O   UNL A   1      31.206  28.652  25.002  1.00  0.00    -0.374 OA
BRANCH   2   3
ATOM      3  C   UNL A   1      30.556  28.501  23.746  1.00  0.00     0.202 C 
BRANCH   3   4
ATOM      4  C   UNL A   1      31.621  28.084  22.756  1.00  0.00     0.261 C 
BRANCH   4   5
ATOM      5  O   UNL A   1      32.611  27.216  23.337  1.00  0.00    -0.458 OA
BRANCH   5   6
ATOM      6  C   UNL A   1      33.402  26.397  22.578  1.00  0.00     0.362 C 
ATOM      7  O   UNL A   1      33.643  26.498  21.392  1.00  0.00    -0.244 OA
BRANCH   6   8
ATOM      8  C   UNL A   1      34.038  25.442  23.465  1.00  0.00     0.209 A 
ATOM      9  N   UNL A   1      34.446  23.528  24.211  1.00  0.00    -0.149 N 
ATOM     10  N   UNL A   1      34.415  24.278  25.347  1.00  0.00    -0.135 NA
ATOM     11  N   UNL A   1      34.380  24.211  23.053  1.00  0.00    -0.139 NA
ATOM     12  C   UNL A   1      34.196  25.504  24.855  1.00  0.00     0.186 A 
ATOM     13  Cl  UNL A   1      33.932  26.815  25.890  1.00  0.00    -0.057 Cl
BRANCH   9  14
ATOM     14  C   UNL A   1      34.239  22.122  24.202  1.00  0.00     0.089 A 
ATOM     15  C   UNL A   1      31.830  22.316  23.274  1.00  0.00     0.047 C 
ATOM     16  C   UNL A   1      32.988  21.555  23.870  1.00  0.00    -0.023 A 
ATOM     17  C   UNL A   1      32.794  20.183  24.106  1.00  0.00     0.006 A 
ATOM     18  C   UNL A   1      33.814  19.391  24.635  1.00  0.00     0.000 A 
ATOM     19  C   UNL A   1      35.279  21.307  24.688  1.00  0.00     0.030 A 
ATOM     20  C   UNL A   1      35.057  19.950  24.917  1.00  0.00     0.002 A 
ENDBRANCH   9  14
ENDBRANCH   6   8
ENDBRANCH   5   6
ENDBRANCH   4   5
ENDBRANCH   3   4
ENDBRANCH   2   3
ENDBRANCH   1   2
BRANCH   1  21
ATOM     21  C   UNL A   1      32.406  30.020  26.658  1.00  0.00     0.261 C 
BRANCH  21  22
ATOM     22  O   UNL A   1      33.800  30.343  26.504  1.00  0.00    -0.460 OA
BRANCH  22  23
ATOM     23  C   UNL A   1      34.347  31.000  27.565  1.00  0.00     0.338 C 
ATOM     24  O   UNL A   1      33.966  32.083  27.968  1.00  0.00    -0.246 OA
BRANCH  23  25
ATOM     25  C   UNL A   1      35.511  30.231  28.090  1.00  0.00     0.060 A 
ATOM     26  C   UNL A   1      35.537  29.799  29.428  1.00  0.00     0.016 A 
ATOM     27  C   UNL A   1      36.655  30.108  27.302  1.00  0.00     0.016 A 
ATOM     28  C   UNL A   1      36.735  29.333  30.000  1.00  0.00     0.010 A 
ATOM     29  C   UNL A   1      37.842  29.708  27.885  1.00  0.00     0.010 A 
ATOM     30  C   UNL A   1      37.904  29.332  29.237  1.00  0.00    -0.014 A 
BRANCH  30  31
ATOM     31  C   UNL A   1      39.265  29.078  29.724  1.00  0.00     0.031 A 
ATOM     32  C   UNL A   1      39.944  27.792  29.410  1.00  0.00     0.074 A 
ATOM     33  C   UNL A   1      40.053  30.112  30.110  1.00  0.00     0.049 A 
ATOM     34  N   UNL A   1      41.132  27.498  29.826  1.00  0.00    -0.248 NA
ATOM     35  C   UNL A   1      39.339  26.701  28.642  1.00  0.00     0.031 C 
ATOM     36  C   UNL A   1      41.498  30.227  29.913  1.00  0.00     0.029 A 
ATOM     37  N   UNL A   1      39.733  31.248  30.855  1.00  0.00    -0.354 N 
ATOM     38  C   UNL A   1      41.583  26.465  29.045  1.00  0.00     0.074 A 
ATOM     39  C   UNL A   1      40.387  25.880  28.491  1.00  0.00     0.031 C 
ATOM     40  C   UNL A   1      41.977  31.206  30.691  1.00  0.00     0.029 A 
ATOM     41  C   UNL A   1      40.895  31.663  31.535  1.00  0.00     0.049 A 
ATOM     42  H   UNL A   1      38.850  31.684  30.897  1.00  0.00     0.167 HD
ATOM     43  C   UNL A   1      42.922  26.340  28.821  1.00  0.00     0.037 A 
ATOM     44  C   UNL A   1      40.913  31.798  32.890  1.00  0.00     0.037 A 
ATOM     45  C   UNL A   1      43.726  27.201  29.704  1.00  0.00     0.049 A 
ATOM     46  C   UNL A   1      41.885  30.846  33.549  1.00  0.00     0.074 A 
ATOM     47  C   UNL A   1      44.687  28.185  29.544  1.00  0.00     0.029 A 
ATOM     48  N   UNL A   1      43.448  27.185  31.063  1.00  0.00    -0.354 N 
ATOM     49  N   UNL A   1      42.783  30.156  32.899  1.00  0.00    -0.248 NA
ATOM     50  C   UNL A   1      41.867  30.514  34.972  1.00  0.00     0.031 C 
ATOM     51  C   UNL A   1      44.969  28.749  30.834  1.00  0.00     0.029 A 
ATOM     52  C   UNL A   1      44.212  28.080  31.779  1.00  0.00     0.049 A 
ATOM     53  H   UNL A   1      42.774  26.595  31.473  1.00  0.00     0.167 HD
ATOM     54  C   UNL A   1      43.284  29.177  33.711  1.00  0.00     0.074 A 
ATOM     55  C   UNL A   1      42.737  29.488  35.021  1.00  0.00     0.031 C 
ATOM     56  C   UNL A   1      44.027  28.136  33.228  1.00  0.00     0.037 A 
BRANCH  43  57
ATOM     57  C   UNL A   1      43.520  25.502  27.707  1.00  0.00     0.058 A 
ATOM     58  C   UNL A   1      43.747  24.121  27.892  1.00  0.00     0.135 A 
ATOM     59  C   UNL A   1      43.976  26.010  26.469  1.00  0.00     0.135 A 
ATOM     60  F   UNL A   1      43.398  23.512  29.036  1.00  0.00    -0.206 F 
ATOM     61  C   UNL A   1      44.354  23.312  26.924  1.00  0.00     0.059 A 
ATOM     62  C   UNL A   1      44.527  25.212  25.464  1.00  0.00     0.059 A 
ATOM     63  F   UNL A   1      43.973  27.322  26.196  1.00  0.00    -0.206 F 
ATOM     64  C   UNL A   1      44.732  23.864  25.706  1.00  0.00     0.060 A 
BRANCH  64  65
ATOM     65  S   UNL A   1      45.511  22.825  24.454  1.00  0.00     0.124 S 
ATOM     66  O   UNL A   1      46.483  23.742  23.867  1.00  0.00    -0.237 OA
ATOM     67  O   UNL A   1      46.062  21.732  25.246  1.00  0.00    -0.237 OA
ATOM     68  O   UNL A   1      44.399  22.455  23.582  1.00  0.00    -0.744 OA
ENDBRANCH  64  65
ENDBRANCH  43  57
BRANCH  44  69
ATOM     69  C   UNL A   1      39.609  32.306  33.412  1.00  0.00     0.058 A 
ATOM     70  C   UNL A   1      39.337  33.677  33.215  1.00  0.00     0.135 A 
ATOM     71  C   UNL A   1      38.509  31.452  33.577  1.00  0.00     0.135 A 
ATOM     72  F   UNL A   1      40.353  34.543  33.055  1.00  0.00    -0.206 F 
ATOM     73  C   UNL A   1      38.042  34.155  33.026  1.00  0.00     0.059 A 
ATOM     74  C   UNL A   1      37.201  31.908  33.381  1.00  0.00     0.059 A 
ATOM     75  F   UNL A   1      38.699  30.137  33.766  1.00  0.00    -0.206 F 
ATOM     76  C   UNL A   1      36.983  33.250  33.050  1.00  0.00     0.060 A 
BRANCH  76  77
ATOM     77  S   UNL A   1      35.367  33.764  32.396  1.00  0.00     0.124 S 
ATOM     78  O   UNL A   1      35.440  35.214  32.515  1.00  0.00    -0.237 OA
ATOM     79  O   UNL A   1      35.383  33.240  31.032  1.00  0.00    -0.237 OA
ATOM     80  O   UNL A   1      34.431  33.089  33.290  1.00  0.00    -0.744 OA
ENDBRANCH  76  77
ENDBRANCH  44  69
BRANCH  56  81
ATOM     81  C   UNL A   1      44.563  27.019  34.093  1.00  0.00     0.058 A 
ATOM     82  C   UNL A   1      45.931  26.870  34.373  1.00  0.00     0.135 A 
ATOM     83  C   UNL A   1      43.724  25.991  34.589  1.00  0.00     0.135 A 
ATOM     84  F   UNL A   1      46.831  27.738  33.885  1.00  0.00    -0.206 F 
ATOM     85  C   UNL A   1      46.424  25.815  35.145  1.00  0.00     0.059 A 
ATOM     86  C   UNL A   1      44.200  24.903  35.312  1.00  0.00     0.059 A 
ATOM     87  F   UNL A   1      42.395  26.018  34.418  1.00  0.00    -0.206 F 
ATOM     88  C   UNL A   1      45.549  24.836  35.614  1.00  0.00     0.060 A 
BRANCH  88  89
ATOM     89  S   UNL A   1      46.186  23.469  36.598  1.00  0.00     0.124 S 
ATOM     90  O   UNL A   1      46.159  24.014  37.952  1.00  0.00    -0.237 OA
ATOM     91  O   UNL A   1      45.204  22.426  36.317  1.00  0.00    -0.237 OA
ATOM     92  O   UNL A   1      47.518  23.241  36.048  1.00  0.00    -0.744 OA
ENDBRANCH  88  89
ENDBRANCH  56  81
ENDBRANCH  30  31
ENDBRANCH  23  25
ENDBRANCH  22  23
ENDBRANCH  21  22
ENDBRANCH   1  21
TORSDOF 18
ENDMDL
