MODEL 1
REMARK VINA RESULT:     -11.1      0.000      0.000
REMARK SMILES COc1cccc([C@@H]2C[N@@H+](Cc3nccn3C)C[C@H]2C(=O)OCCOCCOC(=O)c2ccc(-c3c4nc(c(-c5c(F)cc(S(=O)(=O)[O-])cc5F)c5ccc([nH]5)c(-c5c(F)cc(S(=O)(=O)[O-])cc5F)c5nc(c(-c6c(F)cc(S(=O)(=O)[O-])cc6F)c6ccc3[nH]6)C=C5)C=C4)cc2)c1
REMARK SMILES IDX 26 1 25 2 24 3 23 4 22 5 20 6 21 7 19 8 8 9 9 10 10 11 18 12
REMARK SMILES IDX 7 14 3 15 4 16 97 17 5 18 6 19 2 20 1 21 11 22 12 23 13 24
REMARK SMILES IDX 16 25 14 26 15 27 17 28 27 29 28 30 29 31 30 32 31 33 32 34
REMARK SMILES IDX 96 35 33 36 95 37 34 38 35 39 36 40 89 41 37 42 94 43 88 44
REMARK SMILES IDX 90 45 38 46 93 47 87 48 86 49 39 51 73 52 52 53 72 54 53 55
REMARK SMILES IDX 56 56 71 57 91 58 54 59 55 60 70 62 92 63 57 64 40 65 41 66
REMARK SMILES IDX 50 67 42 68 43 69 49 70 51 71 44 72 45 73 46 74 47 75 48 76
REMARK SMILES IDX 74 77 75 78 84 79 76 80 77 81 83 82 85 83 78 84 79 85 80 86
REMARK SMILES IDX 81 87 82 88 58 89 59 90 68 91 60 92 61 93 67 94 69 95 62 96
REMARK SMILES IDX 63 97 64 98 65 99 66 100
REMARK H PARENT 10 13 90 50 56 61
REMARK Flexibility Score: inf
ROOT
ATOM      1  C   UNL A   1      34.224  32.221  28.670  1.00  0.00     0.202 C 
ENDROOT
BRANCH   1   2
ATOM      2  O   UNL A   1      33.947  31.435  27.515  1.00  0.00    -0.374 OA
BRANCH   2   3
ATOM      3  C   UNL A   1      32.586  31.341  27.098  1.00  0.00     0.202 C 
BRANCH   3   4
ATOM      4  C   UNL A   1      32.068  29.934  26.800  1.00  0.00     0.261 C 
BRANCH   4   5
ATOM      5  O   UNL A   1      31.778  29.729  25.400  1.00  0.00    -0.463 OA
BRANCH   5   6
ATOM      6  C   UNL A   1      32.460  28.715  24.813  1.00  0.00     0.315 C 
ATOM      7  O   UNL A   1      33.672  28.544  24.926  1.00  0.00    -0.252 OA
BRANCH   6   8
ATOM      8  C   UNL A   1      31.646  27.828  23.900  1.00  0.00     0.167 C 
ATOM      9  C   UNL A   1      30.504  26.968  24.454  1.00  0.00     0.094 C 
ATOM     10  C   UNL A   1      29.496  26.980  23.291  1.00  0.00     0.272 C 
ATOM     11  N   UNL A   1      29.627  28.287  22.637  1.00  0.00    -0.327 N 
ATOM     12  C   UNL A   1      31.004  28.731  22.845  1.00  0.00     0.278 C 
ATOM     13  H   UNL A   1      29.443  28.196  21.638  1.00  0.00     0.348 HD
BRANCH   9  14
ATOM     14  C   UNL A   1      30.806  25.531  24.862  1.00  0.00    -0.035 A 
ATOM     15  C   UNL A   1      31.470  23.832  26.490  1.00  0.00     0.119 A 
ATOM     16  C   UNL A   1      31.434  22.860  25.491  1.00  0.00     0.046 A 
ATOM     17  C   UNL A   1      31.175  25.161  26.167  1.00  0.00     0.050 A 
ATOM     18  C   UNL A   1      31.107  23.210  24.182  1.00  0.00     0.004 A 
ATOM     19  C   UNL A   1      30.803  24.536  23.870  1.00  0.00     0.004 A 
BRANCH  15  20
ATOM     20  O   UNL A   1      31.831  23.374  27.729  1.00  0.00    -0.497 OA
ATOM     21  C   UNL A   1      32.977  22.535  27.787  1.00  0.00     0.278 C 
ENDBRANCH  15  20
ENDBRANCH   9  14
BRANCH  11  22
ATOM     22  C   UNL A   1      28.603  29.271  23.036  1.00  0.00     0.339 C 
BRANCH  22  23
ATOM     23  C   UNL A   1      28.391  30.431  22.107  1.00  0.00     0.164 A 
ATOM     24  N   UNL A   1      27.993  30.311  20.852  1.00  0.00    -0.236 NA
ATOM     25  N   UNL A   1      28.593  31.758  22.413  1.00  0.00    -0.333 N 
ATOM     26  C   UNL A   1      27.930  31.577  20.349  1.00  0.00     0.131 A 
ATOM     27  C   UNL A   1      28.258  32.497  21.311  1.00  0.00     0.107 A 
ATOM     28  C   UNL A   1      29.094  32.315  23.646  1.00  0.00     0.151 C 
ENDBRANCH  22  23
ENDBRANCH  11  22
ENDBRANCH   6   8
ENDBRANCH   5   6
ENDBRANCH   4   5
ENDBRANCH   3   4
ENDBRANCH   2   3
ENDBRANCH   1   2
BRANCH   1  29
ATOM     29  C   UNL A   1      35.394  31.773  29.554  1.00  0.00     0.261 C 
BRANCH  29  30
ATOM     30  O   UNL A   1      35.862  30.438  29.298  1.00  0.00    -0.460 OA
BRANCH  30  31
ATOM     31  C   UNL A   1      36.650  29.933  30.278  1.00  0.00     0.338 C 
ATOM     32  O   UNL A   1      36.282  29.343  31.288  1.00  0.00    -0.246 OA
BRANCH  31  33
ATOM     33  C   UNL A   1      38.079  30.055  29.941  1.00  0.00     0.060 A 
ATOM     34  C   UNL A   1      38.438  29.957  28.593  1.00  0.00     0.016 A 
ATOM     35  C   UNL A   1      39.062  30.108  30.930  1.00  0.00     0.016 A 
ATOM     36  C   UNL A   1      39.781  29.851  28.232  1.00  0.00     0.010 A 
ATOM     37  C   UNL A   1      40.413  30.014  30.565  1.00  0.00     0.010 A 
ATOM     38  C   UNL A   1      40.779  29.835  29.217  1.00  0.00    -0.014 A 
BRANCH  38  39
ATOM     39  C   UNL A   1      42.166  29.449  28.840  1.00  0.00     0.031 A 
ATOM     40  C   UNL A   1      42.439  28.032  28.400  1.00  0.00     0.074 A 
ATOM     41  C   UNL A   1      43.160  30.357  28.817  1.00  0.00     0.049 A 
ATOM     42  N   UNL A   1      43.553  27.493  27.975  1.00  0.00    -0.248 NA
ATOM     43  C   UNL A   1      41.303  27.095  28.452  1.00  0.00     0.031 C 
ATOM     44  C   UNL A   1      43.033  31.760  29.204  1.00  0.00     0.029 A 
ATOM     45  N   UNL A   1      44.476  30.230  28.443  1.00  0.00    -0.354 N 
ATOM     46  C   UNL A   1      43.257  26.160  27.711  1.00  0.00     0.074 A 
ATOM     47  C   UNL A   1      41.869  25.959  28.068  1.00  0.00     0.031 C 
ATOM     48  C   UNL A   1      44.221  32.369  29.037  1.00  0.00     0.029 A 
ATOM     49  C   UNL A   1      45.197  31.396  28.547  1.00  0.00     0.049 A 
ATOM     50  H   UNL A   1      44.867  29.383  28.128  1.00  0.00     0.167 HD
ATOM     51  C   UNL A   1      44.055  25.193  27.200  1.00  0.00     0.037 A 
ATOM     52  C   UNL A   1      46.493  31.652  28.279  1.00  0.00     0.037 A 
ATOM     53  C   UNL A   1      45.431  25.389  26.828  1.00  0.00     0.049 A 
ATOM     54  C   UNL A   1      47.372  30.553  27.735  1.00  0.00     0.074 A 
ATOM     55  C   UNL A   1      46.316  24.474  26.282  1.00  0.00     0.029 A 
ATOM     56  N   UNL A   1      46.126  26.582  26.965  1.00  0.00    -0.354 N 
ATOM     57  N   UNL A   1      47.063  29.309  27.459  1.00  0.00    -0.248 NA
ATOM     58  C   UNL A   1      48.773  30.900  27.452  1.00  0.00     0.031 C 
ATOM     59  C   UNL A   1      47.554  25.104  26.121  1.00  0.00     0.029 A 
ATOM     60  C   UNL A   1      47.431  26.422  26.527  1.00  0.00     0.049 A 
ATOM     61  H   UNL A   1      45.748  27.417  27.322  1.00  0.00     0.167 HD
ATOM     62  C   UNL A   1      48.222  28.733  26.946  1.00  0.00     0.074 A 
ATOM     63  C   UNL A   1      49.234  29.768  26.938  1.00  0.00     0.031 C 
ATOM     64  C   UNL A   1      48.427  27.463  26.515  1.00  0.00     0.037 A 
BRANCH  51  65
ATOM     65  C   UNL A   1      43.455  23.826  27.020  1.00  0.00     0.058 A 
ATOM     66  C   UNL A   1      43.254  22.962  28.108  1.00  0.00     0.135 A 
ATOM     67  C   UNL A   1      43.062  23.380  25.748  1.00  0.00     0.135 A 
ATOM     68  F   UNL A   1      43.627  23.331  29.343  1.00  0.00    -0.206 F 
ATOM     69  C   UNL A   1      42.715  21.690  27.936  1.00  0.00     0.059 A 
ATOM     70  C   UNL A   1      42.498  22.122  25.557  1.00  0.00     0.059 A 
ATOM     71  F   UNL A   1      43.232  24.167  24.674  1.00  0.00    -0.206 F 
ATOM     72  C   UNL A   1      42.344  21.278  26.656  1.00  0.00     0.060 A 
BRANCH  72  73
ATOM     73  S   UNL A   1      41.654  19.623  26.447  1.00  0.00     0.124 S 
ATOM     74  O   UNL A   1      40.226  19.914  26.359  1.00  0.00    -0.237 OA
ATOM     75  O   UNL A   1      42.286  19.172  25.212  1.00  0.00    -0.237 OA
ATOM     76  O   UNL A   1      42.077  18.923  27.656  1.00  0.00    -0.744 OA
ENDBRANCH  72  73
ENDBRANCH  51  65
BRANCH  52  77
ATOM     77  C   UNL A   1      47.045  33.014  28.504  1.00  0.00     0.058 A 
ATOM     78  C   UNL A   1      47.601  33.377  29.740  1.00  0.00     0.135 A 
ATOM     79  C   UNL A   1      47.021  33.983  27.489  1.00  0.00     0.135 A 
ATOM     80  F   UNL A   1      47.636  32.490  30.746  1.00  0.00    -0.206 F 
ATOM     81  C   UNL A   1      48.102  34.655  29.969  1.00  0.00     0.059 A 
ATOM     82  C   UNL A   1      47.537  35.260  27.685  1.00  0.00     0.059 A 
ATOM     83  F   UNL A   1      46.510  33.683  26.285  1.00  0.00    -0.206 F 
ATOM     84  C   UNL A   1      48.067  35.590  28.932  1.00  0.00     0.060 A 
BRANCH  84  85
ATOM     85  S   UNL A   1      48.772  37.229  29.215  1.00  0.00     0.124 S 
ATOM     86  O   UNL A   1      49.676  37.360  28.079  1.00  0.00    -0.237 OA
ATOM     87  O   UNL A   1      47.586  38.080  29.190  1.00  0.00    -0.237 OA
ATOM     88  O   UNL A   1      49.409  37.097  30.522  1.00  0.00    -0.744 OA
ENDBRANCH  84  85
ENDBRANCH  52  77
BRANCH  64  89
ATOM     89  C   UNL A   1      49.786  27.128  25.963  1.00  0.00     0.058 A 
ATOM     90  C   UNL A   1      50.817  26.637  26.780  1.00  0.00     0.135 A 
ATOM     91  C   UNL A   1      50.047  27.261  24.590  1.00  0.00     0.135 A 
ATOM     92  F   UNL A   1      50.621  26.494  28.100  1.00  0.00    -0.206 F 
ATOM     93  C   UNL A   1      52.067  26.318  26.260  1.00  0.00     0.059 A 
ATOM     94  C   UNL A   1      51.282  26.924  24.043  1.00  0.00     0.059 A 
ATOM     95  F   UNL A   1      49.092  27.714  23.761  1.00  0.00    -0.206 F 
ATOM     96  C   UNL A   1      52.291  26.467  24.889  1.00  0.00     0.060 A 
BRANCH  96  97
ATOM     97  S   UNL A   1      53.912  26.033  24.221  1.00  0.00     0.124 S 
ATOM     98  O   UNL A   1      54.130  24.717  24.813  1.00  0.00    -0.237 OA
ATOM     99  O   UNL A   1      53.674  26.049  22.781  1.00  0.00    -0.237 OA
ATOM    100  O   UNL A   1      54.779  27.097  24.717  1.00  0.00    -0.744 OA
ENDBRANCH  96  97
ENDBRANCH  64  89
ENDBRANCH  38  39
ENDBRANCH  31  33
ENDBRANCH  30  31
ENDBRANCH  29  30
ENDBRANCH   1  29
TORSDOF 21
ENDMDL
MODEL 2
REMARK VINA RESULT:     -11.1      6.623     11.755
REMARK SMILES COc1cccc([C@@H]2C[N@@H+](Cc3nccn3C)C[C@H]2C(=O)OCCOCCOC(=O)c2ccc(-c3c4nc(c(-c5c(F)cc(S(=O)(=O)[O-])cc5F)c5ccc([nH]5)c(-c5c(F)cc(S(=O)(=O)[O-])cc5F)c5nc(c(-c6c(F)cc(S(=O)(=O)[O-])cc6F)c6ccc3[nH]6)C=C5)C=C4)cc2)c1
REMARK SMILES IDX 26 1 25 2 24 3 23 4 22 5 20 6 21 7 19 8 8 9 9 10 10 11 18 12
REMARK SMILES IDX 7 14 3 15 4 16 97 17 5 18 6 19 2 20 1 21 11 22 12 23 13 24
REMARK SMILES IDX 16 25 14 26 15 27 17 28 27 29 28 30 29 31 30 32 31 33 32 34
REMARK SMILES IDX 96 35 33 36 95 37 34 38 35 39 36 40 89 41 37 42 94 43 88 44
REMARK SMILES IDX 90 45 38 46 93 47 87 48 86 49 39 51 73 52 52 53 72 54 53 55
REMARK SMILES IDX 56 56 71 57 91 58 54 59 55 60 70 62 92 63 57 64 40 65 41 66
REMARK SMILES IDX 50 67 42 68 43 69 49 70 51 71 44 72 45 73 46 74 47 75 48 76
REMARK SMILES IDX 74 77 75 78 84 79 76 80 77 81 83 82 85 83 78 84 79 85 80 86
REMARK SMILES IDX 81 87 82 88 58 89 59 90 68 91 60 92 61 93 67 94 69 95 62 96
REMARK SMILES IDX 63 97 64 98 65 99 66 100
REMARK H PARENT 10 13 90 50 56 61
REMARK Flexibility Score: inf
ROOT
ATOM      1  C   UNL A   1      40.202  21.501  26.639  1.00  0.00     0.202 C 
ENDROOT
BRANCH   1   2
ATOM      2  O   UNL A   1      39.179  21.901  25.733  1.00  0.00    -0.374 OA
BRANCH   2   3
ATOM      3  C   UNL A   1      38.432  23.071  26.064  1.00  0.00     0.202 C 
BRANCH   3   4
ATOM      4  C   UNL A   1      36.920  22.985  25.855  1.00  0.00     0.261 C 
BRANCH   4   5
ATOM      5  O   UNL A   1      36.552  22.085  24.787  1.00  0.00    -0.463 OA
BRANCH   5   6
ATOM      6  C   UNL A   1      36.104  22.684  23.657  1.00  0.00     0.315 C 
ATOM      7  O   UNL A   1      36.801  23.384  22.925  1.00  0.00    -0.252 OA
BRANCH   6   8
ATOM      8  C   UNL A   1      34.628  22.525  23.379  1.00  0.00     0.167 C 
ATOM      9  C   UNL A   1      33.717  21.792  24.370  1.00  0.00     0.094 C 
ATOM     10  C   UNL A   1      32.393  22.564  24.225  1.00  0.00     0.272 C 
ATOM     11  N   UNL A   1      32.750  23.958  23.935  1.00  0.00    -0.327 N 
ATOM     12  C   UNL A   1      34.038  23.930  23.244  1.00  0.00     0.278 C 
ATOM     13  H   UNL A   1      32.044  24.379  23.331  1.00  0.00     0.348 HD
BRANCH   9  14
ATOM     14  C   UNL A   1      33.470  20.302  24.168  1.00  0.00    -0.035 A 
ATOM     15  C   UNL A   1      34.079  17.948  24.427  1.00  0.00     0.119 A 
ATOM     16  C   UNL A   1      32.975  17.578  23.661  1.00  0.00     0.046 A 
ATOM     17  C   UNL A   1      34.331  19.304  24.660  1.00  0.00     0.050 A 
ATOM     18  C   UNL A   1      32.129  18.550  23.131  1.00  0.00     0.004 A 
ATOM     19  C   UNL A   1      32.380  19.901  23.378  1.00  0.00     0.004 A 
BRANCH  15  20
ATOM     20  O   UNL A   1      34.851  16.907  24.869  1.00  0.00    -0.497 OA
ATOM     21  C   UNL A   1      34.162  15.730  25.272  1.00  0.00     0.278 C 
ENDBRANCH  15  20
ENDBRANCH   9  14
BRANCH  11  22
ATOM     22  C   UNL A   1      32.707  24.853  25.107  1.00  0.00     0.339 C 
BRANCH  22  23
ATOM     23  C   UNL A   1      32.780  26.326  24.826  1.00  0.00     0.164 A 
ATOM     24  N   UNL A   1      33.858  27.064  25.024  1.00  0.00    -0.236 NA
ATOM     25  N   UNL A   1      31.752  27.108  24.348  1.00  0.00    -0.333 N 
ATOM     26  C   UNL A   1      33.521  28.335  24.661  1.00  0.00     0.131 A 
ATOM     27  C   UNL A   1      32.231  28.381  24.198  1.00  0.00     0.107 A 
ATOM     28  C   UNL A   1      30.394  26.711  24.070  1.00  0.00     0.151 C 
ENDBRANCH  22  23
ENDBRANCH  11  22
ENDBRANCH   6   8
ENDBRANCH   5   6
ENDBRANCH   4   5
ENDBRANCH   3   4
ENDBRANCH   2   3
ENDBRANCH   1   2
BRANCH   1  29
ATOM     29  C   UNL A   1      41.530  22.265  26.573  1.00  0.00     0.261 C 
BRANCH  29  30
ATOM     30  O   UNL A   1      41.680  23.294  27.565  1.00  0.00    -0.460 OA
BRANCH  30  31
ATOM     31  C   UNL A   1      42.126  24.475  27.072  1.00  0.00     0.338 C 
ATOM     32  O   UNL A   1      42.805  24.642  26.065  1.00  0.00    -0.246 OA
BRANCH  31  33
ATOM     33  C   UNL A   1      41.585  25.617  27.829  1.00  0.00     0.060 A 
ATOM     34  C   UNL A   1      42.425  26.717  28.032  1.00  0.00     0.016 A 
ATOM     35  C   UNL A   1      40.341  25.553  28.460  1.00  0.00     0.016 A 
ATOM     36  C   UNL A   1      42.050  27.731  28.914  1.00  0.00     0.010 A 
ATOM     37  C   UNL A   1      39.961  26.580  29.337  1.00  0.00     0.010 A 
ATOM     38  C   UNL A   1      40.833  27.651  29.608  1.00  0.00    -0.014 A 
BRANCH  38  39
ATOM     39  C   UNL A   1      40.578  28.587  30.736  1.00  0.00     0.031 A 
ATOM     40  C   UNL A   1      41.441  28.500  31.971  1.00  0.00     0.074 A 
ATOM     41  C   UNL A   1      39.641  29.550  30.643  1.00  0.00     0.049 A 
ATOM     42  N   UNL A   1      41.433  29.249  33.044  1.00  0.00    -0.248 NA
ATOM     43  C   UNL A   1      42.443  27.422  32.001  1.00  0.00     0.031 C 
ATOM     44  C   UNL A   1      38.749  29.755  29.505  1.00  0.00     0.029 A 
ATOM     45  N   UNL A   1      39.294  30.545  31.525  1.00  0.00    -0.354 N 
ATOM     46  C   UNL A   1      42.422  28.734  33.876  1.00  0.00     0.074 A 
ATOM     47  C   UNL A   1      42.979  27.580  33.202  1.00  0.00     0.031 C 
ATOM     48  C   UNL A   1      37.961  30.817  29.753  1.00  0.00     0.029 A 
ATOM     49  C   UNL A   1      38.282  31.358  31.073  1.00  0.00     0.049 A 
ATOM     50  H   UNL A   1      39.729  30.665  32.400  1.00  0.00     0.167 HD
ATOM     51  C   UNL A   1      42.847  29.186  35.079  1.00  0.00     0.037 A 
ATOM     52  C   UNL A   1      37.682  32.417  31.655  1.00  0.00     0.037 A 
ATOM     53  C   UNL A   1      42.308  30.342  35.748  1.00  0.00     0.049 A 
ATOM     54  C   UNL A   1      38.153  32.888  33.008  1.00  0.00     0.074 A 
ATOM     55  C   UNL A   1      42.688  30.891  36.961  1.00  0.00     0.029 A 
ATOM     56  N   UNL A   1      41.274  31.127  35.262  1.00  0.00    -0.354 N 
ATOM     57  N   UNL A   1      39.114  32.409  33.761  1.00  0.00    -0.248 NA
ATOM     58  C   UNL A   1      37.466  34.054  33.582  1.00  0.00     0.031 C 
ATOM     59  C   UNL A   1      41.859  31.986  37.225  1.00  0.00     0.029 A 
ATOM     60  C   UNL A   1      40.993  32.146  36.157  1.00  0.00     0.049 A 
ATOM     61  H   UNL A   1      40.807  30.981  34.408  1.00  0.00     0.167 HD
ATOM     62  C   UNL A   1      39.163  33.231  34.884  1.00  0.00     0.074 A 
ATOM     63  C   UNL A   1      38.145  34.244  34.705  1.00  0.00     0.031 C 
ATOM     64  C   UNL A   1      39.982  33.156  35.963  1.00  0.00     0.037 A 
BRANCH  51  65
ATOM     65  C   UNL A   1      43.948  28.419  35.756  1.00  0.00     0.058 A 
ATOM     66  C   UNL A   1      45.301  28.692  35.499  1.00  0.00     0.135 A 
ATOM     67  C   UNL A   1      43.649  27.409  36.684  1.00  0.00     0.135 A 
ATOM     68  F   UNL A   1      45.643  29.636  34.608  1.00  0.00    -0.206 F 
ATOM     69  C   UNL A   1      46.318  27.968  36.113  1.00  0.00     0.059 A 
ATOM     70  C   UNL A   1      44.650  26.690  37.330  1.00  0.00     0.059 A 
ATOM     71  F   UNL A   1      42.372  27.108  36.966  1.00  0.00    -0.206 F 
ATOM     72  C   UNL A   1      45.983  26.965  37.024  1.00  0.00     0.060 A 
BRANCH  72  73
ATOM     73  S   UNL A   1      47.312  26.029  37.808  1.00  0.00     0.124 S 
ATOM     74  O   UNL A   1      46.934  26.113  39.216  1.00  0.00    -0.237 OA
ATOM     75  O   UNL A   1      47.176  24.714  37.193  1.00  0.00    -0.237 OA
ATOM     76  O   UNL A   1      48.514  26.770  37.437  1.00  0.00    -0.744 OA
ENDBRANCH  72  73
ENDBRANCH  51  65
BRANCH  52  77
ATOM     77  C   UNL A   1      36.576  33.122  30.955  1.00  0.00     0.058 A 
ATOM     78  C   UNL A   1      35.245  32.985  31.380  1.00  0.00     0.135 A 
ATOM     79  C   UNL A   1      36.826  33.941  29.844  1.00  0.00     0.135 A 
ATOM     80  F   UNL A   1      34.954  32.203  32.430  1.00  0.00    -0.206 F 
ATOM     81  C   UNL A   1      34.200  33.624  30.721  1.00  0.00     0.059 A 
ATOM     82  C   UNL A   1      35.800  34.609  29.182  1.00  0.00     0.059 A 
ATOM     83  F   UNL A   1      38.082  34.112  29.405  1.00  0.00    -0.206 F 
ATOM     84  C   UNL A   1      34.489  34.437  29.623  1.00  0.00     0.060 A 
BRANCH  84  85
ATOM     85  S   UNL A   1      33.135  35.311  28.807  1.00  0.00     0.124 S 
ATOM     86  O   UNL A   1      32.351  35.767  29.948  1.00  0.00    -0.237 OA
ATOM     87  O   UNL A   1      33.844  36.347  28.062  1.00  0.00    -0.237 OA
ATOM     88  O   UNL A   1      32.516  34.275  27.986  1.00  0.00    -0.744 OA
ENDBRANCH  84  85
ENDBRANCH  52  77
BRANCH  64  89
ATOM     89  C   UNL A   1      39.839  34.218  37.019  1.00  0.00     0.058 A 
ATOM     90  C   UNL A   1      39.034  34.032  38.153  1.00  0.00     0.135 A 
ATOM     91  C   UNL A   1      40.553  35.423  36.914  1.00  0.00     0.135 A 
ATOM     92  F   UNL A   1      38.328  32.900  38.301  1.00  0.00    -0.206 F 
ATOM     93  C   UNL A   1      38.916  35.014  39.131  1.00  0.00     0.059 A 
ATOM     94  C   UNL A   1      40.471  36.410  37.892  1.00  0.00     0.059 A 
ATOM     95  F   UNL A   1      41.348  35.649  35.855  1.00  0.00    -0.206 F 
ATOM     96  C   UNL A   1      39.638  36.203  38.990  1.00  0.00     0.060 A 
BRANCH  96  97
ATOM     97  S   UNL A   1      39.493  37.464  40.274  1.00  0.00     0.124 S 
ATOM     98  O   UNL A   1      40.888  37.844  40.471  1.00  0.00    -0.237 OA
ATOM     99  O   UNL A   1      38.647  38.468  39.636  1.00  0.00    -0.237 OA
ATOM    100  O   UNL A   1      38.873  36.747  41.385  1.00  0.00    -0.744 OA
ENDBRANCH  96  97
ENDBRANCH  64  89
ENDBRANCH  38  39
ENDBRANCH  31  33
ENDBRANCH  30  31
ENDBRANCH  29  30
ENDBRANCH   1  29
TORSDOF 21
ENDMDL
MODEL 3
REMARK VINA RESULT:     -11.0      1.613      8.866
REMARK SMILES COc1cccc([C@@H]2C[N@@H+](Cc3nccn3C)C[C@H]2C(=O)OCCOCCOC(=O)c2ccc(-c3c4nc(c(-c5c(F)cc(S(=O)(=O)[O-])cc5F)c5ccc([nH]5)c(-c5c(F)cc(S(=O)(=O)[O-])cc5F)c5nc(c(-c6c(F)cc(S(=O)(=O)[O-])cc6F)c6ccc3[nH]6)C=C5)C=C4)cc2)c1
REMARK SMILES IDX 26 1 25 2 24 3 23 4 22 5 20 6 21 7 19 8 8 9 9 10 10 11 18 12
REMARK SMILES IDX 7 14 3 15 4 16 97 17 5 18 6 19 2 20 1 21 11 22 12 23 13 24
REMARK SMILES IDX 16 25 14 26 15 27 17 28 27 29 28 30 29 31 30 32 31 33 32 34
REMARK SMILES IDX 96 35 33 36 95 37 34 38 35 39 36 40 89 41 37 42 94 43 88 44
REMARK SMILES IDX 90 45 38 46 93 47 87 48 86 49 39 51 73 52 52 53 72 54 53 55
REMARK SMILES IDX 56 56 71 57 91 58 54 59 55 60 70 62 92 63 57 64 40 65 41 66
REMARK SMILES IDX 50 67 42 68 43 69 49 70 51 71 44 72 45 73 46 74 47 75 48 76
REMARK SMILES IDX 74 77 75 78 84 79 76 80 77 81 83 82 85 83 78 84 79 85 80 86
REMARK SMILES IDX 81 87 82 88 58 89 59 90 68 91 60 92 61 93 67 94 69 95 62 96
REMARK SMILES IDX 63 97 64 98 65 99 66 100
REMARK H PARENT 10 13 90 50 56 61
REMARK Flexibility Score: inf
ROOT
ATOM      1  C   UNL A   1      34.774  33.084  29.550  1.00  0.00     0.202 C 
ENDROOT
BRANCH   1   2
ATOM      2  O   UNL A   1      34.322  32.752  28.240  1.00  0.00    -0.374 OA
BRANCH   2   3
ATOM      3  C   UNL A   1      34.165  31.367  27.934  1.00  0.00     0.202 C 
BRANCH   3   4
ATOM      4  C   UNL A   1      32.908  30.989  27.151  1.00  0.00     0.261 C 
BRANCH   4   5
ATOM      5  O   UNL A   1      32.501  29.620  27.373  1.00  0.00    -0.463 OA
BRANCH   5   6
ATOM      6  C   UNL A   1      32.784  28.764  26.361  1.00  0.00     0.315 C 
ATOM      7  O   UNL A   1      33.829  28.781  25.715  1.00  0.00    -0.252 OA
BRANCH   6   8
ATOM      8  C   UNL A   1      31.671  27.812  25.987  1.00  0.00     0.167 C 
ATOM      9  C   UNL A   1      31.293  27.584  24.519  1.00  0.00     0.094 C 
ATOM     10  C   UNL A   1      30.880  26.101  24.517  1.00  0.00     0.272 C 
ATOM     11  N   UNL A   1      31.718  25.432  25.519  1.00  0.00    -0.327 N 
ATOM     12  C   UNL A   1      32.054  26.433  26.529  1.00  0.00     0.278 C 
ATOM     13  H   UNL A   1      31.199  24.667  25.951  1.00  0.00     0.348 HD
BRANCH   9  14
ATOM     14  C   UNL A   1      30.180  28.431  23.913  1.00  0.00    -0.035 A 
ATOM     15  C   UNL A   1      29.110  30.572  23.416  1.00  0.00     0.119 A 
ATOM     16  C   UNL A   1      28.030  29.901  22.847  1.00  0.00     0.046 A 
ATOM     17  C   UNL A   1      30.168  29.836  23.962  1.00  0.00     0.050 A 
ATOM     18  C   UNL A   1      28.002  28.508  22.821  1.00  0.00     0.004 A 
ATOM     19  C   UNL A   1      29.067  27.780  23.357  1.00  0.00     0.004 A 
BRANCH  15  20
ATOM     20  O   UNL A   1      29.012  31.938  23.408  1.00  0.00    -0.497 OA
ATOM     21  C   UNL A   1      28.471  32.529  22.233  1.00  0.00     0.278 C 
ENDBRANCH  15  20
ENDBRANCH   9  14
BRANCH  11  22
ATOM     22  C   UNL A   1      32.881  24.718  24.959  1.00  0.00     0.339 C 
BRANCH  22  23
ATOM     23  C   UNL A   1      32.816  23.218  24.976  1.00  0.00     0.164 A 
ATOM     24  N   UNL A   1      31.984  22.505  24.236  1.00  0.00    -0.236 NA
ATOM     25  N   UNL A   1      33.585  22.386  25.758  1.00  0.00    -0.333 N 
ATOM     26  C   UNL A   1      32.227  21.198  24.542  1.00  0.00     0.131 A 
ATOM     27  C   UNL A   1      33.246  21.095  25.454  1.00  0.00     0.107 A 
ATOM     28  C   UNL A   1      34.561  22.758  26.752  1.00  0.00     0.151 C 
ENDBRANCH  22  23
ENDBRANCH  11  22
ENDBRANCH   6   8
ENDBRANCH   5   6
ENDBRANCH   4   5
ENDBRANCH   3   4
ENDBRANCH   2   3
ENDBRANCH   1   2
BRANCH   1  29
ATOM     29  C   UNL A   1      35.000  31.922  30.525  1.00  0.00     0.261 C 
BRANCH  29  30
ATOM     30  O   UNL A   1      36.352  31.791  30.996  1.00  0.00    -0.460 OA
BRANCH  30  31
ATOM     31  C   UNL A   1      36.835  30.526  30.939  1.00  0.00     0.338 C 
ATOM     32  O   UNL A   1      36.212  29.490  31.146  1.00  0.00    -0.246 OA
BRANCH  31  33
ATOM     33  C   UNL A   1      38.227  30.499  30.457  1.00  0.00     0.060 A 
ATOM     34  C   UNL A   1      38.434  30.470  29.074  1.00  0.00     0.016 A 
ATOM     35  C   UNL A   1      39.302  30.348  31.334  1.00  0.00     0.016 A 
ATOM     36  C   UNL A   1      39.708  30.231  28.561  1.00  0.00     0.010 A 
ATOM     37  C   UNL A   1      40.586  30.120  30.817  1.00  0.00     0.010 A 
ATOM     38  C   UNL A   1      40.789  30.010  29.429  1.00  0.00    -0.014 A 
BRANCH  38  39
ATOM     39  C   UNL A   1      42.069  29.490  28.876  1.00  0.00     0.031 A 
ATOM     40  C   UNL A   1      43.261  30.411  28.792  1.00  0.00     0.074 A 
ATOM     41  C   UNL A   1      42.199  28.198  28.518  1.00  0.00     0.049 A 
ATOM     42  N   UNL A   1      44.483  30.155  28.399  1.00  0.00    -0.248 NA
ATOM     43  C   UNL A   1      43.044  31.810  29.199  1.00  0.00     0.031 C 
ATOM     44  C   UNL A   1      41.135  27.197  28.560  1.00  0.00     0.029 A 
ATOM     45  N   UNL A   1      43.291  27.505  28.054  1.00  0.00    -0.354 N 
ATOM     46  C   UNL A   1      45.178  31.355  28.510  1.00  0.00     0.074 A 
ATOM     47  C   UNL A   1      44.230  32.350  28.963  1.00  0.00     0.031 C 
ATOM     48  C   UNL A   1      41.629  26.015  28.150  1.00  0.00     0.029 A 
ATOM     49  C   UNL A   1      43.039  26.178  27.801  1.00  0.00     0.049 A 
ATOM     50  H   UNL A   1      44.174  27.920  27.918  1.00  0.00     0.167 HD
ATOM     51  C   UNL A   1      46.488  31.607  28.279  1.00  0.00     0.037 A 
ATOM     52  C   UNL A   1      43.851  25.205  27.339  1.00  0.00     0.037 A 
ATOM     53  C   UNL A   1      47.441  30.620  27.844  1.00  0.00     0.049 A 
ATOM     54  C   UNL A   1      45.301  25.513  27.063  1.00  0.00     0.074 A 
ATOM     55  C   UNL A   1      48.795  30.775  27.603  1.00  0.00     0.029 A 
ATOM     56  N   UNL A   1      47.139  29.291  27.583  1.00  0.00    -0.354 N 
ATOM     57  N   UNL A   1      45.947  26.646  27.208  1.00  0.00    -0.248 NA
ATOM     58  C   UNL A   1      46.135  24.406  26.573  1.00  0.00     0.031 C 
ATOM     59  C   UNL A   1      49.306  29.549  27.163  1.00  0.00     0.029 A 
ATOM     60  C   UNL A   1      48.279  28.620  27.171  1.00  0.00     0.049 A 
ATOM     61  H   UNL A   1      46.248  28.885  27.677  1.00  0.00     0.167 HD
ATOM     62  C   UNL A   1      47.267  26.380  26.854  1.00  0.00     0.074 A 
ATOM     63  C   UNL A   1      47.330  24.977  26.499  1.00  0.00     0.031 C 
ATOM     64  C   UNL A   1      48.331  27.220  26.830  1.00  0.00     0.037 A 
BRANCH  51  65
ATOM     65  C   UNL A   1      46.967  33.017  28.486  1.00  0.00     0.058 A 
ATOM     66  C   UNL A   1      46.962  33.957  27.443  1.00  0.00     0.135 A 
ATOM     67  C   UNL A   1      47.423  33.440  29.745  1.00  0.00     0.135 A 
ATOM     68  F   UNL A   1      46.553  33.602  26.215  1.00  0.00    -0.206 F 
ATOM     69  C   UNL A   1      47.423  35.256  27.632  1.00  0.00     0.059 A 
ATOM     70  C   UNL A   1      47.864  34.741  29.964  1.00  0.00     0.059 A 
ATOM     71  F   UNL A   1      47.449  32.581  30.777  1.00  0.00    -0.206 F 
ATOM     72  C   UNL A   1      47.876  35.638  28.896  1.00  0.00     0.060 A 
BRANCH  72  73
ATOM     73  S   UNL A   1      48.478  37.324  29.126  1.00  0.00     0.124 S 
ATOM     74  O   UNL A   1      48.190  37.544  30.540  1.00  0.00    -0.237 OA
ATOM     75  O   UNL A   1      49.890  37.204  28.777  1.00  0.00    -0.237 OA
ATOM     76  O   UNL A   1      47.669  38.103  28.193  1.00  0.00    -0.744 OA
ENDBRANCH  72  73
ENDBRANCH  51  65
BRANCH  52  77
ATOM     77  C   UNL A   1      43.319  23.833  27.122  1.00  0.00     0.058 A 
ATOM     78  C   UNL A   1      43.131  22.950  28.195  1.00  0.00     0.135 A 
ATOM     79  C   UNL A   1      42.995  23.377  25.835  1.00  0.00     0.135 A 
ATOM     80  F   UNL A   1      43.438  23.335  29.443  1.00  0.00    -0.206 F 
ATOM     81  C   UNL A   1      42.652  21.657  28.001  1.00  0.00     0.059 A 
ATOM     82  C   UNL A   1      42.493  22.098  25.618  1.00  0.00     0.059 A 
ATOM     83  F   UNL A   1      43.147  24.187  24.776  1.00  0.00    -0.206 F 
ATOM     84  C   UNL A   1      42.334  21.242  26.707  1.00  0.00     0.060 A 
BRANCH  84  85
ATOM     85  S   UNL A   1      41.658  19.584  26.468  1.00  0.00     0.124 S 
ATOM     86  O   UNL A   1      42.281  19.191  25.209  1.00  0.00    -0.237 OA
ATOM     87  O   UNL A   1      42.130  18.886  27.660  1.00  0.00    -0.237 OA
ATOM     88  O   UNL A   1      40.217  19.815  26.418  1.00  0.00    -0.744 OA
ENDBRANCH  84  85
ENDBRANCH  52  77
BRANCH  64  89
ATOM     89  C   UNL A   1      49.665  26.642  26.442  1.00  0.00     0.058 A 
ATOM     90  C   UNL A   1      50.142  26.696  25.124  1.00  0.00     0.135 A 
ATOM     91  C   UNL A   1      50.496  26.061  27.415  1.00  0.00     0.135 A 
ATOM     92  F   UNL A   1      49.386  27.237  24.155  1.00  0.00    -0.206 F 
ATOM     93  C   UNL A   1      51.381  26.169  24.776  1.00  0.00     0.059 A 
ATOM     94  C   UNL A   1      51.751  25.551  27.096  1.00  0.00     0.059 A 
ATOM     95  F   UNL A   1      50.095  25.994  28.695  1.00  0.00    -0.206 F 
ATOM     96  C   UNL A   1      52.179  25.595  25.770  1.00  0.00     0.060 A 
BRANCH  96  97
ATOM     97  S   UNL A   1      53.794  24.930  25.312  1.00  0.00     0.124 S 
ATOM     98  O   UNL A   1      54.105  25.712  24.119  1.00  0.00    -0.237 OA
ATOM     99  O   UNL A   1      54.602  25.223  26.491  1.00  0.00    -0.237 OA
ATOM    100  O   UNL A   1      53.524  23.514  25.082  1.00  0.00    -0.744 OA
ENDBRANCH  96  97
ENDBRANCH  64  89
ENDBRANCH  38  39
ENDBRANCH  31  33
ENDBRANCH  30  31
ENDBRANCH  29  30
ENDBRANCH   1  29
TORSDOF 21
ENDMDL
