MODEL 1
REMARK VINA RESULT:     -11.6      0.000      0.000
REMARK SMILES O=C(CCC(=O)OCCOCCOC(=O)c1ccc(-c2c3nc(c(-c4c(F)cc(S(=O)(=O)[O-])cc4F)c4ccc([nH]4)c(-c4c(F)cc(S(=O)(=O)[O-])cc4F)c4nc(c(-c5c(F)cc(S(=O)(=O)[O-])cc5F)c5ccc2[nH]5)C=C4)C=C3)cc1)/[NH+]=C1\S[C@H]2CS(=O)(=O)C[C@@H]2N1c1ccc2c(c1)OCO2
REMARK SMILES IDX 10 1 9 2 8 3 7 4 5 5 6 6 4 7 3 8 2 9 1 10 82 11 83 12 84 14
REMARK SMILES IDX 92 15 85 16 91 17 86 18 90 19 87 20 88 21 89 22 93 23 94 24
REMARK SMILES IDX 98 25 95 26 97 27 96 28 99 29 101 30 100 31 11 32 12 33
REMARK SMILES IDX 13 34 14 35 15 36 16 37 17 38 81 39 18 40 80 41 19 42 20 43
REMARK SMILES IDX 21 44 74 45 22 46 79 47 73 48 75 49 23 50 78 51 72 52 71 53
REMARK SMILES IDX 24 55 58 56 37 57 57 58 38 59 41 60 56 61 76 62 39 63 40 64
REMARK SMILES IDX 55 66 77 67 42 68 25 69 26 70 35 71 27 72 28 73 34 74 36 75
REMARK SMILES IDX 29 76 30 77 31 78 32 79 33 80 59 81 60 82 69 83 61 84 62 85
REMARK SMILES IDX 68 86 70 87 63 88 64 89 65 90 66 91 67 92 43 93 44 94 53 95
REMARK SMILES IDX 45 96 46 97 52 98 54 99 47 100 48 101 49 102 50 103 51 104
REMARK H PARENT 82 13 75 54 41 65
REMARK Flexibility Score: inf
ROOT
ATOM      1  O   UNL A   1      44.421  20.982  24.210  1.00  0.00    -0.374 OA
ENDROOT
BRANCH   1   2
ATOM      2  C   UNL A   1      44.149  20.450  25.519  1.00  0.00     0.202 C 
BRANCH   2   3
ATOM      3  C   UNL A   1      42.837  19.671  25.787  1.00  0.00     0.261 C 
BRANCH   3   4
ATOM      4  O   UNL A   1      41.726  20.562  25.792  1.00  0.00    -0.463 OA
BRANCH   4   5
ATOM      5  C   UNL A   1      41.206  20.662  27.032  1.00  0.00     0.306 C 
ATOM      6  O   UNL A   1      41.194  19.746  27.847  1.00  0.00    -0.252 OA
BRANCH   5   7
ATOM      7  C   UNL A   1      40.745  22.063  27.303  1.00  0.00     0.135 C 
BRANCH   7   8
ATOM      8  C   UNL A   1      39.803  22.692  26.263  1.00  0.00     0.139 C 
BRANCH   8   9
ATOM      9  C   UNL A   1      38.674  23.694  26.536  1.00  0.00     0.308 C 
ATOM     10  O   UNL A   1      39.042  24.874  26.577  1.00  0.00    -0.247 OA
ATOM     11  N   UNL A   1      37.314  23.422  26.743  1.00  0.00    -0.204 N 
ATOM     12  C   UNL A   1      36.386  22.900  25.992  1.00  0.00     0.319 C 
ATOM     13  H   UNL A   1      36.996  23.675  27.640  1.00  0.00     0.316 HD
ATOM     14  S   UNL A   1      36.570  21.863  24.541  1.00  0.00    -0.029 SA
ATOM     15  N   UNL A   1      34.982  22.998  26.181  1.00  0.00    -0.216 N 
ATOM     16  C   UNL A   1      34.957  21.127  24.621  1.00  0.00     0.120 C 
ATOM     17  C   UNL A   1      34.385  21.673  25.927  1.00  0.00     0.212 C 
ATOM     18  C   UNL A   1      34.694  19.644  24.683  1.00  0.00     0.156 C 
ATOM     19  C   UNL A   1      32.908  21.408  25.778  1.00  0.00     0.188 C 
ATOM     20  S   UNL A   1      32.958  19.674  25.201  1.00  0.00     0.155 S 
ATOM     21  O   UNL A   1      32.137  19.529  24.033  1.00  0.00    -0.229 OA
ATOM     22  O   UNL A   1      32.836  18.796  26.358  1.00  0.00    -0.229 OA
BRANCH  15  23
ATOM     23  C   UNL A   1      34.358  24.114  25.546  1.00  0.00     0.132 A 
ATOM     24  C   UNL A   1      34.675  24.428  24.209  1.00  0.00     0.056 A 
ATOM     25  C   UNL A   1      33.290  24.812  26.147  1.00  0.00     0.102 A 
ATOM     26  C   UNL A   1      33.931  25.384  23.485  1.00  0.00     0.055 A 
ATOM     27  C   UNL A   1      32.566  25.714  25.415  1.00  0.00     0.170 A 
ATOM     28  C   UNL A   1      32.858  25.981  24.109  1.00  0.00     0.166 A 
ATOM     29  O   UNL A   1      31.434  26.328  25.854  1.00  0.00    -0.453 OA
ATOM     30  O   UNL A   1      31.916  26.789  23.552  1.00  0.00    -0.454 OA
ATOM     31  C   UNL A   1      30.906  26.752  24.584  1.00  0.00     0.468 C 
ENDBRANCH  15  23
ENDBRANCH   8   9
ENDBRANCH   7   8
ENDBRANCH   5   7
ENDBRANCH   4   5
ENDBRANCH   3   4
ENDBRANCH   2   3
ENDBRANCH   1   2
BRANCH   1  32
ATOM     32  C   UNL A   1      44.473  22.429  24.046  1.00  0.00     0.202 C 
BRANCH  32  33
ATOM     33  C   UNL A   1      43.446  23.615  24.604  1.00  0.00     0.261 C 
BRANCH  33  34
ATOM     34  O   UNL A   1      43.408  24.168  25.987  1.00  0.00    -0.460 OA
BRANCH  34  35
ATOM     35  C   UNL A   1      43.842  25.480  26.188  1.00  0.00     0.338 C 
ATOM     36  O   UNL A   1      44.676  26.020  25.471  1.00  0.00    -0.246 OA
BRANCH  35  37
ATOM     37  C   UNL A   1      43.167  26.289  27.312  1.00  0.00     0.060 A 
ATOM     38  C   UNL A   1      43.675  27.512  27.727  1.00  0.00     0.016 A 
ATOM     39  C   UNL A   1      42.171  25.782  28.155  1.00  0.00     0.016 A 
ATOM     40  C   UNL A   1      43.211  28.250  28.840  1.00  0.00     0.010 A 
ATOM     41  C   UNL A   1      41.667  26.538  29.281  1.00  0.00     0.010 A 
ATOM     42  C   UNL A   1      42.177  27.801  29.651  1.00  0.00    -0.014 A 
BRANCH  42  43
ATOM     43  C   UNL A   1      41.757  28.616  30.876  1.00  0.00     0.031 A 
ATOM     44  C   UNL A   1      40.585  29.587  30.807  1.00  0.00     0.074 A 
ATOM     45  C   UNL A   1      42.300  28.438  32.111  1.00  0.00     0.049 A 
ATOM     46  N   UNL A   1      40.108  30.403  31.721  1.00  0.00    -0.248 NA
ATOM     47  C   UNL A   1      39.811  29.596  29.560  1.00  0.00     0.031 C 
ATOM     48  C   UNL A   1      43.321  27.451  32.469  1.00  0.00     0.029 A 
ATOM     49  N   UNL A   1      42.062  29.092  33.314  1.00  0.00    -0.354 N 
ATOM     50  C   UNL A   1      38.981  31.005  31.165  1.00  0.00     0.074 A 
ATOM     51  C   UNL A   1      38.830  30.442  29.840  1.00  0.00     0.031 C 
ATOM     52  C   UNL A   1      43.614  27.559  33.776  1.00  0.00     0.029 A 
ATOM     53  C   UNL A   1      42.894  28.697  34.345  1.00  0.00     0.049 A 
ATOM     54  H   UNL A   1      41.363  29.776  33.424  1.00  0.00     0.167 HD
ATOM     55  C   UNL A   1      38.162  31.962  31.672  1.00  0.00     0.037 A 
ATOM     56  C   UNL A   1      43.131  29.218  35.574  1.00  0.00     0.037 A 
ATOM     57  C   UNL A   1      38.346  32.621  32.939  1.00  0.00     0.049 A 
ATOM     58  C   UNL A   1      42.393  30.454  36.027  1.00  0.00     0.074 A 
ATOM     59  C   UNL A   1      37.651  33.702  33.460  1.00  0.00     0.029 A 
ATOM     60  N   UNL A   1      39.315  32.290  33.872  1.00  0.00    -0.354 N 
ATOM     61  N   UNL A   1      41.404  31.085  35.440  1.00  0.00    -0.248 NA
ATOM     62  C   UNL A   1      42.826  31.075  37.292  1.00  0.00     0.031 C 
ATOM     63  C   UNL A   1      38.257  34.076  34.665  1.00  0.00     0.029 A 
ATOM     64  C   UNL A   1      39.278  33.181  34.935  1.00  0.00     0.049 A 
ATOM     65  H   UNL A   1      39.941  31.534  33.792  1.00  0.00     0.167 HD
ATOM     66  C   UNL A   1      41.101  32.172  36.258  1.00  0.00     0.074 A 
ATOM     67  C   UNL A   1      41.992  32.104  37.395  1.00  0.00     0.031 C 
ATOM     68  C   UNL A   1      40.169  33.139  36.068  1.00  0.00     0.037 A 
BRANCH  55  69
ATOM     69  C   UNL A   1      37.064  32.461  30.767  1.00  0.00     0.058 A 
ATOM     70  C   UNL A   1      37.277  33.459  29.803  1.00  0.00     0.135 A 
ATOM     71  C   UNL A   1      35.760  31.955  30.908  1.00  0.00     0.135 A 
ATOM     72  F   UNL A   1      38.497  33.994  29.638  1.00  0.00    -0.206 F 
ATOM     73  C   UNL A   1      36.224  33.973  29.047  1.00  0.00     0.059 A 
ATOM     74  C   UNL A   1      34.701  32.436  30.148  1.00  0.00     0.059 A 
ATOM     75  F   UNL A   1      35.503  31.000  31.816  1.00  0.00    -0.206 F 
ATOM     76  C   UNL A   1      34.937  33.466  29.240  1.00  0.00     0.060 A 
BRANCH  76  77
ATOM     77  S   UNL A   1      33.566  34.202  28.322  1.00  0.00     0.124 S 
ATOM     78  O   UNL A   1      32.721  34.687  29.410  1.00  0.00    -0.237 OA
ATOM     79  O   UNL A   1      34.236  35.230  27.533  1.00  0.00    -0.237 OA
ATOM     80  O   UNL A   1      33.025  33.081  27.561  1.00  0.00    -0.744 OA
ENDBRANCH  76  77
ENDBRANCH  55  69
BRANCH  56  81
ATOM     81  C   UNL A   1      44.228  28.652  36.426  1.00  0.00     0.058 A 
ATOM     82  C   UNL A   1      45.528  29.182  36.431  1.00  0.00     0.135 A 
ATOM     83  C   UNL A   1      43.985  27.545  37.258  1.00  0.00     0.135 A 
ATOM     84  F   UNL A   1      45.839  30.204  35.619  1.00  0.00    -0.206 F 
ATOM     85  C   UNL A   1      46.531  28.660  37.250  1.00  0.00     0.059 A 
ATOM     86  C   UNL A   1      44.958  27.029  38.110  1.00  0.00     0.059 A 
ATOM     87  F   UNL A   1      42.772  26.969  37.272  1.00  0.00    -0.206 F 
ATOM     88  C   UNL A   1      46.229  27.596  38.102  1.00  0.00     0.060 A 
BRANCH  88  89
ATOM     89  S   UNL A   1      47.495  27.001  39.249  1.00  0.00     0.124 S 
ATOM     90  O   UNL A   1      46.687  26.535  40.369  1.00  0.00    -0.237 OA
ATOM     91  O   UNL A   1      48.156  25.963  38.463  1.00  0.00    -0.237 OA
ATOM     92  O   UNL A   1      48.302  28.190  39.505  1.00  0.00    -0.744 OA
ENDBRANCH  88  89
ENDBRANCH  56  81
BRANCH  68  93
ATOM     93  C   UNL A   1      40.041  34.218  37.112  1.00  0.00     0.058 A 
ATOM     94  C   UNL A   1      40.718  35.443  36.998  1.00  0.00     0.135 A 
ATOM     95  C   UNL A   1      39.175  34.055  38.207  1.00  0.00     0.135 A 
ATOM     96  F   UNL A   1      41.560  35.656  35.975  1.00  0.00    -0.206 F 
ATOM     97  C   UNL A   1      40.555  36.459  37.938  1.00  0.00     0.059 A 
ATOM     98  C   UNL A   1      38.976  35.066  39.145  1.00  0.00     0.059 A 
ATOM     99  F   UNL A   1      38.493  32.909  38.364  1.00  0.00    -0.206 F 
ATOM    100  C   UNL A   1      39.679  36.262  39.007  1.00  0.00     0.060 A 
BRANCH 100 101
ATOM    101  S   UNL A   1      39.447  37.600  40.198  1.00  0.00     0.124 S 
ATOM    102  O   UNL A   1      38.404  38.391  39.554  1.00  0.00    -0.237 OA
ATOM    103  O   UNL A   1      39.046  36.880  41.402  1.00  0.00    -0.237 OA
ATOM    104  O   UNL A   1      40.762  38.231  40.262  1.00  0.00    -0.744 OA
ENDBRANCH 100 101
ENDBRANCH  68  93
ENDBRANCH  42  43
ENDBRANCH  35  37
ENDBRANCH  34  35
ENDBRANCH  33  34
ENDBRANCH  32  33
ENDBRANCH   1  32
TORSDOF 20
ENDMDL
MODEL 2
REMARK VINA RESULT:     -11.0      4.069     10.346
REMARK SMILES O=C(CCC(=O)OCCOCCOC(=O)c1ccc(-c2c3nc(c(-c4c(F)cc(S(=O)(=O)[O-])cc4F)c4ccc([nH]4)c(-c4c(F)cc(S(=O)(=O)[O-])cc4F)c4nc(c(-c5c(F)cc(S(=O)(=O)[O-])cc5F)c5ccc2[nH]5)C=C4)C=C3)cc1)/[NH+]=C1\S[C@H]2CS(=O)(=O)C[C@@H]2N1c1ccc2c(c1)OCO2
REMARK SMILES IDX 10 1 9 2 8 3 7 4 5 5 6 6 4 7 3 8 2 9 1 10 82 11 83 12 84 14
REMARK SMILES IDX 92 15 85 16 91 17 86 18 90 19 87 20 88 21 89 22 93 23 94 24
REMARK SMILES IDX 98 25 95 26 97 27 96 28 99 29 101 30 100 31 11 32 12 33
REMARK SMILES IDX 13 34 14 35 15 36 16 37 17 38 81 39 18 40 80 41 19 42 20 43
REMARK SMILES IDX 21 44 74 45 22 46 79 47 73 48 75 49 23 50 78 51 72 52 71 53
REMARK SMILES IDX 24 55 58 56 37 57 57 58 38 59 41 60 56 61 76 62 39 63 40 64
REMARK SMILES IDX 55 66 77 67 42 68 25 69 26 70 35 71 27 72 28 73 34 74 36 75
REMARK SMILES IDX 29 76 30 77 31 78 32 79 33 80 59 81 60 82 69 83 61 84 62 85
REMARK SMILES IDX 68 86 70 87 63 88 64 89 65 90 66 91 67 92 43 93 44 94 53 95
REMARK SMILES IDX 45 96 46 97 52 98 54 99 47 100 48 101 49 102 50 103 51 104
REMARK H PARENT 82 13 75 54 41 65
REMARK Flexibility Score: inf
ROOT
ATOM      1  O   UNL A   1      41.954  19.221  26.492  1.00  0.00    -0.374 OA
ENDROOT
BRANCH   1   2
ATOM      2  C   UNL A   1      43.277  18.736  26.206  1.00  0.00     0.202 C 
BRANCH   2   3
ATOM      3  C   UNL A   1      43.797  18.703  24.746  1.00  0.00     0.261 C 
BRANCH   3   4
ATOM      4  O   UNL A   1      44.247  19.996  24.353  1.00  0.00    -0.463 OA
BRANCH   4   5
ATOM      5  C   UNL A   1      45.569  20.125  24.580  1.00  0.00     0.306 C 
ATOM      6  O   UNL A   1      46.413  19.324  24.194  1.00  0.00    -0.252 OA
BRANCH   5   7
ATOM      7  C   UNL A   1      45.866  21.422  25.272  1.00  0.00     0.135 C 
BRANCH   7   8
ATOM      8  C   UNL A   1      44.655  22.237  25.756  1.00  0.00     0.139 C 
BRANCH   8   9
ATOM      9  C   UNL A   1      44.232  23.629  25.267  1.00  0.00     0.308 C 
ATOM     10  O   UNL A   1      43.021  23.741  25.044  1.00  0.00    -0.247 OA
ATOM     11  N   UNL A   1      45.048  24.748  25.050  1.00  0.00    -0.204 N 
ATOM     12  C   UNL A   1      45.785  25.478  25.838  1.00  0.00     0.319 C 
ATOM     13  H   UNL A   1      45.069  25.041  24.111  1.00  0.00     0.316 HD
ATOM     14  S   UNL A   1      46.451  25.066  27.450  1.00  0.00    -0.029 SA
ATOM     15  N   UNL A   1      46.280  26.783  25.573  1.00  0.00    -0.216 N 
ATOM     16  C   UNL A   1      47.771  26.253  27.426  1.00  0.00     0.120 C 
ATOM     17  C   UNL A   1      47.684  26.847  26.023  1.00  0.00     0.212 C 
ATOM     18  C   UNL A   1      49.229  25.917  27.606  1.00  0.00     0.156 C 
ATOM     19  C   UNL A   1      48.490  28.116  26.150  1.00  0.00     0.188 C 
ATOM     20  S   UNL A   1      49.963  27.464  27.015  1.00  0.00     0.155 S 
ATOM     21  O   UNL A   1      50.258  28.287  28.153  1.00  0.00    -0.229 OA
ATOM     22  O   UNL A   1      50.969  27.114  26.019  1.00  0.00    -0.229 OA
BRANCH  15  23
ATOM     23  C   UNL A   1      45.428  27.853  25.981  1.00  0.00     0.132 A 
ATOM     24  C   UNL A   1      44.027  27.706  25.898  1.00  0.00     0.056 A 
ATOM     25  C   UNL A   1      45.927  28.994  26.643  1.00  0.00     0.102 A 
ATOM     26  C   UNL A   1      43.156  28.649  26.482  1.00  0.00     0.055 A 
ATOM     27  C   UNL A   1      45.062  29.879  27.227  1.00  0.00     0.170 A 
ATOM     28  C   UNL A   1      43.709  29.706  27.173  1.00  0.00     0.166 A 
ATOM     29  O   UNL A   1      45.443  30.925  28.008  1.00  0.00    -0.453 OA
ATOM     30  O   UNL A   1      43.066  30.620  27.946  1.00  0.00    -0.454 OA
ATOM     31  C   UNL A   1      44.188  31.179  28.666  1.00  0.00     0.468 C 
ENDBRANCH  15  23
ENDBRANCH   8   9
ENDBRANCH   7   8
ENDBRANCH   5   7
ENDBRANCH   4   5
ENDBRANCH   3   4
ENDBRANCH   2   3
ENDBRANCH   1   2
BRANCH   1  32
ATOM     32  C   UNL A   1      41.717  20.658  26.453  1.00  0.00     0.202 C 
BRANCH  32  33
ATOM     33  C   UNL A   1      40.354  21.536  26.829  1.00  0.00     0.261 C 
BRANCH  33  34
ATOM     34  O   UNL A   1      39.138  21.683  25.978  1.00  0.00    -0.460 OA
BRANCH  34  35
ATOM     35  C   UNL A   1      38.543  22.943  25.884  1.00  0.00     0.338 C 
ATOM     36  O   UNL A   1      37.509  23.143  25.259  1.00  0.00    -0.246 OA
BRANCH  35  37
ATOM     37  C   UNL A   1      39.187  24.095  26.680  1.00  0.00     0.060 A 
ATOM     38  C   UNL A   1      38.795  24.381  27.980  1.00  0.00     0.016 A 
ATOM     39  C   UNL A   1      40.009  25.076  26.115  1.00  0.00     0.016 A 
ATOM     40  C   UNL A   1      39.222  25.501  28.730  1.00  0.00     0.010 A 
ATOM     41  C   UNL A   1      40.477  26.212  26.878  1.00  0.00     0.010 A 
ATOM     42  C   UNL A   1      40.094  26.451  28.216  1.00  0.00    -0.014 A 
BRANCH  42  43
ATOM     43  C   UNL A   1      40.475  27.673  29.055  1.00  0.00     0.031 A 
ATOM     44  C   UNL A   1      41.818  27.743  29.771  1.00  0.00     0.074 A 
ATOM     45  C   UNL A   1      39.721  28.803  29.110  1.00  0.00     0.049 A 
ATOM     46  N   UNL A   1      42.303  28.669  30.569  1.00  0.00    -0.248 NA
ATOM     47  C   UNL A   1      42.763  26.652  29.506  1.00  0.00     0.031 C 
ATOM     48  C   UNL A   1      38.475  29.045  28.378  1.00  0.00     0.029 A 
ATOM     49  N   UNL A   1      39.896  29.983  29.824  1.00  0.00    -0.354 N 
ATOM     50  C   UNL A   1      43.602  28.278  30.884  1.00  0.00     0.074 A 
ATOM     51  C   UNL A   1      43.841  27.040  30.172  1.00  0.00     0.031 C 
ATOM     52  C   UNL A   1      38.010  30.271  28.672  1.00  0.00     0.029 A 
ATOM     53  C   UNL A   1      38.850  30.878  29.703  1.00  0.00     0.049 A 
ATOM     54  H   UNL A   1      40.695  30.166  30.369  1.00  0.00     0.167 HD
ATOM     55  C   UNL A   1      44.512  28.853  31.714  1.00  0.00     0.037 A 
ATOM     56  C   UNL A   1      38.535  32.009  30.381  1.00  0.00     0.037 A 
ATOM     57  C   UNL A   1      44.271  30.022  32.520  1.00  0.00     0.049 A 
ATOM     58  C   UNL A   1      39.431  32.499  31.492  1.00  0.00     0.074 A 
ATOM     59  C   UNL A   1      45.082  30.581  33.496  1.00  0.00     0.029 A 
ATOM     60  N   UNL A   1      43.120  30.792  32.478  1.00  0.00    -0.354 N 
ATOM     61  N   UNL A   1      40.608  32.051  31.859  1.00  0.00    -0.248 NA
ATOM     62  C   UNL A   1      38.942  33.623  32.309  1.00  0.00     0.031 C 
ATOM     63  C   UNL A   1      44.385  31.634  34.099  1.00  0.00     0.029 A 
ATOM     64  C   UNL A   1      43.172  31.782  33.448  1.00  0.00     0.049 A 
ATOM     65  H   UNL A   1      42.373  30.656  31.850  1.00  0.00     0.167 HD
ATOM     66  C   UNL A   1      40.996  32.833  32.945  1.00  0.00     0.074 A 
ATOM     67  C   UNL A   1      39.943  33.800  33.164  1.00  0.00     0.031 C 
ATOM     68  C   UNL A   1      42.125  32.744  33.691  1.00  0.00     0.037 A 
BRANCH  55  69
ATOM     69  C   UNL A   1      45.816  28.121  31.899  1.00  0.00     0.058 A 
ATOM     70  C   UNL A   1      46.982  28.469  31.200  1.00  0.00     0.135 A 
ATOM     71  C   UNL A   1      45.877  27.014  32.764  1.00  0.00     0.135 A 
ATOM     72  F   UNL A   1      46.977  29.504  30.344  1.00  0.00    -0.206 F 
ATOM     73  C   UNL A   1      48.149  27.714  31.313  1.00  0.00     0.059 A 
ATOM     74  C   UNL A   1      47.037  26.263  32.911  1.00  0.00     0.059 A 
ATOM     75  F   UNL A   1      44.790  26.639  33.456  1.00  0.00    -0.206 F 
ATOM     76  C   UNL A   1      48.160  26.603  32.160  1.00  0.00     0.060 A 
BRANCH  76  77
ATOM     77  S   UNL A   1      49.646  25.579  32.229  1.00  0.00     0.124 S 
ATOM     78  O   UNL A   1      50.669  26.577  32.528  1.00  0.00    -0.237 OA
ATOM     79  O   UNL A   1      49.334  24.648  33.308  1.00  0.00    -0.237 OA
ATOM     80  O   UNL A   1      49.717  24.991  30.896  1.00  0.00    -0.744 OA
ENDBRANCH  76  77
ENDBRANCH  55  69
BRANCH  56  81
ATOM     81  C   UNL A   1      37.225  32.693  30.125  1.00  0.00     0.058 A 
ATOM     82  C   UNL A   1      36.082  32.446  30.899  1.00  0.00     0.135 A 
ATOM     83  C   UNL A   1      37.099  33.619  29.073  1.00  0.00     0.135 A 
ATOM     84  F   UNL A   1      36.121  31.533  31.883  1.00  0.00    -0.206 F 
ATOM     85  C   UNL A   1      34.877  33.111  30.663  1.00  0.00     0.059 A 
ATOM     86  C   UNL A   1      35.920  34.321  28.841  1.00  0.00     0.059 A 
ATOM     87  F   UNL A   1      38.147  33.873  28.273  1.00  0.00    -0.206 F 
ATOM     88  C   UNL A   1      34.813  34.064  29.645  1.00  0.00     0.060 A 
BRANCH  88  89
ATOM     89  S   UNL A   1      33.289  35.011  29.421  1.00  0.00     0.124 S 
ATOM     90  O   UNL A   1      32.725  34.989  30.766  1.00  0.00    -0.237 OA
ATOM     91  O   UNL A   1      33.794  36.301  28.962  1.00  0.00    -0.237 OA
ATOM     92  O   UNL A   1      32.558  34.241  28.419  1.00  0.00    -0.744 OA
ENDBRANCH  88  89
ENDBRANCH  56  81
BRANCH  68  93
ATOM     93  C   UNL A   1      42.307  33.719  34.827  1.00  0.00     0.058 A 
ATOM     94  C   UNL A   1      42.837  35.003  34.622  1.00  0.00     0.135 A 
ATOM     95  C   UNL A   1      41.883  33.391  36.125  1.00  0.00     0.135 A 
ATOM     96  F   UNL A   1      43.262  35.372  33.404  1.00  0.00    -0.206 F 
ATOM     97  C   UNL A   1      42.954  35.920  35.665  1.00  0.00     0.059 A 
ATOM     98  C   UNL A   1      41.965  34.300  37.177  1.00  0.00     0.059 A 
ATOM     99  F   UNL A   1      41.359  32.181  36.380  1.00  0.00    -0.206 F 
ATOM    100  C   UNL A   1      42.512  35.560  36.939  1.00  0.00     0.060 A 
BRANCH 100 101
ATOM    101  S   UNL A   1      42.634  36.771  38.274  1.00  0.00     0.124 S 
ATOM    102  O   UNL A   1      43.387  36.028  39.279  1.00  0.00    -0.237 OA
ATOM    103  O   UNL A   1      43.346  37.872  37.634  1.00  0.00    -0.237 OA
ATOM    104  O   UNL A   1      41.240  37.046  38.613  1.00  0.00    -0.744 OA
ENDBRANCH 100 101
ENDBRANCH  68  93
ENDBRANCH  42  43
ENDBRANCH  35  37
ENDBRANCH  34  35
ENDBRANCH  33  34
ENDBRANCH  32  33
ENDBRANCH   1  32
TORSDOF 20
ENDMDL
MODEL 3
REMARK VINA RESULT:     -10.9      5.442      8.397
REMARK SMILES O=C(CCC(=O)OCCOCCOC(=O)c1ccc(-c2c3nc(c(-c4c(F)cc(S(=O)(=O)[O-])cc4F)c4ccc([nH]4)c(-c4c(F)cc(S(=O)(=O)[O-])cc4F)c4nc(c(-c5c(F)cc(S(=O)(=O)[O-])cc5F)c5ccc2[nH]5)C=C4)C=C3)cc1)/[NH+]=C1\S[C@H]2CS(=O)(=O)C[C@@H]2N1c1ccc2c(c1)OCO2
REMARK SMILES IDX 10 1 9 2 8 3 7 4 5 5 6 6 4 7 3 8 2 9 1 10 82 11 83 12 84 14
REMARK SMILES IDX 92 15 85 16 91 17 86 18 90 19 87 20 88 21 89 22 93 23 94 24
REMARK SMILES IDX 98 25 95 26 97 27 96 28 99 29 101 30 100 31 11 32 12 33
REMARK SMILES IDX 13 34 14 35 15 36 16 37 17 38 81 39 18 40 80 41 19 42 20 43
REMARK SMILES IDX 21 44 74 45 22 46 79 47 73 48 75 49 23 50 78 51 72 52 71 53
REMARK SMILES IDX 24 55 58 56 37 57 57 58 38 59 41 60 56 61 76 62 39 63 40 64
REMARK SMILES IDX 55 66 77 67 42 68 25 69 26 70 35 71 27 72 28 73 34 74 36 75
REMARK SMILES IDX 29 76 30 77 31 78 32 79 33 80 59 81 60 82 69 83 61 84 62 85
REMARK SMILES IDX 68 86 70 87 63 88 64 89 65 90 66 91 67 92 43 93 44 94 53 95
REMARK SMILES IDX 45 96 46 97 52 98 54 99 47 100 48 101 49 102 50 103 51 104
REMARK H PARENT 82 13 75 54 41 65
REMARK Flexibility Score: inf
ROOT
ATOM      1  O   UNL A   1      34.509  20.866  24.598  1.00  0.00    -0.374 OA
ENDROOT
BRANCH   1   2
ATOM      2  C   UNL A   1      33.485  20.969  25.603  1.00  0.00     0.202 C 
BRANCH   2   3
ATOM      3  C   UNL A   1      32.138  21.663  25.275  1.00  0.00     0.261 C 
BRANCH   3   4
ATOM      4  O   UNL A   1      31.905  21.648  23.871  1.00  0.00    -0.463 OA
BRANCH   4   5
ATOM      5  C   UNL A   1      31.790  22.905  23.397  1.00  0.00     0.306 C 
ATOM      6  O   UNL A   1      30.888  23.675  23.706  1.00  0.00    -0.252 OA
BRANCH   5   7
ATOM      7  C   UNL A   1      32.964  23.256  22.532  1.00  0.00     0.135 C 
BRANCH   7   8
ATOM      8  C   UNL A   1      34.130  23.991  23.215  1.00  0.00     0.139 C 
BRANCH   8   9
ATOM      9  C   UNL A   1      34.069  24.788  24.524  1.00  0.00     0.308 C 
ATOM     10  O   UNL A   1      35.001  24.556  25.302  1.00  0.00    -0.247 OA
ATOM     11  N   UNL A   1      33.098  25.719  24.919  1.00  0.00    -0.204 N 
ATOM     12  C   UNL A   1      32.724  26.872  24.442  1.00  0.00     0.319 C 
ATOM     13  H   UNL A   1      32.595  25.444  25.719  1.00  0.00     0.316 HD
ATOM     14  S   UNL A   1      32.964  27.535  22.794  1.00  0.00    -0.029 SA
ATOM     15  N   UNL A   1      31.984  27.875  25.123  1.00  0.00    -0.216 N 
ATOM     16  C   UNL A   1      31.636  28.711  22.861  1.00  0.00     0.120 C 
ATOM     17  C   UNL A   1      30.965  28.408  24.198  1.00  0.00     0.212 C 
ATOM     18  C   UNL A   1      30.500  28.776  21.872  1.00  0.00     0.156 C 
ATOM     19  C   UNL A   1      30.144  29.649  24.444  1.00  0.00     0.188 C 
ATOM     20  S   UNL A   1      29.362  29.837  22.802  1.00  0.00     0.155 S 
ATOM     21  O   UNL A   1      29.526  31.187  22.341  1.00  0.00    -0.229 OA
ATOM     22  O   UNL A   1      28.068  29.168  22.824  1.00  0.00    -0.229 OA
BRANCH  15  23
ATOM     23  C   UNL A   1      32.766  28.834  25.835  1.00  0.00     0.132 A 
ATOM     24  C   UNL A   1      32.155  29.997  26.346  1.00  0.00     0.056 A 
ATOM     25  C   UNL A   1      34.100  28.576  26.211  1.00  0.00     0.102 A 
ATOM     26  C   UNL A   1      32.842  30.858  27.228  1.00  0.00     0.055 A 
ATOM     27  C   UNL A   1      34.736  29.411  27.091  1.00  0.00     0.170 A 
ATOM     28  C   UNL A   1      34.121  30.513  27.610  1.00  0.00     0.166 A 
ATOM     29  O   UNL A   1      35.963  29.172  27.626  1.00  0.00    -0.453 OA
ATOM     30  O   UNL A   1      34.888  31.097  28.568  1.00  0.00    -0.454 OA
ATOM     31  C   UNL A   1      35.895  30.075  28.745  1.00  0.00     0.468 C 
ENDBRANCH  15  23
ENDBRANCH   8   9
ENDBRANCH   7   8
ENDBRANCH   5   7
ENDBRANCH   4   5
ENDBRANCH   3   4
ENDBRANCH   2   3
ENDBRANCH   1   2
BRANCH   1  32
ATOM     32  C   UNL A   1      35.841  20.436  25.006  1.00  0.00     0.202 C 
BRANCH  32  33
ATOM     33  C   UNL A   1      37.311  21.205  24.864  1.00  0.00     0.261 C 
BRANCH  33  34
ATOM     34  O   UNL A   1      37.794  22.342  25.698  1.00  0.00    -0.460 OA
BRANCH  34  35
ATOM     35  C   UNL A   1      39.046  22.231  26.308  1.00  0.00     0.338 C 
ATOM     36  O   UNL A   1      39.687  21.187  26.320  1.00  0.00    -0.246 OA
BRANCH  35  37
ATOM     37  C   UNL A   1      39.662  23.509  26.907  1.00  0.00     0.060 A 
ATOM     38  C   UNL A   1      39.581  24.727  26.247  1.00  0.00     0.016 A 
ATOM     39  C   UNL A   1      40.537  23.522  28.000  1.00  0.00     0.016 A 
ATOM     40  C   UNL A   1      40.238  25.914  26.647  1.00  0.00     0.010 A 
ATOM     41  C   UNL A   1      41.193  24.734  28.438  1.00  0.00     0.010 A 
ATOM     42  C   UNL A   1      41.055  25.969  27.768  1.00  0.00    -0.014 A 
BRANCH  42  43
ATOM     43  C   UNL A   1      41.786  27.267  28.119  1.00  0.00     0.031 A 
ATOM     44  C   UNL A   1      41.050  28.426  28.780  1.00  0.00     0.074 A 
ATOM     45  C   UNL A   1      43.131  27.423  27.991  1.00  0.00     0.049 A 
ATOM     46  N   UNL A   1      41.481  29.624  29.107  1.00  0.00    -0.248 NA
ATOM     47  C   UNL A   1      39.658  28.182  29.176  1.00  0.00     0.031 C 
ATOM     48  C   UNL A   1      44.078  26.401  27.539  1.00  0.00     0.029 A 
ATOM     49  N   UNL A   1      43.949  28.520  28.235  1.00  0.00    -0.354 N 
ATOM     50  C   UNL A   1      40.425  30.262  29.754  1.00  0.00     0.074 A 
ATOM     51  C   UNL A   1      39.336  29.309  29.795  1.00  0.00     0.031 C 
ATOM     52  C   UNL A   1      45.323  26.906  27.542  1.00  0.00     0.029 A 
ATOM     53  C   UNL A   1      45.272  28.327  27.883  1.00  0.00     0.049 A 
ATOM     54  H   UNL A   1      43.617  29.361  28.624  1.00  0.00     0.167 HD
ATOM     55  C   UNL A   1      40.332  31.528  30.239  1.00  0.00     0.037 A 
ATOM     56  C   UNL A   1      46.316  29.183  27.760  1.00  0.00     0.037 A 
ATOM     57  C   UNL A   1      41.355  32.535  30.120  1.00  0.00     0.049 A 
ATOM     58  C   UNL A   1      46.129  30.651  28.053  1.00  0.00     0.074 A 
ATOM     59  C   UNL A   1      41.285  33.880  30.449  1.00  0.00     0.029 A 
ATOM     60  N   UNL A   1      42.620  32.323  29.597  1.00  0.00    -0.354 N 
ATOM     61  N   UNL A   1      45.085  31.264  28.558  1.00  0.00    -0.248 NA
ATOM     62  C   UNL A   1      47.246  31.555  27.724  1.00  0.00     0.031 C 
ATOM     63  C   UNL A   1      42.476  34.495  30.046  1.00  0.00     0.029 A 
ATOM     64  C   UNL A   1      43.318  33.520  29.539  1.00  0.00     0.049 A 
ATOM     65  H   UNL A   1      42.973  31.450  29.309  1.00  0.00     0.167 HD
ATOM     66  C   UNL A   1      45.417  32.617  28.604  1.00  0.00     0.074 A 
ATOM     67  C   UNL A   1      46.768  32.735  28.100  1.00  0.00     0.031 C 
ATOM     68  C   UNL A   1      44.658  33.660  29.024  1.00  0.00     0.037 A 
BRANCH  55  69
ATOM     69  C   UNL A   1      39.001  31.934  30.818  1.00  0.00     0.058 A 
ATOM     70  C   UNL A   1      38.015  32.582  30.058  1.00  0.00     0.135 A 
ATOM     71  C   UNL A   1      38.735  31.708  32.180  1.00  0.00     0.135 A 
ATOM     72  F   UNL A   1      38.223  32.844  28.758  1.00  0.00    -0.206 F 
ATOM     73  C   UNL A   1      36.833  33.037  30.641  1.00  0.00     0.059 A 
ATOM     74  C   UNL A   1      37.552  32.131  32.775  1.00  0.00     0.059 A 
ATOM     75  F   UNL A   1      39.644  31.092  32.951  1.00  0.00    -0.206 F 
ATOM     76  C   UNL A   1      36.619  32.820  32.005  1.00  0.00     0.060 A 
BRANCH  76  77
ATOM     77  S   UNL A   1      35.127  33.494  32.768  1.00  0.00     0.124 S 
ATOM     78  O   UNL A   1      35.289  33.055  34.151  1.00  0.00    -0.237 OA
ATOM     79  O   UNL A   1      35.277  34.926  32.535  1.00  0.00    -0.237 OA
ATOM     80  O   UNL A   1      34.046  32.850  32.030  1.00  0.00    -0.744 OA
ENDBRANCH  76  77
ENDBRANCH  55  69
BRANCH  56  81
ATOM     81  C   UNL A   1      47.618  28.697  27.194  1.00  0.00     0.058 A 
ATOM     82  C   UNL A   1      48.744  28.456  27.996  1.00  0.00     0.135 A 
ATOM     83  C   UNL A   1      47.753  28.470  25.813  1.00  0.00     0.135 A 
ATOM     84  F   UNL A   1      48.697  28.706  29.314  1.00  0.00    -0.206 F 
ATOM     85  C   UNL A   1      49.941  27.979  27.456  1.00  0.00     0.059 A 
ATOM     86  C   UNL A   1      48.923  27.960  25.257  1.00  0.00     0.059 A 
ATOM     87  F   UNL A   1      46.724  28.716  24.988  1.00  0.00    -0.206 F 
ATOM     88  C   UNL A   1      50.012  27.714  26.088  1.00  0.00     0.060 A 
BRANCH  88  89
ATOM     89  S   UNL A   1      51.522  26.981  25.412  1.00  0.00     0.124 S 
ATOM     90  O   UNL A   1      52.551  27.849  25.975  1.00  0.00    -0.237 OA
ATOM     91  O   UNL A   1      51.469  25.624  25.947  1.00  0.00    -0.237 OA
ATOM     92  O   UNL A   1      51.330  27.085  23.969  1.00  0.00    -0.744 OA
ENDBRANCH  88  89
ENDBRANCH  56  81
BRANCH  68  93
ATOM     93  C   UNL A   1      45.257  35.042  28.970  1.00  0.00     0.058 A 
ATOM     94  C   UNL A   1      46.020  35.561  30.028  1.00  0.00     0.135 A 
ATOM     95  C   UNL A   1      45.125  35.834  27.816  1.00  0.00     0.135 A 
ATOM     96  F   UNL A   1      46.179  34.852  31.156  1.00  0.00    -0.206 F 
ATOM     97  C   UNL A   1      46.616  36.818  29.952  1.00  0.00     0.059 A 
ATOM     98  C   UNL A   1      45.734  37.082  27.707  1.00  0.00     0.059 A 
ATOM     99  F   UNL A   1      44.416  35.387  26.767  1.00  0.00    -0.206 F 
ATOM    100  C   UNL A   1      46.470  37.570  28.786  1.00  0.00     0.060 A 
BRANCH 100 101
ATOM    101  S   UNL A   1      47.279  39.182  28.684  1.00  0.00     0.124 S 
ATOM    102  O   UNL A   1      47.468  39.328  27.245  1.00  0.00    -0.237 OA
ATOM    103  O   UNL A   1      46.287  40.068  29.286  1.00  0.00    -0.237 OA
ATOM    104  O   UNL A   1      48.501  39.000  29.462  1.00  0.00    -0.744 OA
ENDBRANCH 100 101
ENDBRANCH  68  93
ENDBRANCH  42  43
ENDBRANCH  35  37
ENDBRANCH  34  35
ENDBRANCH  33  34
ENDBRANCH  32  33
ENDBRANCH   1  32
TORSDOF 20
ENDMDL
