MODEL 1
REMARK VINA RESULT:      -9.3      0.000      0.000
REMARK SMILES CC(=O)N1CCC[C@H]1COCC(=O)OCCOCCOC(=O)c1ccc(-c2c3nc(c(-c4c(F)cc(S(=O)(=O)[O-])cc4F)c4ccc([nH]4)c(-c4c(F)cc(S(=O)(=O)[O-])cc4F)c4nc(c(-c5c(F)cc(S(=O)(=O)[O-])cc5F)c5ccc2[nH]5)C=C4)C=C3)cc1
REMARK SMILES IDX 16 1 15 2 14 3 12 4 13 5 11 6 10 7 9 8 8 9 4 10 5 11 6 12
REMARK SMILES IDX 7 13 2 14 1 15 3 16 17 17 18 18 19 19 20 20 21 21 22 22
REMARK SMILES IDX 23 23 24 24 88 25 25 26 87 27 26 28 27 29 28 30 81 31 29 32
REMARK SMILES IDX 86 33 80 34 82 35 30 36 85 37 79 38 78 39 31 41 65 42 44 43
REMARK SMILES IDX 64 44 45 45 48 46 63 47 83 48 46 49 47 50 62 52 84 53 49 54
REMARK SMILES IDX 32 55 33 56 42 57 34 58 35 59 41 60 43 61 36 62 37 63 38 64
REMARK SMILES IDX 39 65 40 66 66 67 67 68 76 69 68 70 69 71 75 72 77 73 70 74
REMARK SMILES IDX 71 75 72 76 73 77 74 78 50 79 51 80 60 81 52 82 53 83 59 84
REMARK SMILES IDX 61 85 54 86 55 87 56 88 57 89 58 90
REMARK H PARENT 82 40 48 51
REMARK Flexibility Score: inf
ROOT
ATOM      1  C   UNL A   1      42.274  19.903  26.523  1.00  0.00     0.202 C 
ENDROOT
BRANCH   1   2
ATOM      2  C   UNL A   1      40.750  19.879  26.378  1.00  0.00     0.261 C 
BRANCH   2   3
ATOM      3  O   UNL A   1      40.250  20.947  25.540  1.00  0.00    -0.462 OA
BRANCH   3   4
ATOM      4  C   UNL A   1      39.380  21.804  26.138  1.00  0.00     0.332 C 
ATOM      5  O   UNL A   1      39.614  22.436  27.163  1.00  0.00    -0.250 OA
BRANCH   4   6
ATOM      6  C   UNL A   1      38.004  21.860  25.430  1.00  0.00     0.282 C 
BRANCH   6   7
ATOM      7  O   UNL A   1      36.894  20.993  25.490  1.00  0.00    -0.368 OA
BRANCH   7   8
ATOM      8  C   UNL A   1      35.611  21.537  25.763  1.00  0.00     0.186 C 
BRANCH   8   9
ATOM      9  C   UNL A   1      34.632  21.557  24.560  1.00  0.00     0.111 C 
ATOM     10  N   UNL A   1      33.283  21.134  24.924  1.00  0.00    -0.338 N 
ATOM     11  C   UNL A   1      32.470  22.276  25.291  1.00  0.00     0.120 C 
ATOM     12  C   UNL A   1      33.070  23.442  24.520  1.00  0.00     0.024 C 
ATOM     13  C   UNL A   1      34.368  22.911  23.907  1.00  0.00     0.029 C 
BRANCH  10  14
ATOM     14  C   UNL A   1      32.894  19.817  24.859  1.00  0.00     0.219 C 
ATOM     15  C   UNL A   1      32.491  19.298  23.503  1.00  0.00     0.114 C 
ATOM     16  O   UNL A   1      32.923  19.071  25.837  1.00  0.00    -0.275 OA
ENDBRANCH  10  14
ENDBRANCH   8   9
ENDBRANCH   7   8
ENDBRANCH   6   7
ENDBRANCH   4   6
ENDBRANCH   3   4
ENDBRANCH   2   3
ENDBRANCH   1   2
BRANCH   1  17
ATOM     17  O   UNL A   1      42.998  20.433  25.412  1.00  0.00    -0.374 OA
BRANCH  17  18
ATOM     18  C   UNL A   1      43.694  21.656  25.634  1.00  0.00     0.202 C 
BRANCH  18  19
ATOM     19  C   UNL A   1      43.088  22.903  24.972  1.00  0.00     0.261 C 
BRANCH  19  20
ATOM     20  O   UNL A   1      42.545  23.820  25.940  1.00  0.00    -0.460 OA
BRANCH  20  21
ATOM     21  C   UNL A   1      43.052  25.077  25.867  1.00  0.00     0.338 C 
ATOM     22  O   UNL A   1      43.830  25.505  25.031  1.00  0.00    -0.246 OA
BRANCH  21  23
ATOM     23  C   UNL A   1      42.385  25.963  26.844  1.00  0.00     0.060 A 
ATOM     24  C   UNL A   1      42.874  27.271  26.950  1.00  0.00     0.016 A 
ATOM     25  C   UNL A   1      41.370  25.517  27.693  1.00  0.00     0.016 A 
ATOM     26  C   UNL A   1      42.394  28.120  27.945  1.00  0.00     0.010 A 
ATOM     27  C   UNL A   1      40.893  26.370  28.699  1.00  0.00     0.010 A 
ATOM     28  C   UNL A   1      41.433  27.661  28.854  1.00  0.00    -0.014 A 
BRANCH  28  29
ATOM     29  C   UNL A   1      41.125  28.486  30.052  1.00  0.00     0.031 A 
ATOM     30  C   UNL A   1      41.961  28.311  31.292  1.00  0.00     0.074 A 
ATOM     31  C   UNL A   1      40.156  29.420  30.019  1.00  0.00     0.049 A 
ATOM     32  N   UNL A   1      41.888  28.941  32.436  1.00  0.00    -0.248 NA
ATOM     33  C   UNL A   1      43.023  27.293  31.236  1.00  0.00     0.031 C 
ATOM     34  C   UNL A   1      39.299  29.710  28.869  1.00  0.00     0.029 A 
ATOM     35  N   UNL A   1      39.731  30.301  30.982  1.00  0.00    -0.354 N 
ATOM     36  C   UNL A   1      42.882  28.391  33.238  1.00  0.00     0.074 A 
ATOM     37  C   UNL A   1      43.534  27.362  32.458  1.00  0.00     0.031 C 
ATOM     38  C   UNL A   1      38.446  30.695  29.197  1.00  0.00     0.029 A 
ATOM     39  C   UNL A   1      38.679  31.092  30.584  1.00  0.00     0.049 A 
ATOM     40  H   UNL A   1      40.141  30.361  31.875  1.00  0.00     0.167 HD
ATOM     41  C   UNL A   1      43.226  28.718  34.505  1.00  0.00     0.037 A 
ATOM     42  C   UNL A   1      37.977  32.018  31.268  1.00  0.00     0.037 A 
ATOM     43  C   UNL A   1      42.595  29.759  35.273  1.00  0.00     0.049 A 
ATOM     44  C   UNL A   1      38.352  32.331  32.694  1.00  0.00     0.074 A 
ATOM     45  C   UNL A   1      42.912  30.199  36.547  1.00  0.00     0.029 A 
ATOM     46  N   UNL A   1      41.516  30.516  34.846  1.00  0.00    -0.354 N 
ATOM     47  N   UNL A   1      39.328  31.838  33.418  1.00  0.00    -0.248 NA
ATOM     48  C   UNL A   1      37.531  33.330  33.397  1.00  0.00     0.031 C 
ATOM     49  C   UNL A   1      41.995  31.190  36.908  1.00  0.00     0.029 A 
ATOM     50  C   UNL A   1      41.135  31.400  35.843  1.00  0.00     0.049 A 
ATOM     51  H   UNL A   1      41.085  30.439  33.964  1.00  0.00     0.167 HD
ATOM     52  C   UNL A   1      39.257  32.486  34.648  1.00  0.00     0.074 A 
ATOM     53  C   UNL A   1      38.149  33.414  34.568  1.00  0.00     0.031 C 
ATOM     54  C   UNL A   1      40.039  32.330  35.743  1.00  0.00     0.037 A 
BRANCH  41  55
ATOM     55  C   UNL A   1      44.324  27.931  35.163  1.00  0.00     0.058 A 
ATOM     56  C   UNL A   1      44.063  26.754  35.881  1.00  0.00     0.135 A 
ATOM     57  C   UNL A   1      45.664  28.324  35.009  1.00  0.00     0.135 A 
ATOM     58  F   UNL A   1      42.799  26.344  36.071  1.00  0.00    -0.206 F 
ATOM     59  C   UNL A   1      45.092  25.997  36.431  1.00  0.00     0.059 A 
ATOM     60  C   UNL A   1      46.710  27.571  35.533  1.00  0.00     0.059 A 
ATOM     61  F   UNL A   1      45.966  29.444  34.335  1.00  0.00    -0.206 F 
ATOM     62  C   UNL A   1      46.413  26.411  36.248  1.00  0.00     0.060 A 
BRANCH  62  63
ATOM     63  S   UNL A   1      47.741  25.399  36.936  1.00  0.00     0.124 S 
ATOM     64  O   UNL A   1      46.991  24.452  37.755  1.00  0.00    -0.237 OA
ATOM     65  O   UNL A   1      48.364  24.846  35.737  1.00  0.00    -0.237 OA
ATOM     66  O   UNL A   1      48.554  26.361  37.673  1.00  0.00    -0.744 OA
ENDBRANCH  62  63
ENDBRANCH  41  55
BRANCH  42  67
ATOM     67  C   UNL A   1      36.825  32.711  30.628  1.00  0.00     0.058 A 
ATOM     68  C   UNL A   1      37.017  33.815  29.783  1.00  0.00     0.135 A 
ATOM     69  C   UNL A   1      35.506  32.305  30.882  1.00  0.00     0.135 A 
ATOM     70  F   UNL A   1      38.259  34.248  29.517  1.00  0.00    -0.206 F 
ATOM     71  C   UNL A   1      35.943  34.509  29.236  1.00  0.00     0.059 A 
ATOM     72  C   UNL A   1      34.417  32.967  30.327  1.00  0.00     0.059 A 
ATOM     73  F   UNL A   1      35.268  31.249  31.676  1.00  0.00    -0.206 F 
ATOM     74  C   UNL A   1      34.645  34.080  29.518  1.00  0.00     0.060 A 
BRANCH  74  75
ATOM     75  S   UNL A   1      33.253  34.973  28.790  1.00  0.00     0.124 S 
ATOM     76  O   UNL A   1      32.531  35.408  29.980  1.00  0.00    -0.237 OA
ATOM     77  O   UNL A   1      33.924  36.022  28.028  1.00  0.00    -0.237 OA
ATOM     78  O   UNL A   1      32.588  33.952  27.985  1.00  0.00    -0.744 OA
ENDBRANCH  74  75
ENDBRANCH  42  67
BRANCH  54  79
ATOM     79  C   UNL A   1      39.756  33.204  36.933  1.00  0.00     0.058 A 
ATOM     80  C   UNL A   1      38.834  32.828  37.922  1.00  0.00     0.135 A 
ATOM     81  C   UNL A   1      40.459  34.407  37.114  1.00  0.00     0.135 A 
ATOM     82  F   UNL A   1      38.133  31.690  37.794  1.00  0.00    -0.206 F 
ATOM     83  C   UNL A   1      38.602  33.625  39.039  1.00  0.00     0.059 A 
ATOM     84  C   UNL A   1      40.260  35.207  38.235  1.00  0.00     0.059 A 
ATOM     85  F   UNL A   1      41.359  34.807  36.203  1.00  0.00    -0.206 F 
ATOM     86  C   UNL A   1      39.321  34.813  39.187  1.00  0.00     0.060 A 
BRANCH  86  87
ATOM     87  S   UNL A   1      39.036  35.823  40.656  1.00  0.00     0.124 S 
ATOM     88  O   UNL A   1      40.229  35.537  41.445  1.00  0.00    -0.237 OA
ATOM     89  O   UNL A   1      38.951  37.170  40.100  1.00  0.00    -0.237 OA
ATOM     90  O   UNL A   1      37.786  35.295  41.194  1.00  0.00    -0.744 OA
ENDBRANCH  86  87
ENDBRANCH  54  79
ENDBRANCH  28  29
ENDBRANCH  21  23
ENDBRANCH  20  21
ENDBRANCH  19  20
ENDBRANCH  18  19
ENDBRANCH  17  18
ENDBRANCH   1  17
TORSDOF 21
ENDMDL
MODEL 2
REMARK VINA RESULT:      -9.0      1.436      2.372
REMARK SMILES CC(=O)N1CCC[C@H]1COCC(=O)OCCOCCOC(=O)c1ccc(-c2c3nc(c(-c4c(F)cc(S(=O)(=O)[O-])cc4F)c4ccc([nH]4)c(-c4c(F)cc(S(=O)(=O)[O-])cc4F)c4nc(c(-c5c(F)cc(S(=O)(=O)[O-])cc5F)c5ccc2[nH]5)C=C4)C=C3)cc1
REMARK SMILES IDX 16 1 15 2 14 3 12 4 13 5 11 6 10 7 9 8 8 9 4 10 5 11 6 12
REMARK SMILES IDX 7 13 2 14 1 15 3 16 17 17 18 18 19 19 20 20 21 21 22 22
REMARK SMILES IDX 23 23 24 24 88 25 25 26 87 27 26 28 27 29 28 30 81 31 29 32
REMARK SMILES IDX 86 33 80 34 82 35 30 36 85 37 79 38 78 39 31 41 65 42 44 43
REMARK SMILES IDX 64 44 45 45 48 46 63 47 83 48 46 49 47 50 62 52 84 53 49 54
REMARK SMILES IDX 32 55 33 56 42 57 34 58 35 59 41 60 43 61 36 62 37 63 38 64
REMARK SMILES IDX 39 65 40 66 66 67 67 68 76 69 68 70 69 71 75 72 77 73 70 74
REMARK SMILES IDX 71 75 72 76 73 77 74 78 50 79 51 80 60 81 52 82 53 83 59 84
REMARK SMILES IDX 61 85 54 86 55 87 56 88 57 89 58 90
REMARK H PARENT 82 40 48 51
REMARK Flexibility Score: inf
ROOT
ATOM      1  C   UNL A   1      38.827  20.034  25.193  1.00  0.00     0.202 C 
ENDROOT
BRANCH   1   2
ATOM      2  C   UNL A   1      38.126  21.396  25.207  1.00  0.00     0.261 C 
BRANCH   2   3
ATOM      3  O   UNL A   1      36.914  21.411  24.418  1.00  0.00    -0.462 OA
BRANCH   3   4
ATOM      4  C   UNL A   1      36.556  22.623  23.914  1.00  0.00     0.332 C 
ATOM      5  O   UNL A   1      36.652  22.946  22.734  1.00  0.00    -0.250 OA
BRANCH   4   6
ATOM      6  C   UNL A   1      36.071  23.610  25.002  1.00  0.00     0.282 C 
BRANCH   6   7
ATOM      7  O   UNL A   1      34.893  23.633  25.776  1.00  0.00    -0.368 OA
BRANCH   7   8
ATOM      8  C   UNL A   1      34.023  24.750  25.671  1.00  0.00     0.186 C 
BRANCH   8   9
ATOM      9  C   UNL A   1      33.937  25.391  24.262  1.00  0.00     0.111 C 
ATOM     10  N   UNL A   1      32.835  24.856  23.466  1.00  0.00    -0.338 N 
ATOM     11  C   UNL A   1      31.642  25.662  23.637  1.00  0.00     0.120 C 
ATOM     12  C   UNL A   1      32.160  27.051  23.980  1.00  0.00     0.024 C 
ATOM     13  C   UNL A   1      33.665  26.891  24.200  1.00  0.00     0.029 C 
BRANCH  10  14
ATOM     14  C   UNL A   1      32.994  23.761  22.651  1.00  0.00     0.219 C 
ATOM     15  C   UNL A   1      32.249  22.512  23.043  1.00  0.00     0.114 C 
ATOM     16  O   UNL A   1      33.663  23.800  21.619  1.00  0.00    -0.275 OA
ENDBRANCH  10  14
ENDBRANCH   8   9
ENDBRANCH   7   8
ENDBRANCH   6   7
ENDBRANCH   4   6
ENDBRANCH   3   4
ENDBRANCH   2   3
ENDBRANCH   1   2
BRANCH   1  17
ATOM     17  O   UNL A   1      40.047  19.955  25.931  1.00  0.00    -0.374 OA
BRANCH  17  18
ATOM     18  C   UNL A   1      40.420  21.115  26.669  1.00  0.00     0.202 C 
BRANCH  18  19
ATOM     19  C   UNL A   1      41.772  21.742  26.295  1.00  0.00     0.261 C 
BRANCH  19  20
ATOM     20  O   UNL A   1      42.101  22.862  27.138  1.00  0.00    -0.460 OA
BRANCH  20  21
ATOM     21  C   UNL A   1      42.257  24.036  26.474  1.00  0.00     0.338 C 
ATOM     22  O   UNL A   1      42.580  24.180  25.307  1.00  0.00    -0.246 OA
BRANCH  21  23
ATOM     23  C   UNL A   1      41.792  25.167  27.304  1.00  0.00     0.060 A 
ATOM     24  C   UNL A   1      42.653  26.266  27.416  1.00  0.00     0.016 A 
ATOM     25  C   UNL A   1      40.595  25.131  28.022  1.00  0.00     0.016 A 
ATOM     26  C   UNL A   1      42.350  27.307  28.292  1.00  0.00     0.010 A 
ATOM     27  C   UNL A   1      40.296  26.175  28.909  1.00  0.00     0.010 A 
ATOM     28  C   UNL A   1      41.192  27.247  29.077  1.00  0.00    -0.014 A 
BRANCH  28  29
ATOM     29  C   UNL A   1      41.020  28.230  30.179  1.00  0.00     0.031 A 
ATOM     30  C   UNL A   1      41.954  28.173  31.359  1.00  0.00     0.074 A 
ATOM     31  C   UNL A   1      40.086  29.198  30.104  1.00  0.00     0.049 A 
ATOM     32  N   UNL A   1      42.004  28.946  32.414  1.00  0.00    -0.248 NA
ATOM     33  C   UNL A   1      42.969  27.107  31.349  1.00  0.00     0.031 C 
ATOM     34  C   UNL A   1      39.144  29.381  29.000  1.00  0.00     0.029 A 
ATOM     35  N   UNL A   1      39.780  30.212  30.977  1.00  0.00    -0.354 N 
ATOM     36  C   UNL A   1      43.043  28.454  33.196  1.00  0.00     0.074 A 
ATOM     37  C   UNL A   1      43.587  27.306  32.505  1.00  0.00     0.031 C 
ATOM     38  C   UNL A   1      38.360  30.439  29.266  1.00  0.00     0.029 A 
ATOM     39  C   UNL A   1      38.727  30.996  30.566  1.00  0.00     0.049 A 
ATOM     40  H   UNL A   1      40.268  30.364  31.818  1.00  0.00     0.167 HD
ATOM     41  C   UNL A   1      43.508  28.922  34.378  1.00  0.00     0.037 A 
ATOM     42  C   UNL A   1      38.121  32.033  31.179  1.00  0.00     0.037 A 
ATOM     43  C   UNL A   1      42.985  30.080  35.054  1.00  0.00     0.049 A 
ATOM     44  C   UNL A   1      38.630  32.506  32.518  1.00  0.00     0.074 A 
ATOM     45  C   UNL A   1      43.427  30.661  36.229  1.00  0.00     0.029 A 
ATOM     46  N   UNL A   1      41.901  30.828  34.621  1.00  0.00    -0.354 N 
ATOM     47  N   UNL A   1      39.647  32.061  33.218  1.00  0.00    -0.248 NA
ATOM     48  C   UNL A   1      37.911  33.623  33.149  1.00  0.00     0.031 C 
ATOM     49  C   UNL A   1      42.582  31.733  36.532  1.00  0.00     0.029 A 
ATOM     50  C   UNL A   1      41.641  31.847  35.523  1.00  0.00     0.049 A 
ATOM     51  H   UNL A   1      41.392  30.661  33.795  1.00  0.00     0.167 HD
ATOM     52  C   UNL A   1      39.706  32.862  34.354  1.00  0.00     0.074 A 
ATOM     53  C   UNL A   1      38.631  33.824  34.245  1.00  0.00     0.031 C 
ATOM     54  C   UNL A   1      40.575  32.808  35.393  1.00  0.00     0.037 A 
BRANCH  41  55
ATOM     55  C   UNL A   1      44.629  28.173  35.040  1.00  0.00     0.058 A 
ATOM     56  C   UNL A   1      45.971  28.545  34.867  1.00  0.00     0.135 A 
ATOM     57  C   UNL A   1      44.349  27.111  35.916  1.00  0.00     0.135 A 
ATOM     58  F   UNL A   1      46.294  29.542  34.028  1.00  0.00    -0.206 F 
ATOM     59  C   UNL A   1      46.998  27.886  35.535  1.00  0.00     0.059 A 
ATOM     60  C   UNL A   1      45.358  26.452  36.610  1.00  0.00     0.059 A 
ATOM     61  F   UNL A   1      43.082  26.715  36.112  1.00  0.00    -0.206 F 
ATOM     62  C   UNL A   1      46.682  26.843  36.408  1.00  0.00     0.060 A 
BRANCH  62  63
ATOM     63  S   UNL A   1      48.021  26.020  37.296  1.00  0.00     0.124 S 
ATOM     64  O   UNL A   1      49.029  25.890  36.248  1.00  0.00    -0.237 OA
ATOM     65  O   UNL A   1      48.328  26.978  38.354  1.00  0.00    -0.237 OA
ATOM     66  O   UNL A   1      47.416  24.770  37.743  1.00  0.00    -0.744 OA
ENDBRANCH  62  63
ENDBRANCH  41  55
BRANCH  42  67
ATOM     67  C   UNL A   1      36.945  32.694  30.551  1.00  0.00     0.058 A 
ATOM     68  C   UNL A   1      37.100  33.776  29.672  1.00  0.00     0.135 A 
ATOM     69  C   UNL A   1      35.637  32.278  30.850  1.00  0.00     0.135 A 
ATOM     70  F   UNL A   1      38.329  34.218  29.362  1.00  0.00    -0.206 F 
ATOM     71  C   UNL A   1      36.003  34.442  29.134  1.00  0.00     0.059 A 
ATOM     72  C   UNL A   1      34.526  32.911  30.306  1.00  0.00     0.059 A 
ATOM     73  F   UNL A   1      35.434  31.241  31.679  1.00  0.00    -0.206 F 
ATOM     74  C   UNL A   1      34.718  34.004  29.462  1.00  0.00     0.060 A 
BRANCH  74  75
ATOM     75  S   UNL A   1      33.297  34.859  28.746  1.00  0.00     0.124 S 
ATOM     76  O   UNL A   1      32.520  35.181  29.938  1.00  0.00    -0.237 OA
ATOM     77  O   UNL A   1      33.925  35.987  28.066  1.00  0.00    -0.237 OA
ATOM     78  O   UNL A   1      32.713  33.852  27.864  1.00  0.00    -0.744 OA
ENDBRANCH  74  75
ENDBRANCH  42  67
BRANCH  54  79
ATOM     79  C   UNL A   1      40.429  33.838  36.479  1.00  0.00     0.058 A 
ATOM     80  C   UNL A   1      41.159  35.037  36.462  1.00  0.00     0.135 A 
ATOM     81  C   UNL A   1      39.505  33.647  37.519  1.00  0.00     0.135 A 
ATOM     82  F   UNL A   1      42.059  35.266  35.492  1.00  0.00    -0.206 F 
ATOM     83  C   UNL A   1      40.994  36.001  37.451  1.00  0.00     0.059 A 
ATOM     84  C   UNL A   1      39.306  34.609  38.505  1.00  0.00     0.059 A 
ATOM     85  F   UNL A   1      38.773  32.523  37.576  1.00  0.00    -0.206 F 
ATOM     86  C   UNL A   1      40.064  35.778  38.468  1.00  0.00     0.060 A 
BRANCH  86  87
ATOM     87  S   UNL A   1      39.833  37.050  39.729  1.00  0.00     0.124 S 
ATOM     88  O   UNL A   1      41.084  37.795  39.626  1.00  0.00    -0.237 OA
ATOM     89  O   UNL A   1      38.640  37.747  39.258  1.00  0.00    -0.237 OA
ATOM     90  O   UNL A   1      39.658  36.283  40.958  1.00  0.00    -0.744 OA
ENDBRANCH  86  87
ENDBRANCH  54  79
ENDBRANCH  28  29
ENDBRANCH  21  23
ENDBRANCH  20  21
ENDBRANCH  19  20
ENDBRANCH  18  19
ENDBRANCH  17  18
ENDBRANCH   1  17
TORSDOF 21
ENDMDL
MODEL 3
REMARK VINA RESULT:      -8.9      2.391      9.127
REMARK SMILES CC(=O)N1CCC[C@H]1COCC(=O)OCCOCCOC(=O)c1ccc(-c2c3nc(c(-c4c(F)cc(S(=O)(=O)[O-])cc4F)c4ccc([nH]4)c(-c4c(F)cc(S(=O)(=O)[O-])cc4F)c4nc(c(-c5c(F)cc(S(=O)(=O)[O-])cc5F)c5ccc2[nH]5)C=C4)C=C3)cc1
REMARK SMILES IDX 16 1 15 2 14 3 12 4 13 5 11 6 10 7 9 8 8 9 4 10 5 11 6 12
REMARK SMILES IDX 7 13 2 14 1 15 3 16 17 17 18 18 19 19 20 20 21 21 22 22
REMARK SMILES IDX 23 23 24 24 88 25 25 26 87 27 26 28 27 29 28 30 81 31 29 32
REMARK SMILES IDX 86 33 80 34 82 35 30 36 85 37 79 38 78 39 31 41 65 42 44 43
REMARK SMILES IDX 64 44 45 45 48 46 63 47 83 48 46 49 47 50 62 52 84 53 49 54
REMARK SMILES IDX 32 55 33 56 42 57 34 58 35 59 41 60 43 61 36 62 37 63 38 64
REMARK SMILES IDX 39 65 40 66 66 67 67 68 76 69 68 70 69 71 75 72 77 73 70 74
REMARK SMILES IDX 71 75 72 76 73 77 74 78 50 79 51 80 60 81 52 82 53 83 59 84
REMARK SMILES IDX 61 85 54 86 55 87 56 88 57 89 58 90
REMARK H PARENT 82 40 48 51
REMARK Flexibility Score: inf
ROOT
ATOM      1  C   UNL A   1      35.474  23.994  25.121  1.00  0.00     0.202 C 
ENDROOT
BRANCH   1   2
ATOM      2  C   UNL A   1      34.268  23.687  24.230  1.00  0.00     0.261 C 
BRANCH   2   3
ATOM      3  O   UNL A   1      34.427  24.180  22.880  1.00  0.00    -0.462 OA
BRANCH   3   4
ATOM      4  C   UNL A   1      33.287  24.250  22.141  1.00  0.00     0.332 C 
ATOM      5  O   UNL A   1      33.217  24.703  21.003  1.00  0.00    -0.250 OA
BRANCH   4   6
ATOM      6  C   UNL A   1      32.038  23.759  22.911  1.00  0.00     0.282 C 
BRANCH   6   7
ATOM      7  O   UNL A   1      30.871  24.439  23.317  1.00  0.00    -0.368 OA
BRANCH   7   8
ATOM      8  C   UNL A   1      30.658  24.675  24.701  1.00  0.00     0.186 C 
BRANCH   8   9
ATOM      9  C   UNL A   1      29.919  25.996  25.040  1.00  0.00     0.111 C 
ATOM     10  N   UNL A   1      30.828  27.130  25.180  1.00  0.00    -0.338 N 
ATOM     11  C   UNL A   1      30.977  27.825  23.916  1.00  0.00     0.120 C 
ATOM     12  C   UNL A   1      29.676  27.561  23.174  1.00  0.00     0.024 C 
ATOM     13  C   UNL A   1      28.927  26.517  24.004  1.00  0.00     0.029 C 
BRANCH  10  14
ATOM     14  C   UNL A   1      31.390  27.463  26.389  1.00  0.00     0.219 C 
ATOM     15  C   UNL A   1      32.003  28.835  26.495  1.00  0.00     0.114 C 
ATOM     16  O   UNL A   1      31.352  26.712  27.363  1.00  0.00    -0.275 OA
ENDBRANCH  10  14
ENDBRANCH   8   9
ENDBRANCH   7   8
ENDBRANCH   6   7
ENDBRANCH   4   6
ENDBRANCH   3   4
ENDBRANCH   2   3
ENDBRANCH   1   2
BRANCH   1  17
ATOM     17  O   UNL A   1      36.729  23.481  24.669  1.00  0.00    -0.374 OA
BRANCH  17  18
ATOM     18  C   UNL A   1      37.483  22.725  25.612  1.00  0.00     0.202 C 
BRANCH  18  19
ATOM     19  C   UNL A   1      38.879  23.271  25.947  1.00  0.00     0.261 C 
BRANCH  19  20
ATOM     20  O   UNL A   1      38.817  24.547  26.611  1.00  0.00    -0.460 OA
BRANCH  20  21
ATOM     21  C   UNL A   1      39.929  25.311  26.461  1.00  0.00     0.338 C 
ATOM     22  O   UNL A   1      40.545  25.515  25.428  1.00  0.00    -0.246 OA
BRANCH  21  23
ATOM     23  C   UNL A   1      40.220  26.053  27.706  1.00  0.00     0.060 A 
ATOM     24  C   UNL A   1      39.286  25.939  28.743  1.00  0.00     0.016 A 
ATOM     25  C   UNL A   1      41.321  26.901  27.837  1.00  0.00     0.016 A 
ATOM     26  C   UNL A   1      39.415  26.719  29.891  1.00  0.00     0.010 A 
ATOM     27  C   UNL A   1      41.446  27.690  28.989  1.00  0.00     0.010 A 
ATOM     28  C   UNL A   1      40.471  27.632  30.003  1.00  0.00    -0.014 A 
BRANCH  28  29
ATOM     29  C   UNL A   1      40.448  28.626  31.108  1.00  0.00     0.031 A 
ATOM     30  C   UNL A   1      39.433  29.739  31.066  1.00  0.00     0.074 A 
ATOM     31  C   UNL A   1      41.274  28.507  32.164  1.00  0.00     0.049 A 
ATOM     32  N   UNL A   1      39.216  30.695  31.932  1.00  0.00    -0.248 NA
ATOM     33  C   UNL A   1      38.543  29.779  29.894  1.00  0.00     0.031 C 
ATOM     34  C   UNL A   1      42.276  27.456  32.339  1.00  0.00     0.029 A 
ATOM     35  N   UNL A   1      41.399  29.280  33.292  1.00  0.00    -0.354 N 
ATOM     36  C   UNL A   1      38.176  31.455  31.407  1.00  0.00     0.074 A 
ATOM     37  C   UNL A   1      37.817  30.861  30.138  1.00  0.00     0.031 C 
ATOM     38  C   UNL A   1      42.919  27.656  33.503  1.00  0.00     0.029 A 
ATOM     39  C   UNL A   1      42.391  28.857  34.145  1.00  0.00     0.049 A 
ATOM     40  H   UNL A   1      40.831  30.064  33.473  1.00  0.00     0.167 HD
ATOM     41  C   UNL A   1      37.571  32.543  31.938  1.00  0.00     0.037 A 
ATOM     42  C   UNL A   1      42.830  29.390  35.303  1.00  0.00     0.037 A 
ATOM     43  C   UNL A   1      37.910  33.118  33.212  1.00  0.00     0.049 A 
ATOM     44  C   UNL A   1      42.168  30.630  35.850  1.00  0.00     0.074 A 
ATOM     45  C   UNL A   1      37.315  34.189  33.857  1.00  0.00     0.029 A 
ATOM     46  N   UNL A   1      38.938  32.679  34.032  1.00  0.00    -0.354 N 
ATOM     47  N   UNL A   1      41.152  31.304  35.366  1.00  0.00    -0.248 NA
ATOM     48  C   UNL A   1      42.709  31.180  37.102  1.00  0.00     0.031 C 
ATOM     49  C   UNL A   1      38.013  34.427  35.045  1.00  0.00     0.029 A 
ATOM     50  C   UNL A   1      39.014  33.477  35.162  1.00  0.00     0.049 A 
ATOM     51  H   UNL A   1      39.527  31.914  33.840  1.00  0.00     0.167 HD
ATOM     52  C   UNL A   1      40.915  32.337  36.268  1.00  0.00     0.074 A 
ATOM     53  C   UNL A   1      41.886  32.194  37.331  1.00  0.00     0.031 C 
ATOM     54  C   UNL A   1      39.977  33.314  36.221  1.00  0.00     0.037 A 
BRANCH  41  55
ATOM     55  C   UNL A   1      36.487  33.206  31.136  1.00  0.00     0.058 A 
ATOM     56  C   UNL A   1      35.136  33.124  31.508  1.00  0.00     0.135 A 
ATOM     57  C   UNL A   1      36.815  33.994  30.021  1.00  0.00     0.135 A 
ATOM     58  F   UNL A   1      34.767  32.370  32.555  1.00  0.00    -0.206 F 
ATOM     59  C   UNL A   1      34.147  33.795  30.796  1.00  0.00     0.059 A 
ATOM     60  C   UNL A   1      35.845  34.690  29.308  1.00  0.00     0.059 A 
ATOM     61  F   UNL A   1      38.093  34.101  29.623  1.00  0.00    -0.206 F 
ATOM     62  C   UNL A   1      34.511  34.580  29.701  1.00  0.00     0.060 A 
BRANCH  62  63
ATOM     63  S   UNL A   1      33.221  35.474  28.808  1.00  0.00     0.124 S 
ATOM     64  O   UNL A   1      34.013  36.372  27.974  1.00  0.00    -0.237 OA
ATOM     65  O   UNL A   1      32.529  34.400  28.102  1.00  0.00    -0.237 OA
ATOM     66  O   UNL A   1      32.455  36.117  29.871  1.00  0.00    -0.744 OA
ENDBRANCH  62  63
ENDBRANCH  41  55
BRANCH  42  67
ATOM     67  C   UNL A   1      43.975  28.773  36.028  1.00  0.00     0.058 A 
ATOM     68  C   UNL A   1      43.793  27.669  36.873  1.00  0.00     0.135 A 
ATOM     69  C   UNL A   1      45.270  29.304  35.917  1.00  0.00     0.135 A 
ATOM     70  F   UNL A   1      42.572  27.131  37.020  1.00  0.00    -0.206 F 
ATOM     71  C   UNL A   1      44.846  27.130  37.605  1.00  0.00     0.059 A 
ATOM     72  C   UNL A   1      46.343  28.768  36.618  1.00  0.00     0.059 A 
ATOM     73  F   UNL A   1      45.500  30.355  35.114  1.00  0.00    -0.206 F 
ATOM     74  C   UNL A   1      46.118  27.690  37.474  1.00  0.00     0.060 A 
BRANCH  74  75
ATOM     75  S   UNL A   1      47.487  26.975  38.412  1.00  0.00     0.124 S 
ATOM     76  O   UNL A   1      48.229  26.285  37.364  1.00  0.00    -0.237 OA
ATOM     77  O   UNL A   1      48.126  28.159  38.977  1.00  0.00    -0.237 OA
ATOM     78  O   UNL A   1      46.813  26.115  39.380  1.00  0.00    -0.744 OA
ENDBRANCH  74  75
ENDBRANCH  42  67
BRANCH  54  79
ATOM     79  C   UNL A   1      39.924  34.285  37.367  1.00  0.00     0.058 A 
ATOM     80  C   UNL A   1      39.113  34.057  38.491  1.00  0.00     0.135 A 
ATOM     81  C   UNL A   1      40.737  35.430  37.367  1.00  0.00     0.135 A 
ATOM     82  F   UNL A   1      38.313  32.980  38.539  1.00  0.00    -0.206 F 
ATOM     83  C   UNL A   1      39.095  34.942  39.564  1.00  0.00     0.059 A 
ATOM     84  C   UNL A   1      40.752  36.315  38.440  1.00  0.00     0.059 A 
ATOM     85  F   UNL A   1      41.539  35.689  36.322  1.00  0.00    -0.206 F 
ATOM     86  C   UNL A   1      39.919  36.069  39.530  1.00  0.00     0.060 A 
BRANCH  86  87
ATOM     87  S   UNL A   1      39.912  37.193  40.942  1.00  0.00     0.124 S 
ATOM     88  O   UNL A   1      41.137  37.953  40.720  1.00  0.00    -0.237 OA
ATOM     89  O   UNL A   1      38.666  37.930  40.752  1.00  0.00    -0.237 OA
ATOM     90  O   UNL A   1      39.930  36.294  42.092  1.00  0.00    -0.744 OA
ENDBRANCH  86  87
ENDBRANCH  54  79
ENDBRANCH  28  29
ENDBRANCH  21  23
ENDBRANCH  20  21
ENDBRANCH  19  20
ENDBRANCH  18  19
ENDBRANCH  17  18
ENDBRANCH   1  17
TORSDOF 21
ENDMDL
