MODEL 1
REMARK VINA RESULT:     -10.9      0.000      0.000
REMARK SMILES C[C@@H](C(=O)OCCOCCOC(=O)c1ccc(-c2c3nc(c(-c4c(F)cc(S(=O)(=O)[O-])cc4F)c4ccc([nH]4)c(-c4c(F)cc(S(=O)(=O)[O-])cc4F)c4nc(c(-c5c(F)cc(S(=O)(=O)[O-])cc5F)c5ccc2[nH]5)C=C4)C=C3)cc1)c1ccc(-c2ccn(C(F)F)c(=O)c2)cc1
REMARK SMILES IDX 8 1 7 2 6 3 5 4 3 5 4 6 2 7 1 8 80 9 81 10 95 11 82 12 94 13
REMARK SMILES IDX 83 14 84 15 85 16 93 17 86 18 91 19 87 20 92 21 88 22 89 23
REMARK SMILES IDX 90 24 9 25 10 26 11 27 12 28 13 29 14 30 15 31 79 32 16 33
REMARK SMILES IDX 78 34 17 35 18 36 19 37 72 38 20 39 77 40 71 41 73 42 21 43
REMARK SMILES IDX 76 44 70 45 69 46 22 48 56 49 35 50 55 51 36 52 39 53 54 54
REMARK SMILES IDX 74 55 37 56 38 57 53 59 75 60 40 61 23 62 24 63 33 64 25 65
REMARK SMILES IDX 26 66 32 67 34 68 27 69 28 70 29 71 30 72 31 73 57 74 58 75
REMARK SMILES IDX 67 76 59 77 60 78 66 79 68 80 61 81 62 82 63 83 64 84 65 85
REMARK SMILES IDX 41 86 42 87 51 88 43 89 44 90 50 91 52 92 45 93 46 94 47 95
REMARK SMILES IDX 48 96 49 97
REMARK H PARENT 73 47 39 58
REMARK Flexibility Score: inf
ROOT
ATOM      1  O   UNL A   1      32.437  31.388  27.252  1.00  0.00    -0.374 OA
ENDROOT
BRANCH   1   2
ATOM      2  C   UNL A   1      32.210  30.223  26.455  1.00  0.00     0.202 C 
BRANCH   2   3
ATOM      3  C   UNL A   1      31.904  28.934  27.225  1.00  0.00     0.261 C 
BRANCH   3   4
ATOM      4  O   UNL A   1      32.978  27.993  27.069  1.00  0.00    -0.463 OA
BRANCH   4   5
ATOM      5  C   UNL A   1      32.660  26.825  26.449  1.00  0.00     0.313 C 
ATOM      6  O   UNL A   1      31.647  26.174  26.681  1.00  0.00    -0.252 OA
BRANCH   5   7
ATOM      7  C   UNL A   1      33.638  26.482  25.321  1.00  0.00     0.126 C 
ATOM      8  C   UNL A   1      33.289  27.180  23.998  1.00  0.00     0.025 C 
BRANCH   7   9
ATOM      9  C   UNL A   1      33.882  24.978  25.140  1.00  0.00    -0.034 A 
ATOM     10  C   UNL A   1      34.559  24.255  26.137  1.00  0.00     0.005 A 
ATOM     11  C   UNL A   1      33.396  24.258  24.036  1.00  0.00     0.005 A 
ATOM     12  C   UNL A   1      34.711  22.864  26.053  1.00  0.00     0.009 A 
ATOM     13  C   UNL A   1      33.540  22.868  23.953  1.00  0.00     0.009 A 
ATOM     14  C   UNL A   1      34.177  22.154  24.974  1.00  0.00    -0.018 A 
BRANCH  14  15
ATOM     15  C   UNL A   1      34.193  20.678  24.929  1.00  0.00    -0.011 A 
ATOM     16  C   UNL A   1      35.407  19.893  24.801  1.00  0.00     0.027 A 
ATOM     17  C   UNL A   1      33.006  20.044  24.913  1.00  0.00     0.080 A 
ATOM     18  C   UNL A   1      35.345  18.568  24.626  1.00  0.00     0.095 A 
ATOM     19  C   UNL A   1      32.922  18.567  24.748  1.00  0.00     0.255 A 
ATOM     20  N   UNL A   1      34.129  17.909  24.586  1.00  0.00    -0.258 N 
ATOM     21  O   UNL A   1      31.814  18.038  24.748  1.00  0.00    -0.269 OA
BRANCH  20  22
ATOM     22  C   UNL A   1      34.069  16.490  24.345  1.00  0.00     0.451 C 
ATOM     23  F   UNL A   1      34.014  16.216  23.019  1.00  0.00    -0.185 F 
ATOM     24  F   UNL A   1      35.157  15.864  24.858  1.00  0.00    -0.185 F 
ENDBRANCH  20  22
ENDBRANCH  14  15
ENDBRANCH   7   9
ENDBRANCH   5   7
ENDBRANCH   4   5
ENDBRANCH   3   4
ENDBRANCH   2   3
ENDBRANCH   1   2
BRANCH   1  25
ATOM     25  C   UNL A   1      33.782  31.854  27.369  1.00  0.00     0.202 C 
BRANCH  25  26
ATOM     26  C   UNL A   1      34.437  31.763  28.754  1.00  0.00     0.261 C 
BRANCH  26  27
ATOM     27  O   UNL A   1      35.462  30.755  28.819  1.00  0.00    -0.460 OA
BRANCH  27  28
ATOM     28  C   UNL A   1      36.470  31.032  29.681  1.00  0.00     0.338 C 
ATOM     29  O   UNL A   1      36.399  31.697  30.705  1.00  0.00    -0.246 OA
BRANCH  28  30
ATOM     30  C   UNL A   1      37.679  30.265  29.327  1.00  0.00     0.060 A 
ATOM     31  C   UNL A   1      38.590  29.990  30.354  1.00  0.00     0.016 A 
ATOM     32  C   UNL A   1      37.969  29.908  28.008  1.00  0.00     0.016 A 
ATOM     33  C   UNL A   1      39.817  29.400  30.061  1.00  0.00     0.010 A 
ATOM     34  C   UNL A   1      39.207  29.324  27.714  1.00  0.00     0.010 A 
ATOM     35  C   UNL A   1      40.151  29.101  28.735  1.00  0.00    -0.014 A 
BRANCH  35  36
ATOM     36  C   UNL A   1      41.541  28.694  28.409  1.00  0.00     0.031 A 
ATOM     37  C   UNL A   1      42.631  29.731  28.424  1.00  0.00     0.074 A 
ATOM     38  C   UNL A   1      41.836  27.408  28.144  1.00  0.00     0.049 A 
ATOM     39  N   UNL A   1      43.906  29.598  28.165  1.00  0.00    -0.248 NA
ATOM     40  C   UNL A   1      42.228  31.101  28.781  1.00  0.00     0.031 C 
ATOM     41  C   UNL A   1      40.875  26.307  28.136  1.00  0.00     0.029 A 
ATOM     42  N   UNL A   1      43.032  26.814  27.829  1.00  0.00    -0.354 N 
ATOM     43  C   UNL A   1      44.459  30.864  28.324  1.00  0.00     0.074 A 
ATOM     44  C   UNL A   1      43.375  31.757  28.673  1.00  0.00     0.031 C 
ATOM     45  C   UNL A   1      41.519  25.170  27.819  1.00  0.00     0.029 A 
ATOM     46  C   UNL A   1      42.929  25.467  27.578  1.00  0.00     0.049 A 
ATOM     47  H   UNL A   1      43.884  27.306  27.787  1.00  0.00     0.167 HD
ATOM     48  C   UNL A   1      45.753  31.245  28.200  1.00  0.00     0.037 A 
ATOM     49  C   UNL A   1      43.863  24.580  27.181  1.00  0.00     0.037 A 
ATOM     50  C   UNL A   1      46.829  30.354  27.852  1.00  0.00     0.049 A 
ATOM     51  C   UNL A   1      45.285  25.037  26.991  1.00  0.00     0.074 A 
ATOM     52  C   UNL A   1      48.175  30.642  27.714  1.00  0.00     0.029 A 
ATOM     53  N   UNL A   1      46.680  29.002  27.578  1.00  0.00    -0.354 N 
ATOM     54  N   UNL A   1      45.798  26.233  27.165  1.00  0.00    -0.248 NA
ATOM     55  C   UNL A   1      46.259  24.025  26.555  1.00  0.00     0.031 C 
ATOM     56  C   UNL A   1      48.834  29.473  27.316  1.00  0.00     0.029 A 
ATOM     57  C   UNL A   1      47.906  28.447  27.250  1.00  0.00     0.049 A 
ATOM     58  H   UNL A   1      45.827  28.511  27.611  1.00  0.00     0.167 HD
ATOM     59  C   UNL A   1      47.154  26.111  26.882  1.00  0.00     0.074 A 
ATOM     60  C   UNL A   1      47.385  24.724  26.537  1.00  0.00     0.031 C 
ATOM     61  C   UNL A   1      48.121  27.062  26.911  1.00  0.00     0.037 A 
BRANCH  48  62
ATOM     62  C   UNL A   1      46.070  32.698  28.421  1.00  0.00     0.058 A 
ATOM     63  C   UNL A   1      46.426  33.192  29.687  1.00  0.00     0.135 A 
ATOM     64  C   UNL A   1      46.037  33.604  27.350  1.00  0.00     0.135 A 
ATOM     65  F   UNL A   1      46.456  32.370  30.749  1.00  0.00    -0.206 F 
ATOM     66  C   UNL A   1      46.709  34.539  29.888  1.00  0.00     0.059 A 
ATOM     67  C   UNL A   1      46.341  34.952  27.523  1.00  0.00     0.059 A 
ATOM     68  F   UNL A   1      45.703  33.186  26.119  1.00  0.00    -0.206 F 
ATOM     69  C   UNL A   1      46.660  35.412  28.800  1.00  0.00     0.060 A 
BRANCH  69  70
ATOM     70  S   UNL A   1      47.020  37.160  29.077  1.00  0.00     0.124 S 
ATOM     71  O   UNL A   1      47.309  37.174  30.507  1.00  0.00    -0.237 OA
ATOM     72  O   UNL A   1      48.162  37.387  28.198  1.00  0.00    -0.237 OA
ATOM     73  O   UNL A   1      45.784  37.828  28.679  1.00  0.00    -0.744 OA
ENDBRANCH  69  70
ENDBRANCH  48  62
BRANCH  49  74
ATOM     74  C   UNL A   1      43.477  23.167  26.925  1.00  0.00     0.058 A 
ATOM     75  C   UNL A   1      43.332  22.677  25.619  1.00  0.00     0.135 A 
ATOM     76  C   UNL A   1      43.256  22.275  27.987  1.00  0.00     0.135 A 
ATOM     77  F   UNL A   1      43.521  23.494  24.572  1.00  0.00    -0.206 F 
ATOM     78  C   UNL A   1      42.976  21.355  25.373  1.00  0.00     0.059 A 
ATOM     79  C   UNL A   1      42.921  20.944  27.766  1.00  0.00     0.059 A 
ATOM     80  F   UNL A   1      43.390  22.693  29.255  1.00  0.00    -0.206 F 
ATOM     81  C   UNL A   1      42.776  20.495  26.454  1.00  0.00     0.060 A 
BRANCH  81  82
ATOM     82  S   UNL A   1      42.374  18.765  26.124  1.00  0.00     0.124 S 
ATOM     83  O   UNL A   1      40.968  18.856  25.749  1.00  0.00    -0.237 OA
ATOM     84  O   UNL A   1      43.303  18.434  25.048  1.00  0.00    -0.237 OA
ATOM     85  O   UNL A   1      42.647  18.110  27.400  1.00  0.00    -0.744 OA
ENDBRANCH  81  82
ENDBRANCH  49  74
BRANCH  61  86
ATOM     86  C   UNL A   1      49.526  26.634  26.586  1.00  0.00     0.058 A 
ATOM     87  C   UNL A   1      49.999  26.601  25.266  1.00  0.00     0.135 A 
ATOM     88  C   UNL A   1      50.425  26.306  27.613  1.00  0.00     0.135 A 
ATOM     89  F   UNL A   1      49.179  26.901  24.246  1.00  0.00    -0.206 F 
ATOM     90  C   UNL A   1      51.310  26.238  24.973  1.00  0.00     0.059 A 
ATOM     91  C   UNL A   1      51.746  25.963  27.347  1.00  0.00     0.059 A 
ATOM     92  F   UNL A   1      50.025  26.332  28.896  1.00  0.00    -0.206 F 
ATOM     93  C   UNL A   1      52.177  25.921  26.021  1.00  0.00     0.060 A 
BRANCH  93  94
ATOM     94  S   UNL A   1      53.886  25.484  25.633  1.00  0.00     0.124 S 
ATOM     95  O   UNL A   1      54.309  24.828  26.864  1.00  0.00    -0.237 OA
ATOM     96  O   UNL A   1      53.730  24.614  24.471  1.00  0.00    -0.237 OA
ATOM     97  O   UNL A   1      54.513  26.774  25.360  1.00  0.00    -0.744 OA
ENDBRANCH  93  94
ENDBRANCH  61  86
ENDBRANCH  35  36
ENDBRANCH  28  30
ENDBRANCH  27  28
ENDBRANCH  26  27
ENDBRANCH  25  26
ENDBRANCH   1  25
TORSDOF 20
ENDMDL
MODEL 2
REMARK VINA RESULT:     -10.9      5.638      7.495
REMARK SMILES C[C@@H](C(=O)OCCOCCOC(=O)c1ccc(-c2c3nc(c(-c4c(F)cc(S(=O)(=O)[O-])cc4F)c4ccc([nH]4)c(-c4c(F)cc(S(=O)(=O)[O-])cc4F)c4nc(c(-c5c(F)cc(S(=O)(=O)[O-])cc5F)c5ccc2[nH]5)C=C4)C=C3)cc1)c1ccc(-c2ccn(C(F)F)c(=O)c2)cc1
REMARK SMILES IDX 8 1 7 2 6 3 5 4 3 5 4 6 2 7 1 8 80 9 81 10 95 11 82 12 94 13
REMARK SMILES IDX 83 14 84 15 85 16 93 17 86 18 91 19 87 20 92 21 88 22 89 23
REMARK SMILES IDX 90 24 9 25 10 26 11 27 12 28 13 29 14 30 15 31 79 32 16 33
REMARK SMILES IDX 78 34 17 35 18 36 19 37 72 38 20 39 77 40 71 41 73 42 21 43
REMARK SMILES IDX 76 44 70 45 69 46 22 48 56 49 35 50 55 51 36 52 39 53 54 54
REMARK SMILES IDX 74 55 37 56 38 57 53 59 75 60 40 61 23 62 24 63 33 64 25 65
REMARK SMILES IDX 26 66 32 67 34 68 27 69 28 70 29 71 30 72 31 73 57 74 58 75
REMARK SMILES IDX 67 76 59 77 60 78 66 79 68 80 61 81 62 82 63 83 64 84 65 85
REMARK SMILES IDX 41 86 42 87 51 88 43 89 44 90 50 91 52 92 45 93 46 94 47 95
REMARK SMILES IDX 48 96 49 97
REMARK H PARENT 73 47 39 58
REMARK Flexibility Score: inf
ROOT
ATOM      1  O   UNL A   1      33.943  26.075  25.397  1.00  0.00    -0.374 OA
ENDROOT
BRANCH   1   2
ATOM      2  C   UNL A   1      34.772  25.013  24.918  1.00  0.00     0.202 C 
BRANCH   2   3
ATOM      3  C   UNL A   1      34.570  23.650  25.590  1.00  0.00     0.261 C 
BRANCH   3   4
ATOM      4  O   UNL A   1      33.489  23.717  26.535  1.00  0.00    -0.463 OA
BRANCH   4   5
ATOM      5  C   UNL A   1      32.849  22.544  26.790  1.00  0.00     0.313 C 
ATOM      6  O   UNL A   1      33.061  21.842  27.773  1.00  0.00    -0.252 OA
BRANCH   5   7
ATOM      7  C   UNL A   1      31.727  22.266  25.785  1.00  0.00     0.126 C 
ATOM      8  C   UNL A   1      32.153  21.300  24.669  1.00  0.00     0.025 C 
BRANCH   7   9
ATOM      9  C   UNL A   1      31.052  23.530  25.236  1.00  0.00    -0.034 A 
ATOM     10  C   UNL A   1      30.464  24.449  26.122  1.00  0.00     0.005 A 
ATOM     11  C   UNL A   1      31.048  23.855  23.869  1.00  0.00     0.005 A 
ATOM     12  C   UNL A   1      29.929  25.661  25.666  1.00  0.00     0.009 A 
ATOM     13  C   UNL A   1      30.520  25.068  23.412  1.00  0.00     0.009 A 
ATOM     14  C   UNL A   1      29.978  25.995  24.309  1.00  0.00    -0.018 A 
BRANCH  14  15
ATOM     15  C   UNL A   1      29.556  27.322  23.818  1.00  0.00    -0.011 A 
ATOM     16  C   UNL A   1      30.442  28.470  23.749  1.00  0.00     0.027 A 
ATOM     17  C   UNL A   1      28.257  27.487  23.512  1.00  0.00     0.080 A 
ATOM     18  C   UNL A   1      29.966  29.678  23.427  1.00  0.00     0.095 A 
ATOM     19  C   UNL A   1      27.717  28.820  23.126  1.00  0.00     0.255 A 
ATOM     20  N   UNL A   1      28.627  29.863  23.132  1.00  0.00    -0.258 N 
ATOM     21  O   UNL A   1      26.525  28.913  22.848  1.00  0.00    -0.269 OA
BRANCH  20  22
ATOM     22  C   UNL A   1      28.113  31.176  22.839  1.00  0.00     0.451 C 
ATOM     23  F   UNL A   1      27.288  31.615  23.821  1.00  0.00    -0.185 F 
ATOM     24  F   UNL A   1      29.121  32.074  22.707  1.00  0.00    -0.185 F 
ENDBRANCH  20  22
ENDBRANCH  14  15
ENDBRANCH   7   9
ENDBRANCH   5   7
ENDBRANCH   4   5
ENDBRANCH   3   4
ENDBRANCH   2   3
ENDBRANCH   1   2
BRANCH   1  25
ATOM     25  C   UNL A   1      33.671  27.154  24.502  1.00  0.00     0.202 C 
BRANCH  25  26
ATOM     26  C   UNL A   1      33.824  28.577  25.053  1.00  0.00     0.261 C 
BRANCH  26  27
ATOM     27  O   UNL A   1      34.156  28.598  26.453  1.00  0.00    -0.460 OA
BRANCH  27  28
ATOM     28  C   UNL A   1      34.398  29.833  26.957  1.00  0.00     0.338 C 
ATOM     29  O   UNL A   1      33.670  30.813  26.879  1.00  0.00    -0.246 OA
BRANCH  28  30
ATOM     30  C   UNL A   1      35.611  29.822  27.795  1.00  0.00     0.060 A 
ATOM     31  C   UNL A   1      36.833  30.084  27.162  1.00  0.00     0.016 A 
ATOM     32  C   UNL A   1      35.574  29.467  29.146  1.00  0.00     0.016 A 
ATOM     33  C   UNL A   1      38.028  29.945  27.865  1.00  0.00     0.010 A 
ATOM     34  C   UNL A   1      36.777  29.320  29.847  1.00  0.00     0.010 A 
ATOM     35  C   UNL A   1      38.010  29.522  29.199  1.00  0.00    -0.014 A 
BRANCH  35  36
ATOM     36  C   UNL A   1      39.286  29.154  29.862  1.00  0.00     0.031 A 
ATOM     37  C   UNL A   1      39.704  29.891  31.105  1.00  0.00     0.074 A 
ATOM     38  C   UNL A   1      40.042  28.147  29.388  1.00  0.00     0.049 A 
ATOM     39  N   UNL A   1      40.777  29.740  31.838  1.00  0.00    -0.248 NA
ATOM     40  C   UNL A   1      38.789  30.939  31.587  1.00  0.00     0.031 C 
ATOM     41  C   UNL A   1      39.724  27.334  28.215  1.00  0.00     0.029 A 
ATOM     42  N   UNL A   1      41.234  27.639  29.836  1.00  0.00    -0.354 N 
ATOM     43  C   UNL A   1      40.670  30.671  32.865  1.00  0.00     0.074 A 
ATOM     44  C   UNL A   1      39.442  31.403  32.643  1.00  0.00     0.031 C 
ATOM     45  C   UNL A   1      40.706  26.435  28.029  1.00  0.00     0.029 A 
ATOM     46  C   UNL A   1      41.731  26.625  29.054  1.00  0.00     0.049 A 
ATOM     47  H   UNL A   1      41.692  27.969  30.644  1.00  0.00     0.167 HD
ATOM     48  C   UNL A   1      41.513  30.890  33.903  1.00  0.00     0.037 A 
ATOM     49  C   UNL A   1      42.890  25.942  29.142  1.00  0.00     0.037 A 
ATOM     50  C   UNL A   1      42.735  30.159  34.119  1.00  0.00     0.049 A 
ATOM     51  C   UNL A   1      43.842  26.241  30.270  1.00  0.00     0.074 A 
ATOM     52  C   UNL A   1      43.650  30.298  35.148  1.00  0.00     0.029 A 
ATOM     53  N   UNL A   1      43.217  29.159  33.288  1.00  0.00    -0.354 N 
ATOM     54  N   UNL A   1      43.717  27.111  31.246  1.00  0.00    -0.248 NA
ATOM     55  C   UNL A   1      45.089  25.465  30.314  1.00  0.00     0.031 C 
ATOM     56  C   UNL A   1      44.707  29.410  34.916  1.00  0.00     0.029 A 
ATOM     57  C   UNL A   1      44.428  28.687  33.769  1.00  0.00     0.049 A 
ATOM     58  H   UNL A   1      42.766  28.833  32.477  1.00  0.00     0.167 HD
ATOM     59  C   UNL A   1      44.858  26.970  32.029  1.00  0.00     0.074 A 
ATOM     60  C   UNL A   1      45.655  25.925  31.422  1.00  0.00     0.031 C 
ATOM     61  C   UNL A   1      45.210  27.643  33.153  1.00  0.00     0.037 A 
BRANCH  48  62
ATOM     62  C   UNL A   1      41.150  31.981  34.871  1.00  0.00     0.058 A 
ATOM     63  C   UNL A   1      41.630  33.292  34.719  1.00  0.00     0.135 A 
ATOM     64  C   UNL A   1      40.297  31.717  35.953  1.00  0.00     0.135 A 
ATOM     65  F   UNL A   1      42.464  33.594  33.710  1.00  0.00    -0.206 F 
ATOM     66  C   UNL A   1      41.300  34.296  35.623  1.00  0.00     0.059 A 
ATOM     67  C   UNL A   1      39.932  32.712  36.856  1.00  0.00     0.059 A 
ATOM     68  F   UNL A   1      39.810  30.481  36.145  1.00  0.00    -0.206 F 
ATOM     69  C   UNL A   1      40.452  33.995  36.691  1.00  0.00     0.060 A 
BRANCH  69  70
ATOM     70  S   UNL A   1      40.039  35.305  37.863  1.00  0.00     0.124 S 
ATOM     71  O   UNL A   1      38.880  34.734  38.541  1.00  0.00    -0.237 OA
ATOM     72  O   UNL A   1      41.256  35.404  38.663  1.00  0.00    -0.237 OA
ATOM     73  O   UNL A   1      39.762  36.454  37.005  1.00  0.00    -0.744 OA
ENDBRANCH  69  70
ENDBRANCH  48  62
BRANCH  49  74
ATOM     74  C   UNL A   1      43.218  24.911  28.122  1.00  0.00     0.058 A 
ATOM     75  C   UNL A   1      44.004  25.219  27.002  1.00  0.00     0.135 A 
ATOM     76  C   UNL A   1      42.760  23.591  28.257  1.00  0.00     0.135 A 
ATOM     77  F   UNL A   1      44.455  26.471  26.825  1.00  0.00    -0.206 F 
ATOM     78  C   UNL A   1      44.318  24.259  26.047  1.00  0.00     0.059 A 
ATOM     79  C   UNL A   1      43.081  22.607  27.327  1.00  0.00     0.059 A 
ATOM     80  F   UNL A   1      42.012  23.243  29.315  1.00  0.00    -0.206 F 
ATOM     81  C   UNL A   1      43.855  22.954  26.221  1.00  0.00     0.060 A 
BRANCH  81  82
ATOM     82  S   UNL A   1      44.321  21.698  25.008  1.00  0.00     0.124 S 
ATOM     83  O   UNL A   1      43.397  20.618  25.334  1.00  0.00    -0.237 OA
ATOM     84  O   UNL A   1      44.078  22.388  23.744  1.00  0.00    -0.237 OA
ATOM     85  O   UNL A   1      45.725  21.443  25.314  1.00  0.00    -0.744 OA
ENDBRANCH  81  82
ENDBRANCH  49  74
BRANCH  61  86
ATOM     86  C   UNL A   1      46.501  27.255  33.819  1.00  0.00     0.058 A 
ATOM     87  C   UNL A   1      46.557  26.233  34.779  1.00  0.00     0.135 A 
ATOM     88  C   UNL A   1      47.706  27.877  33.454  1.00  0.00     0.135 A 
ATOM     89  F   UNL A   1      45.433  25.609  35.168  1.00  0.00    -0.206 F 
ATOM     90  C   UNL A   1      47.760  25.853  35.368  1.00  0.00     0.059 A 
ATOM     91  C   UNL A   1      48.923  27.498  34.011  1.00  0.00     0.059 A 
ATOM     92  F   UNL A   1      47.709  28.854  32.532  1.00  0.00    -0.206 F 
ATOM     93  C   UNL A   1      48.938  26.492  34.976  1.00  0.00     0.060 A 
BRANCH  93  94
ATOM     94  S   UNL A   1      50.497  25.970  35.722  1.00  0.00     0.124 S 
ATOM     95  O   UNL A   1      50.645  24.623  35.182  1.00  0.00    -0.237 OA
ATOM     96  O   UNL A   1      51.437  26.964  35.213  1.00  0.00    -0.237 OA
ATOM     97  O   UNL A   1      50.231  26.047  37.155  1.00  0.00    -0.744 OA
ENDBRANCH  93  94
ENDBRANCH  61  86
ENDBRANCH  35  36
ENDBRANCH  28  30
ENDBRANCH  27  28
ENDBRANCH  26  27
ENDBRANCH  25  26
ENDBRANCH   1  25
TORSDOF 20
ENDMDL
MODEL 3
REMARK VINA RESULT:     -10.8      4.217      9.722
REMARK SMILES C[C@@H](C(=O)OCCOCCOC(=O)c1ccc(-c2c3nc(c(-c4c(F)cc(S(=O)(=O)[O-])cc4F)c4ccc([nH]4)c(-c4c(F)cc(S(=O)(=O)[O-])cc4F)c4nc(c(-c5c(F)cc(S(=O)(=O)[O-])cc5F)c5ccc2[nH]5)C=C4)C=C3)cc1)c1ccc(-c2ccn(C(F)F)c(=O)c2)cc1
REMARK SMILES IDX 8 1 7 2 6 3 5 4 3 5 4 6 2 7 1 8 80 9 81 10 95 11 82 12 94 13
REMARK SMILES IDX 83 14 84 15 85 16 93 17 86 18 91 19 87 20 92 21 88 22 89 23
REMARK SMILES IDX 90 24 9 25 10 26 11 27 12 28 13 29 14 30 15 31 79 32 16 33
REMARK SMILES IDX 78 34 17 35 18 36 19 37 72 38 20 39 77 40 71 41 73 42 21 43
REMARK SMILES IDX 76 44 70 45 69 46 22 48 56 49 35 50 55 51 36 52 39 53 54 54
REMARK SMILES IDX 74 55 37 56 38 57 53 59 75 60 40 61 23 62 24 63 33 64 25 65
REMARK SMILES IDX 26 66 32 67 34 68 27 69 28 70 29 71 30 72 31 73 57 74 58 75
REMARK SMILES IDX 67 76 59 77 60 78 66 79 68 80 61 81 62 82 63 83 64 84 65 85
REMARK SMILES IDX 41 86 42 87 51 88 43 89 44 90 50 91 52 92 45 93 46 94 47 95
REMARK SMILES IDX 48 96 49 97
REMARK H PARENT 73 47 39 58
REMARK Flexibility Score: inf
ROOT
ATOM      1  O   UNL A   1      33.943  26.824  26.119  1.00  0.00    -0.374 OA
ENDROOT
BRANCH   1   2
ATOM      2  C   UNL A   1      34.083  25.869  25.064  1.00  0.00     0.202 C 
BRANCH   2   3
ATOM      3  C   UNL A   1      34.939  24.638  25.384  1.00  0.00     0.261 C 
BRANCH   3   4
ATOM      4  O   UNL A   1      34.200  23.716  26.201  1.00  0.00    -0.463 OA
BRANCH   4   5
ATOM      5  C   UNL A   1      33.836  22.551  25.602  1.00  0.00     0.313 C 
ATOM      6  O   UNL A   1      34.628  21.722  25.167  1.00  0.00    -0.252 OA
BRANCH   5   7
ATOM      7  C   UNL A   1      32.323  22.317  25.660  1.00  0.00     0.126 C 
ATOM      8  C   UNL A   1      31.911  20.944  25.109  1.00  0.00     0.025 C 
BRANCH   7   9
ATOM      9  C   UNL A   1      31.491  23.459  25.062  1.00  0.00    -0.034 A 
ATOM     10  C   UNL A   1      30.805  24.343  25.912  1.00  0.00     0.005 A 
ATOM     11  C   UNL A   1      31.431  23.711  23.681  1.00  0.00     0.005 A 
ATOM     12  C   UNL A   1      30.119  25.456  25.406  1.00  0.00     0.009 A 
ATOM     13  C   UNL A   1      30.753  24.826  23.174  1.00  0.00     0.009 A 
ATOM     14  C   UNL A   1      30.111  25.723  24.033  1.00  0.00    -0.018 A 
BRANCH  14  15
ATOM     15  C   UNL A   1      29.522  26.962  23.486  1.00  0.00    -0.011 A 
ATOM     16  C   UNL A   1      30.303  28.006  22.848  1.00  0.00     0.027 A 
ATOM     17  C   UNL A   1      28.207  27.163  23.679  1.00  0.00     0.080 A 
ATOM     18  C   UNL A   1      29.733  29.165  22.497  1.00  0.00     0.095 A 
ATOM     19  C   UNL A   1      27.552  28.436  23.269  1.00  0.00     0.255 A 
ATOM     20  N   UNL A   1      28.384  29.390  22.711  1.00  0.00    -0.258 N 
ATOM     21  O   UNL A   1      26.346  28.564  23.460  1.00  0.00    -0.269 OA
BRANCH  20  22
ATOM     22  C   UNL A   1      27.790  30.659  22.380  1.00  0.00     0.451 C 
ATOM     23  F   UNL A   1      27.592  31.417  23.486  1.00  0.00    -0.185 F 
ATOM     24  F   UNL A   1      28.581  31.359  21.529  1.00  0.00    -0.185 F 
ENDBRANCH  20  22
ENDBRANCH  14  15
ENDBRANCH   7   9
ENDBRANCH   5   7
ENDBRANCH   4   5
ENDBRANCH   3   4
ENDBRANCH   2   3
ENDBRANCH   1   2
BRANCH   1  25
ATOM     25  C   UNL A   1      32.892  27.783  26.004  1.00  0.00     0.202 C 
BRANCH  25  26
ATOM     26  C   UNL A   1      33.246  29.248  26.295  1.00  0.00     0.261 C 
BRANCH  26  27
ATOM     27  O   UNL A   1      33.410  29.511  27.700  1.00  0.00    -0.460 OA
BRANCH  27  28
ATOM     28  C   UNL A   1      34.273  30.515  27.988  1.00  0.00     0.338 C 
ATOM     29  O   UNL A   1      33.990  31.681  28.227  1.00  0.00    -0.246 OA
BRANCH  28  30
ATOM     30  C   UNL A   1      35.640  29.991  28.161  1.00  0.00     0.060 A 
ATOM     31  C   UNL A   1      36.003  29.549  29.439  1.00  0.00     0.016 A 
ATOM     32  C   UNL A   1      36.580  30.019  27.127  1.00  0.00     0.016 A 
ATOM     33  C   UNL A   1      37.320  29.179  29.704  1.00  0.00     0.010 A 
ATOM     34  C   UNL A   1      37.905  29.656  27.398  1.00  0.00     0.010 A 
ATOM     35  C   UNL A   1      38.288  29.270  28.696  1.00  0.00    -0.014 A 
BRANCH  35  36
ATOM     36  C   UNL A   1      39.721  29.101  29.047  1.00  0.00     0.031 A 
ATOM     37  C   UNL A   1      40.404  27.799  28.725  1.00  0.00     0.074 A 
ATOM     38  C   UNL A   1      40.415  30.108  29.606  1.00  0.00     0.049 A 
ATOM     39  N   UNL A   1      41.640  27.434  28.949  1.00  0.00    -0.248 NA
ATOM     40  C   UNL A   1      39.583  26.773  28.061  1.00  0.00     0.031 C 
ATOM     41  C   UNL A   1      39.874  31.427  29.930  1.00  0.00     0.029 A 
ATOM     42  N   UNL A   1      41.727  30.175  30.001  1.00  0.00    -0.354 N 
ATOM     43  C   UNL A   1      41.747  26.138  28.457  1.00  0.00     0.074 A 
ATOM     44  C   UNL A   1      40.443  25.770  27.950  1.00  0.00     0.031 C 
ATOM     45  C   UNL A   1      40.846  32.171  30.487  1.00  0.00     0.029 A 
ATOM     46  C   UNL A   1      42.068  31.374  30.580  1.00  0.00     0.049 A 
ATOM     47  H   UNL A   1      42.365  29.435  29.880  1.00  0.00     0.167 HD
ATOM     48  C   UNL A   1      42.836  25.332  28.422  1.00  0.00     0.037 A 
ATOM     49  C   UNL A   1      43.227  31.774  31.140  1.00  0.00     0.037 A 
ATOM     50  C   UNL A   1      44.132  25.702  28.928  1.00  0.00     0.049 A 
ATOM     51  C   UNL A   1      44.408  30.840  31.144  1.00  0.00     0.074 A 
ATOM     52  C   UNL A   1      45.300  24.960  28.927  1.00  0.00     0.029 A 
ATOM     53  N   UNL A   1      44.429  26.914  29.533  1.00  0.00    -0.354 N 
ATOM     54  N   UNL A   1      44.501  29.625  30.657  1.00  0.00    -0.248 NA
ATOM     55  C   UNL A   1      45.645  31.332  31.769  1.00  0.00     0.031 C 
ATOM     56  C   UNL A   1      46.293  25.707  29.569  1.00  0.00     0.029 A 
ATOM     57  C   UNL A   1      45.757  26.932  29.929  1.00  0.00     0.049 A 
ATOM     58  H   UNL A   1      43.791  27.652  29.662  1.00  0.00     0.167 HD
ATOM     59  C   UNL A   1      45.809  29.217  30.897  1.00  0.00     0.074 A 
ATOM     60  C   UNL A   1      46.474  30.318  31.562  1.00  0.00     0.031 C 
ATOM     61  C   UNL A   1      46.406  28.039  30.589  1.00  0.00     0.037 A 
BRANCH  48  62
ATOM     62  C   UNL A   1      42.661  23.959  27.835  1.00  0.00     0.058 A 
ATOM     63  C   UNL A   1      42.503  22.824  28.647  1.00  0.00     0.135 A 
ATOM     64  C   UNL A   1      42.632  23.778  26.444  1.00  0.00     0.135 A 
ATOM     65  F   UNL A   1      42.541  22.939  29.984  1.00  0.00    -0.206 F 
ATOM     66  C   UNL A   1      42.352  21.555  28.099  1.00  0.00     0.059 A 
ATOM     67  C   UNL A   1      42.458  22.520  25.873  1.00  0.00     0.059 A 
ATOM     68  F   UNL A   1      42.780  24.829  25.622  1.00  0.00    -0.206 F 
ATOM     69  C   UNL A   1      42.334  21.412  26.711  1.00  0.00     0.060 A 
BRANCH  69  70
ATOM     70  S   UNL A   1      42.147  19.758  26.013  1.00  0.00     0.124 S 
ATOM     71  O   UNL A   1      42.378  18.920  27.185  1.00  0.00    -0.237 OA
ATOM     72  O   UNL A   1      40.777  19.782  25.512  1.00  0.00    -0.237 OA
ATOM     73  O   UNL A   1      43.185  19.703  24.987  1.00  0.00    -0.744 OA
ENDBRANCH  69  70
ENDBRANCH  48  62
BRANCH  49  74
ATOM     74  C   UNL A   1      43.322  33.125  31.754  1.00  0.00     0.058 A 
ATOM     75  C   UNL A   1      42.980  33.340  33.096  1.00  0.00     0.135 A 
ATOM     76  C   UNL A   1      43.770  34.227  31.008  1.00  0.00     0.135 A 
ATOM     77  F   UNL A   1      42.536  32.320  33.846  1.00  0.00    -0.206 F 
ATOM     78  C   UNL A   1      43.071  34.600  33.678  1.00  0.00     0.059 A 
ATOM     79  C   UNL A   1      43.892  35.492  31.573  1.00  0.00     0.059 A 
ATOM     80  F   UNL A   1      44.118  34.072  29.721  1.00  0.00    -0.206 F 
ATOM     81  C   UNL A   1      43.532  35.669  32.909  1.00  0.00     0.060 A 
BRANCH  81  82
ATOM     82  S   UNL A   1      43.706  37.289  33.689  1.00  0.00     0.124 S 
ATOM     83  O   UNL A   1      44.995  37.156  34.357  1.00  0.00    -0.237 OA
ATOM     84  O   UNL A   1      43.671  38.189  32.539  1.00  0.00    -0.237 OA
ATOM     85  O   UNL A   1      42.543  37.364  34.568  1.00  0.00    -0.744 OA
ENDBRANCH  81  82
ENDBRANCH  49  74
BRANCH  61  86
ATOM     86  C   UNL A   1      47.859  27.883  30.943  1.00  0.00     0.058 A 
ATOM     87  C   UNL A   1      48.266  27.278  32.142  1.00  0.00     0.135 A 
ATOM     88  C   UNL A   1      48.858  28.295  30.046  1.00  0.00     0.135 A 
ATOM     89  F   UNL A   1      47.351  26.870  33.037  1.00  0.00    -0.206 F 
ATOM     90  C   UNL A   1      49.612  27.105  32.449  1.00  0.00     0.059 A 
ATOM     91  C   UNL A   1      50.209  28.111  30.320  1.00  0.00     0.059 A 
ATOM     92  F   UNL A   1      48.523  28.870  28.879  1.00  0.00    -0.206 F 
ATOM     93  C   UNL A   1      50.577  27.524  31.531  1.00  0.00     0.060 A 
BRANCH  93  94
ATOM     94  S   UNL A   1      52.320  27.264  31.924  1.00  0.00     0.124 S 
ATOM     95  O   UNL A   1      52.351  27.583  33.347  1.00  0.00    -0.237 OA
ATOM     96  O   UNL A   1      52.512  25.857  31.585  1.00  0.00    -0.237 OA
ATOM     97  O   UNL A   1      53.010  28.210  31.052  1.00  0.00    -0.744 OA
ENDBRANCH  93  94
ENDBRANCH  61  86
ENDBRANCH  35  36
ENDBRANCH  28  30
ENDBRANCH  27  28
ENDBRANCH  26  27
ENDBRANCH  25  26
ENDBRANCH   1  25
TORSDOF 20
ENDMDL
