MODEL 1
REMARK VINA RESULT:     -11.6      0.000      0.000
REMARK SMILES Cc1cc(C)n(-c2nc(C)c(C)c(Oc3cccc(C(=O)OCCOCCOC(=O)c4ccc(-c5c6nc(c(-c7c(F)cc(S(=O)(=O)[O-])cc7F)c7ccc([nH]7)c(-c7c(F)cc(S(=O)(=O)[O-])cc7F)c7nc(c(-c8c(F)cc(S(=O)(=O)[O-])cc8F)c8ccc5[nH]8)C=C7)C=C6)cc4)c3)n2)n1
REMARK SMILES IDX 25 1 24 2 23 3 22 4 20 5 21 6 19 7 15 8 16 9 97 10 17 11
REMARK SMILES IDX 18 12 14 13 13 14 7 15 8 16 98 17 9 18 10 19 11 20 12 21
REMARK SMILES IDX 6 22 1 23 2 24 3 25 99 26 4 27 5 28 26 29 27 30 28 31 29 32
REMARK SMILES IDX 30 33 31 34 32 35 96 36 33 37 95 38 34 39 35 40 36 41 89 42
REMARK SMILES IDX 37 43 94 44 88 45 90 46 38 47 93 48 87 49 86 50 39 52 73 53
REMARK SMILES IDX 52 54 72 55 53 56 56 57 71 58 91 59 54 60 55 61 70 63 92 64
REMARK SMILES IDX 57 65 40 66 41 67 50 68 42 69 43 70 49 71 51 72 44 73 45 74
REMARK SMILES IDX 46 75 47 76 48 77 74 78 75 79 84 80 76 81 77 82 83 83 85 84
REMARK SMILES IDX 78 85 79 86 80 87 81 88 82 89 58 90 59 91 68 92 60 93 61 94
REMARK SMILES IDX 67 95 69 96 62 97 63 98 64 99 65 100 66 101
REMARK H PARENT 90 51 56 62
REMARK Flexibility Score: inf
ROOT
ATOM      1  O   UNL A   1      37.036  22.157  24.532  1.00  0.00    -0.374 OA
ENDROOT
BRANCH   1   2
ATOM      2  C   UNL A   1      36.665  22.939  23.396  1.00  0.00     0.202 C 
BRANCH   2   3
ATOM      3  C   UNL A   1      35.188  23.224  23.109  1.00  0.00     0.261 C 
BRANCH   3   4
ATOM      4  O   UNL A   1      34.295  22.307  23.754  1.00  0.00    -0.460 OA
BRANCH   4   5
ATOM      5  C   UNL A   1      32.993  22.477  23.420  1.00  0.00     0.338 C 
ATOM      6  O   UNL A   1      32.460  22.147  22.367  1.00  0.00    -0.246 OA
BRANCH   5   7
ATOM      7  C   UNL A   1      32.214  22.928  24.590  1.00  0.00     0.063 A 
ATOM      8  C   UNL A   1      30.813  24.517  25.718  1.00  0.00     0.130 A 
ATOM      9  C   UNL A   1      30.588  23.597  26.747  1.00  0.00     0.047 A 
ATOM     10  C   UNL A   1      31.695  24.216  24.677  1.00  0.00     0.062 A 
ATOM     11  C   UNL A   1      31.179  22.338  26.699  1.00  0.00     0.005 A 
ATOM     12  C   UNL A   1      31.966  21.993  25.604  1.00  0.00     0.016 A 
BRANCH   8  13
ATOM     13  O   UNL A   1      30.139  25.711  25.822  1.00  0.00    -0.439 OA
BRANCH  13  14
ATOM     14  C   UNL A   1      30.757  26.869  25.347  1.00  0.00     0.227 A 
ATOM     15  C   UNL A   1      32.218  28.597  25.649  1.00  0.00     0.254 A 
ATOM     16  N   UNL A   1      31.725  29.264  24.584  1.00  0.00    -0.216 NA
ATOM     17  N   UNL A   1      31.803  27.379  26.023  1.00  0.00    -0.175 NA
ATOM     18  C   UNL A   1      30.793  28.640  23.827  1.00  0.00     0.050 A 
ATOM     19  C   UNL A   1      30.467  29.339  22.539  1.00  0.00     0.067 C 
ATOM     20  C   UNL A   1      30.225  27.431  24.197  1.00  0.00     0.033 A 
ATOM     21  C   UNL A   1      29.140  26.769  23.407  1.00  0.00     0.052 C 
BRANCH  15  22
ATOM     22  N   UNL A   1      33.206  29.257  26.458  1.00  0.00    -0.203 N 
ATOM     23  C   UNL A   1      36.498  29.346  27.814  1.00  0.00     0.069 C 
ATOM     24  C   UNL A   1      35.099  29.605  27.394  1.00  0.00     0.060 A 
ATOM     25  C   UNL A   1      34.373  30.805  27.528  1.00  0.00     0.049 A 
ATOM     26  N   UNL A   1      34.362  28.636  26.840  1.00  0.00    -0.170 NA
ATOM     27  C   UNL A   1      33.149  30.557  26.948  1.00  0.00     0.045 A 
ATOM     28  C   UNL A   1      31.926  31.396  26.898  1.00  0.00     0.067 C 
ENDBRANCH  15  22
ENDBRANCH  13  14
ENDBRANCH   8  13
ENDBRANCH   5   7
ENDBRANCH   4   5
ENDBRANCH   3   4
ENDBRANCH   2   3
ENDBRANCH   1   2
BRANCH   1  29
ATOM     29  C   UNL A   1      37.552  22.765  25.712  1.00  0.00     0.202 C 
BRANCH  29  30
ATOM     30  C   UNL A   1      38.836  22.242  26.339  1.00  0.00     0.261 C 
BRANCH  30  31
ATOM     31  O   UNL A   1      39.456  23.228  27.136  1.00  0.00    -0.460 OA
BRANCH  31  32
ATOM     32  C   UNL A   1      40.798  23.214  27.070  1.00  0.00     0.338 C 
ATOM     33  O   UNL A   1      41.550  22.254  27.274  1.00  0.00    -0.246 OA
BRANCH  32  34
ATOM     34  C   UNL A   1      41.260  24.567  26.780  1.00  0.00     0.060 A 
ATOM     35  C   UNL A   1      42.529  24.897  27.251  1.00  0.00     0.016 A 
ATOM     36  C   UNL A   1      40.293  25.536  26.502  1.00  0.00     0.016 A 
ATOM     37  C   UNL A   1      42.650  26.103  27.897  1.00  0.00     0.010 A 
ATOM     38  C   UNL A   1      40.463  26.766  27.060  1.00  0.00     0.010 A 
ATOM     39  C   UNL A   1      41.531  26.936  27.936  1.00  0.00    -0.014 A 
BRANCH  39  40
ATOM     40  C   UNL A   1      41.498  28.087  28.812  1.00  0.00     0.031 A 
ATOM     41  C   UNL A   1      42.580  29.014  28.420  1.00  0.00     0.074 A 
ATOM     42  C   UNL A   1      40.520  28.293  29.725  1.00  0.00     0.049 A 
ATOM     43  N   UNL A   1      43.751  29.105  28.961  1.00  0.00    -0.248 NA
ATOM     44  C   UNL A   1      42.501  29.631  27.080  1.00  0.00     0.031 C 
ATOM     45  C   UNL A   1      39.309  27.510  30.009  1.00  0.00     0.029 A 
ATOM     46  N   UNL A   1      40.382  29.351  30.580  1.00  0.00    -0.354 N 
ATOM     47  C   UNL A   1      44.418  30.030  28.170  1.00  0.00     0.074 A 
ATOM     48  C   UNL A   1      43.766  30.006  26.894  1.00  0.00     0.031 C 
ATOM     49  C   UNL A   1      38.453  28.245  30.766  1.00  0.00     0.029 A 
ATOM     50  C   UNL A   1      39.097  29.491  31.137  1.00  0.00     0.049 A 
ATOM     51  H   UNL A   1      41.122  29.965  30.790  1.00  0.00     0.167 HD
ATOM     52  C   UNL A   1      45.157  31.023  28.733  1.00  0.00     0.037 A 
ATOM     53  C   UNL A   1      38.652  30.606  31.790  1.00  0.00     0.037 A 
ATOM     54  C   UNL A   1      45.448  30.716  30.111  1.00  0.00     0.049 A 
ATOM     55  C   UNL A   1      39.884  31.345  32.208  1.00  0.00     0.074 A 
ATOM     56  C   UNL A   1      46.124  29.694  30.746  1.00  0.00     0.029 A 
ATOM     57  N   UNL A   1      44.626  31.279  31.059  1.00  0.00    -0.354 N 
ATOM     58  N   UNL A   1      40.749  30.859  33.061  1.00  0.00    -0.248 NA
ATOM     59  C   UNL A   1      40.416  32.307  31.249  1.00  0.00     0.031 C 
ATOM     60  C   UNL A   1      45.342  29.393  31.899  1.00  0.00     0.029 A 
ATOM     61  C   UNL A   1      44.294  30.310  31.974  1.00  0.00     0.049 A 
ATOM     62  H   UNL A   1      44.326  32.217  31.079  1.00  0.00     0.167 HD
ATOM     63  C   UNL A   1      41.990  31.112  32.488  1.00  0.00     0.074 A 
ATOM     64  C   UNL A   1      41.715  32.017  31.370  1.00  0.00     0.031 C 
ATOM     65  C   UNL A   1      43.077  30.330  32.760  1.00  0.00     0.037 A 
BRANCH  52  66
ATOM     66  C   UNL A   1      45.236  32.423  28.172  1.00  0.00     0.058 A 
ATOM     67  C   UNL A   1      46.487  32.910  27.754  1.00  0.00     0.135 A 
ATOM     68  C   UNL A   1      44.203  33.391  28.245  1.00  0.00     0.135 A 
ATOM     69  F   UNL A   1      47.543  32.085  27.661  1.00  0.00    -0.206 F 
ATOM     70  C   UNL A   1      46.708  34.260  27.482  1.00  0.00     0.059 A 
ATOM     71  C   UNL A   1      44.387  34.727  27.922  1.00  0.00     0.059 A 
ATOM     72  F   UNL A   1      42.982  33.123  28.718  1.00  0.00    -0.206 F 
ATOM     73  C   UNL A   1      45.650  35.161  27.573  1.00  0.00     0.060 A 
BRANCH  73  74
ATOM     74  S   UNL A   1      45.945  36.910  27.283  1.00  0.00     0.124 S 
ATOM     75  O   UNL A   1      46.616  37.303  28.515  1.00  0.00    -0.237 OA
ATOM     76  O   UNL A   1      46.775  36.874  26.083  1.00  0.00    -0.237 OA
ATOM     77  O   UNL A   1      44.604  37.452  27.093  1.00  0.00    -0.744 OA
ENDBRANCH  73  74
ENDBRANCH  52  66
BRANCH  53  78
ATOM     78  C   UNL A   1      37.330  31.301  31.668  1.00  0.00     0.058 A 
ATOM     79  C   UNL A   1      36.515  31.568  32.792  1.00  0.00     0.135 A 
ATOM     80  C   UNL A   1      36.989  32.001  30.496  1.00  0.00     0.135 A 
ATOM     81  F   UNL A   1      36.765  30.961  33.963  1.00  0.00    -0.206 F 
ATOM     82  C   UNL A   1      35.471  32.511  32.765  1.00  0.00     0.059 A 
ATOM     83  C   UNL A   1      35.958  32.944  30.445  1.00  0.00     0.059 A 
ATOM     84  F   UNL A   1      37.717  31.863  29.378  1.00  0.00    -0.206 F 
ATOM     85  C   UNL A   1      35.219  33.217  31.591  1.00  0.00     0.060 A 
BRANCH  85  86
ATOM     86  S   UNL A   1      34.010  34.570  31.585  1.00  0.00     0.124 S 
ATOM     87  O   UNL A   1      34.843  35.727  31.893  1.00  0.00    -0.237 OA
ATOM     88  O   UNL A   1      33.483  34.507  30.226  1.00  0.00    -0.237 OA
ATOM     89  O   UNL A   1      33.068  34.185  32.633  1.00  0.00    -0.744 OA
ENDBRANCH  85  86
ENDBRANCH  53  78
BRANCH  65  90
ATOM     90  C   UNL A   1      42.971  29.297  33.858  1.00  0.00     0.058 A 
ATOM     91  C   UNL A   1      43.070  29.569  35.236  1.00  0.00     0.135 A 
ATOM     92  C   UNL A   1      42.564  28.007  33.493  1.00  0.00     0.135 A 
ATOM     93  F   UNL A   1      43.359  30.802  35.673  1.00  0.00    -0.206 F 
ATOM     94  C   UNL A   1      42.808  28.590  36.204  1.00  0.00     0.059 A 
ATOM     95  C   UNL A   1      42.270  27.027  34.436  1.00  0.00     0.059 A 
ATOM     96  F   UNL A   1      42.387  27.703  32.197  1.00  0.00    -0.206 F 
ATOM     97  C   UNL A   1      42.407  27.319  35.791  1.00  0.00     0.060 A 
BRANCH  97  98
ATOM     98  S   UNL A   1      42.028  26.056  37.027  1.00  0.00     0.124 S 
ATOM     99  O   UNL A   1      42.253  24.821  36.283  1.00  0.00    -0.237 OA
ATOM    100  O   UNL A   1      42.996  26.346  38.081  1.00  0.00    -0.237 OA
ATOM    101  O   UNL A   1      40.636  26.327  37.377  1.00  0.00    -0.744 OA
ENDBRANCH  97  98
ENDBRANCH  65  90
ENDBRANCH  39  40
ENDBRANCH  32  34
ENDBRANCH  31  32
ENDBRANCH  30  31
ENDBRANCH  29  30
ENDBRANCH   1  29
TORSDOF 20
ENDMDL
MODEL 2
REMARK VINA RESULT:     -11.0      4.421     10.993
REMARK SMILES Cc1cc(C)n(-c2nc(C)c(C)c(Oc3cccc(C(=O)OCCOCCOC(=O)c4ccc(-c5c6nc(c(-c7c(F)cc(S(=O)(=O)[O-])cc7F)c7ccc([nH]7)c(-c7c(F)cc(S(=O)(=O)[O-])cc7F)c7nc(c(-c8c(F)cc(S(=O)(=O)[O-])cc8F)c8ccc5[nH]8)C=C7)C=C6)cc4)c3)n2)n1
REMARK SMILES IDX 25 1 24 2 23 3 22 4 20 5 21 6 19 7 15 8 16 9 97 10 17 11
REMARK SMILES IDX 18 12 14 13 13 14 7 15 8 16 98 17 9 18 10 19 11 20 12 21
REMARK SMILES IDX 6 22 1 23 2 24 3 25 99 26 4 27 5 28 26 29 27 30 28 31 29 32
REMARK SMILES IDX 30 33 31 34 32 35 96 36 33 37 95 38 34 39 35 40 36 41 89 42
REMARK SMILES IDX 37 43 94 44 88 45 90 46 38 47 93 48 87 49 86 50 39 52 73 53
REMARK SMILES IDX 52 54 72 55 53 56 56 57 71 58 91 59 54 60 55 61 70 63 92 64
REMARK SMILES IDX 57 65 40 66 41 67 50 68 42 69 43 70 49 71 51 72 44 73 45 74
REMARK SMILES IDX 46 75 47 76 48 77 74 78 75 79 84 80 76 81 77 82 83 83 85 84
REMARK SMILES IDX 78 85 79 86 80 87 81 88 82 89 58 90 59 91 68 92 60 93 61 94
REMARK SMILES IDX 67 95 69 96 62 97 63 98 64 99 65 100 66 101
REMARK H PARENT 90 51 56 62
REMARK Flexibility Score: inf
ROOT
ATOM      1  O   UNL A   1      32.665  32.134  26.736  1.00  0.00    -0.374 OA
ENDROOT
BRANCH   1   2
ATOM      2  C   UNL A   1      32.327  33.165  27.664  1.00  0.00     0.202 C 
BRANCH   2   3
ATOM      3  C   UNL A   1      33.420  34.068  28.242  1.00  0.00     0.261 C 
BRANCH   3   4
ATOM      4  O   UNL A   1      33.719  33.792  29.617  1.00  0.00    -0.460 OA
BRANCH   4   5
ATOM      5  C   UNL A   1      35.004  34.049  29.964  1.00  0.00     0.338 C 
ATOM      6  O   UNL A   1      35.882  34.493  29.235  1.00  0.00    -0.246 OA
BRANCH   5   7
ATOM      7  C   UNL A   1      35.176  33.933  31.425  1.00  0.00     0.063 A 
ATOM      8  C   UNL A   1      36.360  34.393  33.463  1.00  0.00     0.130 A 
ATOM      9  C   UNL A   1      35.303  33.856  34.204  1.00  0.00     0.047 A 
ATOM     10  C   UNL A   1      36.337  34.358  32.066  1.00  0.00     0.062 A 
ATOM     11  C   UNL A   1      34.179  33.354  33.556  1.00  0.00     0.005 A 
ATOM     12  C   UNL A   1      34.103  33.422  32.168  1.00  0.00     0.016 A 
BRANCH   8  13
ATOM     13  O   UNL A   1      37.399  34.920  34.192  1.00  0.00    -0.439 OA
BRANCH  13  14
ATOM     14  C   UNL A   1      38.672  34.372  34.030  1.00  0.00     0.227 A 
ATOM     15  C   UNL A   1      40.589  34.150  32.809  1.00  0.00     0.254 A 
ATOM     16  N   UNL A   1      40.992  33.091  33.543  1.00  0.00    -0.216 NA
ATOM     17  N   UNL A   1      39.474  34.848  33.059  1.00  0.00    -0.175 NA
ATOM     18  C   UNL A   1      40.246  32.751  34.619  1.00  0.00     0.050 A 
ATOM     19  C   UNL A   1      40.875  31.723  35.514  1.00  0.00     0.067 C 
ATOM     20  C   UNL A   1      39.021  33.342  34.890  1.00  0.00     0.033 A 
ATOM     21  C   UNL A   1      38.153  32.921  36.034  1.00  0.00     0.052 C 
BRANCH  15  22
ATOM     22  N   UNL A   1      41.377  34.513  31.664  1.00  0.00    -0.203 N 
ATOM     23  C   UNL A   1      44.565  35.166  30.216  1.00  0.00     0.069 C 
ATOM     24  C   UNL A   1      43.129  34.937  30.509  1.00  0.00     0.060 A 
ATOM     25  C   UNL A   1      42.078  34.799  29.582  1.00  0.00     0.049 A 
ATOM     26  N   UNL A   1      42.692  34.868  31.772  1.00  0.00    -0.170 NA
ATOM     27  C   UNL A   1      40.954  34.555  30.340  1.00  0.00     0.045 A 
ATOM     28  C   UNL A   1      39.530  34.450  29.934  1.00  0.00     0.067 C 
ENDBRANCH  15  22
ENDBRANCH  13  14
ENDBRANCH   8  13
ENDBRANCH   5   7
ENDBRANCH   4   5
ENDBRANCH   3   4
ENDBRANCH   2   3
ENDBRANCH   1   2
BRANCH   1  29
ATOM     29  C   UNL A   1      32.732  30.769  27.138  1.00  0.00     0.202 C 
BRANCH  29  30
ATOM     30  C   UNL A   1      34.035  29.997  26.994  1.00  0.00     0.261 C 
BRANCH  30  31
ATOM     31  O   UNL A   1      34.749  29.961  28.212  1.00  0.00    -0.460 OA
BRANCH  31  32
ATOM     32  C   UNL A   1      35.751  30.852  28.279  1.00  0.00     0.338 C 
ATOM     33  O   UNL A   1      35.969  31.797  27.512  1.00  0.00    -0.246 OA
BRANCH  32  34
ATOM     34  C   UNL A   1      36.621  30.485  29.392  1.00  0.00     0.060 A 
ATOM     35  C   UNL A   1      37.540  31.450  29.798  1.00  0.00     0.016 A 
ATOM     36  C   UNL A   1      36.809  29.124  29.645  1.00  0.00     0.016 A 
ATOM     37  C   UNL A   1      38.830  31.025  29.997  1.00  0.00     0.010 A 
ATOM     38  C   UNL A   1      38.072  28.713  29.943  1.00  0.00     0.010 A 
ATOM     39  C   UNL A   1      39.090  29.658  29.881  1.00  0.00    -0.014 A 
BRANCH  39  40
ATOM     40  C   UNL A   1      40.451  29.169  29.815  1.00  0.00     0.031 A 
ATOM     41  C   UNL A   1      40.959  28.989  31.190  1.00  0.00     0.074 A 
ATOM     42  C   UNL A   1      41.053  28.813  28.655  1.00  0.00     0.049 A 
ATOM     43  N   UNL A   1      41.688  29.822  31.859  1.00  0.00    -0.248 NA
ATOM     44  C   UNL A   1      40.297  27.975  32.037  1.00  0.00     0.031 C 
ATOM     45  C   UNL A   1      40.521  28.774  27.285  1.00  0.00     0.029 A 
ATOM     46  N   UNL A   1      42.316  28.321  28.484  1.00  0.00    -0.354 N 
ATOM     47  C   UNL A   1      41.799  29.242  33.115  1.00  0.00     0.074 A 
ATOM     48  C   UNL A   1      40.668  28.375  33.253  1.00  0.00     0.031 C 
ATOM     49  C   UNL A   1      41.352  28.052  26.490  1.00  0.00     0.029 A 
ATOM     50  C   UNL A   1      42.538  27.692  27.245  1.00  0.00     0.049 A 
ATOM     51  H   UNL A   1      43.016  28.401  29.172  1.00  0.00     0.167 HD
ATOM     52  C   UNL A   1      42.998  29.192  33.755  1.00  0.00     0.037 A 
ATOM     53  C   UNL A   1      43.614  26.900  26.958  1.00  0.00     0.037 A 
ATOM     54  C   UNL A   1      43.924  30.125  33.164  1.00  0.00     0.049 A 
ATOM     55  C   UNL A   1      44.658  27.261  27.968  1.00  0.00     0.074 A 
ATOM     56  C   UNL A   1      43.937  31.496  33.002  1.00  0.00     0.029 A 
ATOM     57  N   UNL A   1      44.805  29.621  32.236  1.00  0.00    -0.354 N 
ATOM     58  N   UNL A   1      45.205  28.447  28.031  1.00  0.00    -0.248 NA
ATOM     59  C   UNL A   1      44.633  26.510  29.218  1.00  0.00     0.031 C 
ATOM     60  C   UNL A   1      44.455  31.709  31.691  1.00  0.00     0.029 A 
ATOM     61  C   UNL A   1      44.837  30.477  31.161  1.00  0.00     0.049 A 
ATOM     62  H   UNL A   1      45.324  28.789  32.325  1.00  0.00     0.167 HD
ATOM     63  C   UNL A   1      45.200  28.766  29.384  1.00  0.00     0.074 A 
ATOM     64  C   UNL A   1      44.839  27.522  30.066  1.00  0.00     0.031 C 
ATOM     65  C   UNL A   1      45.175  30.063  29.815  1.00  0.00     0.037 A 
BRANCH  52  66
ATOM     66  C   UNL A   1      43.441  28.025  34.604  1.00  0.00     0.058 A 
ATOM     67  C   UNL A   1      43.828  28.268  35.933  1.00  0.00     0.135 A 
ATOM     68  C   UNL A   1      43.733  26.726  34.115  1.00  0.00     0.135 A 
ATOM     69  F   UNL A   1      43.614  29.468  36.496  1.00  0.00    -0.206 F 
ATOM     70  C   UNL A   1      44.501  27.316  36.699  1.00  0.00     0.059 A 
ATOM     71  C   UNL A   1      44.348  25.746  34.879  1.00  0.00     0.059 A 
ATOM     72  F   UNL A   1      43.526  26.358  32.847  1.00  0.00    -0.206 F 
ATOM     73  C   UNL A   1      44.759  26.058  36.160  1.00  0.00     0.060 A 
BRANCH  73  74
ATOM     74  S   UNL A   1      45.678  24.851  37.123  1.00  0.00     0.124 S 
ATOM     75  O   UNL A   1      45.866  23.781  36.150  1.00  0.00    -0.237 OA
ATOM     76  O   UNL A   1      46.872  25.608  37.484  1.00  0.00    -0.237 OA
ATOM     77  O   UNL A   1      44.779  24.546  38.230  1.00  0.00    -0.744 OA
ENDBRANCH  73  74
ENDBRANCH  52  66
BRANCH  53  78
ATOM     78  C   UNL A   1      43.648  25.587  26.237  1.00  0.00     0.058 A 
ATOM     79  C   UNL A   1      44.622  25.295  25.254  1.00  0.00     0.135 A 
ATOM     80  C   UNL A   1      42.930  24.478  26.722  1.00  0.00     0.135 A 
ATOM     81  F   UNL A   1      45.372  26.281  24.737  1.00  0.00    -0.206 F 
ATOM     82  C   UNL A   1      44.902  23.983  24.829  1.00  0.00     0.059 A 
ATOM     83  C   UNL A   1      43.190  23.166  26.316  1.00  0.00     0.059 A 
ATOM     84  F   UNL A   1      42.011  24.626  27.687  1.00  0.00    -0.206 F 
ATOM     85  C   UNL A   1      44.197  22.919  25.390  1.00  0.00     0.060 A 
BRANCH  85  86
ATOM     86  S   UNL A   1      44.669  21.211  25.002  1.00  0.00     0.124 S 
ATOM     87  O   UNL A   1      44.579  21.191  23.547  1.00  0.00    -0.237 OA
ATOM     88  O   UNL A   1      46.016  21.128  25.559  1.00  0.00    -0.237 OA
ATOM     89  O   UNL A   1      43.661  20.415  25.699  1.00  0.00    -0.744 OA
ENDBRANCH  85  86
ENDBRANCH  53  78
BRANCH  65  90
ATOM     90  C   UNL A   1      45.357  31.167  28.800  1.00  0.00     0.058 A 
ATOM     91  C   UNL A   1      44.313  31.813  28.110  1.00  0.00     0.135 A 
ATOM     92  C   UNL A   1      46.640  31.716  28.666  1.00  0.00     0.135 A 
ATOM     93  F   UNL A   1      43.043  31.412  28.258  1.00  0.00    -0.206 F 
ATOM     94  C   UNL A   1      44.542  32.931  27.299  1.00  0.00     0.059 A 
ATOM     95  C   UNL A   1      46.888  32.844  27.891  1.00  0.00     0.059 A 
ATOM     96  F   UNL A   1      47.667  31.188  29.350  1.00  0.00    -0.206 F 
ATOM     97  C   UNL A   1      45.837  33.441  27.197  1.00  0.00     0.060 A 
BRANCH  97  98
ATOM     98  S   UNL A   1      46.144  34.906  26.185  1.00  0.00     0.124 S 
ATOM     99  O   UNL A   1      45.978  34.386  24.832  1.00  0.00    -0.237 OA
ATOM    100  O   UNL A   1      45.108  35.828  26.642  1.00  0.00    -0.237 OA
ATOM    101  O   UNL A   1      47.509  35.288  26.541  1.00  0.00    -0.744 OA
ENDBRANCH  97  98
ENDBRANCH  65  90
ENDBRANCH  39  40
ENDBRANCH  32  34
ENDBRANCH  31  32
ENDBRANCH  30  31
ENDBRANCH  29  30
ENDBRANCH   1  29
TORSDOF 20
ENDMDL
MODEL 3
REMARK VINA RESULT:     -10.9      3.244      7.633
REMARK SMILES Cc1cc(C)n(-c2nc(C)c(C)c(Oc3cccc(C(=O)OCCOCCOC(=O)c4ccc(-c5c6nc(c(-c7c(F)cc(S(=O)(=O)[O-])cc7F)c7ccc([nH]7)c(-c7c(F)cc(S(=O)(=O)[O-])cc7F)c7nc(c(-c8c(F)cc(S(=O)(=O)[O-])cc8F)c8ccc5[nH]8)C=C7)C=C6)cc4)c3)n2)n1
REMARK SMILES IDX 25 1 24 2 23 3 22 4 20 5 21 6 19 7 15 8 16 9 97 10 17 11
REMARK SMILES IDX 18 12 14 13 13 14 7 15 8 16 98 17 9 18 10 19 11 20 12 21
REMARK SMILES IDX 6 22 1 23 2 24 3 25 99 26 4 27 5 28 26 29 27 30 28 31 29 32
REMARK SMILES IDX 30 33 31 34 32 35 96 36 33 37 95 38 34 39 35 40 36 41 89 42
REMARK SMILES IDX 37 43 94 44 88 45 90 46 38 47 93 48 87 49 86 50 39 52 73 53
REMARK SMILES IDX 52 54 72 55 53 56 56 57 71 58 91 59 54 60 55 61 70 63 92 64
REMARK SMILES IDX 57 65 40 66 41 67 50 68 42 69 43 70 49 71 51 72 44 73 45 74
REMARK SMILES IDX 46 75 47 76 48 77 74 78 75 79 84 80 76 81 77 82 83 83 85 84
REMARK SMILES IDX 78 85 79 86 80 87 81 88 82 89 58 90 59 91 68 92 60 93 61 94
REMARK SMILES IDX 67 95 69 96 62 97 63 98 64 99 65 100 66 101
REMARK H PARENT 90 51 56 62
REMARK Flexibility Score: inf
ROOT
ATOM      1  O   UNL A   1      35.029  22.410  25.171  1.00  0.00    -0.374 OA
ENDROOT
BRANCH   1   2
ATOM      2  C   UNL A   1      34.679  21.027  25.132  1.00  0.00     0.202 C 
BRANCH   2   3
ATOM      3  C   UNL A   1      33.370  20.546  25.763  1.00  0.00     0.261 C 
BRANCH   3   4
ATOM      4  O   UNL A   1      32.204  21.130  25.168  1.00  0.00    -0.460 OA
BRANCH   4   5
ATOM      5  C   UNL A   1      31.809  22.289  25.750  1.00  0.00     0.338 C 
ATOM      6  O   UNL A   1      31.886  22.572  26.940  1.00  0.00    -0.246 OA
BRANCH   5   7
ATOM      7  C   UNL A   1      31.462  23.290  24.723  1.00  0.00     0.063 A 
ATOM      8  C   UNL A   1      30.293  25.255  23.988  1.00  0.00     0.130 A 
ATOM      9  C   UNL A   1      31.037  25.260  22.804  1.00  0.00     0.047 A 
ATOM     10  C   UNL A   1      30.444  24.220  24.916  1.00  0.00     0.062 A 
ATOM     11  C   UNL A   1      31.995  24.278  22.576  1.00  0.00     0.005 A 
ATOM     12  C   UNL A   1      32.230  23.311  23.551  1.00  0.00     0.016 A 
BRANCH   8  13
ATOM     13  O   UNL A   1      29.414  26.299  24.151  1.00  0.00    -0.439 OA
BRANCH  13  14
ATOM     14  C   UNL A   1      29.918  27.601  24.147  1.00  0.00     0.227 A 
ATOM     15  C   UNL A   1      31.413  29.145  24.915  1.00  0.00     0.254 A 
ATOM     16  N   UNL A   1      30.704  30.166  24.389  1.00  0.00    -0.216 NA
ATOM     17  N   UNL A   1      31.086  27.855  24.764  1.00  0.00    -0.175 NA
ATOM     18  C   UNL A   1      29.629  29.858  23.627  1.00  0.00     0.050 A 
ATOM     19  C   UNL A   1      29.035  31.022  22.889  1.00  0.00     0.067 C 
ATOM     20  C   UNL A   1      29.151  28.562  23.506  1.00  0.00     0.033 A 
ATOM     21  C   UNL A   1      27.920  28.221  22.727  1.00  0.00     0.052 C 
BRANCH  15  22
ATOM     22  N   UNL A   1      32.553  29.467  25.728  1.00  0.00    -0.203 N 
ATOM     23  C   UNL A   1      34.129  31.624  28.084  1.00  0.00     0.069 C 
ATOM     24  C   UNL A   1      33.745  30.544  27.144  1.00  0.00     0.060 A 
ATOM     25  C   UNL A   1      34.394  29.309  26.950  1.00  0.00     0.049 A 
ATOM     26  N   UNL A   1      32.690  30.685  26.334  1.00  0.00    -0.170 NA
ATOM     27  C   UNL A   1      33.633  28.640  26.017  1.00  0.00     0.045 A 
ATOM     28  C   UNL A   1      33.883  27.352  25.323  1.00  0.00     0.067 C 
ENDBRANCH  15  22
ENDBRANCH  13  14
ENDBRANCH   8  13
ENDBRANCH   5   7
ENDBRANCH   4   5
ENDBRANCH   3   4
ENDBRANCH   2   3
ENDBRANCH   1   2
BRANCH   1  29
ATOM     29  C   UNL A   1      36.355  22.831  25.476  1.00  0.00     0.202 C 
BRANCH  29  30
ATOM     30  C   UNL A   1      37.543  22.026  24.972  1.00  0.00     0.261 C 
BRANCH  30  31
ATOM     31  O   UNL A   1      38.591  22.011  25.919  1.00  0.00    -0.460 OA
BRANCH  31  32
ATOM     32  C   UNL A   1      39.339  20.896  25.881  1.00  0.00     0.338 C 
ATOM     33  O   UNL A   1      38.988  19.768  25.515  1.00  0.00    -0.246 OA
BRANCH  32  34
ATOM     34  C   UNL A   1      40.657  21.206  26.424  1.00  0.00     0.060 A 
ATOM     35  C   UNL A   1      40.831  20.976  27.787  1.00  0.00     0.016 A 
ATOM     36  C   UNL A   1      41.456  22.105  25.712  1.00  0.00     0.016 A 
ATOM     37  C   UNL A   1      41.437  21.976  28.506  1.00  0.00     0.010 A 
ATOM     38  C   UNL A   1      42.140  23.037  26.432  1.00  0.00     0.010 A 
ATOM     39  C   UNL A   1      41.920  23.082  27.805  1.00  0.00    -0.014 A 
BRANCH  39  40
ATOM     40  C   UNL A   1      42.327  24.281  28.506  1.00  0.00     0.031 A 
ATOM     41  C   UNL A   1      41.303  25.325  28.297  1.00  0.00     0.074 A 
ATOM     42  C   UNL A   1      43.405  24.329  29.323  1.00  0.00     0.049 A 
ATOM     43  N   UNL A   1      41.337  26.276  27.421  1.00  0.00    -0.248 NA
ATOM     44  C   UNL A   1      39.952  25.078  28.845  1.00  0.00     0.031 C 
ATOM     45  C   UNL A   1      44.333  23.264  29.730  1.00  0.00     0.029 A 
ATOM     46  N   UNL A   1      43.861  25.395  30.046  1.00  0.00    -0.354 N 
ATOM     47  C   UNL A   1      40.108  26.906  27.557  1.00  0.00     0.074 A 
ATOM     48  C   UNL A   1      39.224  25.934  28.128  1.00  0.00     0.031 C 
ATOM     49  C   UNL A   1      45.059  23.672  30.803  1.00  0.00     0.029 A 
ATOM     50  C   UNL A   1      44.755  25.064  31.081  1.00  0.00     0.049 A 
ATOM     51  H   UNL A   1      43.586  26.322  29.858  1.00  0.00     0.167 HD
ATOM     52  C   UNL A   1      40.021  28.263  27.588  1.00  0.00     0.037 A 
ATOM     53  C   UNL A   1      45.122  25.909  32.090  1.00  0.00     0.037 A 
ATOM     54  C   UNL A   1      41.229  28.857  27.073  1.00  0.00     0.049 A 
ATOM     55  C   UNL A   1      44.817  27.286  31.590  1.00  0.00     0.074 A 
ATOM     56  C   UNL A   1      41.882  28.810  25.858  1.00  0.00     0.029 A 
ATOM     57  N   UNL A   1      42.167  29.255  27.997  1.00  0.00    -0.354 N 
ATOM     58  N   UNL A   1      45.422  27.818  30.559  1.00  0.00    -0.248 NA
ATOM     59  C   UNL A   1      43.476  27.790  31.865  1.00  0.00     0.031 C 
ATOM     60  C   UNL A   1      43.267  28.723  26.185  1.00  0.00     0.029 A 
ATOM     61  C   UNL A   1      43.402  28.833  27.568  1.00  0.00     0.049 A 
ATOM     62  H   UNL A   1      41.985  29.756  28.825  1.00  0.00     0.167 HD
ATOM     63  C   UNL A   1      44.401  28.392  29.810  1.00  0.00     0.074 A 
ATOM     64  C   UNL A   1      43.221  28.346  30.676  1.00  0.00     0.031 C 
ATOM     65  C   UNL A   1      44.513  28.562  28.459  1.00  0.00     0.037 A 
BRANCH  52  66
ATOM     66  C   UNL A   1      39.046  29.015  28.460  1.00  0.00     0.058 A 
ATOM     67  C   UNL A   1      38.214  29.978  27.864  1.00  0.00     0.135 A 
ATOM     68  C   UNL A   1      39.051  29.014  29.878  1.00  0.00     0.135 A 
ATOM     69  F   UNL A   1      38.140  30.080  26.527  1.00  0.00    -0.206 F 
ATOM     70  C   UNL A   1      37.487  30.903  28.614  1.00  0.00     0.059 A 
ATOM     71  C   UNL A   1      38.290  29.886  30.643  1.00  0.00     0.059 A 
ATOM     72  F   UNL A   1      39.858  28.236  30.606  1.00  0.00    -0.206 F 
ATOM     73  C   UNL A   1      37.536  30.849  30.004  1.00  0.00     0.060 A 
BRANCH  73  74
ATOM     74  S   UNL A   1      36.648  32.076  30.973  1.00  0.00     0.124 S 
ATOM     75  O   UNL A   1      35.422  31.360  31.301  1.00  0.00    -0.237 OA
ATOM     76  O   UNL A   1      37.574  32.307  32.077  1.00  0.00    -0.237 OA
ATOM     77  O   UNL A   1      36.498  33.193  30.046  1.00  0.00    -0.744 OA
ENDBRANCH  73  74
ENDBRANCH  52  66
BRANCH  53  78
ATOM     78  C   UNL A   1      45.252  25.623  33.556  1.00  0.00     0.058 A 
ATOM     79  C   UNL A   1      46.210  26.275  34.366  1.00  0.00     0.135 A 
ATOM     80  C   UNL A   1      44.234  24.945  34.251  1.00  0.00     0.135 A 
ATOM     81  F   UNL A   1      47.214  26.962  33.800  1.00  0.00    -0.206 F 
ATOM     82  C   UNL A   1      46.123  26.301  35.770  1.00  0.00     0.059 A 
ATOM     83  C   UNL A   1      44.126  24.958  35.645  1.00  0.00     0.059 A 
ATOM     84  F   UNL A   1      43.246  24.326  33.589  1.00  0.00    -0.206 F 
ATOM     85  C   UNL A   1      45.057  25.661  36.400  1.00  0.00     0.060 A 
BRANCH  85  86
ATOM     86  S   UNL A   1      44.818  25.841  38.190  1.00  0.00     0.124 S 
ATOM     87  O   UNL A   1      45.135  24.504  38.677  1.00  0.00    -0.237 OA
ATOM     88  O   UNL A   1      45.779  26.887  38.526  1.00  0.00    -0.237 OA
ATOM     89  O   UNL A   1      43.414  26.229  38.306  1.00  0.00    -0.744 OA
ENDBRANCH  85  86
ENDBRANCH  53  78
BRANCH  65  90
ATOM     90  C   UNL A   1      45.850  28.304  27.804  1.00  0.00     0.058 A 
ATOM     91  C   UNL A   1      46.266  27.067  27.274  1.00  0.00     0.135 A 
ATOM     92  C   UNL A   1      46.664  29.414  27.539  1.00  0.00     0.135 A 
ATOM     93  F   UNL A   1      45.500  25.975  27.399  1.00  0.00    -0.206 F 
ATOM     94  C   UNL A   1      47.455  26.937  26.545  1.00  0.00     0.059 A 
ATOM     95  C   UNL A   1      47.833  29.315  26.792  1.00  0.00     0.059 A 
ATOM     96  F   UNL A   1      46.290  30.633  27.959  1.00  0.00    -0.206 F 
ATOM     97  C   UNL A   1      48.232  28.071  26.308  1.00  0.00     0.060 A 
BRANCH  97  98
ATOM     98  S   UNL A   1      49.749  27.928  25.336  1.00  0.00     0.124 S 
ATOM     99  O   UNL A   1      50.299  26.662  25.810  1.00  0.00    -0.237 OA
ATOM    100  O   UNL A   1      49.247  27.927  23.965  1.00  0.00    -0.237 OA
ATOM    101  O   UNL A   1      50.510  29.117  25.713  1.00  0.00    -0.744 OA
ENDBRANCH  97  98
ENDBRANCH  65  90
ENDBRANCH  39  40
ENDBRANCH  32  34
ENDBRANCH  31  32
ENDBRANCH  30  31
ENDBRANCH  29  30
ENDBRANCH   1  29
TORSDOF 20
ENDMDL
