MODEL 1
REMARK VINA RESULT:     -10.9      0.000      0.000
REMARK SMILES O=C(OCCOCCOC(=O)c1cc(Br)ccc1OC(=O)c1ccc(F)cc1)c1ccc(-c2c3nc(c(-c4c(F)cc(S(=O)(=O)[O-])cc4F)c4ccc([nH]4)c(-c4c(F)cc(S(=O)(=O)[O-])cc4F)c4nc(c(-c5c(F)cc(S(=O)(=O)[O-])cc5F)c5ccc2[nH]5)C=C4)C=C3)cc1
REMARK SMILES IDX 6 1 5 2 4 3 3 4 2 5 1 6 29 7 30 8 94 9 31 10 93 11 32 12
REMARK SMILES IDX 33 13 34 14 87 15 35 16 92 17 86 18 88 19 36 20 91 21 85 22
REMARK SMILES IDX 84 23 37 25 71 26 50 27 70 28 51 29 54 30 69 31 89 32 52 33
REMARK SMILES IDX 53 34 68 36 90 37 55 38 38 39 39 40 48 41 40 42 41 43 47 44
REMARK SMILES IDX 49 45 42 46 43 47 44 48 45 49 46 50 72 51 73 52 82 53 74 54
REMARK SMILES IDX 75 55 81 56 83 57 76 58 77 59 78 60 79 61 80 62 56 63 57 64
REMARK SMILES IDX 66 65 58 66 59 67 65 68 67 69 60 70 61 71 62 72 63 73 64 74
REMARK SMILES IDX 7 75 8 76 9 77 10 78 11 79 12 80 13 81 18 82 14 83 17 84
REMARK SMILES IDX 15 85 16 86 19 87 20 88 21 89 22 90 23 91 28 92 24 93 27 94
REMARK SMILES IDX 25 95 26 96
REMARK H PARENT 88 24 54 35
REMARK Flexibility Score: inf
ROOT
ATOM      1  O   UNL A   1      37.431  22.328  24.427  1.00  0.00    -0.374 OA
ENDROOT
BRANCH   1   2
ATOM      2  C   UNL A   1      37.436  22.908  25.726  1.00  0.00     0.202 C 
BRANCH   2   3
ATOM      3  C   UNL A   1      38.875  23.079  26.218  1.00  0.00     0.261 C 
BRANCH   3   4
ATOM      4  O   UNL A   1      39.285  24.447  26.062  1.00  0.00    -0.460 OA
BRANCH   4   5
ATOM      5  C   UNL A   1      40.411  24.971  26.615  1.00  0.00     0.338 C 
ATOM      6  O   UNL A   1      41.499  24.793  26.074  1.00  0.00    -0.246 OA
BRANCH   5   7
ATOM      7  C   UNL A   1      40.325  25.941  27.743  1.00  0.00     0.060 A 
ATOM      8  C   UNL A   1      39.376  25.884  28.765  1.00  0.00     0.016 A 
ATOM      9  C   UNL A   1      41.342  26.900  27.832  1.00  0.00     0.016 A 
ATOM     10  C   UNL A   1      39.390  26.795  29.813  1.00  0.00     0.010 A 
ATOM     11  C   UNL A   1      41.396  27.782  28.917  1.00  0.00     0.010 A 
ATOM     12  C   UNL A   1      40.408  27.743  29.910  1.00  0.00    -0.014 A 
BRANCH  12  13
ATOM     13  C   UNL A   1      40.385  28.705  31.035  1.00  0.00     0.031 A 
ATOM     14  C   UNL A   1      39.378  29.816  31.024  1.00  0.00     0.074 A 
ATOM     15  C   UNL A   1      41.193  28.515  32.097  1.00  0.00     0.049 A 
ATOM     16  N   UNL A   1      39.238  30.813  31.855  1.00  0.00    -0.248 NA
ATOM     17  C   UNL A   1      38.396  29.805  29.926  1.00  0.00     0.031 C 
ATOM     18  C   UNL A   1      42.136  27.403  32.249  1.00  0.00     0.029 A 
ATOM     19  N   UNL A   1      41.328  29.221  33.265  1.00  0.00    -0.354 N 
ATOM     20  C   UNL A   1      38.174  31.562  31.368  1.00  0.00     0.074 A 
ATOM     21  C   UNL A   1      37.714  30.915  30.160  1.00  0.00     0.031 C 
ATOM     22  C   UNL A   1      42.705  27.468  33.463  1.00  0.00     0.029 A 
ATOM     23  C   UNL A   1      42.240  28.674  34.138  1.00  0.00     0.049 A 
ATOM     24  H   UNL A   1      40.821  30.041  33.460  1.00  0.00     0.167 HD
ATOM     25  C   UNL A   1      37.639  32.692  31.886  1.00  0.00     0.037 A 
ATOM     26  C   UNL A   1      42.675  29.116  35.334  1.00  0.00     0.037 A 
ATOM     27  C   UNL A   1      38.117  33.309  33.095  1.00  0.00     0.049 A 
ATOM     28  C   UNL A   1      42.123  30.415  35.851  1.00  0.00     0.074 A 
ATOM     29  C   UNL A   1      37.716  34.499  33.675  1.00  0.00     0.029 A 
ATOM     30  N   UNL A   1      39.099  32.770  33.917  1.00  0.00    -0.354 N 
ATOM     31  N   UNL A   1      41.197  31.181  35.323  1.00  0.00    -0.248 NA
ATOM     32  C   UNL A   1      42.692  30.930  37.103  1.00  0.00     0.031 C 
ATOM     33  C   UNL A   1      38.484  34.696  34.828  1.00  0.00     0.029 A 
ATOM     34  C   UNL A   1      39.328  33.607  34.994  1.00  0.00     0.049 A 
ATOM     35  H   UNL A   1      39.564  31.918  33.756  1.00  0.00     0.167 HD
ATOM     36  C   UNL A   1      41.068  32.269  36.176  1.00  0.00     0.074 A 
ATOM     37  C   UNL A   1      41.999  32.051  37.268  1.00  0.00     0.031 C 
ATOM     38  C   UNL A   1      40.264  33.356  36.064  1.00  0.00     0.037 A 
BRANCH  25  39
ATOM     39  C   UNL A   1      36.531  33.346  31.108  1.00  0.00     0.058 A 
ATOM     40  C   UNL A   1      35.198  33.216  31.531  1.00  0.00     0.135 A 
ATOM     41  C   UNL A   1      36.781  34.127  29.968  1.00  0.00     0.135 A 
ATOM     42  F   UNL A   1      34.901  32.494  32.622  1.00  0.00    -0.206 F 
ATOM     43  C   UNL A   1      34.155  33.842  30.856  1.00  0.00     0.059 A 
ATOM     44  C   UNL A   1      35.755  34.782  29.291  1.00  0.00     0.059 A 
ATOM     45  F   UNL A   1      38.041  34.311  29.539  1.00  0.00    -0.206 F 
ATOM     46  C   UNL A   1      34.444  34.630  29.741  1.00  0.00     0.060 A 
BRANCH  46  47
ATOM     47  S   UNL A   1      33.088  35.508  28.933  1.00  0.00     0.124 S 
ATOM     48  O   UNL A   1      32.445  34.439  28.178  1.00  0.00    -0.237 OA
ATOM     49  O   UNL A   1      32.335  36.027  30.071  1.00  0.00    -0.237 OA
ATOM     50  O   UNL A   1      33.771  36.522  28.134  1.00  0.00    -0.744 OA
ENDBRANCH  46  47
ENDBRANCH  25  39
BRANCH  26  51
ATOM     51  C   UNL A   1      43.698  28.338  36.088  1.00  0.00     0.058 A 
ATOM     52  C   UNL A   1      45.068  28.625  35.965  1.00  0.00     0.135 A 
ATOM     53  C   UNL A   1      43.335  27.252  36.900  1.00  0.00     0.135 A 
ATOM     54  F   UNL A   1      45.474  29.653  35.204  1.00  0.00    -0.206 F 
ATOM     55  C   UNL A   1      46.040  27.840  36.575  1.00  0.00     0.059 A 
ATOM     56  C   UNL A   1      44.289  26.467  37.546  1.00  0.00     0.059 A 
ATOM     57  F   UNL A   1      42.041  26.947  37.070  1.00  0.00    -0.206 F 
ATOM     58  C   UNL A   1      45.641  26.756  37.357  1.00  0.00     0.060 A 
BRANCH  58  59
ATOM     59  S   UNL A   1      46.922  25.729  38.112  1.00  0.00     0.124 S 
ATOM     60  O   UNL A   1      48.094  26.591  37.996  1.00  0.00    -0.237 OA
ATOM     61  O   UNL A   1      46.406  25.539  39.464  1.00  0.00    -0.237 OA
ATOM     62  O   UNL A   1      46.935  24.535  37.275  1.00  0.00    -0.744 OA
ENDBRANCH  58  59
ENDBRANCH  26  51
BRANCH  38  63
ATOM     63  C   UNL A   1      40.344  34.385  37.154  1.00  0.00     0.058 A 
ATOM     64  C   UNL A   1      39.460  34.334  38.243  1.00  0.00     0.135 A 
ATOM     65  C   UNL A   1      41.238  35.465  37.078  1.00  0.00     0.135 A 
ATOM     66  F   UNL A   1      38.583  33.323  38.356  1.00  0.00    -0.206 F 
ATOM     67  C   UNL A   1      39.445  35.331  39.210  1.00  0.00     0.059 A 
ATOM     68  C   UNL A   1      41.256  36.460  38.049  1.00  0.00     0.059 A 
ATOM     69  F   UNL A   1      42.109  35.550  36.061  1.00  0.00    -0.206 F 
ATOM     70  C   UNL A   1      40.343  36.393  39.101  1.00  0.00     0.060 A 
BRANCH  70  71
ATOM     71  S   UNL A   1      40.314  37.676  40.370  1.00  0.00     0.124 S 
ATOM     72  O   UNL A   1      39.940  36.912  41.555  1.00  0.00    -0.237 OA
ATOM     73  O   UNL A   1      41.685  38.172  40.340  1.00  0.00    -0.237 OA
ATOM     74  O   UNL A   1      39.305  38.612  39.882  1.00  0.00    -0.744 OA
ENDBRANCH  70  71
ENDBRANCH  38  63
ENDBRANCH  12  13
ENDBRANCH   5   7
ENDBRANCH   4   5
ENDBRANCH   3   4
ENDBRANCH   2   3
ENDBRANCH   1   2
BRANCH   1  75
ATOM     75  C   UNL A   1      36.605  22.946  23.450  1.00  0.00     0.202 C 
BRANCH  75  76
ATOM     76  C   UNL A   1      35.461  23.707  24.117  1.00  0.00     0.261 C 
BRANCH  76  77
ATOM     77  O   UNL A   1      34.634  24.308  23.109  1.00  0.00    -0.460 OA
BRANCH  77  78
ATOM     78  C   UNL A   1      33.681  23.510  22.556  1.00  0.00     0.342 C 
ATOM     79  O   UNL A   1      33.730  22.938  21.483  1.00  0.00    -0.246 OA
BRANCH  78  80
ATOM     80  C   UNL A   1      32.636  23.295  23.584  1.00  0.00     0.103 A 
ATOM     81  C   UNL A   1      31.913  24.391  24.080  1.00  0.00     0.035 A 
ATOM     82  C   UNL A   1      32.449  22.031  24.159  1.00  0.00     0.145 A 
ATOM     83  C   UNL A   1      31.062  24.223  25.170  1.00  0.00     0.019 A 
ATOM     84  C   UNL A   1      31.595  21.868  25.253  1.00  0.00     0.049 A 
ATOM     85  Br  UNL A   1      30.165  25.724  25.890  1.00  0.00    -0.051 Br
ATOM     86  C   UNL A   1      30.902  22.969  25.761  1.00  0.00     0.019 A 
BRANCH  82  87
ATOM     87  O   UNL A   1      33.270  20.945  23.810  1.00  0.00    -0.422 OA
BRANCH  87  88
ATOM     88  C   UNL A   1      33.917  20.314  24.860  1.00  0.00     0.343 C 
ATOM     89  O   UNL A   1      34.704  20.827  25.640  1.00  0.00    -0.246 OA
BRANCH  88  90
ATOM     90  C   UNL A   1      33.621  18.850  24.803  1.00  0.00     0.060 A 
ATOM     91  C   UNL A   1      32.681  18.322  25.700  1.00  0.00     0.019 A 
ATOM     92  C   UNL A   1      34.274  17.987  23.910  1.00  0.00     0.019 A 
ATOM     93  C   UNL A   1      32.418  16.947  25.719  1.00  0.00     0.040 A 
ATOM     94  C   UNL A   1      34.015  16.612  23.936  1.00  0.00     0.040 A 
ATOM     95  C   UNL A   1      33.090  16.105  24.840  1.00  0.00     0.123 A 
ATOM     96  F   UNL A   1      32.853  14.790  24.869  1.00  0.00    -0.207 F 
ENDBRANCH  88  90
ENDBRANCH  87  88
ENDBRANCH  82  87
ENDBRANCH  78  80
ENDBRANCH  77  78
ENDBRANCH  76  77
ENDBRANCH  75  76
ENDBRANCH   1  75
TORSDOF 20
ENDMDL
MODEL 2
REMARK VINA RESULT:     -10.9      2.086      3.693
REMARK SMILES O=C(OCCOCCOC(=O)c1cc(Br)ccc1OC(=O)c1ccc(F)cc1)c1ccc(-c2c3nc(c(-c4c(F)cc(S(=O)(=O)[O-])cc4F)c4ccc([nH]4)c(-c4c(F)cc(S(=O)(=O)[O-])cc4F)c4nc(c(-c5c(F)cc(S(=O)(=O)[O-])cc5F)c5ccc2[nH]5)C=C4)C=C3)cc1
REMARK SMILES IDX 6 1 5 2 4 3 3 4 2 5 1 6 29 7 30 8 94 9 31 10 93 11 32 12
REMARK SMILES IDX 33 13 34 14 87 15 35 16 92 17 86 18 88 19 36 20 91 21 85 22
REMARK SMILES IDX 84 23 37 25 71 26 50 27 70 28 51 29 54 30 69 31 89 32 52 33
REMARK SMILES IDX 53 34 68 36 90 37 55 38 38 39 39 40 48 41 40 42 41 43 47 44
REMARK SMILES IDX 49 45 42 46 43 47 44 48 45 49 46 50 72 51 73 52 82 53 74 54
REMARK SMILES IDX 75 55 81 56 83 57 76 58 77 59 78 60 79 61 80 62 56 63 57 64
REMARK SMILES IDX 66 65 58 66 59 67 65 68 67 69 60 70 61 71 62 72 63 73 64 74
REMARK SMILES IDX 7 75 8 76 9 77 10 78 11 79 12 80 13 81 18 82 14 83 17 84
REMARK SMILES IDX 15 85 16 86 19 87 20 88 21 89 22 90 23 91 28 92 24 93 27 94
REMARK SMILES IDX 25 95 26 96
REMARK H PARENT 88 24 54 35
REMARK Flexibility Score: inf
ROOT
ATOM      1  O   UNL A   1      39.739  21.641  25.952  1.00  0.00    -0.374 OA
ENDROOT
BRANCH   1   2
ATOM      2  C   UNL A   1      40.618  22.433  26.742  1.00  0.00     0.202 C 
BRANCH   2   3
ATOM      3  C   UNL A   1      41.898  22.734  25.960  1.00  0.00     0.261 C 
BRANCH   3   4
ATOM      4  O   UNL A   1      42.564  23.870  26.532  1.00  0.00    -0.460 OA
BRANCH   4   5
ATOM      5  C   UNL A   1      42.157  25.156  26.363  1.00  0.00     0.338 C 
ATOM      6  O   UNL A   1      41.742  25.528  25.268  1.00  0.00    -0.246 OA
BRANCH   5   7
ATOM      7  C   UNL A   1      41.997  26.065  27.533  1.00  0.00     0.060 A 
ATOM      8  C   UNL A   1      42.761  27.214  27.752  1.00  0.00     0.016 A 
ATOM      9  C   UNL A   1      40.928  25.800  28.399  1.00  0.00     0.016 A 
ATOM     10  C   UNL A   1      42.520  28.041  28.841  1.00  0.00     0.010 A 
ATOM     11  C   UNL A   1      40.644  26.665  29.462  1.00  0.00     0.010 A 
ATOM     12  C   UNL A   1      41.450  27.786  29.697  1.00  0.00    -0.014 A 
BRANCH  12  13
ATOM     13  C   UNL A   1      41.229  28.685  30.854  1.00  0.00     0.031 A 
ATOM     14  C   UNL A   1      40.097  29.666  30.811  1.00  0.00     0.074 A 
ATOM     15  C   UNL A   1      41.980  28.543  31.965  1.00  0.00     0.049 A 
ATOM     16  N   UNL A   1      39.777  30.597  31.667  1.00  0.00    -0.248 NA
ATOM     17  C   UNL A   1      39.202  29.588  29.643  1.00  0.00     0.031 C 
ATOM     18  C   UNL A   1      43.040  27.546  32.144  1.00  0.00     0.029 A 
ATOM     19  N   UNL A   1      41.945  29.204  33.166  1.00  0.00    -0.354 N 
ATOM     20  C   UNL A   1      38.665  31.235  31.131  1.00  0.00     0.074 A 
ATOM     21  C   UNL A   1      38.374  30.596  29.868  1.00  0.00     0.031 C 
ATOM     22  C   UNL A   1      43.511  27.622  33.398  1.00  0.00     0.029 A 
ATOM     23  C   UNL A   1      42.855  28.730  34.083  1.00  0.00     0.049 A 
ATOM     24  H   UNL A   1      41.328  29.947  33.354  1.00  0.00     0.167 HD
ATOM     25  C   UNL A   1      37.960  32.267  31.651  1.00  0.00     0.037 A 
ATOM     26  C   UNL A   1      43.148  29.164  35.325  1.00  0.00     0.037 A 
ATOM     27  C   UNL A   1      38.273  32.879  32.915  1.00  0.00     0.049 A 
ATOM     28  C   UNL A   1      42.406  30.361  35.849  1.00  0.00     0.074 A 
ATOM     29  C   UNL A   1      37.689  33.983  33.510  1.00  0.00     0.029 A 
ATOM     30  N   UNL A   1      39.255  32.424  33.787  1.00  0.00    -0.354 N 
ATOM     31  N   UNL A   1      41.430  31.034  35.283  1.00  0.00    -0.248 NA
ATOM     32  C   UNL A   1      42.818  30.881  37.158  1.00  0.00     0.031 C 
ATOM     33  C   UNL A   1      38.345  34.216  34.724  1.00  0.00     0.029 A 
ATOM     34  C   UNL A   1      39.303  33.230  34.910  1.00  0.00     0.049 A 
ATOM     35  H   UNL A   1      39.832  31.642  33.628  1.00  0.00     0.167 HD
ATOM     36  C   UNL A   1      41.109  32.057  36.166  1.00  0.00     0.074 A 
ATOM     37  C   UNL A   1      41.982  31.900  37.315  1.00  0.00     0.031 C 
ATOM     38  C   UNL A   1      40.187  33.043  36.036  1.00  0.00     0.037 A 
BRANCH  25  39
ATOM     39  C   UNL A   1      36.836  32.819  30.819  1.00  0.00     0.058 A 
ATOM     40  C   UNL A   1      37.108  33.697  29.757  1.00  0.00     0.135 A 
ATOM     41  C   UNL A   1      35.497  32.460  31.043  1.00  0.00     0.135 A 
ATOM     42  F   UNL A   1      38.370  34.064  29.488  1.00  0.00    -0.206 F 
ATOM     43  C   UNL A   1      36.094  34.194  28.944  1.00  0.00     0.059 A 
ATOM     44  C   UNL A   1      34.469  32.926  30.226  1.00  0.00     0.059 A 
ATOM     45  F   UNL A   1      35.184  31.598  32.024  1.00  0.00    -0.206 F 
ATOM     46  C   UNL A   1      34.778  33.796  29.181  1.00  0.00     0.060 A 
BRANCH  46  47
ATOM     47  S   UNL A   1      33.487  34.378  28.059  1.00  0.00     0.124 S 
ATOM     48  O   UNL A   1      34.261  35.109  27.063  1.00  0.00    -0.237 OA
ATOM     49  O   UNL A   1      32.886  33.127  27.607  1.00  0.00    -0.237 OA
ATOM     50  O   UNL A   1      32.635  35.194  28.920  1.00  0.00    -0.744 OA
ENDBRANCH  46  47
ENDBRANCH  25  39
BRANCH  26  51
ATOM     51  C   UNL A   1      44.204  28.480  36.122  1.00  0.00     0.058 A 
ATOM     52  C   UNL A   1      43.892  27.413  36.982  1.00  0.00     0.135 A 
ATOM     53  C   UNL A   1      45.538  28.915  36.089  1.00  0.00     0.135 A 
ATOM     54  F   UNL A   1      42.634  26.953  37.054  1.00  0.00    -0.206 F 
ATOM     55  C   UNL A   1      44.847  26.837  37.813  1.00  0.00     0.059 A 
ATOM     56  C   UNL A   1      46.520  28.335  36.891  1.00  0.00     0.059 A 
ATOM     57  F   UNL A   1      45.896  29.915  35.271  1.00  0.00    -0.206 F 
ATOM     58  C   UNL A   1      46.158  27.312  37.768  1.00  0.00     0.060 A 
BRANCH  58  59
ATOM     59  S   UNL A   1      47.373  26.572  38.881  1.00  0.00     0.124 S 
ATOM     60  O   UNL A   1      48.216  27.721  39.199  1.00  0.00    -0.237 OA
ATOM     61  O   UNL A   1      46.534  26.082  39.970  1.00  0.00    -0.237 OA
ATOM     62  O   UNL A   1      48.000  25.541  38.062  1.00  0.00    -0.744 OA
ENDBRANCH  58  59
ENDBRANCH  26  51
BRANCH  38  63
ATOM     63  C   UNL A   1      40.064  34.021  37.168  1.00  0.00     0.058 A 
ATOM     64  C   UNL A   1      39.193  33.761  38.237  1.00  0.00     0.135 A 
ATOM     65  C   UNL A   1      40.742  35.250  37.151  1.00  0.00     0.135 A 
ATOM     66  F   UNL A   1      38.518  32.602  38.294  1.00  0.00    -0.206 F 
ATOM     67  C   UNL A   1      38.983  34.695  39.244  1.00  0.00     0.059 A 
ATOM     68  C   UNL A   1      40.565  36.189  38.162  1.00  0.00     0.059 A 
ATOM     69  F   UNL A   1      41.593  35.538  36.154  1.00  0.00    -0.206 F 
ATOM     70  C   UNL A   1      39.670  35.909  39.194  1.00  0.00     0.060 A 
BRANCH  70  71
ATOM     71  S   UNL A   1      39.390  37.108  40.513  1.00  0.00     0.124 S 
ATOM     72  O   UNL A   1      38.640  38.147  39.816  1.00  0.00    -0.237 OA
ATOM     73  O   UNL A   1      38.637  36.325  41.488  1.00  0.00    -0.237 OA
ATOM     74  O   UNL A   1      40.741  37.478  40.926  1.00  0.00    -0.744 OA
ENDBRANCH  70  71
ENDBRANCH  38  63
ENDBRANCH  12  13
ENDBRANCH   5   7
ENDBRANCH   4   5
ENDBRANCH   3   4
ENDBRANCH   2   3
ENDBRANCH   1   2
BRANCH   1  75
ATOM     75  C   UNL A   1      38.398  22.095  25.829  1.00  0.00     0.202 C 
BRANCH  75  76
ATOM     76  C   UNL A   1      37.568  21.106  25.015  1.00  0.00     0.261 C 
BRANCH  76  77
ATOM     77  O   UNL A   1      36.272  21.666  24.757  1.00  0.00    -0.460 OA
BRANCH  77  78
ATOM     78  C   UNL A   1      35.294  21.359  25.651  1.00  0.00     0.342 C 
ATOM     79  O   UNL A   1      35.186  21.764  26.794  1.00  0.00    -0.246 OA
BRANCH  78  80
ATOM     80  C   UNL A   1      34.259  20.587  24.924  1.00  0.00     0.103 A 
ATOM     81  C   UNL A   1      34.439  19.211  24.712  1.00  0.00     0.035 A 
ATOM     82  C   UNL A   1      33.166  21.237  24.335  1.00  0.00     0.145 A 
ATOM     83  C   UNL A   1      33.564  18.520  23.877  1.00  0.00     0.019 A 
ATOM     84  C   UNL A   1      32.292  20.539  23.497  1.00  0.00     0.049 A 
ATOM     85  Br  UNL A   1      33.870  16.688  23.522  1.00  0.00    -0.051 Br
ATOM     86  C   UNL A   1      32.495  19.176  23.266  1.00  0.00     0.019 A 
BRANCH  82  87
ATOM     87  O   UNL A   1      33.041  22.636  24.381  1.00  0.00    -0.422 OA
BRANCH  87  88
ATOM     88  C   UNL A   1      33.317  23.306  23.201  1.00  0.00     0.343 C 
ATOM     89  O   UNL A   1      34.258  23.097  22.451  1.00  0.00    -0.246 OA
BRANCH  88  90
ATOM     90  C   UNL A   1      32.363  24.447  23.055  1.00  0.00     0.060 A 
ATOM     91  C   UNL A   1      32.722  25.519  22.225  1.00  0.00     0.019 A 
ATOM     92  C   UNL A   1      31.141  24.496  23.744  1.00  0.00     0.019 A 
ATOM     93  C   UNL A   1      31.883  26.633  22.107  1.00  0.00     0.040 A 
ATOM     94  C   UNL A   1      30.307  25.613  23.629  1.00  0.00     0.040 A 
ATOM     95  C   UNL A   1      30.686  26.671  22.813  1.00  0.00     0.123 A 
ATOM     96  F   UNL A   1      29.892  27.743  22.714  1.00  0.00    -0.207 F 
ENDBRANCH  88  90
ENDBRANCH  87  88
ENDBRANCH  82  87
ENDBRANCH  78  80
ENDBRANCH  77  78
ENDBRANCH  76  77
ENDBRANCH  75  76
ENDBRANCH   1  75
TORSDOF 20
ENDMDL
MODEL 3
REMARK VINA RESULT:     -10.9      6.891     11.980
REMARK SMILES O=C(OCCOCCOC(=O)c1cc(Br)ccc1OC(=O)c1ccc(F)cc1)c1ccc(-c2c3nc(c(-c4c(F)cc(S(=O)(=O)[O-])cc4F)c4ccc([nH]4)c(-c4c(F)cc(S(=O)(=O)[O-])cc4F)c4nc(c(-c5c(F)cc(S(=O)(=O)[O-])cc5F)c5ccc2[nH]5)C=C4)C=C3)cc1
REMARK SMILES IDX 6 1 5 2 4 3 3 4 2 5 1 6 29 7 30 8 94 9 31 10 93 11 32 12
REMARK SMILES IDX 33 13 34 14 87 15 35 16 92 17 86 18 88 19 36 20 91 21 85 22
REMARK SMILES IDX 84 23 37 25 71 26 50 27 70 28 51 29 54 30 69 31 89 32 52 33
REMARK SMILES IDX 53 34 68 36 90 37 55 38 38 39 39 40 48 41 40 42 41 43 47 44
REMARK SMILES IDX 49 45 42 46 43 47 44 48 45 49 46 50 72 51 73 52 82 53 74 54
REMARK SMILES IDX 75 55 81 56 83 57 76 58 77 59 78 60 79 61 80 62 56 63 57 64
REMARK SMILES IDX 66 65 58 66 59 67 65 68 67 69 60 70 61 71 62 72 63 73 64 74
REMARK SMILES IDX 7 75 8 76 9 77 10 78 11 79 12 80 13 81 18 82 14 83 17 84
REMARK SMILES IDX 15 85 16 86 19 87 20 88 21 89 22 90 23 91 28 92 24 93 27 94
REMARK SMILES IDX 25 95 26 96
REMARK H PARENT 88 24 54 35
REMARK Flexibility Score: inf
ROOT
ATOM      1  O   UNL A   1      33.277  31.020  27.699  1.00  0.00    -0.374 OA
ENDROOT
BRANCH   1   2
ATOM      2  C   UNL A   1      33.855  32.315  27.805  1.00  0.00     0.202 C 
BRANCH   2   3
ATOM      3  C   UNL A   1      34.711  32.406  29.070  1.00  0.00     0.261 C 
BRANCH   3   4
ATOM      4  O   UNL A   1      35.285  31.122  29.365  1.00  0.00    -0.460 OA
BRANCH   4   5
ATOM      5  C   UNL A   1      36.175  30.899  30.367  1.00  0.00     0.338 C 
ATOM      6  O   UNL A   1      35.788  30.856  31.532  1.00  0.00    -0.246 OA
BRANCH   5   7
ATOM      7  C   UNL A   1      37.575  30.488  30.065  1.00  0.00     0.060 A 
ATOM      8  C   UNL A   1      38.467  29.966  31.005  1.00  0.00     0.016 A 
ATOM      9  C   UNL A   1      37.970  30.525  28.721  1.00  0.00     0.016 A 
ATOM     10  C   UNL A   1      39.742  29.557  30.637  1.00  0.00     0.010 A 
ATOM     11  C   UNL A   1      39.232  30.057  28.337  1.00  0.00     0.010 A 
ATOM     12  C   UNL A   1      40.133  29.582  29.299  1.00  0.00    -0.014 A 
BRANCH  12  13
ATOM     13  C   UNL A   1      41.504  29.148  28.946  1.00  0.00     0.031 A 
ATOM     14  C   UNL A   1      42.647  30.093  29.164  1.00  0.00     0.074 A 
ATOM     15  C   UNL A   1      41.721  27.883  28.532  1.00  0.00     0.049 A 
ATOM     16  N   UNL A   1      43.906  29.954  28.848  1.00  0.00    -0.248 NA
ATOM     17  C   UNL A   1      42.330  31.369  29.827  1.00  0.00     0.031 C 
ATOM     18  C   UNL A   1      40.685  26.855  28.386  1.00  0.00     0.029 A 
ATOM     19  N   UNL A   1      42.879  27.232  28.195  1.00  0.00    -0.354 N 
ATOM     20  C   UNL A   1      44.526  31.132  29.246  1.00  0.00     0.074 A 
ATOM     21  C   UNL A   1      43.503  31.982  29.812  1.00  0.00     0.031 C 
ATOM     22  C   UNL A   1      41.263  25.691  28.050  1.00  0.00     0.029 A 
ATOM     23  C   UNL A   1      42.693  25.909  27.865  1.00  0.00     0.049 A 
ATOM     24  H   UNL A   1      43.761  27.669  28.190  1.00  0.00     0.167 HD
ATOM     25  C   UNL A   1      45.832  31.469  29.138  1.00  0.00     0.037 A 
ATOM     26  C   UNL A   1      43.573  24.986  27.430  1.00  0.00     0.037 A 
ATOM     27  C   UNL A   1      46.827  30.597  28.573  1.00  0.00     0.049 A 
ATOM     28  C   UNL A   1      45.004  25.407  27.243  1.00  0.00     0.074 A 
ATOM     29  C   UNL A   1      48.165  30.853  28.331  1.00  0.00     0.029 A 
ATOM     30  N   UNL A   1      46.590  29.287  28.174  1.00  0.00    -0.354 N 
ATOM     31  N   UNL A   1      45.561  26.565  27.513  1.00  0.00    -0.248 NA
ATOM     32  C   UNL A   1      45.920  24.417  26.665  1.00  0.00     0.031 C 
ATOM     33  C   UNL A   1      48.725  29.710  27.750  1.00  0.00     0.029 A 
ATOM     34  C   UNL A   1      47.751  28.724  27.675  1.00  0.00     0.049 A 
ATOM     35  H   UNL A   1      45.722  28.827  28.236  1.00  0.00     0.167 HD
ATOM     36  C   UNL A   1      46.893  26.446  27.140  1.00  0.00     0.074 A 
ATOM     37  C   UNL A   1      47.063  25.092  26.645  1.00  0.00     0.031 C 
ATOM     38  C   UNL A   1      47.883  27.371  27.190  1.00  0.00     0.037 A 
BRANCH  25  39
ATOM     39  C   UNL A   1      46.224  32.849  29.584  1.00  0.00     0.058 A 
ATOM     40  C   UNL A   1      46.235  33.913  28.667  1.00  0.00     0.135 A 
ATOM     41  C   UNL A   1      46.557  33.135  30.918  1.00  0.00     0.135 A 
ATOM     42  F   UNL A   1      45.912  33.701  27.381  1.00  0.00    -0.206 F 
ATOM     43  C   UNL A   1      46.555  35.209  29.057  1.00  0.00     0.059 A 
ATOM     44  C   UNL A   1      46.857  34.430  31.336  1.00  0.00     0.059 A 
ATOM     45  F   UNL A   1      46.532  32.162  31.844  1.00  0.00    -0.206 F 
ATOM     46  C   UNL A   1      46.856  35.460  30.395  1.00  0.00     0.060 A 
BRANCH  46  47
ATOM     47  S   UNL A   1      47.179  37.164  30.900  1.00  0.00     0.124 S 
ATOM     48  O   UNL A   1      46.045  37.440  31.774  1.00  0.00    -0.237 OA
ATOM     49  O   UNL A   1      48.478  37.049  31.558  1.00  0.00    -0.237 OA
ATOM     50  O   UNL A   1      47.194  37.894  29.635  1.00  0.00    -0.744 OA
ENDBRANCH  46  47
ENDBRANCH  25  39
BRANCH  26  51
ATOM     51  C   UNL A   1      43.110  23.605  27.119  1.00  0.00     0.058 A 
ATOM     52  C   UNL A   1      42.963  22.640  28.130  1.00  0.00     0.135 A 
ATOM     53  C   UNL A   1      42.864  23.199  25.798  1.00  0.00     0.135 A 
ATOM     54  F   UNL A   1      43.183  22.971  29.412  1.00  0.00    -0.206 F 
ATOM     55  C   UNL A   1      42.638  21.319  27.843  1.00  0.00     0.059 A 
ATOM     56  C   UNL A   1      42.508  21.887  25.487  1.00  0.00     0.059 A 
ATOM     57  F   UNL A   1      42.968  24.084  24.795  1.00  0.00    -0.206 F 
ATOM     58  C   UNL A   1      42.421  20.950  26.516  1.00  0.00     0.060 A 
BRANCH  58  59
ATOM     59  S   UNL A   1      42.035  19.220  26.162  1.00  0.00     0.124 S 
ATOM     60  O   UNL A   1      42.972  18.925  25.083  1.00  0.00    -0.237 OA
ATOM     61  O   UNL A   1      42.317  18.575  27.440  1.00  0.00    -0.237 OA
ATOM     62  O   UNL A   1      40.628  19.259  25.779  1.00  0.00    -0.744 OA
ENDBRANCH  58  59
ENDBRANCH  26  51
BRANCH  38  63
ATOM     63  C   UNL A   1      49.242  26.949  26.710  1.00  0.00     0.058 A 
ATOM     64  C   UNL A   1      49.585  27.074  25.355  1.00  0.00     0.135 A 
ATOM     65  C   UNL A   1      50.169  26.347  27.575  1.00  0.00     0.135 A 
ATOM     66  F   UNL A   1      48.728  27.638  24.489  1.00  0.00    -0.206 F 
ATOM     67  C   UNL A   1      50.795  26.597  24.869  1.00  0.00     0.059 A 
ATOM     68  C   UNL A   1      51.396  25.886  27.113  1.00  0.00     0.059 A 
ATOM     69  F   UNL A   1      49.888  26.216  28.881  1.00  0.00    -0.206 F 
ATOM     70  C   UNL A   1      51.693  25.999  25.754  1.00  0.00     0.060 A 
BRANCH  70  71
ATOM     71  S   UNL A   1      53.263  25.391  25.106  1.00  0.00     0.124 S 
ATOM     72  O   UNL A   1      53.217  25.864  23.727  1.00  0.00    -0.237 OA
ATOM     73  O   UNL A   1      54.232  26.052  25.973  1.00  0.00    -0.237 OA
ATOM     74  O   UNL A   1      53.163  23.945  25.279  1.00  0.00    -0.744 OA
ENDBRANCH  70  71
ENDBRANCH  38  63
ENDBRANCH  12  13
ENDBRANCH   5   7
ENDBRANCH   4   5
ENDBRANCH   3   4
ENDBRANCH   2   3
ENDBRANCH   1   2
BRANCH   1  75
ATOM     75  C   UNL A   1      32.649  30.694  26.467  1.00  0.00     0.202 C 
BRANCH  75  76
ATOM     76  C   UNL A   1      33.173  29.363  25.932  1.00  0.00     0.261 C 
BRANCH  76  77
ATOM     77  O   UNL A   1      32.323  28.906  24.868  1.00  0.00    -0.460 OA
BRANCH  77  78
ATOM     78  C   UNL A   1      32.929  28.663  23.675  1.00  0.00     0.342 C 
ATOM     79  O   UNL A   1      33.678  29.404  23.064  1.00  0.00    -0.246 OA
BRANCH  78  80
ATOM     80  C   UNL A   1      32.672  27.245  23.331  1.00  0.00     0.103 A 
ATOM     81  C   UNL A   1      33.607  26.262  23.692  1.00  0.00     0.035 A 
ATOM     82  C   UNL A   1      31.572  26.891  22.538  1.00  0.00     0.145 A 
ATOM     83  C   UNL A   1      33.461  24.962  23.216  1.00  0.00     0.019 A 
ATOM     84  C   UNL A   1      31.432  25.585  22.062  1.00  0.00     0.049 A 
ATOM     85  Br  UNL A   1      34.776  23.667  23.630  1.00  0.00    -0.051 Br
ATOM     86  C   UNL A   1      32.383  24.619  22.400  1.00  0.00     0.019 A 
BRANCH  82  87
ATOM     87  O   UNL A   1      30.708  27.869  22.015  1.00  0.00    -0.422 OA
BRANCH  87  88
ATOM     88  C   UNL A   1      29.596  28.166  22.786  1.00  0.00     0.343 C 
ATOM     89  O   UNL A   1      28.875  27.365  23.359  1.00  0.00    -0.246 OA
BRANCH  88  90
ATOM     90  C   UNL A   1      29.314  29.630  22.687  1.00  0.00     0.060 A 
ATOM     91  C   UNL A   1      29.501  30.427  23.825  1.00  0.00     0.019 A 
ATOM     92  C   UNL A   1      28.837  30.224  21.508  1.00  0.00     0.019 A 
ATOM     93  C   UNL A   1      29.192  31.792  23.790  1.00  0.00     0.040 A 
ATOM     94  C   UNL A   1      28.523  31.587  21.477  1.00  0.00     0.040 A 
ATOM     95  C   UNL A   1      28.703  32.358  22.619  1.00  0.00     0.123 A 
ATOM     96  F   UNL A   1      28.391  33.658  22.590  1.00  0.00    -0.207 F 
ENDBRANCH  88  90
ENDBRANCH  87  88
ENDBRANCH  82  87
ENDBRANCH  78  80
ENDBRANCH  77  78
ENDBRANCH  76  77
ENDBRANCH  75  76
ENDBRANCH   1  75
TORSDOF 20
ENDMDL
