MODEL 1
REMARK VINA RESULT:     -11.1      0.000      0.000
REMARK SMILES C[C@@H](C(=O)OCCOCCOC(=O)c1ccc(-c2c3nc(c(-c4c(F)cc(S(=O)(=O)[O-])cc4F)c4ccc([nH]4)c(-c4c(F)cc(S(=O)(=O)[O-])cc4F)c4nc(c(-c5c(F)cc(S(=O)(=O)[O-])cc5F)c5ccc2[nH]5)C=C4)C=C3)cc1)c1ccccc1-c1ccn(C(F)F)c(=O)c1
REMARK SMILES IDX 8 1 7 2 6 3 5 4 3 5 4 6 2 7 1 8 80 9 81 10 85 11 82 12 84 13
REMARK SMILES IDX 83 14 86 15 87 16 95 17 88 18 93 19 89 20 94 21 90 22 91 23
REMARK SMILES IDX 92 24 9 25 10 26 11 27 12 28 13 29 14 30 15 31 79 32 16 33
REMARK SMILES IDX 78 34 17 35 18 36 19 37 72 38 20 39 77 40 71 41 73 42 21 43
REMARK SMILES IDX 76 44 70 45 69 46 22 48 56 49 35 50 55 51 36 52 39 53 54 54
REMARK SMILES IDX 74 55 37 56 38 57 53 59 75 60 40 61 23 62 24 63 33 64 25 65
REMARK SMILES IDX 26 66 32 67 34 68 27 69 28 70 29 71 30 72 31 73 57 74 58 75
REMARK SMILES IDX 67 76 59 77 60 78 66 79 68 80 61 81 62 82 63 83 64 84 65 85
REMARK SMILES IDX 41 86 42 87 51 88 43 89 44 90 50 91 52 92 45 93 46 94 47 95
REMARK SMILES IDX 48 96 49 97
REMARK H PARENT 73 47 39 58
REMARK Flexibility Score: inf
ROOT
ATOM      1  O   UNL A   1      39.952  22.364  27.240  1.00  0.00    -0.374 OA
ENDROOT
BRANCH   1   2
ATOM      2  C   UNL A   1      39.773  21.592  26.044  1.00  0.00     0.202 C 
BRANCH   2   3
ATOM      3  C   UNL A   1      38.322  21.218  25.721  1.00  0.00     0.261 C 
BRANCH   3   4
ATOM      4  O   UNL A   1      37.506  22.400  25.673  1.00  0.00    -0.463 OA
BRANCH   4   5
ATOM      5  C   UNL A   1      36.164  22.210  25.561  1.00  0.00     0.313 C 
ATOM      6  O   UNL A   1      35.428  21.930  26.500  1.00  0.00    -0.252 OA
BRANCH   5   7
ATOM      7  C   UNL A   1      35.696  22.267  24.112  1.00  0.00     0.127 C 
ATOM      8  C   UNL A   1      36.644  22.912  23.086  1.00  0.00     0.025 C 
BRANCH   7   9
ATOM      9  C   UNL A   1      34.256  22.739  23.858  1.00  0.00    -0.026 A 
ATOM     10  C   UNL A   1      34.142  24.141  23.675  1.00  0.00     0.005 A 
ATOM     11  C   UNL A   1      33.058  21.973  23.866  1.00  0.00    -0.014 A 
ATOM     12  C   UNL A   1      32.916  24.772  23.495  1.00  0.00     0.000 A 
ATOM     13  C   UNL A   1      31.826  22.639  23.677  1.00  0.00     0.009 A 
ATOM     14  C   UNL A   1      31.753  24.020  23.494  1.00  0.00     0.001 A 
BRANCH  11  15
ATOM     15  C   UNL A   1      32.914  20.510  24.080  1.00  0.00    -0.011 A 
ATOM     16  C   UNL A   1      32.897  19.906  25.405  1.00  0.00     0.027 A 
ATOM     17  C   UNL A   1      32.608  19.723  23.032  1.00  0.00     0.080 A 
ATOM     18  C   UNL A   1      32.827  18.576  25.545  1.00  0.00     0.095 A 
ATOM     19  C   UNL A   1      32.486  18.241  23.179  1.00  0.00     0.255 A 
ATOM     20  N   UNL A   1      32.744  17.747  24.445  1.00  0.00    -0.258 N 
ATOM     21  O   UNL A   1      32.188  17.571  22.196  1.00  0.00    -0.269 OA
BRANCH  20  22
ATOM     22  C   UNL A   1      32.892  16.320  24.603  1.00  0.00     0.451 C 
ATOM     23  F   UNL A   1      34.142  15.931  24.246  1.00  0.00    -0.185 F 
ATOM     24  F   UNL A   1      32.691  15.926  25.887  1.00  0.00    -0.185 F 
ENDBRANCH  20  22
ENDBRANCH  11  15
ENDBRANCH   7   9
ENDBRANCH   5   7
ENDBRANCH   4   5
ENDBRANCH   3   4
ENDBRANCH   2   3
ENDBRANCH   1   2
BRANCH   1  25
ATOM     25  C   UNL A   1      41.276  22.878  27.402  1.00  0.00     0.202 C 
BRANCH  25  26
ATOM     26  C   UNL A   1      41.833  23.519  26.130  1.00  0.00     0.261 C 
BRANCH  26  27
ATOM     27  O   UNL A   1      42.449  24.754  26.479  1.00  0.00    -0.460 OA
BRANCH  27  28
ATOM     28  C   UNL A   1      41.604  25.808  26.376  1.00  0.00     0.338 C 
ATOM     29  O   UNL A   1      40.860  26.058  25.440  1.00  0.00    -0.246 OA
BRANCH  28  30
ATOM     30  C   UNL A   1      41.573  26.467  27.698  1.00  0.00     0.060 A 
ATOM     31  C   UNL A   1      40.486  26.207  28.539  1.00  0.00     0.016 A 
ATOM     32  C   UNL A   1      42.636  27.273  28.129  1.00  0.00     0.016 A 
ATOM     33  C   UNL A   1      40.423  26.816  29.789  1.00  0.00     0.010 A 
ATOM     34  C   UNL A   1      42.583  27.866  29.382  1.00  0.00     0.010 A 
ATOM     35  C   UNL A   1      41.451  27.681  30.187  1.00  0.00    -0.014 A 
BRANCH  35  36
ATOM     36  C   UNL A   1      41.261  28.574  31.342  1.00  0.00     0.031 A 
ATOM     37  C   UNL A   1      40.169  29.602  31.252  1.00  0.00     0.074 A 
ATOM     38  C   UNL A   1      42.065  28.483  32.413  1.00  0.00     0.049 A 
ATOM     39  N   UNL A   1      39.852  30.550  32.089  1.00  0.00    -0.248 NA
ATOM     40  C   UNL A   1      39.332  29.566  30.037  1.00  0.00     0.031 C 
ATOM     41  C   UNL A   1      43.145  27.509  32.579  1.00  0.00     0.029 A 
ATOM     42  N   UNL A   1      42.105  29.231  33.557  1.00  0.00    -0.354 N 
ATOM     43  C   UNL A   1      38.792  31.230  31.500  1.00  0.00     0.074 A 
ATOM     44  C   UNL A   1      38.543  30.613  30.218  1.00  0.00     0.031 C 
ATOM     45  C   UNL A   1      43.748  27.726  33.760  1.00  0.00     0.029 A 
ATOM     46  C   UNL A   1      43.115  28.868  34.415  1.00  0.00     0.049 A 
ATOM     47  H   UNL A   1      41.472  29.959  33.748  1.00  0.00     0.167 HD
ATOM     48  C   UNL A   1      38.083  32.270  31.997  1.00  0.00     0.037 A 
ATOM     49  C   UNL A   1      43.485  29.417  35.587  1.00  0.00     0.037 A 
ATOM     50  C   UNL A   1      38.351  32.858  33.281  1.00  0.00     0.049 A 
ATOM     51  C   UNL A   1      42.699  30.592  36.109  1.00  0.00     0.074 A 
ATOM     52  C   UNL A   1      37.686  33.893  33.911  1.00  0.00     0.029 A 
ATOM     53  N   UNL A   1      39.376  32.461  34.129  1.00  0.00    -0.354 N 
ATOM     54  N   UNL A   1      41.671  31.203  35.564  1.00  0.00    -0.248 NA
ATOM     55  C   UNL A   1      43.115  31.148  37.402  1.00  0.00     0.031 C 
ATOM     56  C   UNL A   1      38.341  34.153  35.120  1.00  0.00     0.029 A 
ATOM     57  C   UNL A   1      39.378  33.245  35.268  1.00  0.00     0.049 A 
ATOM     58  H   UNL A   1      40.010  31.730  33.946  1.00  0.00     0.167 HD
ATOM     59  C   UNL A   1      41.299  32.198  36.462  1.00  0.00     0.074 A 
ATOM     60  C   UNL A   1      42.208  32.097  37.588  1.00  0.00     0.031 C 
ATOM     61  C   UNL A   1      40.298  33.109  36.371  1.00  0.00     0.037 A 
BRANCH  48  62
ATOM     62  C   UNL A   1      36.982  32.836  31.144  1.00  0.00     0.058 A 
ATOM     63  C   UNL A   1      37.246  33.695  30.066  1.00  0.00     0.135 A 
ATOM     64  C   UNL A   1      35.641  32.508  31.404  1.00  0.00     0.135 A 
ATOM     65  F   UNL A   1      38.506  34.064  29.787  1.00  0.00    -0.206 F 
ATOM     66  C   UNL A   1      36.220  34.230  29.293  1.00  0.00     0.059 A 
ATOM     67  C   UNL A   1      34.602  33.008  30.627  1.00  0.00     0.059 A 
ATOM     68  F   UNL A   1      35.331  31.699  32.430  1.00  0.00    -0.206 F 
ATOM     69  C   UNL A   1      34.900  33.880  29.581  1.00  0.00     0.060 A 
BRANCH  69  70
ATOM     70  S   UNL A   1      33.581  34.579  28.567  1.00  0.00     0.124 S 
ATOM     71  O   UNL A   1      34.269  35.692  27.919  1.00  0.00    -0.237 OA
ATOM     72  O   UNL A   1      33.229  33.460  27.699  1.00  0.00    -0.237 OA
ATOM     73  O   UNL A   1      32.563  34.955  29.544  1.00  0.00    -0.744 OA
ENDBRANCH  69  70
ENDBRANCH  48  62
BRANCH  49  74
ATOM     74  C   UNL A   1      44.635  28.854  36.344  1.00  0.00     0.058 A 
ATOM     75  C   UNL A   1      45.920  29.401  36.219  1.00  0.00     0.135 A 
ATOM     76  C   UNL A   1      44.469  27.774  37.225  1.00  0.00     0.135 A 
ATOM     77  F   UNL A   1      46.131  30.432  35.385  1.00  0.00    -0.206 F 
ATOM     78  C   UNL A   1      47.003  28.891  36.926  1.00  0.00     0.059 A 
ATOM     79  C   UNL A   1      45.532  27.262  37.964  1.00  0.00     0.059 A 
ATOM     80  F   UNL A   1      43.257  27.224  37.396  1.00  0.00    -0.206 F 
ATOM     81  C   UNL A   1      46.798  27.822  37.800  1.00  0.00     0.060 A 
BRANCH  81  82
ATOM     82  S   UNL A   1      48.201  27.199  38.753  1.00  0.00     0.124 S 
ATOM     83  O   UNL A   1      47.702  27.314  40.118  1.00  0.00    -0.237 OA
ATOM     84  O   UNL A   1      48.343  25.842  38.235  1.00  0.00    -0.237 OA
ATOM     85  O   UNL A   1      49.281  28.114  38.395  1.00  0.00    -0.744 OA
ENDBRANCH  81  82
ENDBRANCH  49  74
BRANCH  61  86
ATOM     86  C   UNL A   1      40.115  34.043  37.533  1.00  0.00     0.058 A 
ATOM     87  C   UNL A   1      40.753  35.290  37.584  1.00  0.00     0.135 A 
ATOM     88  C   UNL A   1      39.237  33.707  38.577  1.00  0.00     0.135 A 
ATOM     89  F   UNL A   1      41.604  35.655  36.612  1.00  0.00    -0.206 F 
ATOM     90  C   UNL A   1      40.547  36.165  38.645  1.00  0.00     0.059 A 
ATOM     91  C   UNL A   1      38.994  34.578  39.632  1.00  0.00     0.059 A 
ATOM     92  F   UNL A   1      38.591  32.530  38.566  1.00  0.00    -0.206 F 
ATOM     93  C   UNL A   1      39.663  35.801  39.663  1.00  0.00     0.060 A 
BRANCH  93  94
ATOM     94  S   UNL A   1      39.378  36.960  41.016  1.00  0.00     0.124 S 
ATOM     95  O   UNL A   1      38.628  38.016  40.343  1.00  0.00    -0.237 OA
ATOM     96  O   UNL A   1      38.620  36.151  41.965  1.00  0.00    -0.237 OA
ATOM     97  O   UNL A   1      40.726  37.321  41.444  1.00  0.00    -0.744 OA
ENDBRANCH  93  94
ENDBRANCH  61  86
ENDBRANCH  35  36
ENDBRANCH  28  30
ENDBRANCH  27  28
ENDBRANCH  26  27
ENDBRANCH  25  26
ENDBRANCH   1  25
TORSDOF 20
ENDMDL
MODEL 2
REMARK VINA RESULT:     -11.1      7.105     12.483
REMARK SMILES C[C@@H](C(=O)OCCOCCOC(=O)c1ccc(-c2c3nc(c(-c4c(F)cc(S(=O)(=O)[O-])cc4F)c4ccc([nH]4)c(-c4c(F)cc(S(=O)(=O)[O-])cc4F)c4nc(c(-c5c(F)cc(S(=O)(=O)[O-])cc5F)c5ccc2[nH]5)C=C4)C=C3)cc1)c1ccccc1-c1ccn(C(F)F)c(=O)c1
REMARK SMILES IDX 8 1 7 2 6 3 5 4 3 5 4 6 2 7 1 8 80 9 81 10 85 11 82 12 84 13
REMARK SMILES IDX 83 14 86 15 87 16 95 17 88 18 93 19 89 20 94 21 90 22 91 23
REMARK SMILES IDX 92 24 9 25 10 26 11 27 12 28 13 29 14 30 15 31 79 32 16 33
REMARK SMILES IDX 78 34 17 35 18 36 19 37 72 38 20 39 77 40 71 41 73 42 21 43
REMARK SMILES IDX 76 44 70 45 69 46 22 48 56 49 35 50 55 51 36 52 39 53 54 54
REMARK SMILES IDX 74 55 37 56 38 57 53 59 75 60 40 61 23 62 24 63 33 64 25 65
REMARK SMILES IDX 26 66 32 67 34 68 27 69 28 70 29 71 30 72 31 73 57 74 58 75
REMARK SMILES IDX 67 76 59 77 60 78 66 79 68 80 61 81 62 82 63 83 64 84 65 85
REMARK SMILES IDX 41 86 42 87 51 88 43 89 44 90 50 91 52 92 45 93 46 94 47 95
REMARK SMILES IDX 48 96 49 97
REMARK H PARENT 73 47 39 58
REMARK Flexibility Score: inf
ROOT
ATOM      1  O   UNL A   1      35.677  32.030  28.407  1.00  0.00    -0.374 OA
ENDROOT
BRANCH   1   2
ATOM      2  C   UNL A   1      34.411  31.583  27.903  1.00  0.00     0.202 C 
BRANCH   2   3
ATOM      3  C   UNL A   1      34.419  30.188  27.265  1.00  0.00     0.261 C 
BRANCH   3   4
ATOM      4  O   UNL A   1      33.323  30.060  26.344  1.00  0.00    -0.463 OA
BRANCH   4   5
ATOM      5  C   UNL A   1      33.171  28.850  25.742  1.00  0.00     0.313 C 
ATOM      6  O   UNL A   1      33.937  28.399  24.899  1.00  0.00    -0.252 OA
BRANCH   5   7
ATOM      7  C   UNL A   1      31.870  28.169  26.147  1.00  0.00     0.127 C 
ATOM      8  C   UNL A   1      31.617  27.958  27.650  1.00  0.00     0.025 C 
BRANCH   7   9
ATOM      9  C   UNL A   1      31.469  26.904  25.370  1.00  0.00    -0.026 A 
ATOM     10  C   UNL A   1      32.084  25.721  25.856  1.00  0.00     0.005 A 
ATOM     11  C   UNL A   1      30.649  26.797  24.214  1.00  0.00    -0.014 A 
ATOM     12  C   UNL A   1      31.901  24.483  25.250  1.00  0.00     0.000 A 
ATOM     13  C   UNL A   1      30.476  25.525  23.621  1.00  0.00     0.009 A 
ATOM     14  C   UNL A   1      31.092  24.383  24.131  1.00  0.00     0.001 A 
BRANCH  11  15
ATOM     15  C   UNL A   1      29.938  27.886  23.499  1.00  0.00    -0.011 A 
ATOM     16  C   UNL A   1      30.608  28.786  22.569  1.00  0.00     0.027 A 
ATOM     17  C   UNL A   1      28.595  27.944  23.563  1.00  0.00     0.080 A 
ATOM     18  C   UNL A   1      29.937  29.793  21.994  1.00  0.00     0.095 A 
ATOM     19  C   UNL A   1      27.828  29.038  22.894  1.00  0.00     0.255 A 
ATOM     20  N   UNL A   1      28.595  29.989  22.246  1.00  0.00    -0.258 N 
ATOM     21  O   UNL A   1      26.603  29.034  22.968  1.00  0.00    -0.269 OA
BRANCH  20  22
ATOM     22  C   UNL A   1      27.945  31.198  21.797  1.00  0.00     0.451 C 
ATOM     23  F   UNL A   1      27.555  31.948  22.859  1.00  0.00    -0.185 F 
ATOM     24  F   UNL A   1      28.766  31.964  21.034  1.00  0.00    -0.185 F 
ENDBRANCH  20  22
ENDBRANCH  11  15
ENDBRANCH   7   9
ENDBRANCH   5   7
ENDBRANCH   4   5
ENDBRANCH   3   4
ENDBRANCH   2   3
ENDBRANCH   1   2
BRANCH   1  25
ATOM     25  C   UNL A   1      35.585  32.749  29.640  1.00  0.00     0.202 C 
BRANCH  25  26
ATOM     26  C   UNL A   1      35.483  31.837  30.863  1.00  0.00     0.261 C 
BRANCH  26  27
ATOM     27  O   UNL A   1      36.799  31.483  31.273  1.00  0.00    -0.460 OA
BRANCH  27  28
ATOM     28  C   UNL A   1      37.077  30.173  31.066  1.00  0.00     0.338 C 
ATOM     29  O   UNL A   1      36.289  29.242  31.123  1.00  0.00    -0.246 OA
BRANCH  28  30
ATOM     30  C   UNL A   1      38.451  30.105  30.527  1.00  0.00     0.060 A 
ATOM     31  C   UNL A   1      38.628  30.261  29.148  1.00  0.00     0.016 A 
ATOM     32  C   UNL A   1      39.555  29.960  31.379  1.00  0.00     0.016 A 
ATOM     33  C   UNL A   1      39.909  30.196  28.608  1.00  0.00     0.010 A 
ATOM     34  C   UNL A   1      40.834  29.914  30.843  1.00  0.00     0.010 A 
ATOM     35  C   UNL A   1      41.004  29.977  29.453  1.00  0.00    -0.014 A 
BRANCH  35  36
ATOM     36  C   UNL A   1      42.307  29.588  28.890  1.00  0.00     0.031 A 
ATOM     37  C   UNL A   1      42.469  28.166  28.432  1.00  0.00     0.074 A 
ATOM     38  C   UNL A   1      43.315  30.474  28.829  1.00  0.00     0.049 A 
ATOM     39  N   UNL A   1      43.529  27.557  27.979  1.00  0.00    -0.248 NA
ATOM     40  C   UNL A   1      41.271  27.309  28.517  1.00  0.00     0.031 C 
ATOM     41  C   UNL A   1      43.236  31.873  29.250  1.00  0.00     0.029 A 
ATOM     42  N   UNL A   1      44.604  30.321  28.401  1.00  0.00    -0.354 N 
ATOM     43  C   UNL A   1      43.132  26.247  27.736  1.00  0.00     0.074 A 
ATOM     44  C   UNL A   1      41.746  26.136  28.129  1.00  0.00     0.031 C 
ATOM     45  C   UNL A   1      44.435  32.451  29.064  1.00  0.00     0.029 A 
ATOM     46  C   UNL A   1      45.366  31.455  28.541  1.00  0.00     0.049 A 
ATOM     47  H   UNL A   1      44.953  29.479  28.030  1.00  0.00     0.167 HD
ATOM     48  C   UNL A   1      43.862  25.232  27.220  1.00  0.00     0.037 A 
ATOM     49  C   UNL A   1      46.674  31.648  28.284  1.00  0.00     0.037 A 
ATOM     50  C   UNL A   1      45.239  25.374  26.832  1.00  0.00     0.049 A 
ATOM     51  C   UNL A   1      47.475  30.496  27.734  1.00  0.00     0.074 A 
ATOM     52  C   UNL A   1      46.078  24.433  26.268  1.00  0.00     0.029 A 
ATOM     53  N   UNL A   1      45.979  26.540  26.978  1.00  0.00    -0.354 N 
ATOM     54  N   UNL A   1      47.081  29.270  27.470  1.00  0.00    -0.248 NA
ATOM     55  C   UNL A   1      48.890  30.750  27.442  1.00  0.00     0.031 C 
ATOM     56  C   UNL A   1      47.341  25.017  26.117  1.00  0.00     0.029 A 
ATOM     57  C   UNL A   1      47.273  26.337  26.536  1.00  0.00     0.049 A 
ATOM     58  H   UNL A   1      45.634  27.387  27.344  1.00  0.00     0.167 HD
ATOM     59  C   UNL A   1      48.194  28.615  26.953  1.00  0.00     0.074 A 
ATOM     60  C   UNL A   1      49.271  29.586  26.935  1.00  0.00     0.031 C 
ATOM     61  C   UNL A   1      48.318  27.333  26.528  1.00  0.00     0.037 A 
BRANCH  48  62
ATOM     62  C   UNL A   1      43.192  23.895  27.070  1.00  0.00     0.058 A 
ATOM     63  C   UNL A   1      42.602  23.490  25.862  1.00  0.00     0.135 A 
ATOM     64  C   UNL A   1      43.144  22.998  28.151  1.00  0.00     0.135 A 
ATOM     65  F   UNL A   1      42.594  24.316  24.804  1.00  0.00    -0.206 F 
ATOM     66  C   UNL A   1      41.967  22.259  25.737  1.00  0.00     0.059 A 
ATOM     67  C   UNL A   1      42.539  21.750  28.041  1.00  0.00     0.059 A 
ATOM     68  F   UNL A   1      43.682  23.337  29.334  1.00  0.00    -0.206 F 
ATOM     69  C   UNL A   1      41.940  21.395  26.834  1.00  0.00     0.060 A 
BRANCH  69  70
ATOM     70  S   UNL A   1      41.116  19.799  26.655  1.00  0.00     0.124 S 
ATOM     71  O   UNL A   1      39.935  20.166  25.879  1.00  0.00    -0.237 OA
ATOM     72  O   UNL A   1      42.117  19.008  25.948  1.00  0.00    -0.237 OA
ATOM     73  O   UNL A   1      40.859  19.392  28.034  1.00  0.00    -0.744 OA
ENDBRANCH  69  70
ENDBRANCH  48  62
BRANCH  49  74
ATOM     74  C   UNL A   1      47.293  32.978  28.528  1.00  0.00     0.058 A 
ATOM     75  C   UNL A   1      47.846  33.300  29.776  1.00  0.00     0.135 A 
ATOM     76  C   UNL A   1      47.366  33.945  27.513  1.00  0.00     0.135 A 
ATOM     77  F   UNL A   1      47.797  32.410  30.780  1.00  0.00    -0.206 F 
ATOM     78  C   UNL A   1      48.436  34.536  30.017  1.00  0.00     0.059 A 
ATOM     79  C   UNL A   1      47.974  35.180  27.721  1.00  0.00     0.059 A 
ATOM     80  F   UNL A   1      46.869  33.682  26.295  1.00  0.00    -0.206 F 
ATOM     81  C   UNL A   1      48.498  35.470  28.980  1.00  0.00     0.060 A 
BRANCH  81  82
ATOM     82  S   UNL A   1      49.311  37.053  29.288  1.00  0.00     0.124 S 
ATOM     83  O   UNL A   1      50.477  36.958  28.417  1.00  0.00    -0.237 OA
ATOM     84  O   UNL A   1      48.285  38.007  28.880  1.00  0.00    -0.237 OA
ATOM     85  O   UNL A   1      49.587  37.015  30.721  1.00  0.00    -0.744 OA
ENDBRANCH  81  82
ENDBRANCH  49  74
BRANCH  61  86
ATOM     86  C   UNL A   1      49.653  26.920  25.978  1.00  0.00     0.058 A 
ATOM     87  C   UNL A   1      49.995  27.135  24.635  1.00  0.00     0.135 A 
ATOM     88  C   UNL A   1      50.622  26.358  26.825  1.00  0.00     0.135 A 
ATOM     89  F   UNL A   1      49.101  27.666  23.786  1.00  0.00    -0.206 F 
ATOM     90  C   UNL A   1      51.247  26.785  24.144  1.00  0.00     0.059 A 
ATOM     91  C   UNL A   1      51.890  26.028  26.361  1.00  0.00     0.059 A 
ATOM     92  F   UNL A   1      50.347  26.146  28.122  1.00  0.00    -0.206 F 
ATOM     93  C   UNL A   1      52.189  26.234  25.015  1.00  0.00     0.060 A 
BRANCH  93  94
ATOM     94  S   UNL A   1      53.822  25.817  24.372  1.00  0.00     0.124 S 
ATOM     95  O   UNL A   1      54.665  26.788  25.062  1.00  0.00    -0.237 OA
ATOM     96  O   UNL A   1      53.979  24.429  24.794  1.00  0.00    -0.237 OA
ATOM     97  O   UNL A   1      53.681  26.017  22.932  1.00  0.00    -0.744 OA
ENDBRANCH  93  94
ENDBRANCH  61  86
ENDBRANCH  35  36
ENDBRANCH  28  30
ENDBRANCH  27  28
ENDBRANCH  26  27
ENDBRANCH  25  26
ENDBRANCH   1  25
TORSDOF 20
ENDMDL
MODEL 3
REMARK VINA RESULT:     -10.8      6.657     12.034
REMARK SMILES C[C@@H](C(=O)OCCOCCOC(=O)c1ccc(-c2c3nc(c(-c4c(F)cc(S(=O)(=O)[O-])cc4F)c4ccc([nH]4)c(-c4c(F)cc(S(=O)(=O)[O-])cc4F)c4nc(c(-c5c(F)cc(S(=O)(=O)[O-])cc5F)c5ccc2[nH]5)C=C4)C=C3)cc1)c1ccccc1-c1ccn(C(F)F)c(=O)c1
REMARK SMILES IDX 8 1 7 2 6 3 5 4 3 5 4 6 2 7 1 8 80 9 81 10 85 11 82 12 84 13
REMARK SMILES IDX 83 14 86 15 87 16 95 17 88 18 93 19 89 20 94 21 90 22 91 23
REMARK SMILES IDX 92 24 9 25 10 26 11 27 12 28 13 29 14 30 15 31 79 32 16 33
REMARK SMILES IDX 78 34 17 35 18 36 19 37 72 38 20 39 77 40 71 41 73 42 21 43
REMARK SMILES IDX 76 44 70 45 69 46 22 48 56 49 35 50 55 51 36 52 39 53 54 54
REMARK SMILES IDX 74 55 37 56 38 57 53 59 75 60 40 61 23 62 24 63 33 64 25 65
REMARK SMILES IDX 26 66 32 67 34 68 27 69 28 70 29 71 30 72 31 73 57 74 58 75
REMARK SMILES IDX 67 76 59 77 60 78 66 79 68 80 61 81 62 82 63 83 64 84 65 85
REMARK SMILES IDX 41 86 42 87 51 88 43 89 44 90 50 91 52 92 45 93 46 94 47 95
REMARK SMILES IDX 48 96 49 97
REMARK H PARENT 73 47 39 58
REMARK Flexibility Score: inf
ROOT
ATOM      1  O   UNL A   1      34.760  32.653  27.877  1.00  0.00    -0.374 OA
ENDROOT
BRANCH   1   2
ATOM      2  C   UNL A   1      33.691  31.707  27.737  1.00  0.00     0.202 C 
BRANCH   2   3
ATOM      3  C   UNL A   1      34.115  30.312  27.260  1.00  0.00     0.261 C 
BRANCH   3   4
ATOM      4  O   UNL A   1      33.423  29.975  26.046  1.00  0.00    -0.463 OA
BRANCH   4   5
ATOM      5  C   UNL A   1      32.958  28.700  25.943  1.00  0.00     0.313 C 
ATOM      6  O   UNL A   1      32.828  27.937  26.892  1.00  0.00    -0.252 OA
BRANCH   5   7
ATOM      7  C   UNL A   1      32.733  28.289  24.493  1.00  0.00     0.127 C 
ATOM      8  C   UNL A   1      33.520  29.047  23.410  1.00  0.00     0.025 C 
BRANCH   7   9
ATOM      9  C   UNL A   1      31.277  28.094  24.038  1.00  0.00    -0.026 A 
ATOM     10  C   UNL A   1      30.641  29.298  23.642  1.00  0.00     0.005 A 
ATOM     11  C   UNL A   1      30.499  26.905  24.045  1.00  0.00    -0.014 A 
ATOM     12  C   UNL A   1      29.305  29.344  23.258  1.00  0.00     0.000 A 
ATOM     13  C   UNL A   1      29.145  26.979  23.645  1.00  0.00     0.009 A 
ATOM     14  C   UNL A   1      28.554  28.181  23.256  1.00  0.00     0.001 A 
BRANCH  11  15
ATOM     15  C   UNL A   1      30.922  25.542  24.455  1.00  0.00    -0.011 A 
ATOM     16  C   UNL A   1      31.785  24.705  23.632  1.00  0.00     0.027 A 
ATOM     17  C   UNL A   1      30.654  25.121  25.705  1.00  0.00     0.080 A 
ATOM     18  C   UNL A   1      32.091  23.458  24.016  1.00  0.00     0.095 A 
ATOM     19  C   UNL A   1      31.024  23.748  26.162  1.00  0.00     0.255 A 
ATOM     20  N   UNL A   1      31.618  22.944  25.206  1.00  0.00    -0.258 N 
ATOM     21  O   UNL A   1      30.773  23.421  27.318  1.00  0.00    -0.269 OA
BRANCH  20  22
ATOM     22  C   UNL A   1      31.772  21.538  25.497  1.00  0.00     0.451 C 
ATOM     23  F   UNL A   1      31.885  20.827  24.347  1.00  0.00    -0.185 F 
ATOM     24  F   UNL A   1      32.879  21.290  26.243  1.00  0.00    -0.185 F 
ENDBRANCH  20  22
ENDBRANCH  11  15
ENDBRANCH   7   9
ENDBRANCH   5   7
ENDBRANCH   4   5
ENDBRANCH   3   4
ENDBRANCH   2   3
ENDBRANCH   1   2
BRANCH   1  25
ATOM     25  C   UNL A   1      34.696  33.420  29.083  1.00  0.00     0.202 C 
BRANCH  25  26
ATOM     26  C   UNL A   1      35.823  33.095  30.064  1.00  0.00     0.261 C 
BRANCH  26  27
ATOM     27  O   UNL A   1      36.579  32.009  29.540  1.00  0.00    -0.460 OA
BRANCH  27  28
ATOM     28  C   UNL A   1      37.021  31.165  30.503  1.00  0.00     0.338 C 
ATOM     29  O   UNL A   1      36.407  30.806  31.496  1.00  0.00    -0.246 OA
BRANCH  28  30
ATOM     30  C   UNL A   1      38.283  30.575  30.014  1.00  0.00     0.060 A 
ATOM     31  C   UNL A   1      39.267  30.247  30.953  1.00  0.00     0.016 A 
ATOM     32  C   UNL A   1      38.466  30.285  28.654  1.00  0.00     0.016 A 
ATOM     33  C   UNL A   1      40.470  29.695  30.523  1.00  0.00     0.010 A 
ATOM     34  C   UNL A   1      39.658  29.719  28.228  1.00  0.00     0.010 A 
ATOM     35  C   UNL A   1      40.680  29.476  29.156  1.00  0.00    -0.014 A 
BRANCH  35  36
ATOM     36  C   UNL A   1      42.034  29.201  28.649  1.00  0.00     0.031 A 
ATOM     37  C   UNL A   1      42.337  27.800  28.203  1.00  0.00     0.074 A 
ATOM     38  C   UNL A   1      42.962  30.172  28.626  1.00  0.00     0.049 A 
ATOM     39  N   UNL A   1      43.464  27.284  27.795  1.00  0.00    -0.248 NA
ATOM     40  C   UNL A   1      41.216  26.841  28.242  1.00  0.00     0.031 C 
ATOM     41  C   UNL A   1      42.745  31.559  29.037  1.00  0.00     0.029 A 
ATOM     42  N   UNL A   1      44.277  30.131  28.251  1.00  0.00    -0.354 N 
ATOM     43  C   UNL A   1      43.193  25.945  27.542  1.00  0.00     0.074 A 
ATOM     44  C   UNL A   1      41.807  25.714  27.878  1.00  0.00     0.031 C 
ATOM     45  C   UNL A   1      43.896  32.239  28.899  1.00  0.00     0.029 A 
ATOM     46  C   UNL A   1      44.931  31.328  28.418  1.00  0.00     0.049 A 
ATOM     47  H   UNL A   1      44.713  29.323  27.898  1.00  0.00     0.167 HD
ATOM     48  C   UNL A   1      44.029  24.997  27.059  1.00  0.00     0.037 A 
ATOM     49  C   UNL A   1      46.227  31.634  28.214  1.00  0.00     0.037 A 
ATOM     50  C   UNL A   1      45.403  25.259  26.728  1.00  0.00     0.049 A 
ATOM     51  C   UNL A   1      47.146  30.556  27.702  1.00  0.00     0.074 A 
ATOM     52  C   UNL A   1      46.344  24.394  26.202  1.00  0.00     0.029 A 
ATOM     53  N   UNL A   1      46.033  26.485  26.900  1.00  0.00    -0.354 N 
ATOM     54  N   UNL A   1      46.871  29.301  27.426  1.00  0.00    -0.248 NA
ATOM     55  C   UNL A   1      48.545  30.932  27.467  1.00  0.00     0.031 C 
ATOM     56  C   UNL A   1      47.556  25.085  26.100  1.00  0.00     0.029 A 
ATOM     57  C   UNL A   1      47.356  26.395  26.511  1.00  0.00     0.049 A 
ATOM     58  H   UNL A   1      45.601  27.299  27.248  1.00  0.00     0.167 HD
ATOM     59  C   UNL A   1      48.057  28.745  26.957  1.00  0.00     0.074 A 
ATOM     60  C   UNL A   1      49.046  29.805  26.980  1.00  0.00     0.031 C 
ATOM     61  C   UNL A   1      48.310  27.478  26.543  1.00  0.00     0.037 A 
BRANCH  48  62
ATOM     62  C   UNL A   1      43.484  23.607  26.888  1.00  0.00     0.058 A 
ATOM     63  C   UNL A   1      43.158  23.088  25.625  1.00  0.00     0.135 A 
ATOM     64  C   UNL A   1      43.292  22.776  28.004  1.00  0.00     0.135 A 
ATOM     65  F   UNL A   1      43.296  23.846  24.525  1.00  0.00    -0.206 F 
ATOM     66  C   UNL A   1      42.636  21.807  25.476  1.00  0.00     0.059 A 
ATOM     67  C   UNL A   1      42.798  21.481  27.876  1.00  0.00     0.059 A 
ATOM     68  F   UNL A   1      43.576  23.225  29.237  1.00  0.00    -0.206 F 
ATOM     69  C   UNL A   1      42.459  21.010  26.609  1.00  0.00     0.060 A 
BRANCH  69  70
ATOM     70  S   UNL A   1      41.785  19.349  26.399  1.00  0.00     0.124 S 
ATOM     71  O   UNL A   1      40.352  19.621  26.337  1.00  0.00    -0.237 OA
ATOM     72  O   UNL A   1      42.402  18.918  25.149  1.00  0.00    -0.237 OA
ATOM     73  O   UNL A   1      42.238  18.644  27.595  1.00  0.00    -0.744 OA
ENDBRANCH  69  70
ENDBRANCH  48  62
BRANCH  49  74
ATOM     74  C   UNL A   1      46.717  33.013  28.479  1.00  0.00     0.058 A 
ATOM     75  C   UNL A   1      46.725  33.983  27.467  1.00  0.00     0.135 A 
ATOM     76  C   UNL A   1      47.165  33.395  29.753  1.00  0.00     0.135 A 
ATOM     77  F   UNL A   1      46.311  33.666  26.230  1.00  0.00    -0.206 F 
ATOM     78  C   UNL A   1      47.172  35.279  27.702  1.00  0.00     0.059 A 
ATOM     79  C   UNL A   1      47.594  34.692  30.020  1.00  0.00     0.059 A 
ATOM     80  F   UNL A   1      47.162  32.509  30.762  1.00  0.00    -0.206 F 
ATOM     81  C   UNL A   1      47.602  35.626  28.984  1.00  0.00     0.060 A 
BRANCH  81  82
ATOM     82  S   UNL A   1      48.133  37.324  29.292  1.00  0.00     0.124 S 
ATOM     83  O   UNL A   1      49.579  37.166  29.395  1.00  0.00    -0.237 OA
ATOM     84  O   UNL A   1      47.649  38.015  28.100  1.00  0.00    -0.237 OA
ATOM     85  O   UNL A   1      47.444  37.672  30.531  1.00  0.00    -0.744 OA
ENDBRANCH  81  82
ENDBRANCH  49  74
BRANCH  61  86
ATOM     86  C   UNL A   1      49.697  27.182  26.049  1.00  0.00     0.058 A 
ATOM     87  C   UNL A   1      50.720  26.784  26.921  1.00  0.00     0.135 A 
ATOM     88  C   UNL A   1      49.984  27.239  24.676  1.00  0.00     0.135 A 
ATOM     89  F   UNL A   1      50.495  26.718  28.243  1.00  0.00    -0.206 F 
ATOM     90  C   UNL A   1      51.991  26.474  26.451  1.00  0.00     0.059 A 
ATOM     91  C   UNL A   1      51.239  26.906  24.181  1.00  0.00     0.059 A 
ATOM     92  F   UNL A   1      49.034  27.601  23.799  1.00  0.00    -0.206 F 
ATOM     93  C   UNL A   1      52.240  26.536  25.078  1.00  0.00     0.060 A 
BRANCH  93  94
ATOM     94  S   UNL A   1      53.884  26.097  24.477  1.00  0.00     0.124 S 
ATOM     95  O   UNL A   1      53.765  26.397  23.054  1.00  0.00    -0.237 OA
ATOM     96  O   UNL A   1      54.746  26.992  25.244  1.00  0.00    -0.237 OA
ATOM     97  O   UNL A   1      54.002  24.682  24.814  1.00  0.00    -0.744 OA
ENDBRANCH  93  94
ENDBRANCH  61  86
ENDBRANCH  35  36
ENDBRANCH  28  30
ENDBRANCH  27  28
ENDBRANCH  26  27
ENDBRANCH  25  26
ENDBRANCH   1  25
TORSDOF 20
ENDMDL
