MODEL 1
REMARK VINA RESULT:     -10.7      0.000      0.000
REMARK SMILES O=C(CCC(=O)OCCOCCOC(=O)c1ccc(-c2c3nc(c(-c4c(F)cc(S(=O)(=O)[O-])cc4F)c4ccc([nH]4)c(-c4c(F)cc(S(=O)(=O)[O-])cc4F)c4nc(c(-c5c(F)cc(S(=O)(=O)[O-])cc5F)c5ccc2[nH]5)C=C4)C=C3)cc1)Nc1ccc2nc(-c3ccccc3)oc2c1
REMARK SMILES IDX 9 1 8 2 7 3 5 4 6 5 4 6 3 7 2 8 1 9 82 10 83 12 84 13 97 14
REMARK SMILES IDX 85 15 96 16 86 17 95 18 87 19 88 20 89 21 90 22 94 23 91 24
REMARK SMILES IDX 93 25 92 26 10 27 11 28 12 29 13 30 14 31 15 32 16 33 17 34
REMARK SMILES IDX 81 35 18 36 80 37 19 38 20 39 21 40 74 41 22 42 79 43 73 44
REMARK SMILES IDX 75 45 23 46 78 47 72 48 71 49 24 51 58 52 37 53 57 54 38 55
REMARK SMILES IDX 41 56 56 57 76 58 39 59 40 60 55 62 77 63 42 64 25 65 26 66
REMARK SMILES IDX 35 67 27 68 28 69 34 70 36 71 29 72 30 73 31 74 32 75 33 76
REMARK SMILES IDX 59 77 60 78 69 79 61 80 62 81 68 82 70 83 63 84 64 85 65 86
REMARK SMILES IDX 66 87 67 88 43 89 44 90 53 91 45 92 46 93 52 94 54 95 47 96
REMARK SMILES IDX 48 97 49 98 50 99 51 100
REMARK H PARENT 82 11 75 50 41 61
REMARK Flexibility Score: inf
ROOT
ATOM      1  C   UNL A   1      34.728  35.080  34.154  1.00  0.00     0.202 C 
ENDROOT
BRANCH   1   2
ATOM      2  C   UNL A   1      34.559  36.147  33.068  1.00  0.00     0.261 C 
BRANCH   2   3
ATOM      3  O   UNL A   1      33.973  35.577  31.872  1.00  0.00    -0.463 OA
BRANCH   3   4
ATOM      4  C   UNL A   1      33.329  36.433  31.031  1.00  0.00     0.306 C 
ATOM      5  O   UNL A   1      33.095  37.609  31.273  1.00  0.00    -0.252 OA
BRANCH   4   6
ATOM      6  C   UNL A   1      32.884  35.739  29.756  1.00  0.00     0.132 C 
BRANCH   6   7
ATOM      7  C   UNL A   1      33.967  34.958  29.004  1.00  0.00     0.112 C 
BRANCH   7   8
ATOM      8  C   UNL A   1      33.413  33.793  28.189  1.00  0.00     0.224 C 
ATOM      9  O   UNL A   1      32.292  33.825  27.699  1.00  0.00    -0.275 OA
ATOM     10  N   UNL A   1      34.291  32.737  28.146  1.00  0.00    -0.326 N 
ATOM     11  H   UNL A   1      35.212  32.919  28.445  1.00  0.00     0.169 HD
BRANCH  10  12
ATOM     12  C   UNL A   1      34.018  31.429  27.720  1.00  0.00     0.045 A 
ATOM     13  C   UNL A   1      35.085  30.543  27.938  1.00  0.00     0.028 A 
ATOM     14  C   UNL A   1      32.810  31.005  27.130  1.00  0.00     0.075 A 
ATOM     15  C   UNL A   1      34.962  29.190  27.664  1.00  0.00     0.034 A 
ATOM     16  C   UNL A   1      32.779  29.658  26.748  1.00  0.00     0.157 A 
ATOM     17  C   UNL A   1      33.794  28.762  27.041  1.00  0.00     0.110 A 
ATOM     18  O   UNL A   1      31.831  28.963  26.012  1.00  0.00    -0.436 OA
ATOM     19  N   UNL A   1      33.473  27.522  26.619  1.00  0.00    -0.209 NA
ATOM     20  C   UNL A   1      32.345  27.680  25.960  1.00  0.00     0.227 A 
BRANCH  20  21
ATOM     21  C   UNL A   1      31.658  26.615  25.235  1.00  0.00     0.037 A 
ATOM     22  C   UNL A   1      31.017  26.776  24.005  1.00  0.00     0.014 A 
ATOM     23  C   UNL A   1      31.810  25.311  25.742  1.00  0.00     0.014 A 
ATOM     24  C   UNL A   1      30.577  25.646  23.293  1.00  0.00     0.001 A 
ATOM     25  C   UNL A   1      31.378  24.191  25.039  1.00  0.00     0.001 A 
ATOM     26  C   UNL A   1      30.767  24.359  23.805  1.00  0.00     0.000 A 
ENDBRANCH  20  21
ENDBRANCH  10  12
ENDBRANCH   7   8
ENDBRANCH   6   7
ENDBRANCH   4   6
ENDBRANCH   3   4
ENDBRANCH   2   3
ENDBRANCH   1   2
BRANCH   1  27
ATOM     27  O   UNL A   1      34.999  33.761  33.682  1.00  0.00    -0.374 OA
BRANCH  27  28
ATOM     28  C   UNL A   1      36.214  33.155  34.113  1.00  0.00     0.202 C 
BRANCH  28  29
ATOM     29  C   UNL A   1      37.315  33.008  33.055  1.00  0.00     0.261 C 
BRANCH  29  30
ATOM     30  O   UNL A   1      37.332  31.708  32.441  1.00  0.00    -0.460 OA
BRANCH  30  31
ATOM     31  C   UNL A   1      37.322  31.729  31.086  1.00  0.00     0.338 C 
ATOM     32  O   UNL A   1      36.549  32.358  30.370  1.00  0.00    -0.246 OA
BRANCH  31  33
ATOM     33  C   UNL A   1      38.491  31.014  30.540  1.00  0.00     0.060 A 
ATOM     34  C   UNL A   1      39.547  30.725  31.414  1.00  0.00     0.016 A 
ATOM     35  C   UNL A   1      38.596  30.700  29.186  1.00  0.00     0.016 A 
ATOM     36  C   UNL A   1      40.730  30.159  30.932  1.00  0.00     0.010 A 
ATOM     37  C   UNL A   1      39.782  30.127  28.709  1.00  0.00     0.010 A 
ATOM     38  C   UNL A   1      40.873  29.877  29.568  1.00  0.00    -0.014 A 
BRANCH  38  39
ATOM     39  C   UNL A   1      42.189  29.462  29.000  1.00  0.00     0.031 A 
ATOM     40  C   UNL A   1      42.396  28.015  28.630  1.00  0.00     0.074 A 
ATOM     41  C   UNL A   1      43.200  30.337  28.821  1.00  0.00     0.049 A 
ATOM     42  N   UNL A   1      43.476  27.408  28.211  1.00  0.00    -0.248 NA
ATOM     43  C   UNL A   1      41.219  27.135  28.732  1.00  0.00     0.031 C 
ATOM     44  C   UNL A   1      43.131  31.776  29.062  1.00  0.00     0.029 A 
ATOM     45  N   UNL A   1      44.508  30.131  28.451  1.00  0.00    -0.354 N 
ATOM     46  C   UNL A   1      43.105  26.091  27.974  1.00  0.00     0.074 A 
ATOM     47  C   UNL A   1      41.725  25.962  28.387  1.00  0.00     0.031 C 
ATOM     48  C   UNL A   1      44.361  32.306  28.948  1.00  0.00     0.029 A 
ATOM     49  C   UNL A   1      45.302  31.247  28.599  1.00  0.00     0.049 A 
ATOM     50  H   UNL A   1      44.845  29.270  28.112  1.00  0.00     0.167 HD
ATOM     51  C   UNL A   1      43.827  25.093  27.411  1.00  0.00     0.037 A 
ATOM     52  C   UNL A   1      46.638  31.398  28.489  1.00  0.00     0.037 A 
ATOM     53  C   UNL A   1      45.195  25.230  26.989  1.00  0.00     0.049 A 
ATOM     54  C   UNL A   1      47.466  30.233  28.016  1.00  0.00     0.074 A 
ATOM     55  C   UNL A   1      45.991  24.305  26.336  1.00  0.00     0.029 A 
ATOM     56  N   UNL A   1      45.976  26.359  27.188  1.00  0.00    -0.354 N 
ATOM     57  N   UNL A   1      47.084  29.015  27.717  1.00  0.00    -0.248 NA
ATOM     58  C   UNL A   1      48.902  30.476  27.814  1.00  0.00     0.031 C 
ATOM     59  C   UNL A   1      47.267  24.858  26.183  1.00  0.00     0.029 A 
ATOM     60  C   UNL A   1      47.252  26.146  26.694  1.00  0.00     0.049 A 
ATOM     61  H   UNL A   1      45.669  27.190  27.619  1.00  0.00     0.167 HD
ATOM     62  C   UNL A   1      48.212  28.368  27.227  1.00  0.00     0.074 A 
ATOM     63  C   UNL A   1      49.299  29.324  27.291  1.00  0.00     0.031 C 
ATOM     64  C   UNL A   1      48.326  27.108  26.740  1.00  0.00     0.037 A 
BRANCH  51  65
ATOM     65  C   UNL A   1      43.132  23.774  27.203  1.00  0.00     0.058 A 
ATOM     66  C   UNL A   1      43.025  22.829  28.238  1.00  0.00     0.135 A 
ATOM     67  C   UNL A   1      42.567  23.449  25.961  1.00  0.00     0.135 A 
ATOM     68  F   UNL A   1      43.558  23.082  29.444  1.00  0.00    -0.206 F 
ATOM     69  C   UNL A   1      42.424  21.591  28.036  1.00  0.00     0.059 A 
ATOM     70  C   UNL A   1      41.932  22.228  25.745  1.00  0.00     0.059 A 
ATOM     71  F   UNL A   1      42.635  24.315  24.938  1.00  0.00    -0.206 F 
ATOM     72  C   UNL A   1      41.887  21.297  26.782  1.00  0.00     0.060 A 
BRANCH  72  73
ATOM     73  S   UNL A   1      41.135  19.676  26.527  1.00  0.00     0.124 S 
ATOM     74  O   UNL A   1      42.097  19.050  25.624  1.00  0.00    -0.237 OA
ATOM     75  O   UNL A   1      41.093  19.134  27.881  1.00  0.00    -0.237 OA
ATOM     76  O   UNL A   1      39.837  19.992  25.940  1.00  0.00    -0.744 OA
ENDBRANCH  72  73
ENDBRANCH  51  65
BRANCH  52  77
ATOM     77  C   UNL A   1      47.274  32.713  28.786  1.00  0.00     0.058 A 
ATOM     78  C   UNL A   1      47.460  33.672  27.781  1.00  0.00     0.135 A 
ATOM     79  C   UNL A   1      47.716  33.039  30.077  1.00  0.00     0.135 A 
ATOM     80  F   UNL A   1      47.061  33.412  26.527  1.00  0.00    -0.206 F 
ATOM     81  C   UNL A   1      48.077  34.893  28.041  1.00  0.00     0.059 A 
ATOM     82  C   UNL A   1      48.325  34.257  30.367  1.00  0.00     0.059 A 
ATOM     83  F   UNL A   1      47.553  32.175  31.087  1.00  0.00    -0.206 F 
ATOM     84  C   UNL A   1      48.507  35.177  29.339  1.00  0.00     0.060 A 
BRANCH  84  85
ATOM     85  S   UNL A   1      49.269  36.780  29.672  1.00  0.00     0.124 S 
ATOM     86  O   UNL A   1      49.116  37.453  28.387  1.00  0.00    -0.237 OA
ATOM     87  O   UNL A   1      48.441  37.286  30.761  1.00  0.00    -0.237 OA
ATOM     88  O   UNL A   1      50.638  36.433  30.042  1.00  0.00    -0.744 OA
ENDBRANCH  84  85
ENDBRANCH  52  77
BRANCH  64  89
ATOM     89  C   UNL A   1      49.652  26.706  26.154  1.00  0.00     0.058 A 
ATOM     90  C   UNL A   1      50.010  27.019  24.834  1.00  0.00     0.135 A 
ATOM     91  C   UNL A   1      50.596  26.030  26.946  1.00  0.00     0.135 A 
ATOM     92  F   UNL A   1      49.143  27.659  24.033  1.00  0.00    -0.206 F 
ATOM     93  C   UNL A   1      51.248  26.655  24.312  1.00  0.00     0.059 A 
ATOM     94  C   UNL A   1      51.850  25.682  26.454  1.00  0.00     0.059 A 
ATOM     95  F   UNL A   1      50.309  25.714  28.219  1.00  0.00    -0.206 F 
ATOM     96  C   UNL A   1      52.162  25.987  25.131  1.00  0.00     0.060 A 
BRANCH  96  97
ATOM     97  S   UNL A   1      53.776  25.548  24.452  1.00  0.00     0.124 S 
ATOM     98  O   UNL A   1      53.842  24.121  24.752  1.00  0.00    -0.237 OA
ATOM     99  O   UNL A   1      53.626  25.892  23.041  1.00  0.00    -0.237 OA
ATOM    100  O   UNL A   1      54.702  26.391  25.202  1.00  0.00    -0.744 OA
ENDBRANCH  96  97
ENDBRANCH  64  89
ENDBRANCH  38  39
ENDBRANCH  31  33
ENDBRANCH  30  31
ENDBRANCH  29  30
ENDBRANCH  28  29
ENDBRANCH  27  28
ENDBRANCH   1  27
TORSDOF 21
ENDMDL
MODEL 2
REMARK VINA RESULT:     -10.7      4.497     12.726
REMARK SMILES O=C(CCC(=O)OCCOCCOC(=O)c1ccc(-c2c3nc(c(-c4c(F)cc(S(=O)(=O)[O-])cc4F)c4ccc([nH]4)c(-c4c(F)cc(S(=O)(=O)[O-])cc4F)c4nc(c(-c5c(F)cc(S(=O)(=O)[O-])cc5F)c5ccc2[nH]5)C=C4)C=C3)cc1)Nc1ccc2nc(-c3ccccc3)oc2c1
REMARK SMILES IDX 9 1 8 2 7 3 5 4 6 5 4 6 3 7 2 8 1 9 82 10 83 12 84 13 97 14
REMARK SMILES IDX 85 15 96 16 86 17 95 18 87 19 88 20 89 21 90 22 94 23 91 24
REMARK SMILES IDX 93 25 92 26 10 27 11 28 12 29 13 30 14 31 15 32 16 33 17 34
REMARK SMILES IDX 81 35 18 36 80 37 19 38 20 39 21 40 74 41 22 42 79 43 73 44
REMARK SMILES IDX 75 45 23 46 78 47 72 48 71 49 24 51 58 52 37 53 57 54 38 55
REMARK SMILES IDX 41 56 56 57 76 58 39 59 40 60 55 62 77 63 42 64 25 65 26 66
REMARK SMILES IDX 35 67 27 68 28 69 34 70 36 71 29 72 30 73 31 74 32 75 33 76
REMARK SMILES IDX 59 77 60 78 69 79 61 80 62 81 68 82 70 83 63 84 64 85 65 86
REMARK SMILES IDX 66 87 67 88 43 89 44 90 53 91 45 92 46 93 52 94 54 95 47 96
REMARK SMILES IDX 48 97 49 98 50 99 51 100
REMARK H PARENT 82 11 75 50 41 61
REMARK Flexibility Score: inf
ROOT
ATOM      1  C   UNL A   1      43.196  18.844  25.755  1.00  0.00     0.202 C 
ENDROOT
BRANCH   1   2
ATOM      2  C   UNL A   1      44.396  19.619  25.199  1.00  0.00     0.261 C 
BRANCH   2   3
ATOM      3  O   UNL A   1      43.962  20.648  24.277  1.00  0.00    -0.463 OA
BRANCH   3   4
ATOM      4  C   UNL A   1      44.092  21.940  24.688  1.00  0.00     0.306 C 
ATOM      5  O   UNL A   1      43.470  22.887  24.226  1.00  0.00    -0.252 OA
BRANCH   4   6
ATOM      6  C   UNL A   1      45.148  22.083  25.769  1.00  0.00     0.132 C 
BRANCH   6   7
ATOM      7  C   UNL A   1      46.411  22.856  25.374  1.00  0.00     0.112 C 
BRANCH   7   8
ATOM      8  C   UNL A   1      46.577  24.167  26.137  1.00  0.00     0.224 C 
ATOM      9  O   UNL A   1      46.405  24.236  27.346  1.00  0.00    -0.275 OA
ATOM     10  N   UNL A   1      46.870  25.213  25.295  1.00  0.00    -0.326 N 
ATOM     11  H   UNL A   1      47.137  24.977  24.377  1.00  0.00     0.169 HD
BRANCH  10  12
ATOM     12  C   UNL A   1      46.832  26.581  25.603  1.00  0.00     0.045 A 
ATOM     13  C   UNL A   1      48.097  27.118  25.893  1.00  0.00     0.028 A 
ATOM     14  C   UNL A   1      45.666  27.373  25.628  1.00  0.00     0.075 A 
ATOM     15  C   UNL A   1      48.265  28.473  26.130  1.00  0.00     0.034 A 
ATOM     16  C   UNL A   1      45.865  28.708  26.002  1.00  0.00     0.157 A 
ATOM     17  C   UNL A   1      47.120  29.261  26.203  1.00  0.00     0.110 A 
ATOM     18  O   UNL A   1      44.940  29.702  26.279  1.00  0.00    -0.436 OA
ATOM     19  N   UNL A   1      47.022  30.577  26.484  1.00  0.00    -0.209 NA
ATOM     20  C   UNL A   1      45.729  30.796  26.588  1.00  0.00     0.227 A 
BRANCH  20  21
ATOM     21  C   UNL A   1      45.139  32.073  26.980  1.00  0.00     0.037 A 
ATOM     22  C   UNL A   1      45.006  33.179  26.139  1.00  0.00     0.014 A 
ATOM     23  C   UNL A   1      44.515  32.115  28.241  1.00  0.00     0.014 A 
ATOM     24  C   UNL A   1      44.233  34.279  26.548  1.00  0.00     0.001 A 
ATOM     25  C   UNL A   1      43.747  33.202  28.648  1.00  0.00     0.001 A 
ATOM     26  C   UNL A   1      43.598  34.284  27.793  1.00  0.00     0.000 A 
ENDBRANCH  20  21
ENDBRANCH  10  12
ENDBRANCH   7   8
ENDBRANCH   6   7
ENDBRANCH   4   6
ENDBRANCH   3   4
ENDBRANCH   2   3
ENDBRANCH   1   2
BRANCH   1  27
ATOM     27  O   UNL A   1      41.914  19.366  25.405  1.00  0.00    -0.374 OA
BRANCH  27  28
ATOM     28  C   UNL A   1      41.125  19.907  26.460  1.00  0.00     0.202 C 
BRANCH  28  29
ATOM     29  C   UNL A   1      41.262  21.415  26.708  1.00  0.00     0.261 C 
BRANCH  29  30
ATOM     30  O   UNL A   1      40.085  21.994  27.300  1.00  0.00    -0.460 OA
BRANCH  30  31
ATOM     31  C   UNL A   1      39.466  22.917  26.525  1.00  0.00     0.338 C 
ATOM     32  O   UNL A   1      38.747  22.695  25.555  1.00  0.00    -0.246 OA
BRANCH  31  33
ATOM     33  C   UNL A   1      39.623  24.270  27.092  1.00  0.00     0.060 A 
ATOM     34  C   UNL A   1      40.369  25.203  26.360  1.00  0.00     0.016 A 
ATOM     35  C   UNL A   1      39.121  24.604  28.349  1.00  0.00     0.016 A 
ATOM     36  C   UNL A   1      40.654  26.460  26.900  1.00  0.00     0.010 A 
ATOM     37  C   UNL A   1      39.405  25.868  28.881  1.00  0.00     0.010 A 
ATOM     38  C   UNL A   1      40.198  26.800  28.179  1.00  0.00    -0.014 A 
BRANCH  38  39
ATOM     39  C   UNL A   1      40.654  28.050  28.854  1.00  0.00     0.031 A 
ATOM     40  C   UNL A   1      42.006  28.065  29.519  1.00  0.00     0.074 A 
ATOM     41  C   UNL A   1      39.886  29.159  28.899  1.00  0.00     0.049 A 
ATOM     42  N   UNL A   1      42.569  28.999  30.242  1.00  0.00    -0.248 NA
ATOM     43  C   UNL A   1      42.845  26.869  29.331  1.00  0.00     0.031 C 
ATOM     44  C   UNL A   1      38.591  29.323  28.244  1.00  0.00     0.029 A 
ATOM     45  N   UNL A   1      40.061  30.342  29.578  1.00  0.00    -0.354 N 
ATOM     46  C   UNL A   1      43.831  28.518  30.568  1.00  0.00     0.074 A 
ATOM     47  C   UNL A   1      43.916  27.171  30.048  1.00  0.00     0.031 C 
ATOM     48  C   UNL A   1      38.036  30.481  28.643  1.00  0.00     0.029 A 
ATOM     49  C   UNL A   1      38.948  31.153  29.561  1.00  0.00     0.049 A 
ATOM     50  H   UNL A   1      40.900  30.586  30.033  1.00  0.00     0.167 HD
ATOM     51  C   UNL A   1      44.848  29.157  31.194  1.00  0.00     0.037 A 
ATOM     52  C   UNL A   1      38.682  32.297  30.224  1.00  0.00     0.037 A 
ATOM     53  C   UNL A   1      44.763  30.502  31.698  1.00  0.00     0.049 A 
ATOM     54  C   UNL A   1      39.768  32.927  31.056  1.00  0.00     0.074 A 
ATOM     55  C   UNL A   1      45.760  31.268  32.276  1.00  0.00     0.029 A 
ATOM     56  N   UNL A   1      43.612  31.277  31.696  1.00  0.00    -0.354 N 
ATOM     57  N   UNL A   1      40.986  32.497  31.286  1.00  0.00    -0.248 NA
ATOM     58  C   UNL A   1      39.463  34.224  31.676  1.00  0.00     0.031 C 
ATOM     59  C   UNL A   1      45.200  32.490  32.667  1.00  0.00     0.029 A 
ATOM     60  C   UNL A   1      43.868  32.504  32.286  1.00  0.00     0.049 A 
ATOM     61  H   UNL A   1      42.743  30.996  31.330  1.00  0.00     0.167 HD
ATOM     62  C   UNL A   1      41.613  33.500  32.016  1.00  0.00     0.074 A 
ATOM     63  C   UNL A   1      40.633  34.549  32.210  1.00  0.00     0.031 C 
ATOM     64  C   UNL A   1      42.895  33.555  32.457  1.00  0.00     0.037 A 
BRANCH  51  65
ATOM     65  C   UNL A   1      46.144  28.407  31.343  1.00  0.00     0.058 A 
ATOM     66  C   UNL A   1      47.208  28.592  30.443  1.00  0.00     0.135 A 
ATOM     67  C   UNL A   1      46.330  27.498  32.395  1.00  0.00     0.135 A 
ATOM     68  F   UNL A   1      47.081  29.442  29.411  1.00  0.00    -0.206 F 
ATOM     69  C   UNL A   1      48.389  27.868  30.552  1.00  0.00     0.059 A 
ATOM     70  C   UNL A   1      47.517  26.784  32.542  1.00  0.00     0.059 A 
ATOM     71  F   UNL A   1      45.350  27.285  33.287  1.00  0.00    -0.206 F 
ATOM     72  C   UNL A   1      48.532  26.959  31.602  1.00  0.00     0.060 A 
BRANCH  72  73
ATOM     73  S   UNL A   1      50.060  26.006  31.713  1.00  0.00     0.124 S 
ATOM     74  O   UNL A   1      49.789  24.914  30.783  1.00  0.00    -0.237 OA
ATOM     75  O   UNL A   1      51.064  26.972  31.280  1.00  0.00    -0.237 OA
ATOM     76  O   UNL A   1      50.124  25.629  33.122  1.00  0.00    -0.744 OA
ENDBRANCH  72  73
ENDBRANCH  51  65
BRANCH  52  77
ATOM     77  C   UNL A   1      37.348  32.950  30.095  1.00  0.00     0.058 A 
ATOM     78  C   UNL A   1      36.335  32.721  31.035  1.00  0.00     0.135 A 
ATOM     79  C   UNL A   1      37.053  33.810  29.026  1.00  0.00     0.135 A 
ATOM     80  F   UNL A   1      36.560  31.904  32.075  1.00  0.00    -0.206 F 
ATOM     81  C   UNL A   1      35.076  33.305  30.911  1.00  0.00     0.059 A 
ATOM     82  C   UNL A   1      35.807  34.416  28.884  1.00  0.00     0.059 A 
ATOM     83  F   UNL A   1      37.981  34.085  28.102  1.00  0.00    -0.206 F 
ATOM     84  C   UNL A   1      34.822  34.151  29.830  1.00  0.00     0.060 A 
BRANCH  84  85
ATOM     85  S   UNL A   1      33.199  34.934  29.702  1.00  0.00     0.124 S 
ATOM     86  O   UNL A   1      32.734  34.880  31.084  1.00  0.00    -0.237 OA
ATOM     87  O   UNL A   1      33.542  36.258  29.195  1.00  0.00    -0.237 OA
ATOM     88  O   UNL A   1      32.483  34.076  28.762  1.00  0.00    -0.744 OA
ENDBRANCH  84  85
ENDBRANCH  52  77
BRANCH  64  89
ATOM     89  C   UNL A   1      43.347  34.827  33.121  1.00  0.00     0.058 A 
ATOM     90  C   UNL A   1      43.765  35.945  32.385  1.00  0.00     0.135 A 
ATOM     91  C   UNL A   1      43.320  34.939  34.522  1.00  0.00     0.135 A 
ATOM     92  F   UNL A   1      43.816  35.890  31.044  1.00  0.00    -0.206 F 
ATOM     93  C   UNL A   1      44.165  37.121  33.013  1.00  0.00     0.059 A 
ATOM     94  C   UNL A   1      43.686  36.113  35.170  1.00  0.00     0.059 A 
ATOM     95  F   UNL A   1      42.918  33.902  35.275  1.00  0.00    -0.206 F 
ATOM     96  C   UNL A   1      44.120  37.195  34.408  1.00  0.00     0.060 A 
BRANCH  96  97
ATOM     97  S   UNL A   1      44.611  38.736  35.211  1.00  0.00     0.124 S 
ATOM     98  O   UNL A   1      44.104  38.536  36.565  1.00  0.00    -0.237 OA
ATOM     99  O   UNL A   1      46.064  38.714  35.069  1.00  0.00    -0.237 OA
ATOM    100  O   UNL A   1      43.926  39.761  34.429  1.00  0.00    -0.744 OA
ENDBRANCH  96  97
ENDBRANCH  64  89
ENDBRANCH  38  39
ENDBRANCH  31  33
ENDBRANCH  30  31
ENDBRANCH  29  30
ENDBRANCH  28  29
ENDBRANCH  27  28
ENDBRANCH   1  27
TORSDOF 21
ENDMDL
MODEL 3
REMARK VINA RESULT:     -10.7      6.036     11.468
REMARK SMILES O=C(CCC(=O)OCCOCCOC(=O)c1ccc(-c2c3nc(c(-c4c(F)cc(S(=O)(=O)[O-])cc4F)c4ccc([nH]4)c(-c4c(F)cc(S(=O)(=O)[O-])cc4F)c4nc(c(-c5c(F)cc(S(=O)(=O)[O-])cc5F)c5ccc2[nH]5)C=C4)C=C3)cc1)Nc1ccc2nc(-c3ccccc3)oc2c1
REMARK SMILES IDX 9 1 8 2 7 3 5 4 6 5 4 6 3 7 2 8 1 9 82 10 83 12 84 13 97 14
REMARK SMILES IDX 85 15 96 16 86 17 95 18 87 19 88 20 89 21 90 22 94 23 91 24
REMARK SMILES IDX 93 25 92 26 10 27 11 28 12 29 13 30 14 31 15 32 16 33 17 34
REMARK SMILES IDX 81 35 18 36 80 37 19 38 20 39 21 40 74 41 22 42 79 43 73 44
REMARK SMILES IDX 75 45 23 46 78 47 72 48 71 49 24 51 58 52 37 53 57 54 38 55
REMARK SMILES IDX 41 56 56 57 76 58 39 59 40 60 55 62 77 63 42 64 25 65 26 66
REMARK SMILES IDX 35 67 27 68 28 69 34 70 36 71 29 72 30 73 31 74 32 75 33 76
REMARK SMILES IDX 59 77 60 78 69 79 61 80 62 81 68 82 70 83 63 84 64 85 65 86
REMARK SMILES IDX 66 87 67 88 43 89 44 90 53 91 45 92 46 93 52 94 54 95 47 96
REMARK SMILES IDX 48 97 49 98 50 99 51 100
REMARK H PARENT 82 11 75 50 41 61
REMARK Flexibility Score: inf
ROOT
ATOM      1  C   UNL A   1      33.991  29.331  27.237  1.00  0.00     0.202 C 
ENDROOT
BRANCH   1   2
ATOM      2  C   UNL A   1      33.785  28.558  25.930  1.00  0.00     0.261 C 
BRANCH   2   3
ATOM      3  O   UNL A   1      32.417  28.679  25.470  1.00  0.00    -0.463 OA
BRANCH   3   4
ATOM      4  C   UNL A   1      32.219  28.703  24.123  1.00  0.00     0.306 C 
ATOM      5  O   UNL A   1      33.103  28.608  23.283  1.00  0.00    -0.252 OA
BRANCH   4   6
ATOM      6  C   UNL A   1      30.756  28.910  23.773  1.00  0.00     0.132 C 
BRANCH   6   7
ATOM      7  C   UNL A   1      30.113  27.822  22.906  1.00  0.00     0.112 C 
BRANCH   7   8
ATOM      8  C   UNL A   1      30.200  26.430  23.524  1.00  0.00     0.224 C 
ATOM      9  O   UNL A   1      29.334  26.004  24.277  1.00  0.00    -0.275 OA
ATOM     10  N   UNL A   1      31.364  25.789  23.176  1.00  0.00    -0.326 N 
ATOM     11  H   UNL A   1      31.882  26.187  22.439  1.00  0.00     0.169 HD
BRANCH  10  12
ATOM     12  C   UNL A   1      31.894  24.627  23.756  1.00  0.00     0.045 A 
ATOM     13  C   UNL A   1      32.920  24.888  24.678  1.00  0.00     0.028 A 
ATOM     14  C   UNL A   1      31.468  23.313  23.471  1.00  0.00     0.075 A 
ATOM     15  C   UNL A   1      33.498  23.868  25.416  1.00  0.00     0.034 A 
ATOM     16  C   UNL A   1      32.171  22.305  24.142  1.00  0.00     0.157 A 
ATOM     17  C   UNL A   1      33.123  22.562  25.117  1.00  0.00     0.110 A 
ATOM     18  O   UNL A   1      32.124  20.928  23.981  1.00  0.00    -0.436 OA
ATOM     19  N   UNL A   1      33.588  21.412  25.645  1.00  0.00    -0.209 NA
ATOM     20  C   UNL A   1      33.034  20.467  24.915  1.00  0.00     0.227 A 
BRANCH  20  21
ATOM     21  C   UNL A   1      33.321  19.042  25.058  1.00  0.00     0.037 A 
ATOM     22  C   UNL A   1      32.494  18.127  25.712  1.00  0.00     0.014 A 
ATOM     23  C   UNL A   1      34.423  18.548  24.335  1.00  0.00     0.014 A 
ATOM     24  C   UNL A   1      32.755  16.750  25.605  1.00  0.00     0.001 A 
ATOM     25  C   UNL A   1      34.681  17.185  24.225  1.00  0.00     0.001 A 
ATOM     26  C   UNL A   1      33.838  16.282  24.856  1.00  0.00     0.000 A 
ENDBRANCH  20  21
ENDBRANCH  10  12
ENDBRANCH   7   8
ENDBRANCH   6   7
ENDBRANCH   4   6
ENDBRANCH   3   4
ENDBRANCH   2   3
ENDBRANCH   1   2
BRANCH   1  27
ATOM     27  O   UNL A   1      33.102  30.428  27.448  1.00  0.00    -0.374 OA
BRANCH  27  28
ATOM     28  C   UNL A   1      33.687  31.718  27.596  1.00  0.00     0.202 C 
BRANCH  28  29
ATOM     29  C   UNL A   1      32.718  32.907  27.623  1.00  0.00     0.261 C 
BRANCH  29  30
ATOM     30  O   UNL A   1      33.389  34.178  27.578  1.00  0.00    -0.460 OA
BRANCH  30  31
ATOM     31  C   UNL A   1      33.392  34.850  28.755  1.00  0.00     0.338 C 
ATOM     32  O   UNL A   1      32.541  35.643  29.148  1.00  0.00    -0.246 OA
BRANCH  31  33
ATOM     33  C   UNL A   1      34.491  34.385  29.623  1.00  0.00     0.060 A 
ATOM     34  C   UNL A   1      35.791  34.410  29.102  1.00  0.00     0.016 A 
ATOM     35  C   UNL A   1      34.255  33.861  30.893  1.00  0.00     0.016 A 
ATOM     36  C   UNL A   1      36.855  33.871  29.829  1.00  0.00     0.010 A 
ATOM     37  C   UNL A   1      35.327  33.328  31.620  1.00  0.00     0.010 A 
ATOM     38  C   UNL A   1      36.633  33.298  31.087  1.00  0.00    -0.014 A 
BRANCH  38  39
ATOM     39  C   UNL A   1      37.709  32.543  31.793  1.00  0.00     0.031 A 
ATOM     40  C   UNL A   1      38.280  33.112  33.066  1.00  0.00     0.074 A 
ATOM     41  C   UNL A   1      38.193  31.377  31.318  1.00  0.00     0.049 A 
ATOM     42  N   UNL A   1      39.279  32.684  33.796  1.00  0.00    -0.248 NA
ATOM     43  C   UNL A   1      37.628  34.321  33.597  1.00  0.00     0.031 C 
ATOM     44  C   UNL A   1      37.696  30.665  30.144  1.00  0.00     0.029 A 
ATOM     45  N   UNL A   1      39.259  30.613  31.736  1.00  0.00    -0.354 N 
ATOM     46  C   UNL A   1      39.354  33.549  34.880  1.00  0.00     0.074 A 
ATOM     47  C   UNL A   1      38.365  34.583  34.665  1.00  0.00     0.031 C 
ATOM     48  C   UNL A   1      38.519  29.638  29.865  1.00  0.00     0.029 A 
ATOM     49  C   UNL A   1      39.587  29.603  30.857  1.00  0.00     0.049 A 
ATOM     50  H   UNL A   1      39.740  30.772  32.580  1.00  0.00     0.167 HD
ATOM     51  C   UNL A   1      40.135  33.462  35.984  1.00  0.00     0.037 A 
ATOM     52  C   UNL A   1      40.638  28.760  30.840  1.00  0.00     0.037 A 
ATOM     53  C   UNL A   1      41.108  32.424  36.200  1.00  0.00     0.049 A 
ATOM     54  C   UNL A   1      41.604  28.775  31.996  1.00  0.00     0.074 A 
ATOM     55  C   UNL A   1      41.892  32.200  37.318  1.00  0.00     0.029 A 
ATOM     56  N   UNL A   1      41.438  31.444  35.276  1.00  0.00    -0.354 N 
ATOM     57  N   UNL A   1      41.612  29.547  33.056  1.00  0.00    -0.248 NA
ATOM     58  C   UNL A   1      42.675  27.768  31.981  1.00  0.00     0.031 C 
ATOM     59  C   UNL A   1      42.732  31.113  37.050  1.00  0.00     0.029 A 
ATOM     60  C   UNL A   1      42.433  30.628  35.787  1.00  0.00     0.049 A 
ATOM     61  H   UNL A   1      41.027  31.343  34.387  1.00  0.00     0.167 HD
ATOM     62  C   UNL A   1      42.640  29.076  33.865  1.00  0.00     0.074 A 
ATOM     63  C   UNL A   1      43.247  27.966  33.160  1.00  0.00     0.031 C 
ATOM     64  C   UNL A   1      43.021  29.509  35.092  1.00  0.00     0.037 A 
BRANCH  51  65
ATOM     65  C   UNL A   1      39.945  34.511  37.046  1.00  0.00     0.058 A 
ATOM     66  C   UNL A   1      39.036  34.330  38.103  1.00  0.00     0.135 A 
ATOM     67  C   UNL A   1      40.677  35.706  37.013  1.00  0.00     0.135 A 
ATOM     68  F   UNL A   1      38.300  33.208  38.178  1.00  0.00    -0.206 F 
ATOM     69  C   UNL A   1      38.825  35.315  39.061  1.00  0.00     0.059 A 
ATOM     70  C   UNL A   1      40.506  36.695  37.980  1.00  0.00     0.059 A 
ATOM     71  F   UNL A   1      41.563  35.932  36.030  1.00  0.00    -0.206 F 
ATOM     72  C   UNL A   1      39.560  36.499  38.986  1.00  0.00     0.060 A 
BRANCH  72  73
ATOM     73  S   UNL A   1      39.255  37.781  40.220  1.00  0.00     0.124 S 
ATOM     74  O   UNL A   1      40.548  38.459  40.257  1.00  0.00    -0.237 OA
ATOM     75  O   UNL A   1      38.160  38.537  39.622  1.00  0.00    -0.237 OA
ATOM     76  O   UNL A   1      38.909  37.023  41.419  1.00  0.00    -0.744 OA
ENDBRANCH  72  73
ENDBRANCH  51  65
BRANCH  52  77
ATOM     77  C   UNL A   1      40.812  27.796  29.716  1.00  0.00     0.058 A 
ATOM     78  C   UNL A   1      39.953  26.701  29.560  1.00  0.00     0.135 A 
ATOM     79  C   UNL A   1      41.845  27.944  28.777  1.00  0.00     0.135 A 
ATOM     80  F   UNL A   1      38.951  26.508  30.431  1.00  0.00    -0.206 F 
ATOM     81  C   UNL A   1      40.121  25.779  28.529  1.00  0.00     0.059 A 
ATOM     82  C   UNL A   1      42.029  27.044  27.730  1.00  0.00     0.059 A 
ATOM     83  F   UNL A   1      42.691  28.978  28.858  1.00  0.00    -0.206 F 
ATOM     84  C   UNL A   1      41.164  25.960  27.618  1.00  0.00     0.060 A 
BRANCH  84  85
ATOM     85  S   UNL A   1      41.348  24.781  26.262  1.00  0.00     0.124 S 
ATOM     86  O   UNL A   1      40.204  23.902  26.477  1.00  0.00    -0.237 OA
ATOM     87  O   UNL A   1      41.274  25.652  25.094  1.00  0.00    -0.237 OA
ATOM     88  O   UNL A   1      42.657  24.184  26.509  1.00  0.00    -0.744 OA
ENDBRANCH  84  85
ENDBRANCH  52  77
BRANCH  64  89
ATOM     89  C   UNL A   1      44.095  28.729  35.801  1.00  0.00     0.058 A 
ATOM     90  C   UNL A   1      45.453  29.063  35.692  1.00  0.00     0.135 A 
ATOM     91  C   UNL A   1      43.750  27.653  36.637  1.00  0.00     0.135 A 
ATOM     92  F   UNL A   1      45.838  30.078  34.901  1.00  0.00    -0.206 F 
ATOM     93  C   UNL A   1      46.434  28.342  36.367  1.00  0.00     0.059 A 
ATOM     94  C   UNL A   1      44.710  26.938  37.344  1.00  0.00     0.059 A 
ATOM     95  F   UNL A   1      42.464  27.297  36.785  1.00  0.00    -0.206 F 
ATOM     96  C   UNL A   1      46.052  27.281  37.193  1.00  0.00     0.060 A 
BRANCH  96  97
ATOM     97  S   UNL A   1      47.331  26.374  38.088  1.00  0.00     0.124 S 
ATOM     98  O   UNL A   1      47.087  26.803  39.462  1.00  0.00    -0.237 OA
ATOM     99  O   UNL A   1      46.997  24.985  37.789  1.00  0.00    -0.237 OA
ATOM    100  O   UNL A   1      48.572  26.858  37.491  1.00  0.00    -0.744 OA
ENDBRANCH  96  97
ENDBRANCH  64  89
ENDBRANCH  38  39
ENDBRANCH  31  33
ENDBRANCH  30  31
ENDBRANCH  29  30
ENDBRANCH  28  29
ENDBRANCH  27  28
ENDBRANCH   1  27
TORSDOF 21
ENDMDL
