MODEL 1
REMARK VINA RESULT:     -11.7      0.000      0.000
REMARK SMILES O=C(OCCOCCOC(=O)c1ccc(-c2c3nc(c(-c4c(F)cc(S(=O)(=O)[O-])cc4F)c4ccc([nH]4)c(-c4c(F)cc(S(=O)(=O)[O-])cc4F)c4nc(c(-c5c(F)cc(S(=O)(=O)[O-])cc5F)c5ccc2[nH]5)C=C4)C=C3)cc1)C1=Cc2cc(S(F)(F)(F)(F)F)ccc2O[C@@H]1C(F)(F)F
REMARK SMILES IDX 7 1 6 2 5 3 4 4 3 5 2 6 1 7 78 8 79 9 93 10 80 11 92 12
REMARK SMILES IDX 81 13 91 14 82 15 90 16 89 17 94 18 95 19 96 20 97 21 83 22
REMARK SMILES IDX 84 23 85 24 86 25 87 26 88 27 8 28 9 29 10 30 11 31 12 32
REMARK SMILES IDX 13 33 77 34 14 35 76 36 15 37 16 38 17 39 70 40 18 41 75 42
REMARK SMILES IDX 69 43 71 44 19 45 74 46 68 47 67 48 20 50 54 51 33 52 53 53
REMARK SMILES IDX 34 54 37 55 52 56 72 57 35 58 36 59 51 61 73 62 38 63 21 64
REMARK SMILES IDX 22 65 31 66 23 67 24 68 30 69 32 70 25 71 26 72 27 73 28 74
REMARK SMILES IDX 29 75 55 76 56 77 65 78 57 79 58 80 64 81 66 82 59 83 60 84
REMARK SMILES IDX 61 85 62 86 63 87 39 88 40 89 49 90 41 91 42 92 48 93 50 94
REMARK SMILES IDX 43 95 44 96 45 97 46 98 47 99
REMARK H PARENT 71 49 37 60
REMARK Flexibility Score: inf
ROOT
ATOM      1  C   UNL A   1      33.625  29.551  26.408  1.00  0.00     0.202 C 
ENDROOT
BRANCH   1   2
ATOM      2  O   UNL A   1      33.692  28.203  26.847  1.00  0.00    -0.374 OA
BRANCH   2   3
ATOM      3  C   UNL A   1      33.862  27.348  25.726  1.00  0.00     0.202 C 
BRANCH   3   4
ATOM      4  C   UNL A   1      33.254  25.988  26.028  1.00  0.00     0.261 C 
BRANCH   4   5
ATOM      5  O   UNL A   1      34.059  24.971  25.451  1.00  0.00    -0.460 OA
BRANCH   5   6
ATOM      6  C   UNL A   1      34.142  23.695  26.069  1.00  0.00     0.338 C 
ATOM      7  O   UNL A   1      33.113  23.184  26.613  1.00  0.00    -0.246 OA
BRANCH   6   8
ATOM      8  C   UNL A   1      35.461  22.941  26.079  1.00  0.00     0.087 C 
ATOM      9  C   UNL A   1      35.540  21.701  25.525  1.00  0.00     0.027 C 
ATOM     10  C   UNL A   1      36.693  23.572  26.708  1.00  0.00     0.316 C 
ATOM     11  C   UNL A   1      34.309  21.070  24.897  1.00  0.00     0.019 A 
ATOM     12  O   UNL A   1      33.764  23.217  24.037  1.00  0.00    -0.475 OA
ATOM     13  C   UNL A   1      34.034  19.727  25.100  1.00  0.00     0.036 A 
ATOM     14  C   UNL A   1      33.553  21.815  24.099  1.00  0.00     0.128 A 
ATOM     15  C   UNL A   1      33.101  19.188  24.184  1.00  0.00     0.107 A 
ATOM     16  C   UNL A   1      32.568  21.240  23.332  1.00  0.00     0.048 A 
ATOM     17  C   UNL A   1      32.281  19.908  23.439  1.00  0.00     0.028 A 
BRANCH  10  18
ATOM     18  C   UNL A   1      37.785  23.708  25.659  1.00  0.00     0.430 C 
ATOM     19  F   UNL A   1      37.237  24.006  24.484  1.00  0.00    -0.167 F 
ATOM     20  F   UNL A   1      38.624  24.675  26.015  1.00  0.00    -0.167 F 
ATOM     21  F   UNL A   1      38.448  22.560  25.559  1.00  0.00    -0.167 F 
ENDBRANCH  10  18
BRANCH  15  22
ATOM     22  S   UNL A   1      33.024  17.387  24.022  1.00  0.00     0.310 S 
ATOM     23  F   UNL A   1      34.308  17.187  24.932  1.00  0.00    -0.094 F 
ATOM     24  F   UNL A   1      33.999  17.487  22.788  1.00  0.00    -0.094 F 
ATOM     25  F   UNL A   1      32.958  15.840  23.881  1.00  0.00    -0.094 F 
ATOM     26  F   UNL A   1      32.163  17.294  25.343  1.00  0.00    -0.094 F 
ATOM     27  F   UNL A   1      33.173  18.945  24.246  1.00  0.00    -0.094 F 
ENDBRANCH  15  22
ENDBRANCH   6   8
ENDBRANCH   5   6
ENDBRANCH   4   5
ENDBRANCH   3   4
ENDBRANCH   2   3
ENDBRANCH   1   2
BRANCH   1  28
ATOM     28  C   UNL A   1      34.132  30.469  27.508  1.00  0.00     0.261 C 
BRANCH  28  29
ATOM     29  O   UNL A   1      34.916  29.720  28.426  1.00  0.00    -0.460 OA
BRANCH  29  30
ATOM     30  C   UNL A   1      35.995  30.341  29.110  1.00  0.00     0.338 C 
ATOM     31  O   UNL A   1      35.776  31.335  29.872  1.00  0.00    -0.246 OA
BRANCH  30  32
ATOM     32  C   UNL A   1      37.410  29.818  28.930  1.00  0.00     0.060 A 
ATOM     33  C   UNL A   1      38.211  29.585  30.035  1.00  0.00     0.016 A 
ATOM     34  C   UNL A   1      37.887  29.694  27.696  1.00  0.00     0.016 A 
ATOM     35  C   UNL A   1      39.592  29.506  29.737  1.00  0.00     0.010 A 
ATOM     36  C   UNL A   1      39.227  29.482  27.482  1.00  0.00     0.010 A 
ATOM     37  C   UNL A   1      40.087  29.303  28.530  1.00  0.00    -0.014 A 
BRANCH  37  38
ATOM     38  C   UNL A   1      41.535  28.891  28.317  1.00  0.00     0.031 A 
ATOM     39  C   UNL A   1      41.782  27.548  28.031  1.00  0.00     0.074 A 
ATOM     40  C   UNL A   1      42.513  29.870  28.345  1.00  0.00     0.049 A 
ATOM     41  N   UNL A   1      42.949  26.986  27.711  1.00  0.00    -0.248 NA
ATOM     42  C   UNL A   1      40.749  26.500  28.035  1.00  0.00     0.031 C 
ATOM     43  C   UNL A   1      42.270  31.228  28.624  1.00  0.00     0.029 A 
ATOM     44  N   UNL A   1      43.864  29.722  28.116  1.00  0.00    -0.354 N 
ATOM     45  C   UNL A   1      42.786  25.680  27.488  1.00  0.00     0.074 A 
ATOM     46  C   UNL A   1      41.370  25.348  27.699  1.00  0.00     0.031 C 
ATOM     47  C   UNL A   1      43.457  31.888  28.576  1.00  0.00     0.029 A 
ATOM     48  C   UNL A   1      44.462  30.953  28.265  1.00  0.00     0.049 A 
ATOM     49  H   UNL A   1      44.321  28.881  27.885  1.00  0.00     0.167 HD
ATOM     50  C   UNL A   1      43.761  24.754  27.115  1.00  0.00     0.037 A 
ATOM     51  C   UNL A   1      45.808  31.262  28.142  1.00  0.00     0.037 A 
ATOM     52  C   UNL A   1      45.100  25.072  26.950  1.00  0.00     0.049 A 
ATOM     53  C   UNL A   1      46.794  30.324  27.826  1.00  0.00     0.074 A 
ATOM     54  C   UNL A   1      46.094  24.151  26.567  1.00  0.00     0.029 A 
ATOM     55  N   UNL A   1      45.702  26.298  27.123  1.00  0.00    -0.354 N 
ATOM     56  N   UNL A   1      46.624  29.027  27.565  1.00  0.00    -0.248 NA
ATOM     57  C   UNL A   1      48.226  30.634  27.725  1.00  0.00     0.031 C 
ATOM     58  C   UNL A   1      47.282  24.811  26.518  1.00  0.00     0.029 A 
ATOM     59  C   UNL A   1      47.049  26.154  26.872  1.00  0.00     0.049 A 
ATOM     60  H   UNL A   1      45.250  27.132  27.382  1.00  0.00     0.167 HD
ATOM     61  C   UNL A   1      47.798  28.457  27.285  1.00  0.00     0.074 A 
ATOM     62  C   UNL A   1      48.847  29.481  27.392  1.00  0.00     0.031 C 
ATOM     63  C   UNL A   1      48.037  27.125  26.942  1.00  0.00     0.037 A 
BRANCH  50  64
ATOM     64  C   UNL A   1      43.331  23.315  26.876  1.00  0.00     0.058 A 
ATOM     65  C   UNL A   1      43.093  22.475  27.951  1.00  0.00     0.135 A 
ATOM     66  C   UNL A   1      43.247  22.875  25.626  1.00  0.00     0.135 A 
ATOM     67  F   UNL A   1      42.917  22.918  29.193  1.00  0.00    -0.206 F 
ATOM     68  C   UNL A   1      43.054  21.103  27.609  1.00  0.00     0.059 A 
ATOM     69  C   UNL A   1      43.072  21.538  25.366  1.00  0.00     0.059 A 
ATOM     70  F   UNL A   1      43.332  23.737  24.617  1.00  0.00    -0.206 F 
ATOM     71  C   UNL A   1      42.890  20.641  26.382  1.00  0.00     0.060 A 
BRANCH  71  72
ATOM     72  S   UNL A   1      42.447  18.916  26.064  1.00  0.00     0.124 S 
ATOM     73  O   UNL A   1      42.674  18.089  27.332  1.00  0.00    -0.237 OA
ATOM     74  O   UNL A   1      40.974  18.833  25.657  1.00  0.00    -0.237 OA
ATOM     75  O   UNL A   1      43.422  18.300  24.801  1.00  0.00    -0.744 OA
ENDBRANCH  71  72
ENDBRANCH  50  64
BRANCH  51  76
ATOM     76  C   UNL A   1      46.235  32.704  28.365  1.00  0.00     0.058 A 
ATOM     77  C   UNL A   1      46.230  33.538  27.260  1.00  0.00     0.135 A 
ATOM     78  C   UNL A   1      46.579  33.153  29.566  1.00  0.00     0.135 A 
ATOM     79  F   UNL A   1      45.660  33.209  26.104  1.00  0.00    -0.206 F 
ATOM     80  C   UNL A   1      46.887  34.774  27.471  1.00  0.00     0.059 A 
ATOM     81  C   UNL A   1      47.087  34.421  29.719  1.00  0.00     0.059 A 
ATOM     82  F   UNL A   1      46.430  32.371  30.631  1.00  0.00    -0.206 F 
ATOM     83  C   UNL A   1      47.167  35.280  28.658  1.00  0.00     0.060 A 
BRANCH  83  84
ATOM     84  S   UNL A   1      47.629  37.016  28.870  1.00  0.00     0.124 S 
ATOM     85  O   UNL A   1      49.141  37.167  28.684  1.00  0.00    -0.237 OA
ATOM     86  O   UNL A   1      46.901  37.869  27.829  1.00  0.00    -0.237 OA
ATOM     87  O   UNL A   1      47.193  37.536  30.439  1.00  0.00    -0.744 OA
ENDBRANCH  83  84
ENDBRANCH  51  76
BRANCH  63  88
ATOM     88  C   UNL A   1      49.465  26.714  26.626  1.00  0.00     0.058 A 
ATOM     89  C   UNL A   1      49.958  26.867  25.341  1.00  0.00     0.135 A 
ATOM     90  C   UNL A   1      50.198  26.158  27.583  1.00  0.00     0.135 A 
ATOM     91  F   UNL A   1      49.372  27.634  24.425  1.00  0.00    -0.206 F 
ATOM     92  C   UNL A   1      51.142  26.133  25.090  1.00  0.00     0.059 A 
ATOM     93  C   UNL A   1      51.409  25.578  27.290  1.00  0.00     0.059 A 
ATOM     94  F   UNL A   1      49.756  26.161  28.837  1.00  0.00    -0.206 F 
ATOM     95  C   UNL A   1      51.930  25.640  26.027  1.00  0.00     0.060 A 
BRANCH  95  96
ATOM     96  S   UNL A   1      53.610  25.075  25.660  1.00  0.00     0.124 S 
ATOM     97  O   UNL A   1      54.113  25.764  24.389  1.00  0.00    -0.237 OA
ATOM     98  O   UNL A   1      54.532  25.425  26.830  1.00  0.00    -0.237 OA
ATOM     99  O   UNL A   1      53.604  23.381  25.425  1.00  0.00    -0.744 OA
ENDBRANCH  95  96
ENDBRANCH  63  88
ENDBRANCH  37  38
ENDBRANCH  30  32
ENDBRANCH  29  30
ENDBRANCH  28  29
ENDBRANCH   1  28
TORSDOF 19
ENDMDL
MODEL 2
REMARK VINA RESULT:     -11.5      2.086      3.542
REMARK SMILES O=C(OCCOCCOC(=O)c1ccc(-c2c3nc(c(-c4c(F)cc(S(=O)(=O)[O-])cc4F)c4ccc([nH]4)c(-c4c(F)cc(S(=O)(=O)[O-])cc4F)c4nc(c(-c5c(F)cc(S(=O)(=O)[O-])cc5F)c5ccc2[nH]5)C=C4)C=C3)cc1)C1=Cc2cc(S(F)(F)(F)(F)F)ccc2O[C@@H]1C(F)(F)F
REMARK SMILES IDX 7 1 6 2 5 3 4 4 3 5 2 6 1 7 78 8 79 9 93 10 80 11 92 12
REMARK SMILES IDX 81 13 91 14 82 15 90 16 89 17 94 18 95 19 96 20 97 21 83 22
REMARK SMILES IDX 84 23 85 24 86 25 87 26 88 27 8 28 9 29 10 30 11 31 12 32
REMARK SMILES IDX 13 33 77 34 14 35 76 36 15 37 16 38 17 39 70 40 18 41 75 42
REMARK SMILES IDX 69 43 71 44 19 45 74 46 68 47 67 48 20 50 54 51 33 52 53 53
REMARK SMILES IDX 34 54 37 55 52 56 72 57 35 58 36 59 51 61 73 62 38 63 21 64
REMARK SMILES IDX 22 65 31 66 23 67 24 68 30 69 32 70 25 71 26 72 27 73 28 74
REMARK SMILES IDX 29 75 55 76 56 77 65 78 57 79 58 80 64 81 66 82 59 83 60 84
REMARK SMILES IDX 61 85 62 86 63 87 39 88 40 89 49 90 41 91 42 92 48 93 50 94
REMARK SMILES IDX 43 95 44 96 45 97 46 98 47 99
REMARK H PARENT 71 49 37 60
REMARK Flexibility Score: inf
ROOT
ATOM      1  C   UNL A   1      34.049  31.879  28.049  1.00  0.00     0.202 C 
ENDROOT
BRANCH   1   2
ATOM      2  O   UNL A   1      33.785  30.490  27.921  1.00  0.00    -0.374 OA
BRANCH   2   3
ATOM      3  C   UNL A   1      34.770  29.896  27.088  1.00  0.00     0.202 C 
BRANCH   3   4
ATOM      4  C   UNL A   1      34.185  28.669  26.408  1.00  0.00     0.261 C 
BRANCH   4   5
ATOM      5  O   UNL A   1      33.110  28.164  27.186  1.00  0.00    -0.460 OA
BRANCH   5   6
ATOM      6  C   UNL A   1      31.885  27.813  26.562  1.00  0.00     0.338 C 
ATOM      7  O   UNL A   1      30.875  27.508  27.270  1.00  0.00    -0.246 OA
BRANCH   6   8
ATOM      8  C   UNL A   1      31.781  27.803  25.046  1.00  0.00     0.087 C 
ATOM      9  C   UNL A   1      32.378  26.812  24.330  1.00  0.00     0.027 C 
ATOM     10  C   UNL A   1      31.009  28.899  24.329  1.00  0.00     0.316 C 
ATOM     11  C   UNL A   1      33.149  25.716  25.046  1.00  0.00     0.019 A 
ATOM     12  O   UNL A   1      31.453  25.742  26.710  1.00  0.00    -0.475 OA
ATOM     13  C   UNL A   1      34.356  25.268  24.536  1.00  0.00     0.036 A 
ATOM     14  C   UNL A   1      32.605  25.158  26.121  1.00  0.00     0.128 A 
ATOM     15  C   UNL A   1      34.776  24.025  25.066  1.00  0.00     0.107 A 
ATOM     16  C   UNL A   1      33.148  24.020  26.667  1.00  0.00     0.048 A 
ATOM     17  C   UNL A   1      34.307  23.488  26.178  1.00  0.00     0.028 A 
BRANCH  10  18
ATOM     18  C   UNL A   1      29.869  28.282  23.536  1.00  0.00     0.430 C 
ATOM     19  F   UNL A   1      30.302  27.950  22.323  1.00  0.00    -0.167 F 
ATOM     20  F   UNL A   1      29.431  27.194  24.163  1.00  0.00    -0.167 F 
ATOM     21  F   UNL A   1      28.878  29.161  23.427  1.00  0.00    -0.167 F 
ENDBRANCH  10  18
BRANCH  15  22
ATOM     22  S   UNL A   1      36.044  23.107  24.156  1.00  0.00     0.310 S 
ATOM     23  F   UNL A   1      36.080  21.954  25.246  1.00  0.00    -0.094 F 
ATOM     24  F   UNL A   1      37.146  23.849  25.004  1.00  0.00    -0.094 F 
ATOM     25  F   UNL A   1      37.134  22.320  23.376  1.00  0.00    -0.094 F 
ATOM     26  F   UNL A   1      34.925  22.273  23.417  1.00  0.00    -0.094 F 
ATOM     27  F   UNL A   1      34.925  23.816  25.020  1.00  0.00    -0.094 F 
ENDBRANCH  15  22
ENDBRANCH   6   8
ENDBRANCH   5   6
ENDBRANCH   4   5
ENDBRANCH   3   4
ENDBRANCH   2   3
ENDBRANCH   1   2
BRANCH   1  28
ATOM     28  C   UNL A   1      35.543  32.097  28.222  1.00  0.00     0.261 C 
BRANCH  28  29
ATOM     29  O   UNL A   1      35.870  32.065  29.604  1.00  0.00    -0.460 OA
BRANCH  29  30
ATOM     30  C   UNL A   1      36.522  30.930  30.154  1.00  0.00     0.338 C 
ATOM     31  O   UNL A   1      35.923  30.205  31.009  1.00  0.00    -0.246 OA
BRANCH  30  32
ATOM     32  C   UNL A   1      37.936  30.581  29.720  1.00  0.00     0.060 A 
ATOM     33  C   UNL A   1      38.197  30.250  28.401  1.00  0.00     0.016 A 
ATOM     34  C   UNL A   1      38.881  30.501  30.650  1.00  0.00     0.016 A 
ATOM     35  C   UNL A   1      39.419  29.562  28.213  1.00  0.00     0.010 A 
ATOM     36  C   UNL A   1      40.101  29.940  30.360  1.00  0.00     0.010 A 
ATOM     37  C   UNL A   1      40.405  29.535  29.091  1.00  0.00    -0.014 A 
BRANCH  37  38
ATOM     38  C   UNL A   1      41.805  29.078  28.709  1.00  0.00     0.031 A 
ATOM     39  C   UNL A   1      41.972  27.731  28.387  1.00  0.00     0.074 A 
ATOM     40  C   UNL A   1      42.812  30.025  28.630  1.00  0.00     0.049 A 
ATOM     41  N   UNL A   1      43.074  27.135  27.930  1.00  0.00    -0.248 NA
ATOM     42  C   UNL A   1      40.912  26.718  28.503  1.00  0.00     0.031 C 
ATOM     43  C   UNL A   1      42.649  31.387  28.945  1.00  0.00     0.029 A 
ATOM     44  N   UNL A   1      44.121  29.835  28.245  1.00  0.00    -0.354 N 
ATOM     45  C   UNL A   1      42.842  25.837  27.718  1.00  0.00     0.074 A 
ATOM     46  C   UNL A   1      41.450  25.549  28.090  1.00  0.00     0.031 C 
ATOM     47  C   UNL A   1      43.844  32.008  28.764  1.00  0.00     0.029 A 
ATOM     48  C   UNL A   1      44.774  31.044  28.331  1.00  0.00     0.049 A 
ATOM     49  H   UNL A   1      44.520  28.982  27.957  1.00  0.00     0.167 HD
ATOM     50  C   UNL A   1      43.736  24.884  27.228  1.00  0.00     0.037 A 
ATOM     51  C   UNL A   1      46.106  31.310  28.056  1.00  0.00     0.037 A 
ATOM     52  C   UNL A   1      45.057  25.160  26.911  1.00  0.00     0.049 A 
ATOM     53  C   UNL A   1      47.017  30.344  27.622  1.00  0.00     0.074 A 
ATOM     54  C   UNL A   1      45.968  24.211  26.410  1.00  0.00     0.029 A 
ATOM     55  N   UNL A   1      45.717  26.364  27.022  1.00  0.00    -0.354 N 
ATOM     56  N   UNL A   1      46.774  29.056  27.373  1.00  0.00    -0.248 NA
ATOM     57  C   UNL A   1      48.437  30.607  27.358  1.00  0.00     0.031 C 
ATOM     58  C   UNL A   1      47.165  24.832  26.228  1.00  0.00     0.029 A 
ATOM     59  C   UNL A   1      47.019  26.178  26.615  1.00  0.00     0.049 A 
ATOM     60  H   UNL A   1      45.325  27.209  27.337  1.00  0.00     0.167 HD
ATOM     61  C   UNL A   1      47.888  28.451  26.955  1.00  0.00     0.074 A 
ATOM     62  C   UNL A   1      48.976  29.439  26.947  1.00  0.00     0.031 C 
ATOM     63  C   UNL A   1      48.041  27.116  26.578  1.00  0.00     0.037 A 
BRANCH  50  64
ATOM     64  C   UNL A   1      43.233  23.462  27.031  1.00  0.00     0.058 A 
ATOM     65  C   UNL A   1      43.133  22.606  28.115  1.00  0.00     0.135 A 
ATOM     66  C   UNL A   1      42.952  23.052  25.800  1.00  0.00     0.135 A 
ATOM     67  F   UNL A   1      43.156  23.026  29.377  1.00  0.00    -0.206 F 
ATOM     68  C   UNL A   1      43.003  21.243  27.758  1.00  0.00     0.059 A 
ATOM     69  C   UNL A   1      42.701  21.726  25.546  1.00  0.00     0.059 A 
ATOM     70  F   UNL A   1      42.912  23.933  24.805  1.00  0.00    -0.206 F 
ATOM     71  C   UNL A   1      42.645  20.812  26.561  1.00  0.00     0.060 A 
BRANCH  71  72
ATOM     72  S   UNL A   1      42.109  19.107  26.282  1.00  0.00     0.124 S 
ATOM     73  O   UNL A   1      42.949  18.484  25.164  1.00  0.00    -0.237 OA
ATOM     74  O   UNL A   1      42.290  18.297  27.568  1.00  0.00    -0.237 OA
ATOM     75  O   UNL A   1      40.460  19.094  25.828  1.00  0.00    -0.744 OA
ENDBRANCH  71  72
ENDBRANCH  50  64
BRANCH  51  76
ATOM     76  C   UNL A   1      46.605  32.735  28.238  1.00  0.00     0.058 A 
ATOM     77  C   UNL A   1      46.521  33.574  27.139  1.00  0.00     0.135 A 
ATOM     78  C   UNL A   1      47.081  33.166  29.399  1.00  0.00     0.135 A 
ATOM     79  F   UNL A   1      45.829  33.271  26.045  1.00  0.00    -0.206 F 
ATOM     80  C   UNL A   1      47.239  34.785  27.287  1.00  0.00     0.059 A 
ATOM     81  C   UNL A   1      47.647  34.414  29.504  1.00  0.00     0.059 A 
ATOM     82  F   UNL A   1      47.009  32.384  30.473  1.00  0.00    -0.206 F 
ATOM     83  C   UNL A   1      47.652  35.274  28.442  1.00  0.00     0.060 A 
BRANCH  83  84
ATOM     84  S   UNL A   1      48.196  36.992  28.609  1.00  0.00     0.124 S 
ATOM     85  O   UNL A   1      48.508  37.288  30.078  1.00  0.00    -0.237 OA
ATOM     86  O   UNL A   1      49.453  37.215  27.766  1.00  0.00    -0.237 OA
ATOM     87  O   UNL A   1      46.956  38.038  28.069  1.00  0.00    -0.744 OA
ENDBRANCH  83  84
ENDBRANCH  51  76
BRANCH  63  88
ATOM     88  C   UNL A   1      49.408  26.662  26.095  1.00  0.00     0.058 A 
ATOM     89  C   UNL A   1      50.337  26.183  27.004  1.00  0.00     0.135 A 
ATOM     90  C   UNL A   1      49.708  26.791  24.808  1.00  0.00     0.135 A 
ATOM     91  F   UNL A   1      50.015  25.801  28.238  1.00  0.00    -0.206 F 
ATOM     92  C   UNL A   1      51.659  26.138  26.503  1.00  0.00     0.059 A 
ATOM     93  C   UNL A   1      50.995  26.598  24.366  1.00  0.00     0.059 A 
ATOM     94  F   UNL A   1      48.754  27.109  23.938  1.00  0.00    -0.206 F 
ATOM     95  C   UNL A   1      51.977  26.182  25.222  1.00  0.00     0.060 A 
BRANCH  95  96
ATOM     96  S   UNL A   1      53.623  25.717  24.631  1.00  0.00     0.124 S 
ATOM     97  O   UNL A   1      53.773  24.195  24.683  1.00  0.00    -0.237 OA
ATOM     98  O   UNL A   1      53.803  26.198  23.190  1.00  0.00    -0.237 OA
ATOM     99  O   UNL A   1      54.812  26.440  25.627  1.00  0.00    -0.744 OA
ENDBRANCH  95  96
ENDBRANCH  63  88
ENDBRANCH  37  38
ENDBRANCH  30  32
ENDBRANCH  29  30
ENDBRANCH  28  29
ENDBRANCH   1  28
TORSDOF 19
ENDMDL
MODEL 3
REMARK VINA RESULT:     -11.3      5.486     10.619
REMARK SMILES O=C(OCCOCCOC(=O)c1ccc(-c2c3nc(c(-c4c(F)cc(S(=O)(=O)[O-])cc4F)c4ccc([nH]4)c(-c4c(F)cc(S(=O)(=O)[O-])cc4F)c4nc(c(-c5c(F)cc(S(=O)(=O)[O-])cc5F)c5ccc2[nH]5)C=C4)C=C3)cc1)C1=Cc2cc(S(F)(F)(F)(F)F)ccc2O[C@@H]1C(F)(F)F
REMARK SMILES IDX 7 1 6 2 5 3 4 4 3 5 2 6 1 7 78 8 79 9 93 10 80 11 92 12
REMARK SMILES IDX 81 13 91 14 82 15 90 16 89 17 94 18 95 19 96 20 97 21 83 22
REMARK SMILES IDX 84 23 85 24 86 25 87 26 88 27 8 28 9 29 10 30 11 31 12 32
REMARK SMILES IDX 13 33 77 34 14 35 76 36 15 37 16 38 17 39 70 40 18 41 75 42
REMARK SMILES IDX 69 43 71 44 19 45 74 46 68 47 67 48 20 50 54 51 33 52 53 53
REMARK SMILES IDX 34 54 37 55 52 56 72 57 35 58 36 59 51 61 73 62 38 63 21 64
REMARK SMILES IDX 22 65 31 66 23 67 24 68 30 69 32 70 25 71 26 72 27 73 28 74
REMARK SMILES IDX 29 75 55 76 56 77 65 78 57 79 58 80 64 81 66 82 59 83 60 84
REMARK SMILES IDX 61 85 62 86 63 87 39 88 40 89 49 90 41 91 42 92 48 93 50 94
REMARK SMILES IDX 43 95 44 96 45 97 46 98 47 99
REMARK H PARENT 71 49 37 60
REMARK Flexibility Score: inf
ROOT
ATOM      1  C   UNL A   1      35.153  23.473  25.504  1.00  0.00     0.202 C 
ENDROOT
BRANCH   1   2
ATOM      2  O   UNL A   1      34.412  23.208  24.322  1.00  0.00    -0.374 OA
BRANCH   2   3
ATOM      3  C   UNL A   1      34.517  24.315  23.439  1.00  0.00     0.202 C 
BRANCH   3   4
ATOM      4  C   UNL A   1      33.148  24.949  23.255  1.00  0.00     0.261 C 
BRANCH   4   5
ATOM      5  O   UNL A   1      33.208  26.318  23.626  1.00  0.00    -0.460 OA
BRANCH   5   6
ATOM      6  C   UNL A   1      33.106  26.689  24.993  1.00  0.00     0.338 C 
ATOM      7  O   UNL A   1      32.909  25.799  25.879  1.00  0.00    -0.246 OA
BRANCH   6   8
ATOM      8  C   UNL A   1      33.232  28.148  25.396  1.00  0.00     0.087 C 
ATOM      9  C   UNL A   1      32.257  29.034  25.056  1.00  0.00     0.027 C 
ATOM     10  C   UNL A   1      34.447  28.619  26.178  1.00  0.00     0.316 C 
ATOM     11  C   UNL A   1      31.042  28.565  24.274  1.00  0.00     0.019 A 
ATOM     12  O   UNL A   1      31.074  26.590  25.595  1.00  0.00    -0.475 OA
ATOM     13  C   UNL A   1      30.536  29.339  23.243  1.00  0.00     0.036 A 
ATOM     14  C   UNL A   1      30.445  27.439  24.648  1.00  0.00     0.128 A 
ATOM     15  C   UNL A   1      29.222  28.989  22.855  1.00  0.00     0.107 A 
ATOM     16  C   UNL A   1      29.222  27.091  24.126  1.00  0.00     0.048 A 
ATOM     17  C   UNL A   1      28.635  27.841  23.146  1.00  0.00     0.028 A 
BRANCH  10  18
ATOM     18  C   UNL A   1      33.999  29.200  27.510  1.00  0.00     0.430 C 
ATOM     19  F   UNL A   1      34.991  29.107  28.391  1.00  0.00    -0.167 F 
ATOM     20  F   UNL A   1      33.669  30.478  27.347  1.00  0.00    -0.167 F 
ATOM     21  F   UNL A   1      32.946  28.523  27.956  1.00  0.00    -0.167 F 
ENDBRANCH  10  18
BRANCH  15  22
ATOM     22  S   UNL A   1      28.277  30.196  21.892  1.00  0.00     0.310 S 
ATOM     23  F   UNL A   1      28.931  31.418  22.664  1.00  0.00    -0.094 F 
ATOM     24  F   UNL A   1      27.167  30.173  23.010  1.00  0.00    -0.094 F 
ATOM     25  F   UNL A   1      27.464  31.232  21.066  1.00  0.00    -0.094 F 
ATOM     26  F   UNL A   1      29.463  30.312  20.855  1.00  0.00    -0.094 F 
ATOM     27  F   UNL A   1      29.164  29.231  22.776  1.00  0.00    -0.094 F 
ENDBRANCH  15  22
ENDBRANCH   6   8
ENDBRANCH   5   6
ENDBRANCH   4   5
ENDBRANCH   3   4
ENDBRANCH   2   3
ENDBRANCH   1   2
BRANCH   1  28
ATOM     28  C   UNL A   1      36.415  22.628  25.511  1.00  0.00     0.261 C 
BRANCH  28  29
ATOM     29  O   UNL A   1      37.546  23.461  25.301  1.00  0.00    -0.460 OA
BRANCH  29  30
ATOM     30  C   UNL A   1      38.740  23.237  26.036  1.00  0.00     0.338 C 
ATOM     31  O   UNL A   1      39.307  22.100  25.995  1.00  0.00    -0.246 OA
BRANCH  30  32
ATOM     32  C   UNL A   1      39.340  24.356  26.871  1.00  0.00     0.060 A 
ATOM     33  C   UNL A   1      39.026  24.465  28.216  1.00  0.00     0.016 A 
ATOM     34  C   UNL A   1      40.078  25.276  26.260  1.00  0.00     0.016 A 
ATOM     35  C   UNL A   1      39.298  25.739  28.767  1.00  0.00     0.010 A 
ATOM     36  C   UNL A   1      40.422  26.438  26.905  1.00  0.00     0.010 A 
ATOM     37  C   UNL A   1      40.092  26.639  28.217  1.00  0.00    -0.014 A 
BRANCH  37  38
ATOM     38  C   UNL A   1      40.613  27.834  29.000  1.00  0.00     0.031 A 
ATOM     39  C   UNL A   1      39.760  28.929  29.137  1.00  0.00     0.074 A 
ATOM     40  C   UNL A   1      41.862  27.745  29.592  1.00  0.00     0.049 A 
ATOM     41  N   UNL A   1      39.963  30.033  29.859  1.00  0.00    -0.248 NA
ATOM     42  C   UNL A   1      38.448  29.040  28.481  1.00  0.00     0.031 C 
ATOM     43  C   UNL A   1      42.724  26.639  29.465  1.00  0.00     0.029 A 
ATOM     44  N   UNL A   1      42.487  28.678  30.389  1.00  0.00    -0.354 N 
ATOM     45  C   UNL A   1      38.912  30.850  29.759  1.00  0.00     0.074 A 
ATOM     46  C   UNL A   1      37.926  30.226  28.866  1.00  0.00     0.031 C 
ATOM     47  C   UNL A   1      43.857  26.906  30.165  1.00  0.00     0.029 A 
ATOM     48  C   UNL A   1      43.722  28.183  30.743  1.00  0.00     0.049 A 
ATOM     49  H   UNL A   1      42.115  29.548  30.659  1.00  0.00     0.167 HD
ATOM     50  C   UNL A   1      38.737  32.088  30.377  1.00  0.00     0.037 A 
ATOM     51  C   UNL A   1      44.691  28.795  31.522  1.00  0.00     0.037 A 
ATOM     52  C   UNL A   1      39.688  32.682  31.192  1.00  0.00     0.049 A 
ATOM     53  C   UNL A   1      44.540  30.061  32.094  1.00  0.00     0.074 A 
ATOM     54  C   UNL A   1      39.523  33.927  31.828  1.00  0.00     0.029 A 
ATOM     55  N   UNL A   1      40.934  32.197  31.525  1.00  0.00    -0.354 N 
ATOM     56  N   UNL A   1      43.473  30.859  32.025  1.00  0.00    -0.248 NA
ATOM     57  C   UNL A   1      45.572  30.734  32.894  1.00  0.00     0.031 C 
ATOM     58  C   UNL A   1      40.658  34.194  32.530  1.00  0.00     0.029 A 
ATOM     59  C   UNL A   1      41.549  33.121  32.341  1.00  0.00     0.049 A 
ATOM     60  H   UNL A   1      41.317  31.340  31.231  1.00  0.00     0.167 HD
ATOM     61  C   UNL A   1      43.693  31.981  32.714  1.00  0.00     0.074 A 
ATOM     62  C   UNL A   1      45.050  31.920  33.276  1.00  0.00     0.031 C 
ATOM     63  C   UNL A   1      42.817  33.052  32.898  1.00  0.00     0.037 A 
BRANCH  50  64
ATOM     64  C   UNL A   1      37.429  32.828  30.144  1.00  0.00     0.058 A 
ATOM     65  C   UNL A   1      36.320  32.536  30.921  1.00  0.00     0.135 A 
ATOM     66  C   UNL A   1      37.363  33.707  29.151  1.00  0.00     0.135 A 
ATOM     67  F   UNL A   1      36.394  31.867  32.069  1.00  0.00    -0.206 F 
ATOM     68  C   UNL A   1      35.102  33.017  30.385  1.00  0.00     0.059 A 
ATOM     69  C   UNL A   1      36.156  34.239  28.769  1.00  0.00     0.059 A 
ATOM     70  F   UNL A   1      38.475  34.076  28.523  1.00  0.00    -0.206 F 
ATOM     71  C   UNL A   1      35.009  33.949  29.454  1.00  0.00     0.060 A 
BRANCH  71  72
ATOM     72  S   UNL A   1      33.449  34.798  29.107  1.00  0.00     0.124 S 
ATOM     73  O   UNL A   1      33.742  36.189  28.538  1.00  0.00    -0.237 OA
ATOM     74  O   UNL A   1      32.643  33.989  28.090  1.00  0.00    -0.237 OA
ATOM     75  O   UNL A   1      32.550  34.953  30.553  1.00  0.00    -0.744 OA
ENDBRANCH  71  72
ENDBRANCH  50  64
BRANCH  51  76
ATOM     76  C   UNL A   1      45.992  28.049  31.768  1.00  0.00     0.058 A 
ATOM     77  C   UNL A   1      47.034  28.296  30.889  1.00  0.00     0.135 A 
ATOM     78  C   UNL A   1      46.136  27.213  32.788  1.00  0.00     0.135 A 
ATOM     79  F   UNL A   1      47.024  29.299  30.015  1.00  0.00    -0.206 F 
ATOM     80  C   UNL A   1      48.110  27.384  31.003  1.00  0.00     0.059 A 
ATOM     81  C   UNL A   1      47.273  26.451  32.913  1.00  0.00     0.059 A 
ATOM     82  F   UNL A   1      45.172  27.111  33.699  1.00  0.00    -0.206 F 
ATOM     83  C   UNL A   1      48.318  26.600  32.046  1.00  0.00     0.060 A 
BRANCH  83  84
ATOM     84  S   UNL A   1      49.904  25.769  32.310  1.00  0.00     0.124 S 
ATOM     85  O   UNL A   1      49.879  25.041  33.657  1.00  0.00    -0.237 OA
ATOM     86  O   UNL A   1      50.144  24.757  31.188  1.00  0.00    -0.237 OA
ATOM     87  O   UNL A   1      51.162  26.927  32.312  1.00  0.00    -0.744 OA
ENDBRANCH  83  84
ENDBRANCH  51  76
BRANCH  63  88
ATOM     88  C   UNL A   1      43.280  34.213  33.763  1.00  0.00     0.058 A 
ATOM     89  C   UNL A   1      43.088  34.171  35.134  1.00  0.00     0.135 A 
ATOM     90  C   UNL A   1      43.811  35.278  33.174  1.00  0.00     0.135 A 
ATOM     91  F   UNL A   1      42.801  33.051  35.793  1.00  0.00    -0.206 F 
ATOM     92  C   UNL A   1      43.223  35.428  35.770  1.00  0.00     0.059 A 
ATOM     93  C   UNL A   1      44.043  36.429  33.888  1.00  0.00     0.059 A 
ATOM     94  F   UNL A   1      44.121  35.230  31.882  1.00  0.00    -0.206 F 
ATOM     95  C   UNL A   1      43.819  36.477  35.236  1.00  0.00     0.060 A 
BRANCH  95  96
ATOM     96  S   UNL A   1      44.314  37.904  36.234  1.00  0.00     0.124 S 
ATOM     97  O   UNL A   1      44.120  39.187  35.421  1.00  0.00    -0.237 OA
ATOM     98  O   UNL A   1      43.453  37.966  37.497  1.00  0.00    -0.237 OA
ATOM     99  O   UNL A   1      45.960  37.751  36.671  1.00  0.00    -0.744 OA
ENDBRANCH  95  96
ENDBRANCH  63  88
ENDBRANCH  37  38
ENDBRANCH  30  32
ENDBRANCH  29  30
ENDBRANCH  28  29
ENDBRANCH   1  28
TORSDOF 19
ENDMDL
