MODEL 1
REMARK VINA RESULT:     -11.2      0.000      0.000
REMARK SMILES O=C(OCCOCCOC(=O)c1cc(S(=O)(=O)Nc2cccc(Cl)c2)ccc1O)c1ccc(-c2c3nc(c(-c4c(F)cc(S(=O)(=O)[O-])cc4F)c4ccc([nH]4)c(-c4c(F)cc(S(=O)(=O)[O-])cc4F)c4nc(c(-c5c(F)cc(S(=O)(=O)[O-])cc5F)c5ccc2[nH]5)C=C4)C=C3)cc1
REMARK SMILES IDX 6 1 5 2 4 3 3 4 2 5 1 6 30 7 31 8 95 9 32 10 94 11 33 12
REMARK SMILES IDX 34 13 35 14 88 15 36 16 93 17 87 18 89 19 37 20 92 21 86 22
REMARK SMILES IDX 85 23 38 25 72 26 51 27 71 28 52 29 55 30 70 31 90 32 53 33
REMARK SMILES IDX 54 34 69 36 91 37 56 38 39 39 40 40 49 41 41 42 42 43 48 44
REMARK SMILES IDX 50 45 43 46 44 47 45 48 46 49 47 50 73 51 74 52 83 53 75 54
REMARK SMILES IDX 76 55 82 56 84 57 77 58 78 59 79 60 80 61 81 62 57 63 58 64
REMARK SMILES IDX 67 65 59 66 60 67 66 68 68 69 61 70 62 71 63 72 64 73 65 74
REMARK SMILES IDX 7 75 8 76 9 77 10 78 11 79 12 80 13 81 28 82 14 83 27 84
REMARK SMILES IDX 26 85 29 86 15 88 16 89 17 90 18 91 19 93 20 94 25 95 21 96
REMARK SMILES IDX 23 97 22 98 24 99
REMARK H PARENT 89 24 55 35 29 87 18 92
REMARK Flexibility Score: inf
ROOT
ATOM      1  O   UNL A   1      39.583  22.741  27.092  1.00  0.00    -0.374 OA
ENDROOT
BRANCH   1   2
ATOM      2  C   UNL A   1      40.821  22.276  26.551  1.00  0.00     0.202 C 
BRANCH   2   3
ATOM      3  C   UNL A   1      42.049  23.100  26.946  1.00  0.00     0.261 C 
BRANCH   3   4
ATOM      4  O   UNL A   1      42.200  24.218  26.051  1.00  0.00    -0.460 OA
BRANCH   4   5
ATOM      5  C   UNL A   1      41.590  25.424  26.090  1.00  0.00     0.338 C 
ATOM      6  O   UNL A   1      41.190  25.910  25.032  1.00  0.00    -0.246 OA
BRANCH   5   7
ATOM      7  C   UNL A   1      41.370  26.204  27.347  1.00  0.00     0.060 A 
ATOM      8  C   UNL A   1      40.383  25.932  28.293  1.00  0.00     0.016 A 
ATOM      9  C   UNL A   1      42.281  27.239  27.628  1.00  0.00     0.016 A 
ATOM     10  C   UNL A   1      40.237  26.708  29.434  1.00  0.00     0.010 A 
ATOM     11  C   UNL A   1      42.173  27.996  28.800  1.00  0.00     0.010 A 
ATOM     12  C   UNL A   1      41.126  27.748  29.691  1.00  0.00    -0.014 A 
BRANCH  12  13
ATOM     13  C   UNL A   1      40.838  28.619  30.846  1.00  0.00     0.031 A 
ATOM     14  C   UNL A   1      41.777  28.582  32.015  1.00  0.00     0.074 A 
ATOM     15  C   UNL A   1      39.853  29.532  30.757  1.00  0.00     0.049 A 
ATOM     16  N   UNL A   1      41.768  29.300  33.105  1.00  0.00    -0.248 NA
ATOM     17  C   UNL A   1      42.888  27.618  31.937  1.00  0.00     0.031 C 
ATOM     18  C   UNL A   1      38.964  29.699  29.604  1.00  0.00     0.029 A 
ATOM     19  N   UNL A   1      39.465  30.519  31.623  1.00  0.00    -0.354 N 
ATOM     20  C   UNL A   1      42.856  28.862  33.850  1.00  0.00     0.074 A 
ATOM     21  C   UNL A   1      43.501  27.813  33.093  1.00  0.00     0.031 C 
ATOM     22  C   UNL A   1      38.161  30.753  29.818  1.00  0.00     0.029 A 
ATOM     23  C   UNL A   1      38.443  31.302  31.139  1.00  0.00     0.049 A 
ATOM     24  H   UNL A   1      39.877  30.654  32.506  1.00  0.00     0.167 HD
ATOM     25  C   UNL A   1      43.270  29.299  35.062  1.00  0.00     0.037 A 
ATOM     26  C   UNL A   1      37.807  32.341  31.715  1.00  0.00     0.037 A 
ATOM     27  C   UNL A   1      42.607  30.344  35.791  1.00  0.00     0.049 A 
ATOM     28  C   UNL A   1      38.251  32.769  33.087  1.00  0.00     0.074 A 
ATOM     29  C   UNL A   1      42.879  30.827  37.057  1.00  0.00     0.029 A 
ATOM     30  N   UNL A   1      41.529  31.076  35.304  1.00  0.00    -0.354 N 
ATOM     31  N   UNL A   1      39.240  32.302  33.815  1.00  0.00    -0.248 NA
ATOM     32  C   UNL A   1      37.495  33.853  33.724  1.00  0.00     0.031 C 
ATOM     33  C   UNL A   1      41.945  31.829  37.348  1.00  0.00     0.029 A 
ATOM     34  C   UNL A   1      41.119  31.999  36.247  1.00  0.00     0.049 A 
ATOM     35  H   UNL A   1      41.119  30.954  34.417  1.00  0.00     0.167 HD
ATOM     36  C   UNL A   1      39.235  33.044  34.989  1.00  0.00     0.074 A 
ATOM     37  C   UNL A   1      38.153  34.002  34.866  1.00  0.00     0.031 C 
ATOM     38  C   UNL A   1      40.042  32.944  36.074  1.00  0.00     0.037 A 
BRANCH  25  39
ATOM     39  C   UNL A   1      44.439  28.586  35.679  1.00  0.00     0.058 A 
ATOM     40  C   UNL A   1      45.765  28.974  35.430  1.00  0.00     0.135 A 
ATOM     41  C   UNL A   1      44.227  27.464  36.495  1.00  0.00     0.135 A 
ATOM     42  F   UNL A   1      46.025  30.021  34.632  1.00  0.00    -0.206 F 
ATOM     43  C   UNL A   1      46.841  28.250  35.938  1.00  0.00     0.059 A 
ATOM     44  C   UNL A   1      45.287  26.738  37.031  1.00  0.00     0.059 A 
ATOM     45  F   UNL A   1      42.979  27.043  36.756  1.00  0.00    -0.206 F 
ATOM     46  C   UNL A   1      46.591  27.127  36.728  1.00  0.00     0.060 A 
BRANCH  46  47
ATOM     47  S   UNL A   1      47.992  26.169  37.347  1.00  0.00     0.124 S 
ATOM     48  O   UNL A   1      48.797  27.209  37.980  1.00  0.00    -0.237 OA
ATOM     49  O   UNL A   1      47.351  25.225  38.257  1.00  0.00    -0.237 OA
ATOM     50  O   UNL A   1      48.561  25.582  36.138  1.00  0.00    -0.744 OA
ENDBRANCH  46  47
ENDBRANCH  25  39
BRANCH  26  51
ATOM     51  C   UNL A   1      36.683  33.020  31.012  1.00  0.00     0.058 A 
ATOM     52  C   UNL A   1      36.911  33.881  29.928  1.00  0.00     0.135 A 
ATOM     53  C   UNL A   1      35.353  32.820  31.412  1.00  0.00     0.135 A 
ATOM     54  F   UNL A   1      38.164  34.114  29.507  1.00  0.00    -0.206 F 
ATOM     55  C   UNL A   1      35.864  34.529  29.276  1.00  0.00     0.059 A 
ATOM     56  C   UNL A   1      34.287  33.435  30.762  1.00  0.00     0.059 A 
ATOM     57  F   UNL A   1      35.074  31.999  32.437  1.00  0.00    -0.206 F 
ATOM     58  C   UNL A   1      34.554  34.300  29.703  1.00  0.00     0.060 A 
BRANCH  58  59
ATOM     59  S   UNL A   1      33.195  35.119  28.837  1.00  0.00     0.124 S 
ATOM     60  O   UNL A   1      32.309  35.463  29.942  1.00  0.00    -0.237 OA
ATOM     61  O   UNL A   1      33.870  36.238  28.187  1.00  0.00    -0.237 OA
ATOM     62  O   UNL A   1      32.703  34.084  27.932  1.00  0.00    -0.744 OA
ENDBRANCH  58  59
ENDBRANCH  26  51
BRANCH  38  63
ATOM     63  C   UNL A   1      39.799  33.917  37.190  1.00  0.00     0.058 A 
ATOM     64  C   UNL A   1      38.992  33.587  38.289  1.00  0.00     0.135 A 
ATOM     65  C   UNL A   1      40.423  35.173  37.179  1.00  0.00     0.135 A 
ATOM     66  F   UNL A   1      38.372  32.398  38.340  1.00  0.00    -0.206 F 
ATOM     67  C   UNL A   1      38.792  34.482  39.332  1.00  0.00     0.059 A 
ATOM     68  C   UNL A   1      40.256  36.076  38.222  1.00  0.00     0.059 A 
ATOM     69  F   UNL A   1      41.214  35.528  36.152  1.00  0.00    -0.206 F 
ATOM     70  C   UNL A   1      39.429  35.725  39.289  1.00  0.00     0.060 A 
BRANCH  70  71
ATOM     71  S   UNL A   1      39.191  36.870  40.663  1.00  0.00     0.124 S 
ATOM     72  O   UNL A   1      38.311  37.868  40.064  1.00  0.00    -0.237 OA
ATOM     73  O   UNL A   1      38.583  36.020  41.682  1.00  0.00    -0.237 OA
ATOM     74  O   UNL A   1      40.545  37.324  40.962  1.00  0.00    -0.744 OA
ENDBRANCH  70  71
ENDBRANCH  38  63
ENDBRANCH  12  13
ENDBRANCH   5   7
ENDBRANCH   4   5
ENDBRANCH   3   4
ENDBRANCH   2   3
ENDBRANCH   1   2
BRANCH   1  75
ATOM     75  C   UNL A   1      38.581  23.102  26.133  1.00  0.00     0.202 C 
BRANCH  75  76
ATOM     76  C   UNL A   1      38.066  21.839  25.438  1.00  0.00     0.261 C 
BRANCH  76  77
ATOM     77  O   UNL A   1      36.657  21.750  25.689  1.00  0.00    -0.460 OA
BRANCH  77  78
ATOM     78  C   UNL A   1      35.979  20.768  25.040  1.00  0.00     0.342 C 
ATOM     79  O   UNL A   1      36.294  19.597  24.923  1.00  0.00    -0.246 OA
BRANCH  78  80
ATOM     80  C   UNL A   1      34.616  21.293  24.790  1.00  0.00     0.103 A 
ATOM     81  C   UNL A   1      34.508  22.423  23.964  1.00  0.00     0.041 A 
ATOM     82  C   UNL A   1      33.470  20.569  25.140  1.00  0.00     0.130 A 
ATOM     83  C   UNL A   1      33.278  22.720  23.369  1.00  0.00     0.088 A 
ATOM     84  C   UNL A   1      32.250  20.859  24.535  1.00  0.00     0.048 A 
ATOM     85  C   UNL A   1      32.175  21.888  23.595  1.00  0.00     0.026 A 
BRANCH  82  86
ATOM     86  O   UNL A   1      33.545  19.563  26.060  1.00  0.00    -0.507 OA
ATOM     87  H   UNL A   1      32.993  18.811  25.979  1.00  0.00     0.293 HD
ENDBRANCH  82  86
BRANCH  83  88
ATOM     88  S   UNL A   1      33.173  24.037  22.177  1.00  0.00     0.261 S 
ATOM     89  O   UNL A   1      34.073  25.090  22.592  1.00  0.00    -0.201 OA
ATOM     90  O   UNL A   1      33.316  23.413  20.878  1.00  0.00    -0.201 OA
BRANCH  88  91
ATOM     91  N   UNL A   1      31.607  24.712  22.193  1.00  0.00    -0.280 N 
ATOM     92  H   UNL A   1      30.867  24.254  21.732  1.00  0.00     0.180 HD
BRANCH  91  93
ATOM     93  C   UNL A   1      31.372  25.943  22.877  1.00  0.00     0.050 A 
ATOM     94  C   UNL A   1      31.388  25.962  24.272  1.00  0.00     0.027 A 
ATOM     95  C   UNL A   1      31.051  27.097  22.158  1.00  0.00     0.047 A 
ATOM     96  C   UNL A   1      31.040  27.126  24.958  1.00  0.00     0.004 A 
ATOM     97  C   UNL A   1      30.713  28.259  22.851  1.00  0.00     0.043 A 
ATOM     98  C   UNL A   1      30.696  28.276  24.246  1.00  0.00     0.020 A 
ATOM     99  Cl  UNL A   1      30.278  29.678  21.979  1.00  0.00    -0.084 Cl
ENDBRANCH  91  93
ENDBRANCH  88  91
ENDBRANCH  83  88
ENDBRANCH  78  80
ENDBRANCH  77  78
ENDBRANCH  76  77
ENDBRANCH  75  76
ENDBRANCH   1  75
TORSDOF 21
ENDMDL
MODEL 2
REMARK VINA RESULT:     -11.2      1.451      2.406
REMARK SMILES O=C(OCCOCCOC(=O)c1cc(S(=O)(=O)Nc2cccc(Cl)c2)ccc1O)c1ccc(-c2c3nc(c(-c4c(F)cc(S(=O)(=O)[O-])cc4F)c4ccc([nH]4)c(-c4c(F)cc(S(=O)(=O)[O-])cc4F)c4nc(c(-c5c(F)cc(S(=O)(=O)[O-])cc5F)c5ccc2[nH]5)C=C4)C=C3)cc1
REMARK SMILES IDX 6 1 5 2 4 3 3 4 2 5 1 6 30 7 31 8 95 9 32 10 94 11 33 12
REMARK SMILES IDX 34 13 35 14 88 15 36 16 93 17 87 18 89 19 37 20 92 21 86 22
REMARK SMILES IDX 85 23 38 25 72 26 51 27 71 28 52 29 55 30 70 31 90 32 53 33
REMARK SMILES IDX 54 34 69 36 91 37 56 38 39 39 40 40 49 41 41 42 42 43 48 44
REMARK SMILES IDX 50 45 43 46 44 47 45 48 46 49 47 50 73 51 74 52 83 53 75 54
REMARK SMILES IDX 76 55 82 56 84 57 77 58 78 59 79 60 80 61 81 62 57 63 58 64
REMARK SMILES IDX 67 65 59 66 60 67 66 68 68 69 61 70 62 71 63 72 64 73 65 74
REMARK SMILES IDX 7 75 8 76 9 77 10 78 11 79 12 80 13 81 28 82 14 83 27 84
REMARK SMILES IDX 26 85 29 86 15 88 16 89 17 90 18 91 19 93 20 94 25 95 21 96
REMARK SMILES IDX 23 97 22 98 24 99
REMARK H PARENT 89 24 55 35 29 87 18 92
REMARK Flexibility Score: inf
ROOT
ATOM      1  O   UNL A   1      39.458  21.513  26.648  1.00  0.00    -0.374 OA
ENDROOT
BRANCH   1   2
ATOM      2  C   UNL A   1      40.853  21.209  26.716  1.00  0.00     0.202 C 
BRANCH   2   3
ATOM      3  C   UNL A   1      41.783  22.421  26.640  1.00  0.00     0.261 C 
BRANCH   3   4
ATOM      4  O   UNL A   1      41.016  23.619  26.417  1.00  0.00    -0.460 OA
BRANCH   4   5
ATOM      5  C   UNL A   1      41.440  24.903  26.377  1.00  0.00     0.338 C 
ATOM      6  O   UNL A   1      42.093  25.270  25.400  1.00  0.00    -0.246 OA
BRANCH   5   7
ATOM      7  C   UNL A   1      41.160  25.905  27.450  1.00  0.00     0.060 A 
ATOM      8  C   UNL A   1      41.793  27.142  27.572  1.00  0.00     0.016 A 
ATOM      9  C   UNL A   1      40.124  25.606  28.354  1.00  0.00     0.016 A 
ATOM     10  C   UNL A   1      41.484  28.017  28.604  1.00  0.00     0.010 A 
ATOM     11  C   UNL A   1      39.770  26.503  29.367  1.00  0.00     0.010 A 
ATOM     12  C   UNL A   1      40.476  27.701  29.511  1.00  0.00    -0.014 A 
BRANCH  12  13
ATOM     13  C   UNL A   1      40.286  28.607  30.660  1.00  0.00     0.031 A 
ATOM     14  C   UNL A   1      41.255  28.520  31.800  1.00  0.00     0.074 A 
ATOM     15  C   UNL A   1      39.365  29.585  30.584  1.00  0.00     0.049 A 
ATOM     16  N   UNL A   1      41.330  29.251  32.878  1.00  0.00    -0.248 NA
ATOM     17  C   UNL A   1      42.293  27.478  31.705  1.00  0.00     0.031 C 
ATOM     18  C   UNL A   1      38.455  29.798  29.456  1.00  0.00     0.029 A 
ATOM     19  N   UNL A   1      39.074  30.609  31.445  1.00  0.00    -0.354 N 
ATOM     20  C   UNL A   1      42.407  28.749  33.598  1.00  0.00     0.074 A 
ATOM     21  C   UNL A   1      42.953  27.646  32.840  1.00  0.00     0.031 C 
ATOM     22  C   UNL A   1      37.735  30.910  29.677  1.00  0.00     0.029 A 
ATOM     23  C   UNL A   1      38.096  31.456  30.980  1.00  0.00     0.049 A 
ATOM     24  H   UNL A   1      39.522  30.727  32.313  1.00  0.00     0.167 HD
ATOM     25  C   UNL A   1      42.888  29.172  34.790  1.00  0.00     0.037 A 
ATOM     26  C   UNL A   1      37.552  32.546  31.556  1.00  0.00     0.037 A 
ATOM     27  C   UNL A   1      42.322  30.272  35.521  1.00  0.00     0.049 A 
ATOM     28  C   UNL A   1      38.067  32.960  32.908  1.00  0.00     0.074 A 
ATOM     29  C   UNL A   1      42.667  30.753  36.769  1.00  0.00     0.029 A 
ATOM     30  N   UNL A   1      41.285  31.071  35.054  1.00  0.00    -0.354 N 
ATOM     31  N   UNL A   1      39.043  32.435  33.614  1.00  0.00    -0.248 NA
ATOM     32  C   UNL A   1      37.409  34.104  33.549  1.00  0.00     0.031 C 
ATOM     33  C   UNL A   1      41.815  31.822  37.072  1.00  0.00     0.029 A 
ATOM     34  C   UNL A   1      40.969  32.035  35.994  1.00  0.00     0.049 A 
ATOM     35  H   UNL A   1      40.840  30.966  34.182  1.00  0.00     0.167 HD
ATOM     36  C   UNL A   1      39.126  33.192  34.775  1.00  0.00     0.074 A 
ATOM     37  C   UNL A   1      38.111  34.223  34.668  1.00  0.00     0.031 C 
ATOM     38  C   UNL A   1      39.957  33.051  35.837  1.00  0.00     0.037 A 
BRANCH  25  39
ATOM     39  C   UNL A   1      44.022  28.388  35.383  1.00  0.00     0.058 A 
ATOM     40  C   UNL A   1      43.813  27.194  36.093  1.00  0.00     0.135 A 
ATOM     41  C   UNL A   1      45.337  28.868  35.283  1.00  0.00     0.135 A 
ATOM     42  F   UNL A   1      42.571  26.707  36.245  1.00  0.00    -0.206 F 
ATOM     43  C   UNL A   1      44.864  26.524  36.713  1.00  0.00     0.059 A 
ATOM     44  C   UNL A   1      46.407  28.203  35.877  1.00  0.00     0.059 A 
ATOM     45  F   UNL A   1      45.592  30.011  34.627  1.00  0.00    -0.206 F 
ATOM     46  C   UNL A   1      46.156  27.043  36.609  1.00  0.00     0.060 A 
BRANCH  46  47
ATOM     47  S   UNL A   1      47.506  26.191  37.453  1.00  0.00     0.124 S 
ATOM     48  O   UNL A   1      46.777  25.391  38.432  1.00  0.00    -0.237 OA
ATOM     49  O   UNL A   1      48.135  25.444  36.368  1.00  0.00    -0.237 OA
ATOM     50  O   UNL A   1      48.305  27.283  38.003  1.00  0.00    -0.744 OA
ENDBRANCH  46  47
ENDBRANCH  25  39
BRANCH  26  51
ATOM     51  C   UNL A   1      36.458  33.292  30.876  1.00  0.00     0.058 A 
ATOM     52  C   UNL A   1      35.125  33.187  31.301  1.00  0.00     0.135 A 
ATOM     53  C   UNL A   1      36.725  34.130  29.781  1.00  0.00     0.135 A 
ATOM     54  F   UNL A   1      34.812  32.395  32.338  1.00  0.00    -0.206 F 
ATOM     55  C   UNL A   1      34.096  33.872  30.659  1.00  0.00     0.059 A 
ATOM     56  C   UNL A   1      35.719  34.845  29.138  1.00  0.00     0.059 A 
ATOM     57  F   UNL A   1      37.983  34.277  29.337  1.00  0.00    -0.206 F 
ATOM     58  C   UNL A   1      34.404  34.699  29.576  1.00  0.00     0.060 A 
BRANCH  58  59
ATOM     59  S   UNL A   1      33.071  35.610  28.763  1.00  0.00     0.124 S 
ATOM     60  O   UNL A   1      33.817  36.617  28.018  1.00  0.00    -0.237 OA
ATOM     61  O   UNL A   1      32.427  34.572  27.965  1.00  0.00    -0.237 OA
ATOM     62  O   UNL A   1      32.278  36.111  29.882  1.00  0.00    -0.744 OA
ENDBRANCH  58  59
ENDBRANCH  26  51
BRANCH  38  63
ATOM     63  C   UNL A   1      39.817  34.054  36.943  1.00  0.00     0.058 A 
ATOM     64  C   UNL A   1      40.545  35.253  36.944  1.00  0.00     0.135 A 
ATOM     65  C   UNL A   1      38.906  33.832  37.987  1.00  0.00     0.135 A 
ATOM     66  F   UNL A   1      41.432  35.505  35.967  1.00  0.00    -0.206 F 
ATOM     67  C   UNL A   1      40.393  36.190  37.957  1.00  0.00     0.059 A 
ATOM     68  C   UNL A   1      38.720  34.766  38.999  1.00  0.00     0.059 A 
ATOM     69  F   UNL A   1      38.178  32.704  38.022  1.00  0.00    -0.206 F 
ATOM     70  C   UNL A   1      39.477  35.937  38.981  1.00  0.00     0.060 A 
BRANCH  70  71
ATOM     71  S   UNL A   1      39.260  37.175  40.276  1.00  0.00     0.124 S 
ATOM     72  O   UNL A   1      38.533  36.415  41.288  1.00  0.00    -0.237 OA
ATOM     73  O   UNL A   1      40.636  37.525  40.613  1.00  0.00    -0.237 OA
ATOM     74  O   UNL A   1      38.497  38.228  39.612  1.00  0.00    -0.744 OA
ENDBRANCH  70  71
ENDBRANCH  38  63
ENDBRANCH  12  13
ENDBRANCH   5   7
ENDBRANCH   4   5
ENDBRANCH   3   4
ENDBRANCH   2   3
ENDBRANCH   1   2
BRANCH   1  75
ATOM     75  C   UNL A   1      38.808  21.183  25.414  1.00  0.00     0.202 C 
BRANCH  75  76
ATOM     76  C   UNL A   1      37.294  21.140  25.636  1.00  0.00     0.261 C 
BRANCH  76  77
ATOM     77  O   UNL A   1      36.730  22.297  25.003  1.00  0.00    -0.460 OA
BRANCH  77  78
ATOM     78  C   UNL A   1      36.629  23.422  25.757  1.00  0.00     0.342 C 
ATOM     79  O   UNL A   1      37.532  24.144  26.143  1.00  0.00    -0.246 OA
BRANCH  78  80
ATOM     80  C   UNL A   1      35.199  23.810  25.744  1.00  0.00     0.103 A 
ATOM     81  C   UNL A   1      34.783  24.681  24.725  1.00  0.00     0.041 A 
ATOM     82  C   UNL A   1      34.249  23.157  26.539  1.00  0.00     0.130 A 
ATOM     83  C   UNL A   1      33.424  24.766  24.411  1.00  0.00     0.088 A 
ATOM     84  C   UNL A   1      32.898  23.233  26.213  1.00  0.00     0.048 A 
ATOM     85  C   UNL A   1      32.497  23.978  25.104  1.00  0.00     0.026 A 
BRANCH  82  86
ATOM     86  O   UNL A   1      34.644  22.428  27.624  1.00  0.00    -0.507 OA
ATOM     87  H   UNL A   1      35.068  21.601  27.504  1.00  0.00     0.293 HD
ENDBRANCH  82  86
BRANCH  83  88
ATOM     88  S   UNL A   1      32.904  25.724  23.004  1.00  0.00     0.261 S 
ATOM     89  O   UNL A   1      33.997  25.761  22.058  1.00  0.00    -0.201 OA
ATOM     90  O   UNL A   1      31.611  25.197  22.618  1.00  0.00    -0.201 OA
BRANCH  88  91
ATOM     91  N   UNL A   1      32.622  27.339  23.472  1.00  0.00    -0.280 N 
ATOM     92  H   UNL A   1      32.450  28.028  22.791  1.00  0.00     0.180 HD
BRANCH  91  93
ATOM     93  C   UNL A   1      32.633  27.688  24.857  1.00  0.00     0.050 A 
ATOM     94  C   UNL A   1      31.456  27.579  25.597  1.00  0.00     0.027 A 
ATOM     95  C   UNL A   1      33.791  28.208  25.441  1.00  0.00     0.047 A 
ATOM     96  C   UNL A   1      31.418  28.031  26.917  1.00  0.00     0.004 A 
ATOM     97  C   UNL A   1      33.746  28.649  26.764  1.00  0.00     0.043 A 
ATOM     98  C   UNL A   1      32.564  28.573  27.500  1.00  0.00     0.020 A 
ATOM     99  Cl  UNL A   1      35.154  29.328  27.485  1.00  0.00    -0.084 Cl
ENDBRANCH  91  93
ENDBRANCH  88  91
ENDBRANCH  83  88
ENDBRANCH  78  80
ENDBRANCH  77  78
ENDBRANCH  76  77
ENDBRANCH  75  76
ENDBRANCH   1  75
TORSDOF 21
ENDMDL
MODEL 3
REMARK VINA RESULT:     -11.1      6.430     12.048
REMARK SMILES O=C(OCCOCCOC(=O)c1cc(S(=O)(=O)Nc2cccc(Cl)c2)ccc1O)c1ccc(-c2c3nc(c(-c4c(F)cc(S(=O)(=O)[O-])cc4F)c4ccc([nH]4)c(-c4c(F)cc(S(=O)(=O)[O-])cc4F)c4nc(c(-c5c(F)cc(S(=O)(=O)[O-])cc5F)c5ccc2[nH]5)C=C4)C=C3)cc1
REMARK SMILES IDX 6 1 5 2 4 3 3 4 2 5 1 6 30 7 31 8 95 9 32 10 94 11 33 12
REMARK SMILES IDX 34 13 35 14 88 15 36 16 93 17 87 18 89 19 37 20 92 21 86 22
REMARK SMILES IDX 85 23 38 25 72 26 51 27 71 28 52 29 55 30 70 31 90 32 53 33
REMARK SMILES IDX 54 34 69 36 91 37 56 38 39 39 40 40 49 41 41 42 42 43 48 44
REMARK SMILES IDX 50 45 43 46 44 47 45 48 46 49 47 50 73 51 74 52 83 53 75 54
REMARK SMILES IDX 76 55 82 56 84 57 77 58 78 59 79 60 80 61 81 62 57 63 58 64
REMARK SMILES IDX 67 65 59 66 60 67 66 68 68 69 61 70 62 71 63 72 64 73 65 74
REMARK SMILES IDX 7 75 8 76 9 77 10 78 11 79 12 80 13 81 28 82 14 83 27 84
REMARK SMILES IDX 26 85 29 86 15 88 16 89 17 90 18 91 19 93 20 94 25 95 21 96
REMARK SMILES IDX 23 97 22 98 24 99
REMARK H PARENT 89 24 55 35 29 87 18 92
REMARK Flexibility Score: inf
ROOT
ATOM      1  O   UNL A   1      35.019  31.423  27.597  1.00  0.00    -0.374 OA
ENDROOT
BRANCH   1   2
ATOM      2  C   UNL A   1      34.372  32.387  28.428  1.00  0.00     0.202 C 
BRANCH   2   3
ATOM      3  C   UNL A   1      34.717  32.294  29.916  1.00  0.00     0.261 C 
BRANCH   3   4
ATOM      4  O   UNL A   1      36.109  31.964  30.079  1.00  0.00    -0.460 OA
BRANCH   4   5
ATOM      5  C   UNL A   1      36.661  30.816  30.535  1.00  0.00     0.338 C 
ATOM      6  O   UNL A   1      36.049  30.175  31.390  1.00  0.00    -0.246 OA
BRANCH   5   7
ATOM      7  C   UNL A   1      37.972  30.277  30.060  1.00  0.00     0.060 A 
ATOM      8  C   UNL A   1      38.980  29.785  30.888  1.00  0.00     0.016 A 
ATOM      9  C   UNL A   1      38.163  30.188  28.669  1.00  0.00     0.016 A 
ATOM     10  C   UNL A   1      40.177  29.307  30.370  1.00  0.00     0.010 A 
ATOM     11  C   UNL A   1      39.345  29.662  28.135  1.00  0.00     0.010 A 
ATOM     12  C   UNL A   1      40.368  29.249  28.993  1.00  0.00    -0.014 A 
BRANCH  12  13
ATOM     13  C   UNL A   1      41.706  28.859  28.508  1.00  0.00     0.031 A 
ATOM     14  C   UNL A   1      42.816  29.864  28.601  1.00  0.00     0.074 A 
ATOM     15  C   UNL A   1      41.935  27.581  28.155  1.00  0.00     0.049 A 
ATOM     16  N   UNL A   1      44.079  29.729  28.304  1.00  0.00    -0.248 NA
ATOM     17  C   UNL A   1      42.457  31.196  29.118  1.00  0.00     0.031 C 
ATOM     18  C   UNL A   1      40.925  26.519  28.141  1.00  0.00     0.029 A 
ATOM     19  N   UNL A   1      43.091  26.946  27.789  1.00  0.00    -0.354 N 
ATOM     20  C   UNL A   1      44.662  30.960  28.578  1.00  0.00     0.074 A 
ATOM     21  C   UNL A   1      43.615  31.833  29.058  1.00  0.00     0.031 C 
ATOM     22  C   UNL A   1      41.515  25.356  27.824  1.00  0.00     0.029 A 
ATOM     23  C   UNL A   1      42.929  25.599  27.564  1.00  0.00     0.049 A 
ATOM     24  H   UNL A   1      43.954  27.409  27.697  1.00  0.00     0.167 HD
ATOM     25  C   UNL A   1      45.957  31.325  28.431  1.00  0.00     0.037 A 
ATOM     26  C   UNL A   1      43.831  24.674  27.180  1.00  0.00     0.037 A 
ATOM     27  C   UNL A   1      46.976  30.433  27.949  1.00  0.00     0.049 A 
ATOM     28  C   UNL A   1      45.253  25.120  26.970  1.00  0.00     0.074 A 
ATOM     29  C   UNL A   1      48.306  30.698  27.685  1.00  0.00     0.029 A 
ATOM     30  N   UNL A   1      46.767  29.089  27.663  1.00  0.00    -0.354 N 
ATOM     31  N   UNL A   1      45.781  26.307  27.165  1.00  0.00    -0.248 NA
ATOM     32  C   UNL A   1      46.200  24.112  26.479  1.00  0.00     0.031 C 
ATOM     33  C   UNL A   1      48.895  29.520  27.207  1.00  0.00     0.029 A 
ATOM     34  C   UNL A   1      47.942  28.512  27.215  1.00  0.00     0.049 A 
ATOM     35  H   UNL A   1      45.909  28.616  27.764  1.00  0.00     0.167 HD
ATOM     36  C   UNL A   1      47.125  26.186  26.836  1.00  0.00     0.074 A 
ATOM     37  C   UNL A   1      47.331  24.805  26.445  1.00  0.00     0.031 C 
ATOM     38  C   UNL A   1      48.102  27.126  26.848  1.00  0.00     0.037 A 
BRANCH  25  39
ATOM     39  C   UNL A   1      46.299  32.756  28.727  1.00  0.00     0.058 A 
ATOM     40  C   UNL A   1      46.622  33.194  30.021  1.00  0.00     0.135 A 
ATOM     41  C   UNL A   1      46.251  33.716  27.704  1.00  0.00     0.135 A 
ATOM     42  F   UNL A   1      46.652  32.323  31.042  1.00  0.00    -0.206 F 
ATOM     43  C   UNL A   1      46.851  34.540  30.296  1.00  0.00     0.059 A 
ATOM     44  C   UNL A   1      46.497  35.063  27.952  1.00  0.00     0.059 A 
ATOM     45  F   UNL A   1      45.935  33.353  26.450  1.00  0.00    -0.206 F 
ATOM     46  C   UNL A   1      46.775  35.468  29.257  1.00  0.00     0.060 A 
BRANCH  46  47
ATOM     47  S   UNL A   1      47.030  37.217  29.631  1.00  0.00     0.124 S 
ATOM     48  O   UNL A   1      47.733  37.140  30.908  1.00  0.00    -0.237 OA
ATOM     49  O   UNL A   1      47.828  37.669  28.496  1.00  0.00    -0.237 OA
ATOM     50  O   UNL A   1      45.673  37.752  29.692  1.00  0.00    -0.744 OA
ENDBRANCH  46  47
ENDBRANCH  25  39
BRANCH  26  51
ATOM     51  C   UNL A   1      43.413  23.263  26.950  1.00  0.00     0.058 A 
ATOM     52  C   UNL A   1      43.141  22.397  28.019  1.00  0.00     0.135 A 
ATOM     53  C   UNL A   1      43.278  22.751  25.650  1.00  0.00     0.135 A 
ATOM     54  F   UNL A   1      43.262  22.832  29.283  1.00  0.00    -0.206 F 
ATOM     55  C   UNL A   1      42.764  21.073  27.809  1.00  0.00     0.059 A 
ATOM     56  C   UNL A   1      42.878  21.439  25.413  1.00  0.00     0.059 A 
ATOM     57  F   UNL A   1      43.516  23.538  24.588  1.00  0.00    -0.206 F 
ATOM     58  C   UNL A   1      42.636  20.603  26.501  1.00  0.00     0.060 A 
BRANCH  58  59
ATOM     59  S   UNL A   1      42.118  18.892  26.231  1.00  0.00     0.124 S 
ATOM     60  O   UNL A   1      42.300  18.318  27.558  1.00  0.00    -0.237 OA
ATOM     61  O   UNL A   1      40.737  19.053  25.788  1.00  0.00    -0.237 OA
ATOM     62  O   UNL A   1      43.045  18.420  25.206  1.00  0.00    -0.744 OA
ENDBRANCH  58  59
ENDBRANCH  26  51
BRANCH  38  63
ATOM     63  C   UNL A   1      49.479  26.677  26.458  1.00  0.00     0.058 A 
ATOM     64  C   UNL A   1      50.335  26.052  27.376  1.00  0.00     0.135 A 
ATOM     65  C   UNL A   1      49.923  26.829  25.135  1.00  0.00     0.135 A 
ATOM     66  F   UNL A   1      49.953  25.889  28.653  1.00  0.00    -0.206 F 
ATOM     67  C   UNL A   1      51.599  25.614  27.002  1.00  0.00     0.059 A 
ATOM     68  C   UNL A   1      51.174  26.378  24.733  1.00  0.00     0.059 A 
ATOM     69  F   UNL A   1      49.132  27.411  24.218  1.00  0.00    -0.206 F 
ATOM     70  C   UNL A   1      52.009  25.782  25.678  1.00  0.00     0.060 A 
BRANCH  70  71
ATOM     71  S   UNL A   1      53.640  25.180  25.191  1.00  0.00     0.124 S 
ATOM     72  O   UNL A   1      53.743  25.686  23.826  1.00  0.00    -0.237 OA
ATOM     73  O   UNL A   1      54.517  25.815  26.170  1.00  0.00    -0.237 OA
ATOM     74  O   UNL A   1      53.516  23.731  25.318  1.00  0.00    -0.744 OA
ENDBRANCH  70  71
ENDBRANCH  38  63
ENDBRANCH  12  13
ENDBRANCH   5   7
ENDBRANCH   4   5
ENDBRANCH   3   4
ENDBRANCH   2   3
ENDBRANCH   1   2
BRANCH   1  75
ATOM     75  C   UNL A   1      34.485  30.093  27.653  1.00  0.00     0.202 C 
BRANCH  75  76
ATOM     76  C   UNL A   1      33.149  30.053  26.907  1.00  0.00     0.261 C 
BRANCH  76  77
ATOM     77  O   UNL A   1      32.974  28.721  26.403  1.00  0.00    -0.460 OA
BRANCH  77  78
ATOM     78  C   UNL A   1      32.046  27.948  27.024  1.00  0.00     0.342 C 
ATOM     79  O   UNL A   1      31.424  28.202  28.041  1.00  0.00    -0.246 OA
BRANCH  78  80
ATOM     80  C   UNL A   1      31.670  26.887  26.060  1.00  0.00     0.103 A 
ATOM     81  C   UNL A   1      31.857  25.557  26.468  1.00  0.00     0.041 A 
ATOM     82  C   UNL A   1      30.931  27.168  24.904  1.00  0.00     0.130 A 
ATOM     83  C   UNL A   1      31.170  24.536  25.805  1.00  0.00     0.088 A 
ATOM     84  C   UNL A   1      30.238  26.150  24.255  1.00  0.00     0.048 A 
ATOM     85  C   UNL A   1      30.301  24.848  24.752  1.00  0.00     0.026 A 
BRANCH  82  86
ATOM     86  O   UNL A   1      30.871  28.443  24.418  1.00  0.00    -0.507 OA
ATOM     87  H   UNL A   1      31.494  28.732  23.781  1.00  0.00     0.293 HD
ENDBRANCH  82  86
BRANCH  83  88
ATOM     88  S   UNL A   1      31.255  22.871  26.428  1.00  0.00     0.261 S 
ATOM     89  O   UNL A   1      32.105  22.872  27.597  1.00  0.00    -0.201 OA
ATOM     90  O   UNL A   1      29.886  22.406  26.511  1.00  0.00    -0.201 OA
BRANCH  88  91
ATOM     91  N   UNL A   1      32.014  21.860  25.284  1.00  0.00    -0.280 N 
ATOM     92  H   UNL A   1      31.578  21.027  24.994  1.00  0.00     0.180 HD
BRANCH  91  93
ATOM     93  C   UNL A   1      33.286  22.226  24.747  1.00  0.00     0.050 A 
ATOM     94  C   UNL A   1      33.341  23.092  23.655  1.00  0.00     0.027 A 
ATOM     95  C   UNL A   1      34.455  21.659  25.260  1.00  0.00     0.047 A 
ATOM     96  C   UNL A   1      34.565  23.364  23.041  1.00  0.00     0.004 A 
ATOM     97  C   UNL A   1      35.675  21.943  24.646  1.00  0.00     0.043 A 
ATOM     98  C   UNL A   1      35.734  22.784  23.534  1.00  0.00     0.020 A 
ATOM     99  Cl  UNL A   1      37.120  21.222  25.243  1.00  0.00    -0.084 Cl
ENDBRANCH  91  93
ENDBRANCH  88  91
ENDBRANCH  83  88
ENDBRANCH  78  80
ENDBRANCH  77  78
ENDBRANCH  76  77
ENDBRANCH  75  76
ENDBRANCH   1  75
TORSDOF 21
ENDMDL
