MODEL 1
REMARK VINA RESULT:     -10.9      0.000      0.000
REMARK SMILES O=C(CCC(=O)N1CCC(c2nnc3ccccn23)CC1)OCCOCCOC(=O)c1ccc(-c2c3nc(c(-c4c(F)cc(S(=O)(=O)[O-])cc4F)c4ccc([nH]4)c(-c4c(F)cc(S(=O)(=O)[O-])cc4F)c4nc(c(-c5c(F)cc(S(=O)(=O)[O-])cc5F)c5ccc2[nH]5)C=C4)C=C3)cc1
REMARK SMILES IDX 25 1 24 2 23 3 22 4 2 5 1 6 3 7 4 8 5 9 6 10 7 11 8 12 21 13
REMARK SMILES IDX 9 14 20 15 10 16 11 17 12 18 19 19 13 20 14 21 18 22 15 23
REMARK SMILES IDX 17 24 16 25 26 26 27 27 28 28 29 29 30 30 31 31 32 32 96 33
REMARK SMILES IDX 33 34 95 35 34 36 35 37 36 38 89 39 37 40 94 41 88 42 90 43
REMARK SMILES IDX 38 44 93 45 87 46 86 47 39 49 73 50 52 51 72 52 53 53 56 54
REMARK SMILES IDX 71 55 91 56 54 57 55 58 70 60 92 61 57 62 40 63 41 64 50 65
REMARK SMILES IDX 42 66 43 67 49 68 51 69 44 70 45 71 46 72 47 73 48 74 74 75
REMARK SMILES IDX 75 76 84 77 76 78 77 79 83 80 85 81 78 82 79 83 80 84 81 85
REMARK SMILES IDX 82 86 58 87 59 88 68 89 60 90 61 91 67 92 69 93 62 94 63 95
REMARK SMILES IDX 64 96 65 97 66 98
REMARK H PARENT 90 48 56 59
REMARK Flexibility Score: inf
ROOT
ATOM      1  O   UNL A   1      36.547  21.659  24.931  1.00  0.00    -0.374 OA
ENDROOT
BRANCH   1   2
ATOM      2  C   UNL A   1      35.428  21.937  25.762  1.00  0.00     0.202 C 
BRANCH   2   3
ATOM      3  C   UNL A   1      34.243  20.967  25.692  1.00  0.00     0.261 C 
BRANCH   3   4
ATOM      4  O   UNL A   1      33.105  21.504  24.998  1.00  0.00    -0.463 OA
BRANCH   4   5
ATOM      5  C   UNL A   1      32.743  21.179  23.738  1.00  0.00     0.306 C 
ATOM      6  O   UNL A   1      32.526  20.006  23.435  1.00  0.00    -0.252 OA
BRANCH   5   7
ATOM      7  C   UNL A   1      32.514  22.268  22.732  1.00  0.00     0.132 C 
BRANCH   7   8
ATOM      8  C   UNL A   1      32.024  23.543  23.400  1.00  0.00     0.112 C 
BRANCH   8   9
ATOM      9  C   UNL A   1      32.792  24.774  22.953  1.00  0.00     0.223 C 
ATOM     10  O   UNL A   1      33.873  24.612  22.381  1.00  0.00    -0.275 OA
ATOM     11  N   UNL A   1      32.274  26.033  23.216  1.00  0.00    -0.343 N 
ATOM     12  C   UNL A   1      32.916  27.205  22.612  1.00  0.00     0.120 C 
ATOM     13  C   UNL A   1      31.052  26.322  23.973  1.00  0.00     0.120 C 
ATOM     14  C   UNL A   1      33.143  28.333  23.619  1.00  0.00     0.033 C 
ATOM     15  C   UNL A   1      31.305  27.387  25.032  1.00  0.00     0.033 C 
ATOM     16  C   UNL A   1      31.850  28.663  24.378  1.00  0.00     0.062 C 
BRANCH  16  17
ATOM     17  C   UNL A   1      32.063  29.731  25.402  1.00  0.00     0.140 A 
ATOM     18  N   UNL A   1      31.274  30.765  25.624  1.00  0.00    -0.134 NA
ATOM     19  N   UNL A   1      33.161  29.813  26.234  1.00  0.00    -0.286 N 
ATOM     20  N   UNL A   1      31.838  31.539  26.610  1.00  0.00    -0.130 NA
ATOM     21  C   UNL A   1      32.943  30.946  27.003  1.00  0.00     0.160 A 
ATOM     22  C   UNL A   1      34.298  29.016  26.353  1.00  0.00     0.095 A 
ATOM     23  C   UNL A   1      33.899  31.258  28.006  1.00  0.00     0.050 A 
ATOM     24  C   UNL A   1      35.232  29.346  27.259  1.00  0.00     0.019 A 
ATOM     25  C   UNL A   1      35.004  30.497  28.123  1.00  0.00     0.005 A 
ENDBRANCH  16  17
ENDBRANCH   8   9
ENDBRANCH   7   8
ENDBRANCH   5   7
ENDBRANCH   4   5
ENDBRANCH   3   4
ENDBRANCH   2   3
ENDBRANCH   1   2
BRANCH   1  26
ATOM     26  C   UNL A   1      37.842  22.077  25.379  1.00  0.00     0.202 C 
BRANCH  26  27
ATOM     27  C   UNL A   1      38.060  23.536  25.801  1.00  0.00     0.261 C 
BRANCH  27  28
ATOM     28  O   UNL A   1      39.167  23.727  26.703  1.00  0.00    -0.460 OA
BRANCH  28  29
ATOM     29  C   UNL A   1      39.905  24.840  26.466  1.00  0.00     0.338 C 
ATOM     30  O   UNL A   1      40.257  25.269  25.381  1.00  0.00    -0.246 OA
BRANCH  29  31
ATOM     31  C   UNL A   1      40.195  25.570  27.710  1.00  0.00     0.060 A 
ATOM     32  C   UNL A   1      39.287  25.500  28.776  1.00  0.00     0.016 A 
ATOM     33  C   UNL A   1      41.229  26.501  27.721  1.00  0.00     0.016 A 
ATOM     34  C   UNL A   1      39.389  26.403  29.842  1.00  0.00     0.010 A 
ATOM     35  C   UNL A   1      41.321  27.403  28.783  1.00  0.00     0.010 A 
ATOM     36  C   UNL A   1      40.384  27.389  29.832  1.00  0.00    -0.014 A 
BRANCH  36  37
ATOM     37  C   UNL A   1      40.364  28.533  30.785  1.00  0.00     0.031 A 
ATOM     38  C   UNL A   1      41.231  28.449  32.017  1.00  0.00     0.074 A 
ATOM     39  C   UNL A   1      39.572  29.606  30.601  1.00  0.00     0.049 A 
ATOM     40  N   UNL A   1      41.261  29.224  33.071  1.00  0.00    -0.248 NA
ATOM     41  C   UNL A   1      42.190  27.332  32.066  1.00  0.00     0.031 C 
ATOM     42  C   UNL A   1      38.721  29.847  29.439  1.00  0.00     0.029 A 
ATOM     43  N   UNL A   1      39.330  30.683  31.421  1.00  0.00    -0.354 N 
ATOM     44  C   UNL A   1      42.240  28.691  33.903  1.00  0.00     0.074 A 
ATOM     45  C   UNL A   1      42.740  27.497  33.259  1.00  0.00     0.031 C 
ATOM     46  C   UNL A   1      38.007  30.969  29.643  1.00  0.00     0.029 A 
ATOM     47  C   UNL A   1      38.337  31.515  30.958  1.00  0.00     0.049 A 
ATOM     48  H   UNL A   1      39.819  30.843  32.259  1.00  0.00     0.167 HD
ATOM     49  C   UNL A   1      42.703  29.168  35.083  1.00  0.00     0.037 A 
ATOM     50  C   UNL A   1      37.737  32.569  31.546  1.00  0.00     0.037 A 
ATOM     51  C   UNL A   1      42.219  30.365  35.717  1.00  0.00     0.049 A 
ATOM     52  C   UNL A   1      38.172  33.009  32.915  1.00  0.00     0.074 A 
ATOM     53  C   UNL A   1      42.666  30.968  36.880  1.00  0.00     0.029 A 
ATOM     54  N   UNL A   1      41.173  31.140  35.241  1.00  0.00    -0.354 N 
ATOM     55  N   UNL A   1      39.079  32.482  33.700  1.00  0.00    -0.248 NA
ATOM     56  C   UNL A   1      37.512  34.201  33.466  1.00  0.00     0.031 C 
ATOM     57  C   UNL A   1      41.868  32.091  37.126  1.00  0.00     0.029 A 
ATOM     58  C   UNL A   1      40.949  32.206  36.095  1.00  0.00     0.049 A 
ATOM     59  H   UNL A   1      40.663  30.958  34.419  1.00  0.00     0.167 HD
ATOM     60  C   UNL A   1      39.124  33.298  34.824  1.00  0.00     0.074 A 
ATOM     61  C   UNL A   1      38.131  34.336  34.630  1.00  0.00     0.031 C 
ATOM     62  C   UNL A   1      39.941  33.216  35.902  1.00  0.00     0.037 A 
BRANCH  49  63
ATOM     63  C   UNL A   1      43.803  28.397  35.756  1.00  0.00     0.058 A 
ATOM     64  C   UNL A   1      43.521  27.373  36.675  1.00  0.00     0.135 A 
ATOM     65  C   UNL A   1      45.150  28.665  35.466  1.00  0.00     0.135 A 
ATOM     66  F   UNL A   1      42.251  27.084  36.998  1.00  0.00    -0.206 F 
ATOM     67  C   UNL A   1      44.537  26.663  37.306  1.00  0.00     0.059 A 
ATOM     68  C   UNL A   1      46.182  27.951  36.068  1.00  0.00     0.059 A 
ATOM     69  F   UNL A   1      45.474  29.632  34.594  1.00  0.00    -0.206 F 
ATOM     70  C   UNL A   1      45.865  26.961  36.998  1.00  0.00     0.060 A 
BRANCH  70  71
ATOM     71  S   UNL A   1      47.173  26.028  37.820  1.00  0.00     0.124 S 
ATOM     72  O   UNL A   1      48.365  26.554  37.162  1.00  0.00    -0.237 OA
ATOM     73  O   UNL A   1      47.003  26.409  39.218  1.00  0.00    -0.237 OA
ATOM     74  O   UNL A   1      46.846  24.639  37.509  1.00  0.00    -0.744 OA
ENDBRANCH  70  71
ENDBRANCH  49  63
BRANCH  50  75
ATOM     75  C   UNL A   1      36.614  33.265  30.872  1.00  0.00     0.058 A 
ATOM     76  C   UNL A   1      35.291  33.113  31.303  1.00  0.00     0.135 A 
ATOM     77  C   UNL A   1      36.855  34.093  29.768  1.00  0.00     0.135 A 
ATOM     78  F   UNL A   1      35.010  32.300  32.332  1.00  0.00    -0.206 F 
ATOM     79  C   UNL A   1      34.244  33.793  30.687  1.00  0.00     0.059 A 
ATOM     80  C   UNL A   1      35.831  34.793  29.143  1.00  0.00     0.059 A 
ATOM     81  F   UNL A   1      38.100  34.226  29.287  1.00  0.00    -0.206 F 
ATOM     82  C   UNL A   1      34.527  34.643  29.616  1.00  0.00     0.060 A 
BRANCH  82  83
ATOM     83  S   UNL A   1      33.217  35.643  28.877  1.00  0.00     0.124 S 
ATOM     84  O   UNL A   1      33.984  36.676  28.194  1.00  0.00    -0.237 OA
ATOM     85  O   UNL A   1      32.522  34.689  28.019  1.00  0.00    -0.237 OA
ATOM     86  O   UNL A   1      32.464  36.075  30.053  1.00  0.00    -0.744 OA
ENDBRANCH  82  83
ENDBRANCH  50  75
BRANCH  62  87
ATOM     87  C   UNL A   1      39.827  34.301  36.930  1.00  0.00     0.058 A 
ATOM     88  C   UNL A   1      40.528  35.510  36.813  1.00  0.00     0.135 A 
ATOM     89  C   UNL A   1      38.976  34.136  38.035  1.00  0.00     0.135 A 
ATOM     90  F   UNL A   1      41.365  35.709  35.782  1.00  0.00    -0.206 F 
ATOM     91  C   UNL A   1      40.401  36.515  37.767  1.00  0.00     0.059 A 
ATOM     92  C   UNL A   1      38.819  35.133  38.989  1.00  0.00     0.059 A 
ATOM     93  F   UNL A   1      38.283  32.996  38.189  1.00  0.00    -0.206 F 
ATOM     94  C   UNL A   1      39.545  36.316  38.853  1.00  0.00     0.060 A 
BRANCH  94  95
ATOM     95  S   UNL A   1      39.367  37.633  40.074  1.00  0.00     0.124 S 
ATOM     96  O   UNL A   1      40.621  38.359  39.907  1.00  0.00    -0.237 OA
ATOM     97  O   UNL A   1      38.166  38.327  39.617  1.00  0.00    -0.237 OA
ATOM     98  O   UNL A   1      39.222  36.908  41.333  1.00  0.00    -0.744 OA
ENDBRANCH  94  95
ENDBRANCH  62  87
ENDBRANCH  36  37
ENDBRANCH  29  31
ENDBRANCH  28  29
ENDBRANCH  27  28
ENDBRANCH  26  27
ENDBRANCH   1  26
TORSDOF 20
ENDMDL
MODEL 2
REMARK VINA RESULT:     -10.7      6.402     12.011
REMARK SMILES O=C(CCC(=O)N1CCC(c2nnc3ccccn23)CC1)OCCOCCOC(=O)c1ccc(-c2c3nc(c(-c4c(F)cc(S(=O)(=O)[O-])cc4F)c4ccc([nH]4)c(-c4c(F)cc(S(=O)(=O)[O-])cc4F)c4nc(c(-c5c(F)cc(S(=O)(=O)[O-])cc5F)c5ccc2[nH]5)C=C4)C=C3)cc1
REMARK SMILES IDX 25 1 24 2 23 3 22 4 2 5 1 6 3 7 4 8 5 9 6 10 7 11 8 12 21 13
REMARK SMILES IDX 9 14 20 15 10 16 11 17 12 18 19 19 13 20 14 21 18 22 15 23
REMARK SMILES IDX 17 24 16 25 26 26 27 27 28 28 29 29 30 30 31 31 32 32 96 33
REMARK SMILES IDX 33 34 95 35 34 36 35 37 36 38 89 39 37 40 94 41 88 42 90 43
REMARK SMILES IDX 38 44 93 45 87 46 86 47 39 49 73 50 52 51 72 52 53 53 56 54
REMARK SMILES IDX 71 55 91 56 54 57 55 58 70 60 92 61 57 62 40 63 41 64 50 65
REMARK SMILES IDX 42 66 43 67 49 68 51 69 44 70 45 71 46 72 47 73 48 74 74 75
REMARK SMILES IDX 75 76 84 77 76 78 77 79 83 80 85 81 78 82 79 83 80 84 81 85
REMARK SMILES IDX 82 86 58 87 59 88 68 89 60 90 61 91 67 92 69 93 62 94 63 95
REMARK SMILES IDX 64 96 65 97 66 98
REMARK H PARENT 90 48 56 59
REMARK Flexibility Score: inf
ROOT
ATOM      1  O   UNL A   1      34.381  30.823  27.075  1.00  0.00    -0.374 OA
ENDROOT
BRANCH   1   2
ATOM      2  C   UNL A   1      33.958  29.467  27.147  1.00  0.00     0.202 C 
BRANCH   2   3
ATOM      3  C   UNL A   1      33.052  28.953  26.021  1.00  0.00     0.261 C 
BRANCH   3   4
ATOM      4  O   UNL A   1      33.777  28.371  24.926  1.00  0.00    -0.463 OA
BRANCH   4   5
ATOM      5  C   UNL A   1      33.554  28.638  23.621  1.00  0.00     0.306 C 
ATOM      6  O   UNL A   1      34.495  28.718  22.832  1.00  0.00    -0.252 OA
BRANCH   5   7
ATOM      7  C   UNL A   1      32.144  28.743  23.119  1.00  0.00     0.132 C 
BRANCH   7   8
ATOM      8  C   UNL A   1      31.707  27.459  22.431  1.00  0.00     0.112 C 
BRANCH   8   9
ATOM      9  C   UNL A   1      31.099  26.454  23.393  1.00  0.00     0.223 C 
ATOM     10  O   UNL A   1      30.430  26.880  24.339  1.00  0.00    -0.275 OA
ATOM     11  N   UNL A   1      31.328  25.100  23.199  1.00  0.00    -0.343 N 
ATOM     12  C   UNL A   1      30.582  24.131  24.009  1.00  0.00     0.120 C 
ATOM     13  C   UNL A   1      32.186  24.510  22.167  1.00  0.00     0.120 C 
ATOM     14  C   UNL A   1      31.480  23.041  24.594  1.00  0.00     0.033 C 
ATOM     15  C   UNL A   1      33.138  23.485  22.770  1.00  0.00     0.033 C 
ATOM     16  C   UNL A   1      32.345  22.395  23.503  1.00  0.00     0.062 C 
BRANCH  16  17
ATOM     17  C   UNL A   1      33.266  21.359  24.062  1.00  0.00     0.140 A 
ATOM     18  N   UNL A   1      34.307  21.581  24.842  1.00  0.00    -0.134 NA
ATOM     19  N   UNL A   1      33.184  20.008  23.791  1.00  0.00    -0.286 N 
ATOM     20  N   UNL A   1      34.921  20.379  25.101  1.00  0.00    -0.130 NA
ATOM     21  C   UNL A   1      34.225  19.436  24.508  1.00  0.00     0.160 A 
ATOM     22  C   UNL A   1      32.318  19.273  22.984  1.00  0.00     0.095 A 
ATOM     23  C   UNL A   1      34.358  18.023  24.465  1.00  0.00     0.050 A 
ATOM     24  C   UNL A   1      32.483  17.943  22.895  1.00  0.00     0.019 A 
ATOM     25  C   UNL A   1      33.529  17.306  23.683  1.00  0.00     0.005 A 
ENDBRANCH  16  17
ENDBRANCH   8   9
ENDBRANCH   7   8
ENDBRANCH   5   7
ENDBRANCH   4   5
ENDBRANCH   3   4
ENDBRANCH   2   3
ENDBRANCH   1   2
BRANCH   1  26
ATOM     26  C   UNL A   1      33.812  31.759  27.997  1.00  0.00     0.202 C 
BRANCH  26  27
ATOM     27  C   UNL A   1      34.704  32.840  28.622  1.00  0.00     0.261 C 
BRANCH  27  28
ATOM     28  O   UNL A   1      36.071  32.431  28.820  1.00  0.00    -0.460 OA
BRANCH  28  29
ATOM     29  C   UNL A   1      36.281  31.674  29.925  1.00  0.00     0.338 C 
ATOM     30  O   UNL A   1      35.643  31.699  30.964  1.00  0.00    -0.246 OA
BRANCH  29  31
ATOM     31  C   UNL A   1      37.370  30.706  29.717  1.00  0.00     0.060 A 
ATOM     32  C   UNL A   1      38.114  30.262  30.819  1.00  0.00     0.016 A 
ATOM     33  C   UNL A   1      37.795  30.439  28.420  1.00  0.00     0.016 A 
ATOM     34  C   UNL A   1      39.323  29.584  30.618  1.00  0.00     0.010 A 
ATOM     35  C   UNL A   1      39.005  29.767  28.227  1.00  0.00     0.010 A 
ATOM     36  C   UNL A   1      39.797  29.367  29.318  1.00  0.00    -0.014 A 
BRANCH  36  37
ATOM     37  C   UNL A   1      41.189  28.907  29.058  1.00  0.00     0.031 A 
ATOM     38  C   UNL A   1      42.292  29.937  29.062  1.00  0.00     0.074 A 
ATOM     39  C   UNL A   1      41.480  27.623  28.781  1.00  0.00     0.049 A 
ATOM     40  N   UNL A   1      43.544  29.821  28.699  1.00  0.00    -0.248 NA
ATOM     41  C   UNL A   1      41.927  31.283  29.536  1.00  0.00     0.031 C 
ATOM     42  C   UNL A   1      40.530  26.513  28.790  1.00  0.00     0.029 A 
ATOM     43  N   UNL A   1      42.667  27.042  28.400  1.00  0.00    -0.354 N 
ATOM     44  C   UNL A   1      44.113  31.073  28.902  1.00  0.00     0.074 A 
ATOM     45  C   UNL A   1      43.060  31.949  29.367  1.00  0.00     0.031 C 
ATOM     46  C   UNL A   1      41.156  25.396  28.376  1.00  0.00     0.029 A 
ATOM     47  C   UNL A   1      42.546  25.716  28.056  1.00  0.00     0.049 A 
ATOM     48  H   UNL A   1      43.522  27.529  28.374  1.00  0.00     0.167 HD
ATOM     49  C   UNL A   1      45.403  31.456  28.746  1.00  0.00     0.037 A 
ATOM     50  C   UNL A   1      43.442  24.872  27.508  1.00  0.00     0.037 A 
ATOM     51  C   UNL A   1      46.457  30.584  28.300  1.00  0.00     0.049 A 
ATOM     52  C   UNL A   1      44.837  25.347  27.217  1.00  0.00     0.074 A 
ATOM     53  C   UNL A   1      47.807  30.856  28.170  1.00  0.00     0.029 A 
ATOM     54  N   UNL A   1      46.274  29.267  27.907  1.00  0.00    -0.354 N 
ATOM     55  N   UNL A   1      45.355  26.538  27.390  1.00  0.00    -0.248 NA
ATOM     56  C   UNL A   1      45.773  24.352  26.674  1.00  0.00     0.031 C 
ATOM     57  C   UNL A   1      48.438  29.713  27.667  1.00  0.00     0.029 A 
ATOM     58  C   UNL A   1      47.484  28.718  27.519  1.00  0.00     0.049 A 
ATOM     59  H   UNL A   1      45.411  28.792  27.902  1.00  0.00     0.167 HD
ATOM     60  C   UNL A   1      46.686  26.429  27.010  1.00  0.00     0.074 A 
ATOM     61  C   UNL A   1      46.887  25.063  26.569  1.00  0.00     0.031 C 
ATOM     62  C   UNL A   1      47.664  27.366  27.058  1.00  0.00     0.037 A 
BRANCH  49  63
ATOM     63  C   UNL A   1      45.747  32.881  29.077  1.00  0.00     0.058 A 
ATOM     64  C   UNL A   1      46.199  33.245  30.356  1.00  0.00     0.135 A 
ATOM     65  C   UNL A   1      45.646  33.889  28.105  1.00  0.00     0.135 A 
ATOM     66  F   UNL A   1      46.300  32.323  31.325  1.00  0.00    -0.206 F 
ATOM     67  C   UNL A   1      46.510  34.564  30.668  1.00  0.00     0.059 A 
ATOM     68  C   UNL A   1      45.977  35.211  28.388  1.00  0.00     0.059 A 
ATOM     69  F   UNL A   1      45.222  33.594  26.866  1.00  0.00    -0.206 F 
ATOM     70  C   UNL A   1      46.393  35.541  29.677  1.00  0.00     0.060 A 
BRANCH  70  71
ATOM     71  S   UNL A   1      46.807  37.248  30.095  1.00  0.00     0.124 S 
ATOM     72  O   UNL A   1      48.157  37.099  30.628  1.00  0.00    -0.237 OA
ATOM     73  O   UNL A   1      46.708  37.922  28.804  1.00  0.00    -0.237 OA
ATOM     74  O   UNL A   1      45.784  37.616  31.069  1.00  0.00    -0.744 OA
ENDBRANCH  70  71
ENDBRANCH  49  63
BRANCH  50  75
ATOM     75  C   UNL A   1      43.044  23.490  27.142  1.00  0.00     0.058 A 
ATOM     76  C   UNL A   1      42.761  23.134  25.818  1.00  0.00     0.135 A 
ATOM     77  C   UNL A   1      42.932  22.501  28.127  1.00  0.00     0.135 A 
ATOM     78  F   UNL A   1      42.818  24.058  24.847  1.00  0.00    -0.206 F 
ATOM     79  C   UNL A   1      42.419  21.829  25.475  1.00  0.00     0.059 A 
ATOM     80  C   UNL A   1      42.604  21.189  27.810  1.00  0.00     0.059 A 
ATOM     81  F   UNL A   1      43.142  22.809  29.415  1.00  0.00    -0.206 F 
ATOM     82  C   UNL A   1      42.357  20.859  26.478  1.00  0.00     0.060 A 
BRANCH  82  83
ATOM     83  S   UNL A   1      42.048  19.132  26.055  1.00  0.00     0.124 S 
ATOM     84  O   UNL A   1      40.609  19.138  25.825  1.00  0.00    -0.237 OA
ATOM     85  O   UNL A   1      42.883  18.928  24.875  1.00  0.00    -0.237 OA
ATOM     86  O   UNL A   1      42.502  18.437  27.257  1.00  0.00    -0.744 OA
ENDBRANCH  82  83
ENDBRANCH  50  75
BRANCH  62  87
ATOM     87  C   UNL A   1      49.045  26.934  26.668  1.00  0.00     0.058 A 
ATOM     88  C   UNL A   1      49.950  26.410  27.603  1.00  0.00     0.135 A 
ATOM     89  C   UNL A   1      49.456  27.019  25.327  1.00  0.00     0.135 A 
ATOM     90  F   UNL A   1      49.608  26.322  28.898  1.00  0.00    -0.206 F 
ATOM     91  C   UNL A   1      51.224  25.998  27.224  1.00  0.00     0.059 A 
ATOM     92  C   UNL A   1      50.716  26.597  24.924  1.00  0.00     0.059 A 
ATOM     93  F   UNL A   1      48.624  27.513  24.397  1.00  0.00    -0.206 F 
ATOM     94  C   UNL A   1      51.598  26.098  25.882  1.00  0.00     0.060 A 
BRANCH  94  95
ATOM     95  S   UNL A   1      53.244  25.539  25.393  1.00  0.00     0.124 S 
ATOM     96  O   UNL A   1      53.120  24.094  25.547  1.00  0.00    -0.237 OA
ATOM     97  O   UNL A   1      53.347  26.025  24.019  1.00  0.00    -0.237 OA
ATOM     98  O   UNL A   1      54.123  26.202  26.351  1.00  0.00    -0.744 OA
ENDBRANCH  94  95
ENDBRANCH  62  87
ENDBRANCH  36  37
ENDBRANCH  29  31
ENDBRANCH  28  29
ENDBRANCH  27  28
ENDBRANCH  26  27
ENDBRANCH   1  26
TORSDOF 20
ENDMDL
MODEL 3
REMARK VINA RESULT:     -10.7      6.803     12.083
REMARK SMILES O=C(CCC(=O)N1CCC(c2nnc3ccccn23)CC1)OCCOCCOC(=O)c1ccc(-c2c3nc(c(-c4c(F)cc(S(=O)(=O)[O-])cc4F)c4ccc([nH]4)c(-c4c(F)cc(S(=O)(=O)[O-])cc4F)c4nc(c(-c5c(F)cc(S(=O)(=O)[O-])cc5F)c5ccc2[nH]5)C=C4)C=C3)cc1
REMARK SMILES IDX 25 1 24 2 23 3 22 4 2 5 1 6 3 7 4 8 5 9 6 10 7 11 8 12 21 13
REMARK SMILES IDX 9 14 20 15 10 16 11 17 12 18 19 19 13 20 14 21 18 22 15 23
REMARK SMILES IDX 17 24 16 25 26 26 27 27 28 28 29 29 30 30 31 31 32 32 96 33
REMARK SMILES IDX 33 34 95 35 34 36 35 37 36 38 89 39 37 40 94 41 88 42 90 43
REMARK SMILES IDX 38 44 93 45 87 46 86 47 39 49 73 50 52 51 72 52 53 53 56 54
REMARK SMILES IDX 71 55 91 56 54 57 55 58 70 60 92 61 57 62 40 63 41 64 50 65
REMARK SMILES IDX 42 66 43 67 49 68 51 69 44 70 45 71 46 72 47 73 48 74 74 75
REMARK SMILES IDX 75 76 84 77 76 78 77 79 83 80 85 81 78 82 79 83 80 84 81 85
REMARK SMILES IDX 82 86 58 87 59 88 68 89 60 90 61 91 67 92 69 93 62 94 63 95
REMARK SMILES IDX 64 96 65 97 66 98
REMARK H PARENT 90 48 56 59
REMARK Flexibility Score: inf
ROOT
ATOM      1  O   UNL A   1      32.966  30.018  26.661  1.00  0.00    -0.374 OA
ENDROOT
BRANCH   1   2
ATOM      2  C   UNL A   1      32.810  29.578  25.318  1.00  0.00     0.202 C 
BRANCH   2   3
ATOM      3  C   UNL A   1      31.383  29.527  24.758  1.00  0.00     0.261 C 
BRANCH   3   4
ATOM      4  O   UNL A   1      31.306  28.947  23.446  1.00  0.00    -0.463 OA
BRANCH   4   5
ATOM      5  C   UNL A   1      30.947  27.672  23.183  1.00  0.00     0.306 C 
ATOM      6  O   UNL A   1      30.665  27.328  22.035  1.00  0.00    -0.252 OA
BRANCH   5   7
ATOM      7  C   UNL A   1      30.986  26.652  24.282  1.00  0.00     0.132 C 
BRANCH   7   8
ATOM      8  C   UNL A   1      30.958  25.238  23.723  1.00  0.00     0.112 C 
BRANCH   8   9
ATOM      9  C   UNL A   1      31.215  24.181  24.783  1.00  0.00     0.223 C 
ATOM     10  O   UNL A   1      30.621  24.277  25.860  1.00  0.00    -0.275 OA
ATOM     11  N   UNL A   1      32.117  23.160  24.522  1.00  0.00    -0.343 N 
ATOM     12  C   UNL A   1      32.213  22.041  25.465  1.00  0.00     0.120 C 
ATOM     13  C   UNL A   1      32.938  23.022  23.315  1.00  0.00     0.120 C 
ATOM     14  C   UNL A   1      33.660  21.694  25.817  1.00  0.00     0.033 C 
ATOM     15  C   UNL A   1      34.394  22.760  23.674  1.00  0.00     0.033 C 
ATOM     16  C   UNL A   1      34.506  21.506  24.550  1.00  0.00     0.062 C 
BRANCH  16  17
ATOM     17  C   UNL A   1      35.936  21.213  24.874  1.00  0.00     0.140 A 
ATOM     18  N   UNL A   1      36.546  20.053  24.726  1.00  0.00    -0.134 NA
ATOM     19  N   UNL A   1      36.815  22.118  25.432  1.00  0.00    -0.286 N 
ATOM     20  N   UNL A   1      37.837  20.180  25.178  1.00  0.00    -0.130 NA
ATOM     21  C   UNL A   1      38.009  21.425  25.559  1.00  0.00     0.160 A 
ATOM     22  C   UNL A   1      36.653  23.442  25.837  1.00  0.00     0.095 A 
ATOM     23  C   UNL A   1      39.133  22.132  26.063  1.00  0.00     0.050 A 
ATOM     24  C   UNL A   1      37.700  24.091  26.372  1.00  0.00     0.019 A 
ATOM     25  C   UNL A   1      38.983  23.409  26.463  1.00  0.00     0.005 A 
ENDBRANCH  16  17
ENDBRANCH   8   9
ENDBRANCH   7   8
ENDBRANCH   5   7
ENDBRANCH   4   5
ENDBRANCH   3   4
ENDBRANCH   2   3
ENDBRANCH   1   2
BRANCH   1  26
ATOM     26  C   UNL A   1      34.155  30.739  27.003  1.00  0.00     0.202 C 
BRANCH  26  27
ATOM     27  C   UNL A   1      34.650  30.734  28.456  1.00  0.00     0.261 C 
BRANCH  27  28
ATOM     28  O   UNL A   1      35.588  29.683  28.754  1.00  0.00    -0.460 OA
BRANCH  28  29
ATOM     29  C   UNL A   1      36.333  29.888  29.868  1.00  0.00     0.338 C 
ATOM     30  O   UNL A   1      35.931  29.959  31.017  1.00  0.00    -0.246 OA
BRANCH  29  31
ATOM     31  C   UNL A   1      37.769  29.946  29.554  1.00  0.00     0.060 A 
ATOM     32  C   UNL A   1      38.187  29.815  28.222  1.00  0.00     0.016 A 
ATOM     33  C   UNL A   1      38.690  29.886  30.595  1.00  0.00     0.016 A 
ATOM     34  C   UNL A   1      39.536  29.574  27.933  1.00  0.00     0.010 A 
ATOM     35  C   UNL A   1      40.033  29.639  30.300  1.00  0.00     0.010 A 
ATOM     36  C   UNL A   1      40.463  29.443  28.976  1.00  0.00    -0.014 A 
BRANCH  36  37
ATOM     37  C   UNL A   1      41.836  28.917  28.742  1.00  0.00     0.031 A 
ATOM     38  C   UNL A   1      42.983  29.898  28.730  1.00  0.00     0.074 A 
ATOM     39  C   UNL A   1      42.073  27.614  28.502  1.00  0.00     0.049 A 
ATOM     40  N   UNL A   1      44.232  29.717  28.383  1.00  0.00    -0.248 NA
ATOM     41  C   UNL A   1      42.673  31.270  29.165  1.00  0.00     0.031 C 
ATOM     42  C   UNL A   1      41.076  26.547  28.531  1.00  0.00     0.029 A 
ATOM     43  N   UNL A   1      43.237  26.972  28.148  1.00  0.00    -0.354 N 
ATOM     44  C   UNL A   1      44.853  30.949  28.559  1.00  0.00     0.074 A 
ATOM     45  C   UNL A   1      43.835  31.881  28.990  1.00  0.00     0.031 C 
ATOM     46  C   UNL A   1      41.656  25.393  28.152  1.00  0.00     0.029 A 
ATOM     47  C   UNL A   1      43.061  25.644  27.838  1.00  0.00     0.049 A 
ATOM     48  H   UNL A   1      44.112  27.421  28.119  1.00  0.00     0.167 HD
ATOM     49  C   UNL A   1      46.160  31.271  28.406  1.00  0.00     0.037 A 
ATOM     50  C   UNL A   1      43.924  24.747  27.322  1.00  0.00     0.037 A 
ATOM     51  C   UNL A   1      47.178  30.342  27.994  1.00  0.00     0.049 A 
ATOM     52  C   UNL A   1      45.341  25.153  27.033  1.00  0.00     0.074 A 
ATOM     53  C   UNL A   1      48.540  30.551  27.871  1.00  0.00     0.029 A 
ATOM     54  N   UNL A   1      46.942  29.024  27.634  1.00  0.00    -0.354 N 
ATOM     55  N   UNL A   1      45.909  26.325  27.180  1.00  0.00    -0.248 NA
ATOM     56  C   UNL A   1      46.238  24.104  26.525  1.00  0.00     0.031 C 
ATOM     57  C   UNL A   1      49.126  29.369  27.404  1.00  0.00     0.029 A 
ATOM     58  C   UNL A   1      48.130  28.413  27.273  1.00  0.00     0.049 A 
ATOM     59  H   UNL A   1      46.060  28.587  27.633  1.00  0.00     0.167 HD
ATOM     60  C   UNL A   1      47.238  26.147  26.817  1.00  0.00     0.074 A 
ATOM     61  C   UNL A   1      47.383  24.763  26.413  1.00  0.00     0.031 C 
ATOM     62  C   UNL A   1      48.255  27.042  26.850  1.00  0.00     0.037 A 
BRANCH  49  63
ATOM     63  C   UNL A   1      46.563  32.688  28.702  1.00  0.00     0.058 A 
ATOM     64  C   UNL A   1      46.942  33.084  29.996  1.00  0.00     0.135 A 
ATOM     65  C   UNL A   1      46.593  33.654  27.685  1.00  0.00     0.135 A 
ATOM     66  F   UNL A   1      46.918  32.202  31.008  1.00  0.00    -0.206 F 
ATOM     67  C   UNL A   1      47.308  34.396  30.276  1.00  0.00     0.059 A 
ATOM     68  C   UNL A   1      46.980  34.967  27.938  1.00  0.00     0.059 A 
ATOM     69  F   UNL A   1      46.242  33.328  26.432  1.00  0.00    -0.206 F 
ATOM     70  C   UNL A   1      47.321  35.332  29.240  1.00  0.00     0.060 A 
BRANCH  70  71
ATOM     71  S   UNL A   1      47.804  37.030  29.617  1.00  0.00     0.124 S 
ATOM     72  O   UNL A   1      47.984  37.585  28.279  1.00  0.00    -0.237 OA
ATOM     73  O   UNL A   1      46.650  37.530  30.358  1.00  0.00    -0.237 OA
ATOM     74  O   UNL A   1      49.025  36.869  30.400  1.00  0.00    -0.744 OA
ENDBRANCH  70  71
ENDBRANCH  49  63
BRANCH  50  75
ATOM     75  C   UNL A   1      43.469  23.375  26.988  1.00  0.00     0.058 A 
ATOM     76  C   UNL A   1      43.239  22.979  25.665  1.00  0.00     0.135 A 
ATOM     77  C   UNL A   1      43.248  22.436  28.004  1.00  0.00     0.135 A 
ATOM     78  F   UNL A   1      43.401  23.856  24.664  1.00  0.00    -0.206 F 
ATOM     79  C   UNL A   1      42.843  21.681  25.355  1.00  0.00     0.059 A 
ATOM     80  C   UNL A   1      42.865  21.131  27.721  1.00  0.00     0.059 A 
ATOM     81  F   UNL A   1      43.404  22.786  29.289  1.00  0.00    -0.206 F 
ATOM     82  C   UNL A   1      42.673  20.759  26.390  1.00  0.00     0.060 A 
BRANCH  82  83
ATOM     83  S   UNL A   1      42.290  19.035  26.018  1.00  0.00     0.124 S 
ATOM     84  O   UNL A   1      40.844  19.085  25.846  1.00  0.00    -0.237 OA
ATOM     85  O   UNL A   1      43.070  18.778  24.811  1.00  0.00    -0.237 OA
ATOM     86  O   UNL A   1      42.769  18.350  27.217  1.00  0.00    -0.744 OA
ENDBRANCH  82  83
ENDBRANCH  50  75
BRANCH  62  87
ATOM     87  C   UNL A   1      49.620  26.540  26.485  1.00  0.00     0.058 A 
ATOM     88  C   UNL A   1      50.115  26.625  25.177  1.00  0.00     0.135 A 
ATOM     89  C   UNL A   1      50.454  25.992  27.474  1.00  0.00     0.135 A 
ATOM     90  F   UNL A   1      49.349  27.127  24.195  1.00  0.00    -0.206 F 
ATOM     91  C   UNL A   1      51.390  26.169  24.855  1.00  0.00     0.059 A 
ATOM     92  C   UNL A   1      51.737  25.548  27.179  1.00  0.00     0.059 A 
ATOM     93  F   UNL A   1      50.023  25.892  28.741  1.00  0.00    -0.206 F 
ATOM     94  C   UNL A   1      52.193  25.630  25.864  1.00  0.00     0.060 A 
BRANCH  94  95
ATOM     95  S   UNL A   1      53.854  25.062  25.444  1.00  0.00     0.124 S 
ATOM     96  O   UNL A   1      53.570  23.812  24.749  1.00  0.00    -0.237 OA
ATOM     97  O   UNL A   1      54.359  26.151  24.613  1.00  0.00    -0.237 OA
ATOM     98  O   UNL A   1      54.502  24.926  26.746  1.00  0.00    -0.744 OA
ENDBRANCH  94  95
ENDBRANCH  62  87
ENDBRANCH  36  37
ENDBRANCH  29  31
ENDBRANCH  28  29
ENDBRANCH  27  28
ENDBRANCH  26  27
ENDBRANCH   1  26
TORSDOF 20
ENDMDL
