MODEL 1
REMARK VINA RESULT:      -8.9      0.000      0.000
REMARK SMILES O=C(CCOCc1ccccc1)OCCOCCOC(=O)c1ccc(-c2c3nc(c(-c4c(F)cc(S(=O)(=O)[O-])cc4F)c4ccc([nH]4)c(-c4c(F)cc(S(=O)(=O)[O-])cc4F)c4nc(c(-c5c(F)cc(S(=O)(=O)[O-])cc5F)c5ccc2[nH]5)C=C4)C=C3)cc1
REMARK SMILES IDX 15 1 14 2 13 3 2 4 1 5 3 6 4 7 5 8 6 9 7 10 8 11 12 12 9 13
REMARK SMILES IDX 11 14 10 15 16 16 17 17 18 18 19 19 20 20 21 21 22 22 23 23
REMARK SMILES IDX 87 24 24 25 86 26 25 27 26 28 27 29 80 30 28 31 85 32 79 33
REMARK SMILES IDX 81 34 29 35 84 36 78 37 77 38 30 40 64 41 43 42 63 43 44 44
REMARK SMILES IDX 47 45 62 46 82 47 45 48 46 49 61 51 83 52 48 53 31 54 32 55
REMARK SMILES IDX 41 56 33 57 34 58 40 59 42 60 35 61 36 62 37 63 38 64 39 65
REMARK SMILES IDX 65 66 66 67 75 68 67 69 68 70 74 71 76 72 69 73 70 74 71 75
REMARK SMILES IDX 72 76 73 77 49 78 50 79 59 80 51 81 52 82 58 83 60 84 53 85
REMARK SMILES IDX 54 86 55 87 56 88 57 89
REMARK H PARENT 81 39 47 50
REMARK Flexibility Score: inf
ROOT
ATOM      1  C   UNL A   1      46.066  21.684  24.520  1.00  0.00     0.202 C 
ENDROOT
BRANCH   1   2
ATOM      2  C   UNL A   1      45.422  20.335  24.864  1.00  0.00     0.261 C 
BRANCH   2   3
ATOM      3  O   UNL A   1      44.002  20.134  24.724  1.00  0.00    -0.463 OA
BRANCH   3   4
ATOM      4  C   UNL A   1      43.197  19.275  25.374  1.00  0.00     0.308 C 
ATOM      5  O   UNL A   1      43.475  18.078  25.409  1.00  0.00    -0.252 OA
BRANCH   4   6
ATOM      6  C   UNL A   1      41.928  19.781  25.968  1.00  0.00     0.151 C 
BRANCH   6   7
ATOM      7  C   UNL A   1      41.927  21.252  26.308  1.00  0.00     0.172 C 
BRANCH   7   8
ATOM      8  O   UNL A   1      42.954  21.735  27.161  1.00  0.00    -0.376 OA
BRANCH   8   9
ATOM      9  C   UNL A   1      42.616  22.274  28.442  1.00  0.00     0.195 C 
BRANCH   9  10
ATOM     10  C   UNL A   1      43.557  23.219  29.148  1.00  0.00    -0.022 A 
ATOM     11  C   UNL A   1      44.560  23.932  28.488  1.00  0.00     0.006 A 
ATOM     12  C   UNL A   1      43.464  23.328  30.547  1.00  0.00     0.006 A 
ATOM     13  C   UNL A   1      45.388  24.806  29.194  1.00  0.00     0.000 A 
ATOM     14  C   UNL A   1      44.316  24.169  31.258  1.00  0.00     0.000 A 
ATOM     15  C   UNL A   1      45.267  24.922  30.577  1.00  0.00     0.000 A 
ENDBRANCH   9  10
ENDBRANCH   8   9
ENDBRANCH   7   8
ENDBRANCH   6   7
ENDBRANCH   4   6
ENDBRANCH   3   4
ENDBRANCH   2   3
ENDBRANCH   1   2
BRANCH   1  16
ATOM     16  O   UNL A   1      45.313  22.758  23.978  1.00  0.00    -0.374 OA
BRANCH  16  17
ATOM     17  C   UNL A   1      45.000  23.904  24.752  1.00  0.00     0.202 C 
BRANCH  17  18
ATOM     18  C   UNL A   1      43.590  24.473  24.627  1.00  0.00     0.261 C 
BRANCH  18  19
ATOM     19  O   UNL A   1      42.936  24.630  25.893  1.00  0.00    -0.460 OA
BRANCH  19  20
ATOM     20  C   UNL A   1      41.922  25.522  25.908  1.00  0.00     0.338 C 
ATOM     21  O   UNL A   1      41.066  25.684  25.046  1.00  0.00    -0.246 OA
BRANCH  20  22
ATOM     22  C   UNL A   1      41.888  26.209  27.208  1.00  0.00     0.060 A 
ATOM     23  C   UNL A   1      40.804  25.957  28.059  1.00  0.00     0.016 A 
ATOM     24  C   UNL A   1      42.873  27.135  27.559  1.00  0.00     0.016 A 
ATOM     25  C   UNL A   1      40.675  26.672  29.247  1.00  0.00     0.010 A 
ATOM     26  C   UNL A   1      42.735  27.860  28.744  1.00  0.00     0.010 A 
ATOM     27  C   UNL A   1      41.615  27.659  29.571  1.00  0.00    -0.014 A 
BRANCH  27  28
ATOM     28  C   UNL A   1      41.335  28.598  30.680  1.00  0.00     0.031 A 
ATOM     29  C   UNL A   1      42.166  28.501  31.931  1.00  0.00     0.074 A 
ATOM     30  C   UNL A   1      40.375  29.532  30.561  1.00  0.00     0.049 A 
ATOM     31  N   UNL A   1      42.074  29.183  33.042  1.00  0.00    -0.248 NA
ATOM     32  C   UNL A   1      43.245  27.499  31.927  1.00  0.00     0.031 C 
ATOM     33  C   UNL A   1      39.534  29.734  29.382  1.00  0.00     0.029 A 
ATOM     34  N   UNL A   1      39.941  30.481  31.451  1.00  0.00    -0.354 N 
ATOM     35  C   UNL A   1      43.079  28.694  33.869  1.00  0.00     0.074 A 
ATOM     36  C   UNL A   1      43.747  27.634  33.147  1.00  0.00     0.031 C 
ATOM     37  C   UNL A   1      38.672  30.736  29.627  1.00  0.00     0.029 A 
ATOM     38  C   UNL A   1      38.880  31.223  30.989  1.00  0.00     0.049 A 
ATOM     39  H   UNL A   1      40.350  30.618  32.336  1.00  0.00     0.167 HD
ATOM     40  C   UNL A   1      43.419  29.101  35.114  1.00  0.00     0.037 A 
ATOM     41  C   UNL A   1      38.147  32.168  31.611  1.00  0.00     0.037 A 
ATOM     42  C   UNL A   1      42.742  30.155  35.824  1.00  0.00     0.049 A 
ATOM     43  C   UNL A   1      38.505  32.557  33.023  1.00  0.00     0.074 A 
ATOM     44  C   UNL A   1      43.010  30.653  37.087  1.00  0.00     0.029 A 
ATOM     45  N   UNL A   1      41.661  30.872  35.334  1.00  0.00    -0.354 N 
ATOM     46  N   UNL A   1      39.471  32.102  33.787  1.00  0.00    -0.248 NA
ATOM     47  C   UNL A   1      37.676  33.593  33.657  1.00  0.00     0.031 C 
ATOM     48  C   UNL A   1      42.060  31.636  37.380  1.00  0.00     0.029 A 
ATOM     49  C   UNL A   1      41.235  31.793  36.277  1.00  0.00     0.049 A 
ATOM     50  H   UNL A   1      41.254  30.745  34.445  1.00  0.00     0.167 HD
ATOM     51  C   UNL A   1      39.382  32.815  34.979  1.00  0.00     0.074 A 
ATOM     52  C   UNL A   1      38.282  33.745  34.826  1.00  0.00     0.031 C 
ATOM     53  C   UNL A   1      40.139  32.712  36.100  1.00  0.00     0.037 A 
BRANCH  40  54
ATOM     54  C   UNL A   1      44.561  28.399  35.796  1.00  0.00     0.058 A 
ATOM     55  C   UNL A   1      45.873  28.894  35.737  1.00  0.00     0.135 A 
ATOM     56  C   UNL A   1      44.330  27.246  36.566  1.00  0.00     0.135 A 
ATOM     57  F   UNL A   1      46.154  29.979  34.997  1.00  0.00    -0.206 F 
ATOM     58  C   UNL A   1      46.919  28.266  36.407  1.00  0.00     0.059 A 
ATOM     59  C   UNL A   1      45.356  26.618  37.266  1.00  0.00     0.059 A 
ATOM     60  F   UNL A   1      43.097  26.725  36.650  1.00  0.00    -0.206 F 
ATOM     61  C   UNL A   1      46.649  27.132  37.174  1.00  0.00     0.060 A 
BRANCH  61  62
ATOM     62  S   UNL A   1      48.012  26.352  38.066  1.00  0.00     0.124 S 
ATOM     63  O   UNL A   1      49.106  26.496  37.111  1.00  0.00    -0.237 OA
ATOM     64  O   UNL A   1      48.107  27.174  39.268  1.00  0.00    -0.237 OA
ATOM     65  O   UNL A   1      47.542  24.987  38.280  1.00  0.00    -0.744 OA
ENDBRANCH  61  62
ENDBRANCH  40  54
BRANCH  41  66
ATOM     66  C   UNL A   1      36.990  32.799  30.917  1.00  0.00     0.058 A 
ATOM     67  C   UNL A   1      37.173  33.844  30.000  1.00  0.00     0.135 A 
ATOM     68  C   UNL A   1      35.675  32.385  31.182  1.00  0.00     0.135 A 
ATOM     69  F   UNL A   1      38.410  34.280  29.718  1.00  0.00    -0.206 F 
ATOM     70  C   UNL A   1      36.094  34.477  29.391  1.00  0.00     0.059 A 
ATOM     71  C   UNL A   1      34.581  32.983  30.563  1.00  0.00     0.059 A 
ATOM     72  F   UNL A   1      35.444  31.381  32.042  1.00  0.00    -0.206 F 
ATOM     73  C   UNL A   1      34.800  34.039  29.681  1.00  0.00     0.060 A 
BRANCH  73  74
ATOM     74  S   UNL A   1      33.407  34.854  28.871  1.00  0.00     0.124 S 
ATOM     75  O   UNL A   1      32.473  35.010  29.980  1.00  0.00    -0.237 OA
ATOM     76  O   UNL A   1      34.019  36.082  28.372  1.00  0.00    -0.237 OA
ATOM     77  O   UNL A   1      33.012  33.896  27.841  1.00  0.00    -0.744 OA
ENDBRANCH  73  74
ENDBRANCH  41  66
BRANCH  53  78
ATOM     78  C   UNL A   1      39.825  33.653  37.233  1.00  0.00     0.058 A 
ATOM     79  C   UNL A   1      38.872  33.337  38.214  1.00  0.00     0.135 A 
ATOM     80  C   UNL A   1      40.510  34.873  37.355  1.00  0.00     0.135 A 
ATOM     81  F   UNL A   1      38.185  32.185  38.143  1.00  0.00    -0.206 F 
ATOM     82  C   UNL A   1      38.581  34.215  39.253  1.00  0.00     0.059 A 
ATOM     83  C   UNL A   1      40.259  35.751  38.404  1.00  0.00     0.059 A 
ATOM     84  F   UNL A   1      41.443  35.218  36.452  1.00  0.00    -0.206 F 
ATOM     85  C   UNL A   1      39.279  35.420  39.338  1.00  0.00     0.060 A 
BRANCH  85  86
ATOM     86  S   UNL A   1      38.899  36.547  40.697  1.00  0.00     0.124 S 
ATOM     87  O   UNL A   1      38.166  37.602  40.006  1.00  0.00    -0.237 OA
ATOM     88  O   UNL A   1      38.107  35.704  41.589  1.00  0.00    -0.237 OA
ATOM     89  O   UNL A   1      40.214  36.923  41.205  1.00  0.00    -0.744 OA
ENDBRANCH  85  86
ENDBRANCH  53  78
ENDBRANCH  27  28
ENDBRANCH  20  22
ENDBRANCH  19  20
ENDBRANCH  18  19
ENDBRANCH  17  18
ENDBRANCH  16  17
ENDBRANCH   1  16
TORSDOF 21
ENDMDL
MODEL 2
REMARK VINA RESULT:      -8.9      1.560      2.740
REMARK SMILES O=C(CCOCc1ccccc1)OCCOCCOC(=O)c1ccc(-c2c3nc(c(-c4c(F)cc(S(=O)(=O)[O-])cc4F)c4ccc([nH]4)c(-c4c(F)cc(S(=O)(=O)[O-])cc4F)c4nc(c(-c5c(F)cc(S(=O)(=O)[O-])cc5F)c5ccc2[nH]5)C=C4)C=C3)cc1
REMARK SMILES IDX 15 1 14 2 13 3 2 4 1 5 3 6 4 7 5 8 6 9 7 10 8 11 12 12 9 13
REMARK SMILES IDX 11 14 10 15 16 16 17 17 18 18 19 19 20 20 21 21 22 22 23 23
REMARK SMILES IDX 87 24 24 25 86 26 25 27 26 28 27 29 80 30 28 31 85 32 79 33
REMARK SMILES IDX 81 34 29 35 84 36 78 37 77 38 30 40 64 41 43 42 63 43 44 44
REMARK SMILES IDX 47 45 62 46 82 47 45 48 46 49 61 51 83 52 48 53 31 54 32 55
REMARK SMILES IDX 41 56 33 57 34 58 40 59 42 60 35 61 36 62 37 63 38 64 39 65
REMARK SMILES IDX 65 66 66 67 75 68 67 69 68 70 74 71 76 72 69 73 70 74 71 75
REMARK SMILES IDX 72 76 73 77 49 78 50 79 59 80 51 81 52 82 58 83 60 84 53 85
REMARK SMILES IDX 54 86 55 87 56 88 57 89
REMARK H PARENT 81 39 47 50
REMARK Flexibility Score: inf
ROOT
ATOM      1  C   UNL A   1      45.198  21.161  25.015  1.00  0.00     0.202 C 
ENDROOT
BRANCH   1   2
ATOM      2  C   UNL A   1      44.489  19.832  24.727  1.00  0.00     0.261 C 
BRANCH   2   3
ATOM      3  O   UNL A   1      43.698  19.179  25.739  1.00  0.00    -0.463 OA
BRANCH   3   4
ATOM      4  C   UNL A   1      42.449  19.458  26.155  1.00  0.00     0.308 C 
ATOM      5  O   UNL A   1      41.498  18.810  25.722  1.00  0.00    -0.252 OA
BRANCH   4   6
ATOM      6  C   UNL A   1      42.232  20.614  27.069  1.00  0.00     0.151 C 
BRANCH   6   7
ATOM      7  C   UNL A   1      40.819  20.766  27.578  1.00  0.00     0.172 C 
BRANCH   7   8
ATOM      8  O   UNL A   1      40.124  21.962  27.256  1.00  0.00    -0.376 OA
BRANCH   8   9
ATOM      9  C   UNL A   1      39.618  22.152  25.932  1.00  0.00     0.195 C 
BRANCH   9  10
ATOM     10  C   UNL A   1      38.131  22.224  25.684  1.00  0.00    -0.022 A 
ATOM     11  C   UNL A   1      37.392  21.162  25.159  1.00  0.00     0.006 A 
ATOM     12  C   UNL A   1      37.476  23.445  25.925  1.00  0.00     0.006 A 
ATOM     13  C   UNL A   1      36.014  21.284  24.969  1.00  0.00     0.000 A 
ATOM     14  C   UNL A   1      36.108  23.581  25.698  1.00  0.00     0.000 A 
ATOM     15  C   UNL A   1      35.374  22.493  25.237  1.00  0.00     0.000 A 
ENDBRANCH   9  10
ENDBRANCH   8   9
ENDBRANCH   7   8
ENDBRANCH   6   7
ENDBRANCH   4   6
ENDBRANCH   3   4
ENDBRANCH   2   3
ENDBRANCH   1   2
BRANCH   1  16
ATOM     16  O   UNL A   1      44.953  22.325  24.241  1.00  0.00    -0.374 OA
BRANCH  16  17
ATOM     17  C   UNL A   1      43.825  23.149  24.484  1.00  0.00     0.202 C 
BRANCH  17  18
ATOM     18  C   UNL A   1      43.738  23.840  25.841  1.00  0.00     0.261 C 
BRANCH  18  19
ATOM     19  O   UNL A   1      42.390  24.119  26.242  1.00  0.00    -0.460 OA
BRANCH  19  20
ATOM     20  C   UNL A   1      41.984  25.391  26.040  1.00  0.00     0.338 C 
ATOM     21  O   UNL A   1      41.583  25.882  24.991  1.00  0.00    -0.246 OA
BRANCH  20  22
ATOM     22  C   UNL A   1      41.946  26.108  27.324  1.00  0.00     0.060 A 
ATOM     23  C   UNL A   1      40.852  25.887  28.171  1.00  0.00     0.016 A 
ATOM     24  C   UNL A   1      42.940  27.029  27.664  1.00  0.00     0.016 A 
ATOM     25  C   UNL A   1      40.722  26.630  29.341  1.00  0.00     0.010 A 
ATOM     26  C   UNL A   1      42.800  27.782  28.831  1.00  0.00     0.010 A 
ATOM     27  C   UNL A   1      41.671  27.613  29.652  1.00  0.00    -0.014 A 
BRANCH  27  28
ATOM     28  C   UNL A   1      41.392  28.580  30.737  1.00  0.00     0.031 A 
ATOM     29  C   UNL A   1      42.225  28.515  31.989  1.00  0.00     0.074 A 
ATOM     30  C   UNL A   1      40.432  29.510  30.597  1.00  0.00     0.049 A 
ATOM     31  N   UNL A   1      42.136  29.225  33.082  1.00  0.00    -0.248 NA
ATOM     32  C   UNL A   1      43.305  27.514  32.008  1.00  0.00     0.031 C 
ATOM     33  C   UNL A   1      39.588  29.682  29.414  1.00  0.00     0.029 A 
ATOM     34  N   UNL A   1      39.999  30.481  31.462  1.00  0.00    -0.354 N 
ATOM     35  C   UNL A   1      43.143  28.757  33.919  1.00  0.00     0.074 A 
ATOM     36  C   UNL A   1      43.809  27.680  33.223  1.00  0.00     0.031 C 
ATOM     37  C   UNL A   1      38.726  30.689  29.635  1.00  0.00     0.029 A 
ATOM     38  C   UNL A   1      38.937  31.211  30.984  1.00  0.00     0.049 A 
ATOM     39  H   UNL A   1      40.409  30.641  32.343  1.00  0.00     0.167 HD
ATOM     40  C   UNL A   1      43.484  29.197  35.153  1.00  0.00     0.037 A 
ATOM     41  C   UNL A   1      38.205  32.171  31.582  1.00  0.00     0.037 A 
ATOM     42  C   UNL A   1      42.808  30.269  35.837  1.00  0.00     0.049 A 
ATOM     43  C   UNL A   1      38.565  32.596  32.984  1.00  0.00     0.074 A 
ATOM     44  C   UNL A   1      43.079  30.798  37.087  1.00  0.00     0.029 A 
ATOM     45  N   UNL A   1      41.726  30.972  35.331  1.00  0.00    -0.354 N 
ATOM     46  N   UNL A   1      39.532  32.161  33.757  1.00  0.00    -0.248 NA
ATOM     47  C   UNL A   1      37.737  33.648  33.592  1.00  0.00     0.031 C 
ATOM     48  C   UNL A   1      42.128  31.788  37.356  1.00  0.00     0.029 A 
ATOM     49  C   UNL A   1      41.301  31.916  36.251  1.00  0.00     0.049 A 
ATOM     50  H   UNL A   1      41.318  30.823  34.447  1.00  0.00     0.167 HD
ATOM     51  C   UNL A   1      39.446  32.904  34.931  1.00  0.00     0.074 A 
ATOM     52  C   UNL A   1      38.345  33.830  34.756  1.00  0.00     0.031 C 
ATOM     53  C   UNL A   1      40.205  32.831  36.053  1.00  0.00     0.037 A 
BRANCH  40  54
ATOM     54  C   UNL A   1      44.627  28.513  35.851  1.00  0.00     0.058 A 
ATOM     55  C   UNL A   1      44.425  27.402  36.684  1.00  0.00     0.135 A 
ATOM     56  C   UNL A   1      45.950  28.940  35.639  1.00  0.00     0.135 A 
ATOM     57  F   UNL A   1      43.181  26.966  36.940  1.00  0.00    -0.206 F 
ATOM     58  C   UNL A   1      45.490  26.744  37.292  1.00  0.00     0.059 A 
ATOM     59  C   UNL A   1      47.032  28.280  36.215  1.00  0.00     0.059 A 
ATOM     60  F   UNL A   1      46.200  30.001  34.859  1.00  0.00    -0.206 F 
ATOM     61  C   UNL A   1      46.791  27.187  37.047  1.00  0.00     0.060 A 
BRANCH  61  62
ATOM     62  S   UNL A   1      48.162  26.299  37.815  1.00  0.00     0.124 S 
ATOM     63  O   UNL A   1      48.778  25.656  36.658  1.00  0.00    -0.237 OA
ATOM     64  O   UNL A   1      48.930  27.380  38.423  1.00  0.00    -0.237 OA
ATOM     65  O   UNL A   1      47.501  25.398  38.754  1.00  0.00    -0.744 OA
ENDBRANCH  61  62
ENDBRANCH  40  54
BRANCH  41  66
ATOM     66  C   UNL A   1      37.046  32.784  30.876  1.00  0.00     0.058 A 
ATOM     67  C   UNL A   1      37.226  33.812  29.939  1.00  0.00     0.135 A 
ATOM     68  C   UNL A   1      35.732  32.370  31.146  1.00  0.00     0.135 A 
ATOM     69  F   UNL A   1      38.462  34.248  29.651  1.00  0.00    -0.206 F 
ATOM     70  C   UNL A   1      36.145  34.429  29.316  1.00  0.00     0.059 A 
ATOM     71  C   UNL A   1      34.637  32.951  30.514  1.00  0.00     0.059 A 
ATOM     72  F   UNL A   1      35.504  31.381  32.025  1.00  0.00    -0.206 F 
ATOM     73  C   UNL A   1      34.853  33.991  29.612  1.00  0.00     0.060 A 
BRANCH  73  74
ATOM     74  S   UNL A   1      33.457  34.784  28.784  1.00  0.00     0.124 S 
ATOM     75  O   UNL A   1      32.538  34.994  29.897  1.00  0.00    -0.237 OA
ATOM     76  O   UNL A   1      34.074  35.985  28.229  1.00  0.00    -0.237 OA
ATOM     77  O   UNL A   1      33.043  33.788  27.800  1.00  0.00    -0.744 OA
ENDBRANCH  73  74
ENDBRANCH  41  66
BRANCH  53  78
ATOM     78  C   UNL A   1      39.892  33.800  37.162  1.00  0.00     0.058 A 
ATOM     79  C   UNL A   1      39.004  33.476  38.199  1.00  0.00     0.135 A 
ATOM     80  C   UNL A   1      40.516  35.058  37.203  1.00  0.00     0.135 A 
ATOM     81  F   UNL A   1      38.377  32.288  38.206  1.00  0.00    -0.206 F 
ATOM     82  C   UNL A   1      38.713  34.379  39.216  1.00  0.00     0.059 A 
ATOM     83  C   UNL A   1      40.266  35.964  38.228  1.00  0.00     0.059 A 
ATOM     84  F   UNL A   1      41.387  35.413  36.245  1.00  0.00    -0.206 F 
ATOM     85  C   UNL A   1      39.349  35.622  39.220  1.00  0.00     0.060 A 
BRANCH  85  86
ATOM     86  S   UNL A   1      38.970  36.782  40.551  1.00  0.00     0.124 S 
ATOM     87  O   UNL A   1      38.066  35.993  41.380  1.00  0.00    -0.237 OA
ATOM     88  O   UNL A   1      40.289  37.044  41.122  1.00  0.00    -0.237 OA
ATOM     89  O   UNL A   1      38.361  37.911  39.855  1.00  0.00    -0.744 OA
ENDBRANCH  85  86
ENDBRANCH  53  78
ENDBRANCH  27  28
ENDBRANCH  20  22
ENDBRANCH  19  20
ENDBRANCH  18  19
ENDBRANCH  17  18
ENDBRANCH  16  17
ENDBRANCH   1  16
TORSDOF 21
ENDMDL
MODEL 3
REMARK VINA RESULT:      -8.8      0.615      8.523
REMARK SMILES O=C(CCOCc1ccccc1)OCCOCCOC(=O)c1ccc(-c2c3nc(c(-c4c(F)cc(S(=O)(=O)[O-])cc4F)c4ccc([nH]4)c(-c4c(F)cc(S(=O)(=O)[O-])cc4F)c4nc(c(-c5c(F)cc(S(=O)(=O)[O-])cc5F)c5ccc2[nH]5)C=C4)C=C3)cc1
REMARK SMILES IDX 15 1 14 2 13 3 2 4 1 5 3 6 4 7 5 8 6 9 7 10 8 11 12 12 9 13
REMARK SMILES IDX 11 14 10 15 16 16 17 17 18 18 19 19 20 20 21 21 22 22 23 23
REMARK SMILES IDX 87 24 24 25 86 26 25 27 26 28 27 29 80 30 28 31 85 32 79 33
REMARK SMILES IDX 81 34 29 35 84 36 78 37 77 38 30 40 64 41 43 42 63 43 44 44
REMARK SMILES IDX 47 45 62 46 82 47 45 48 46 49 61 51 83 52 48 53 31 54 32 55
REMARK SMILES IDX 41 56 33 57 34 58 40 59 42 60 35 61 36 62 37 63 38 64 39 65
REMARK SMILES IDX 65 66 66 67 75 68 67 69 68 70 74 71 76 72 69 73 70 74 71 75
REMARK SMILES IDX 72 76 73 77 49 78 50 79 59 80 51 81 52 82 58 83 60 84 53 85
REMARK SMILES IDX 54 86 55 87 56 88 57 89
REMARK H PARENT 81 39 47 50
REMARK Flexibility Score: inf
ROOT
ATOM      1  C   UNL A   1      45.625  21.235  24.607  1.00  0.00     0.202 C 
ENDROOT
BRANCH   1   2
ATOM      2  C   UNL A   1      44.859  19.966  25.000  1.00  0.00     0.261 C 
BRANCH   2   3
ATOM      3  O   UNL A   1      43.419  19.939  25.002  1.00  0.00    -0.463 OA
BRANCH   3   4
ATOM      4  C   UNL A   1      42.582  19.211  25.764  1.00  0.00     0.308 C 
ATOM      5  O   UNL A   1      42.649  17.984  25.750  1.00  0.00    -0.252 OA
BRANCH   4   6
ATOM      6  C   UNL A   1      41.525  19.909  26.548  1.00  0.00     0.151 C 
BRANCH   6   7
ATOM      7  C   UNL A   1      41.379  21.382  26.250  1.00  0.00     0.172 C 
BRANCH   7   8
ATOM      8  O   UNL A   1      41.701  22.301  27.284  1.00  0.00    -0.376 OA
BRANCH   8   9
ATOM      9  C   UNL A   1      42.641  21.928  28.295  1.00  0.00     0.195 C 
BRANCH   9  10
ATOM     10  C   UNL A   1      43.543  22.963  28.921  1.00  0.00    -0.022 A 
ATOM     11  C   UNL A   1      43.289  23.545  30.166  1.00  0.00     0.006 A 
ATOM     12  C   UNL A   1      44.650  23.416  28.181  1.00  0.00     0.006 A 
ATOM     13  C   UNL A   1      44.171  24.484  30.701  1.00  0.00     0.000 A 
ATOM     14  C   UNL A   1      45.509  24.383  28.697  1.00  0.00     0.000 A 
ATOM     15  C   UNL A   1      45.278  24.904  29.965  1.00  0.00     0.000 A 
ENDBRANCH   9  10
ENDBRANCH   8   9
ENDBRANCH   7   8
ENDBRANCH   6   7
ENDBRANCH   4   6
ENDBRANCH   3   4
ENDBRANCH   2   3
ENDBRANCH   1   2
BRANCH   1  16
ATOM     16  O   UNL A   1      44.983  22.334  23.980  1.00  0.00    -0.374 OA
BRANCH  16  17
ATOM     17  C   UNL A   1      44.869  23.589  24.629  1.00  0.00     0.202 C 
BRANCH  17  18
ATOM     18  C   UNL A   1      43.485  24.228  24.687  1.00  0.00     0.261 C 
BRANCH  18  19
ATOM     19  O   UNL A   1      43.160  24.747  25.983  1.00  0.00    -0.460 OA
BRANCH  19  20
ATOM     20  C   UNL A   1      42.339  25.819  25.983  1.00  0.00     0.338 C 
ATOM     21  O   UNL A   1      41.609  26.191  25.072  1.00  0.00    -0.246 OA
BRANCH  20  22
ATOM     22  C   UNL A   1      42.322  26.429  27.321  1.00  0.00     0.060 A 
ATOM     23  C   UNL A   1      41.338  26.009  28.226  1.00  0.00     0.016 A 
ATOM     24  C   UNL A   1      43.221  27.443  27.661  1.00  0.00     0.016 A 
ATOM     25  C   UNL A   1      41.218  26.641  29.460  1.00  0.00     0.010 A 
ATOM     26  C   UNL A   1      43.089  28.085  28.894  1.00  0.00     0.010 A 
ATOM     27  C   UNL A   1      42.062  27.712  29.779  1.00  0.00    -0.014 A 
BRANCH  27  28
ATOM     28  C   UNL A   1      41.759  28.554  30.959  1.00  0.00     0.031 A 
ATOM     29  C   UNL A   1      40.602  29.513  30.880  1.00  0.00     0.074 A 
ATOM     30  C   UNL A   1      42.487  28.445  32.084  1.00  0.00     0.049 A 
ATOM     31  N   UNL A   1      40.178  30.376  31.764  1.00  0.00    -0.248 NA
ATOM     32  C   UNL A   1      39.818  29.495  29.633  1.00  0.00     0.031 C 
ATOM     33  C   UNL A   1      43.609  27.526  32.279  1.00  0.00     0.029 A 
ATOM     34  N   UNL A   1      42.396  29.122  33.273  1.00  0.00    -0.354 N 
ATOM     35  C   UNL A   1      39.082  31.004  31.184  1.00  0.00     0.074 A 
ATOM     36  C   UNL A   1      38.926  30.449  29.858  1.00  0.00     0.031 C 
ATOM     37  C   UNL A   1      44.113  27.709  33.512  1.00  0.00     0.029 A 
ATOM     38  C   UNL A   1      43.371  28.777  34.179  1.00  0.00     0.049 A 
ATOM     39  H   UNL A   1      41.700  29.792  33.460  1.00  0.00     0.167 HD
ATOM     40  C   UNL A   1      38.274  31.951  31.716  1.00  0.00     0.037 A 
ATOM     41  C   UNL A   1      43.644  29.287  35.395  1.00  0.00     0.037 A 
ATOM     42  C   UNL A   1      38.443  32.498  33.037  1.00  0.00     0.049 A 
ATOM     43  C   UNL A   1      42.768  30.389  35.938  1.00  0.00     0.074 A 
ATOM     44  C   UNL A   1      37.677  33.456  33.677  1.00  0.00     0.029 A 
ATOM     45  N   UNL A   1      39.452  32.139  33.919  1.00  0.00    -0.354 N 
ATOM     46  N   UNL A   1      41.722  30.960  35.388  1.00  0.00    -0.248 NA
ATOM     47  C   UNL A   1      43.106  30.911  37.270  1.00  0.00     0.031 C 
ATOM     48  C   UNL A   1      38.251  33.711  34.926  1.00  0.00     0.029 A 
ATOM     49  C   UNL A   1      39.341  32.871  35.089  1.00  0.00     0.049 A 
ATOM     50  H   UNL A   1      40.145  31.462  33.740  1.00  0.00     0.167 HD
ATOM     51  C   UNL A   1      41.262  31.888  36.317  1.00  0.00     0.074 A 
ATOM     52  C   UNL A   1      42.131  31.786  37.471  1.00  0.00     0.031 C 
ATOM     53  C   UNL A   1      40.217  32.749  36.228  1.00  0.00     0.037 A 
BRANCH  40  54
ATOM     54  C   UNL A   1      37.144  32.467  30.868  1.00  0.00     0.058 A 
ATOM     55  C   UNL A   1      35.830  31.998  31.023  1.00  0.00     0.135 A 
ATOM     56  C   UNL A   1      37.368  33.485  29.925  1.00  0.00     0.135 A 
ATOM     57  F   UNL A   1      35.563  31.010  31.893  1.00  0.00    -0.206 F 
ATOM     58  C   UNL A   1      34.780  32.511  30.268  1.00  0.00     0.059 A 
ATOM     59  C   UNL A   1      36.328  34.032  29.179  1.00  0.00     0.059 A 
ATOM     60  F   UNL A   1      38.606  33.965  29.730  1.00  0.00    -0.206 F 
ATOM     61  C   UNL A   1      35.038  33.533  29.352  1.00  0.00     0.060 A 
BRANCH  61  62
ATOM     62  S   UNL A   1      33.657  34.211  28.408  1.00  0.00     0.124 S 
ATOM     63  O   UNL A   1      33.205  33.038  27.667  1.00  0.00    -0.237 OA
ATOM     64  O   UNL A   1      32.762  34.680  29.461  1.00  0.00    -0.237 OA
ATOM     65  O   UNL A   1      34.277  35.260  27.604  1.00  0.00    -0.744 OA
ENDBRANCH  61  62
ENDBRANCH  40  54
BRANCH  41  66
ATOM     66  C   UNL A   1      44.806  28.784  36.179  1.00  0.00     0.058 A 
ATOM     67  C   UNL A   1      44.660  27.752  37.117  1.00  0.00     0.135 A 
ATOM     68  C   UNL A   1      46.083  29.348  36.022  1.00  0.00     0.135 A 
ATOM     69  F   UNL A   1      43.459  27.186  37.309  1.00  0.00    -0.206 F 
ATOM     70  C   UNL A   1      45.729  27.315  37.893  1.00  0.00     0.059 A 
ATOM     71  C   UNL A   1      47.173  28.907  36.766  1.00  0.00     0.059 A 
ATOM     72  F   UNL A   1      46.281  30.330  35.129  1.00  0.00    -0.206 F 
ATOM     73  C   UNL A   1      46.983  27.901  37.711  1.00  0.00     0.060 A 
BRANCH  73  74
ATOM     74  S   UNL A   1      48.368  27.314  38.709  1.00  0.00     0.124 S 
ATOM     75  O   UNL A   1      48.706  28.510  39.473  1.00  0.00    -0.237 OA
ATOM     76  O   UNL A   1      47.760  26.223  39.465  1.00  0.00    -0.237 OA
ATOM     77  O   UNL A   1      49.351  26.903  37.709  1.00  0.00    -0.744 OA
ENDBRANCH  73  74
ENDBRANCH  41  66
BRANCH  53  78
ATOM     78  C   UNL A   1      39.937  33.621  37.423  1.00  0.00     0.058 A 
ATOM     79  C   UNL A   1      39.038  33.232  38.428  1.00  0.00     0.135 A 
ATOM     80  C   UNL A   1      40.604  34.847  37.579  1.00  0.00     0.135 A 
ATOM     81  F   UNL A   1      38.372  32.071  38.327  1.00  0.00    -0.206 F 
ATOM     82  C   UNL A   1      38.779  34.046  39.526  1.00  0.00     0.059 A 
ATOM     83  C   UNL A   1      40.385  35.662  38.685  1.00  0.00     0.059 A 
ATOM     84  F   UNL A   1      41.487  35.260  36.655  1.00  0.00    -0.206 F 
ATOM     85  C   UNL A   1      39.457  35.261  39.643  1.00  0.00     0.060 A 
BRANCH  85  86
ATOM     86  S   UNL A   1      39.118  36.305  41.078  1.00  0.00     0.124 S 
ATOM     87  O   UNL A   1      39.101  37.633  40.476  1.00  0.00    -0.237 OA
ATOM     88  O   UNL A   1      37.827  35.799  41.534  1.00  0.00    -0.237 OA
ATOM     89  O   UNL A   1      40.241  36.032  41.969  1.00  0.00    -0.744 OA
ENDBRANCH  85  86
ENDBRANCH  53  78
ENDBRANCH  27  28
ENDBRANCH  20  22
ENDBRANCH  19  20
ENDBRANCH  18  19
ENDBRANCH  17  18
ENDBRANCH  16  17
ENDBRANCH   1  16
TORSDOF 21
ENDMDL
