MODEL 1
REMARK VINA RESULT:     -11.1      0.000      0.000
REMARK SMILES O=C(Cc1ccccc1)Nc1cc(Cl)ccc1C(=O)OCCOCCOC(=O)c1ccc(-c2c3nc(c(-c4c(F)cc(S(=O)(=O)[O-])cc4F)c4ccc([nH]4)c(-c4c(F)cc(S(=O)(=O)[O-])cc4F)c4nc(c(-c5c(F)cc(S(=O)(=O)[O-])cc5F)c5ccc2[nH]5)C=C4)C=C3)cc1
REMARK SMILES IDX 23 1 22 2 21 3 20 4 18 5 19 6 17 7 11 8 12 9 13 10 16 11
REMARK SMILES IDX 14 12 15 13 10 14 1 15 2 16 3 18 4 19 5 20 9 21 6 22 8 23
REMARK SMILES IDX 7 24 24 25 25 26 26 27 27 28 28 29 29 30 30 31 94 32 31 33
REMARK SMILES IDX 93 34 32 35 33 36 34 37 87 38 35 39 92 40 86 41 88 42 36 43
REMARK SMILES IDX 91 44 85 45 84 46 37 48 71 49 50 50 70 51 51 52 54 53 69 54
REMARK SMILES IDX 89 55 52 56 53 57 68 59 90 60 55 61 38 62 39 63 48 64 40 65
REMARK SMILES IDX 41 66 47 67 49 68 42 69 43 70 44 71 45 72 46 73 72 74 73 75
REMARK SMILES IDX 82 76 74 77 75 78 81 79 83 80 76 81 77 82 78 83 79 84 80 85
REMARK SMILES IDX 56 86 57 87 66 88 58 89 59 90 65 91 67 92 60 93 61 94 62 95
REMARK SMILES IDX 63 96 64 97
REMARK H PARENT 10 17 88 47 54 58
REMARK Flexibility Score: inf
ROOT
ATOM      1  O   UNL A   1      32.144  28.955  25.658  1.00  0.00    -0.374 OA
ENDROOT
BRANCH   1   2
ATOM      2  C   UNL A   1      33.000  28.870  24.516  1.00  0.00     0.202 C 
BRANCH   2   3
ATOM      3  C   UNL A   1      33.386  27.459  24.070  1.00  0.00     0.261 C 
BRANCH   3   4
ATOM      4  O   UNL A   1      32.604  27.070  22.931  1.00  0.00    -0.460 OA
BRANCH   4   5
ATOM      5  C   UNL A   1      33.070  26.003  22.236  1.00  0.00     0.340 C 
ATOM      6  O   UNL A   1      33.894  26.030  21.332  1.00  0.00    -0.246 OA
BRANCH   5   7
ATOM      7  C   UNL A   1      32.652  24.736  22.895  1.00  0.00     0.083 A 
ATOM      8  C   UNL A   1      31.378  24.451  23.427  1.00  0.00     0.057 A 
ATOM      9  C   UNL A   1      31.200  23.264  24.163  1.00  0.00     0.047 A 
ATOM     10  C   UNL A   1      32.247  22.357  24.327  1.00  0.00     0.043 A 
ATOM     11  C   UNL A   1      33.703  23.815  23.094  1.00  0.00     0.019 A 
ATOM     12  Cl  UNL A   1      31.980  20.886  25.179  1.00  0.00    -0.084 Cl
ATOM     13  C   UNL A   1      33.502  22.629  23.800  1.00  0.00     0.021 A 
BRANCH   8  14
ATOM     14  N   UNL A   1      30.222  25.252  23.307  1.00  0.00    -0.325 N 
ATOM     15  O   UNL A   1      30.214  26.278  25.383  1.00  0.00    -0.274 OA
ATOM     16  C   UNL A   1      29.676  26.043  24.306  1.00  0.00     0.228 C 
ATOM     17  H   UNL A   1      29.764  25.250  22.437  1.00  0.00     0.169 HD
BRANCH  16  18
ATOM     18  C   UNL A   1      28.348  26.661  23.904  1.00  0.00     0.135 C 
BRANCH  18  19
ATOM     19  C   UNL A   1      28.457  28.010  23.233  1.00  0.00    -0.039 A 
ATOM     20  C   UNL A   1      27.373  28.893  23.116  1.00  0.00     0.004 A 
ATOM     21  C   UNL A   1      29.712  28.432  22.768  1.00  0.00     0.004 A 
ATOM     22  C   UNL A   1      27.536  30.150  22.528  1.00  0.00     0.000 A 
ATOM     23  C   UNL A   1      29.874  29.686  22.179  1.00  0.00     0.000 A 
ATOM     24  C   UNL A   1      28.786  30.544  22.057  1.00  0.00     0.000 A 
ENDBRANCH  18  19
ENDBRANCH  16  18
ENDBRANCH   8  14
ENDBRANCH   5   7
ENDBRANCH   4   5
ENDBRANCH   3   4
ENDBRANCH   2   3
ENDBRANCH   1   2
BRANCH   1  25
ATOM     25  C   UNL A   1      31.836  30.252  26.160  1.00  0.00     0.202 C 
BRANCH  25  26
ATOM     26  C   UNL A   1      32.963  31.014  26.871  1.00  0.00     0.261 C 
BRANCH  26  27
ATOM     27  O   UNL A   1      33.708  30.221  27.812  1.00  0.00    -0.460 OA
BRANCH  27  28
ATOM     28  C   UNL A   1      34.675  30.908  28.468  1.00  0.00     0.338 C 
ATOM     29  O   UNL A   1      34.551  31.970  29.063  1.00  0.00    -0.246 OA
BRANCH  28  30
ATOM     30  C   UNL A   1      35.937  30.146  28.493  1.00  0.00     0.060 A 
ATOM     31  C   UNL A   1      36.345  29.601  29.716  1.00  0.00     0.016 A 
ATOM     32  C   UNL A   1      36.778  30.098  27.378  1.00  0.00     0.016 A 
ATOM     33  C   UNL A   1      37.623  29.063  29.848  1.00  0.00     0.010 A 
ATOM     34  C   UNL A   1      38.062  29.560  27.514  1.00  0.00     0.010 A 
ATOM     35  C   UNL A   1      38.507  29.082  28.761  1.00  0.00    -0.014 A 
BRANCH  35  36
ATOM     36  C   UNL A   1      39.939  28.757  28.975  1.00  0.00     0.031 A 
ATOM     37  C   UNL A   1      40.851  29.809  29.549  1.00  0.00     0.074 A 
ATOM     38  C   UNL A   1      40.416  27.532  28.694  1.00  0.00     0.049 A 
ATOM     39  N   UNL A   1      42.136  29.753  29.789  1.00  0.00    -0.248 NA
ATOM     40  C   UNL A   1      40.231  31.097  29.902  1.00  0.00     0.031 C 
ATOM     41  C   UNL A   1      39.625  26.417  28.180  1.00  0.00     0.029 A 
ATOM     42  N   UNL A   1      41.687  27.025  28.796  1.00  0.00    -0.354 N 
ATOM     43  C   UNL A   1      42.479  30.993  30.313  1.00  0.00     0.074 A 
ATOM     44  C   UNL A   1      41.273  31.794  30.328  1.00  0.00     0.031 C 
ATOM     45  C   UNL A   1      40.433  25.358  27.991  1.00  0.00     0.029 A 
ATOM     46  C   UNL A   1      41.799  25.729  28.352  1.00  0.00     0.049 A 
ATOM     47  H   UNL A   1      42.446  27.539  29.154  1.00  0.00     0.167 HD
ATOM     48  C   UNL A   1      43.686  31.424  30.754  1.00  0.00     0.037 A 
ATOM     49  C   UNL A   1      42.885  24.939  28.234  1.00  0.00     0.037 A 
ATOM     50  C   UNL A   1      44.882  30.623  30.745  1.00  0.00     0.049 A 
ATOM     51  C   UNL A   1      44.229  25.455  28.679  1.00  0.00     0.074 A 
ATOM     52  C   UNL A   1      46.150  30.963  31.183  1.00  0.00     0.029 A 
ATOM     53  N   UNL A   1      44.960  29.321  30.272  1.00  0.00    -0.354 N 
ATOM     54  N   UNL A   1      44.535  26.626  29.188  1.00  0.00    -0.248 NA
ATOM     55  C   UNL A   1      45.373  24.544  28.543  1.00  0.00     0.031 C 
ATOM     56  C   UNL A   1      47.003  29.881  30.937  1.00  0.00     0.029 A 
ATOM     57  C   UNL A   1      46.256  28.850  30.391  1.00  0.00     0.049 A 
ATOM     58  H   UNL A   1      44.203  28.807  29.907  1.00  0.00     0.167 HD
ATOM     59  C   UNL A   1      45.897  26.577  29.465  1.00  0.00     0.074 A 
ATOM     60  C   UNL A   1      46.357  25.262  29.069  1.00  0.00     0.031 C 
ATOM     61  C   UNL A   1      46.695  27.532  30.004  1.00  0.00     0.037 A 
BRANCH  48  62
ATOM     62  C   UNL A   1      43.777  32.836  31.264  1.00  0.00     0.058 A 
ATOM     63  C   UNL A   1      44.110  33.906  30.419  1.00  0.00     0.135 A 
ATOM     64  C   UNL A   1      43.501  33.124  32.610  1.00  0.00     0.135 A 
ATOM     65  F   UNL A   1      44.400  33.684  29.127  1.00  0.00    -0.206 F 
ATOM     66  C   UNL A   1      44.192  35.210  30.897  1.00  0.00     0.059 A 
ATOM     67  C   UNL A   1      43.552  34.424  33.104  1.00  0.00     0.059 A 
ATOM     68  F   UNL A   1      43.179  32.137  33.461  1.00  0.00    -0.206 F 
ATOM     69  C   UNL A   1      43.915  35.459  32.243  1.00  0.00     0.060 A 
BRANCH  69  70
ATOM     70  S   UNL A   1      44.029  37.155  32.851  1.00  0.00     0.124 S 
ATOM     71  O   UNL A   1      43.904  37.916  31.612  1.00  0.00    -0.237 OA
ATOM     72  O   UNL A   1      42.894  37.239  33.764  1.00  0.00    -0.237 OA
ATOM     73  O   UNL A   1      45.344  37.200  33.485  1.00  0.00    -0.744 OA
ENDBRANCH  69  70
ENDBRANCH  48  62
BRANCH  49  74
ATOM     74  C   UNL A   1      42.746  23.570  27.669  1.00  0.00     0.058 A 
ATOM     75  C   UNL A   1      42.861  23.339  26.291  1.00  0.00     0.135 A 
ATOM     76  C   UNL A   1      42.496  22.466  28.499  1.00  0.00     0.135 A 
ATOM     77  F   UNL A   1      43.092  24.364  25.456  1.00  0.00    -0.206 F 
ATOM     78  C   UNL A   1      42.717  22.065  25.752  1.00  0.00     0.059 A 
ATOM     79  C   UNL A   1      42.370  21.180  27.987  1.00  0.00     0.059 A 
ATOM     80  F   UNL A   1      42.395  22.631  29.828  1.00  0.00    -0.206 F 
ATOM     81  C   UNL A   1      42.472  20.991  26.609  1.00  0.00     0.060 A 
BRANCH  81  82
ATOM     82  S   UNL A   1      42.327  19.334  25.905  1.00  0.00     0.124 S 
ATOM     83  O   UNL A   1      43.140  19.457  24.701  1.00  0.00    -0.237 OA
ATOM     84  O   UNL A   1      42.880  18.501  26.968  1.00  0.00    -0.237 OA
ATOM     85  O   UNL A   1      40.891  19.190  25.686  1.00  0.00    -0.744 OA
ENDBRANCH  81  82
ENDBRANCH  49  74
BRANCH  61  86
ATOM     86  C   UNL A   1      48.139  27.181  30.241  1.00  0.00     0.058 A 
ATOM     87  C   UNL A   1      49.126  27.417  29.273  1.00  0.00     0.135 A 
ATOM     88  C   UNL A   1      48.544  26.652  31.477  1.00  0.00     0.135 A 
ATOM     89  F   UNL A   1      48.791  27.917  28.074  1.00  0.00    -0.206 F 
ATOM     90  C   UNL A   1      50.464  27.119  29.514  1.00  0.00     0.059 A 
ATOM     91  C   UNL A   1      49.880  26.369  31.749  1.00  0.00     0.059 A 
ATOM     92  F   UNL A   1      47.640  26.418  32.442  1.00  0.00    -0.206 F 
ATOM     93  C   UNL A   1      50.832  26.596  30.755  1.00  0.00     0.060 A 
BRANCH  93  94
ATOM     94  S   UNL A   1      52.575  26.246  31.069  1.00  0.00     0.124 S 
ATOM     95  O   UNL A   1      52.951  27.372  31.918  1.00  0.00    -0.237 OA
ATOM     96  O   UNL A   1      52.521  24.945  31.730  1.00  0.00    -0.237 OA
ATOM     97  O   UNL A   1      53.165  26.239  29.734  1.00  0.00    -0.744 OA
ENDBRANCH  93  94
ENDBRANCH  61  86
ENDBRANCH  35  36
ENDBRANCH  28  30
ENDBRANCH  27  28
ENDBRANCH  26  27
ENDBRANCH  25  26
ENDBRANCH   1  25
TORSDOF 20
ENDMDL
MODEL 2
REMARK VINA RESULT:     -11.0      2.055      4.074
REMARK SMILES O=C(Cc1ccccc1)Nc1cc(Cl)ccc1C(=O)OCCOCCOC(=O)c1ccc(-c2c3nc(c(-c4c(F)cc(S(=O)(=O)[O-])cc4F)c4ccc([nH]4)c(-c4c(F)cc(S(=O)(=O)[O-])cc4F)c4nc(c(-c5c(F)cc(S(=O)(=O)[O-])cc5F)c5ccc2[nH]5)C=C4)C=C3)cc1
REMARK SMILES IDX 23 1 22 2 21 3 20 4 18 5 19 6 17 7 11 8 12 9 13 10 16 11
REMARK SMILES IDX 14 12 15 13 10 14 1 15 2 16 3 18 4 19 5 20 9 21 6 22 8 23
REMARK SMILES IDX 7 24 24 25 25 26 26 27 27 28 28 29 29 30 30 31 94 32 31 33
REMARK SMILES IDX 93 34 32 35 33 36 34 37 87 38 35 39 92 40 86 41 88 42 36 43
REMARK SMILES IDX 91 44 85 45 84 46 37 48 71 49 50 50 70 51 51 52 54 53 69 54
REMARK SMILES IDX 89 55 52 56 53 57 68 59 90 60 55 61 38 62 39 63 48 64 40 65
REMARK SMILES IDX 41 66 47 67 49 68 42 69 43 70 44 71 45 72 46 73 72 74 73 75
REMARK SMILES IDX 82 76 74 77 75 78 81 79 83 80 76 81 77 82 78 83 79 84 80 85
REMARK SMILES IDX 56 86 57 87 66 88 58 89 59 90 65 91 67 92 60 93 61 94 62 95
REMARK SMILES IDX 63 96 64 97
REMARK H PARENT 10 17 88 47 54 58
REMARK Flexibility Score: inf
ROOT
ATOM      1  O   UNL A   1      32.012  28.771  25.226  1.00  0.00    -0.374 OA
ENDROOT
BRANCH   1   2
ATOM      2  C   UNL A   1      32.691  27.671  25.836  1.00  0.00     0.202 C 
BRANCH   2   3
ATOM      3  C   UNL A   1      33.561  26.822  24.908  1.00  0.00     0.261 C 
BRANCH   3   4
ATOM      4  O   UNL A   1      33.853  25.559  25.523  1.00  0.00    -0.460 OA
BRANCH   4   5
ATOM      5  C   UNL A   1      33.847  24.485  24.695  1.00  0.00     0.340 C 
ATOM      6  O   UNL A   1      33.098  24.309  23.744  1.00  0.00    -0.246 OA
BRANCH   5   7
ATOM      7  C   UNL A   1      35.059  23.653  24.920  1.00  0.00     0.083 A 
ATOM      8  C   UNL A   1      35.150  22.253  24.787  1.00  0.00     0.057 A 
ATOM      9  C   UNL A   1      36.331  21.607  25.198  1.00  0.00     0.047 A 
ATOM     10  C   UNL A   1      37.416  22.336  25.686  1.00  0.00     0.043 A 
ATOM     11  C   UNL A   1      36.161  24.368  25.438  1.00  0.00     0.019 A 
ATOM     12  Cl  UNL A   1      38.868  21.522  26.122  1.00  0.00    -0.084 Cl
ATOM     13  C   UNL A   1      37.335  23.716  25.814  1.00  0.00     0.021 A 
BRANCH   8  14
ATOM     14  N   UNL A   1      34.153  21.395  24.276  1.00  0.00    -0.325 N 
ATOM     15  O   UNL A   1      32.657  21.401  26.044  1.00  0.00    -0.274 OA
ATOM     16  C   UNL A   1      33.025  20.965  24.958  1.00  0.00     0.228 C 
ATOM     17  H   UNL A   1      34.268  21.073  23.354  1.00  0.00     0.169 HD
BRANCH  16  18
ATOM     18  C   UNL A   1      32.230  19.929  24.182  1.00  0.00     0.135 C 
BRANCH  18  19
ATOM     19  C   UNL A   1      32.734  18.512  24.323  1.00  0.00    -0.039 A 
ATOM     20  C   UNL A   1      33.430  17.845  23.303  1.00  0.00     0.004 A 
ATOM     21  C   UNL A   1      32.564  17.855  25.552  1.00  0.00     0.004 A 
ATOM     22  C   UNL A   1      33.917  16.551  23.499  1.00  0.00     0.000 A 
ATOM     23  C   UNL A   1      33.050  16.561  25.746  1.00  0.00     0.000 A 
ATOM     24  C   UNL A   1      33.724  15.909  24.719  1.00  0.00     0.000 A 
ENDBRANCH  18  19
ENDBRANCH  16  18
ENDBRANCH   8  14
ENDBRANCH   5   7
ENDBRANCH   4   5
ENDBRANCH   3   4
ENDBRANCH   2   3
ENDBRANCH   1   2
BRANCH   1  25
ATOM     25  C   UNL A   1      32.029  30.022  25.908  1.00  0.00     0.202 C 
BRANCH  25  26
ATOM     26  C   UNL A   1      32.868  30.107  27.191  1.00  0.00     0.261 C 
BRANCH  26  27
ATOM     27  O   UNL A   1      34.126  30.785  27.028  1.00  0.00    -0.460 OA
BRANCH  27  28
ATOM     28  C   UNL A   1      34.775  31.031  28.193  1.00  0.00     0.338 C 
ATOM     29  O   UNL A   1      34.386  31.725  29.121  1.00  0.00    -0.246 OA
BRANCH  28  30
ATOM     30  C   UNL A   1      36.015  30.238  28.282  1.00  0.00     0.060 A 
ATOM     31  C   UNL A   1      36.370  29.724  29.535  1.00  0.00     0.016 A 
ATOM     32  C   UNL A   1      36.887  30.132  27.196  1.00  0.00     0.016 A 
ATOM     33  C   UNL A   1      37.629  29.157  29.724  1.00  0.00     0.010 A 
ATOM     34  C   UNL A   1      38.152  29.566  27.389  1.00  0.00     0.010 A 
ATOM     35  C   UNL A   1      38.546  29.118  28.665  1.00  0.00    -0.014 A 
BRANCH  35  36
ATOM     36  C   UNL A   1      39.962  28.763  28.934  1.00  0.00     0.031 A 
ATOM     37  C   UNL A   1      40.869  29.793  29.554  1.00  0.00     0.074 A 
ATOM     38  C   UNL A   1      40.427  27.532  28.661  1.00  0.00     0.049 A 
ATOM     39  N   UNL A   1      42.142  29.710  29.845  1.00  0.00    -0.248 NA
ATOM     40  C   UNL A   1      40.259  31.089  29.893  1.00  0.00     0.031 C 
ATOM     41  C   UNL A   1      39.636  26.436  28.105  1.00  0.00     0.029 A 
ATOM     42  N   UNL A   1      41.682  26.999  28.810  1.00  0.00    -0.354 N 
ATOM     43  C   UNL A   1      42.487  30.939  30.394  1.00  0.00     0.074 A 
ATOM     44  C   UNL A   1      41.297  31.763  30.367  1.00  0.00     0.031 C 
ATOM     45  C   UNL A   1      40.431  25.364  27.940  1.00  0.00     0.029 A 
ATOM     46  C   UNL A   1      41.789  25.705  28.359  1.00  0.00     0.049 A 
ATOM     47  H   UNL A   1      42.436  27.496  29.204  1.00  0.00     0.167 HD
ATOM     48  C   UNL A   1      43.683  31.343  30.888  1.00  0.00     0.037 A 
ATOM     49  C   UNL A   1      42.863  24.896  28.279  1.00  0.00     0.037 A 
ATOM     50  C   UNL A   1      44.862  30.519  30.920  1.00  0.00     0.049 A 
ATOM     51  C   UNL A   1      44.197  25.383  28.782  1.00  0.00     0.074 A 
ATOM     52  C   UNL A   1      46.118  30.832  31.412  1.00  0.00     0.029 A 
ATOM     53  N   UNL A   1      44.935  29.220  30.439  1.00  0.00    -0.354 N 
ATOM     54  N   UNL A   1      44.504  26.543  29.314  1.00  0.00    -0.248 NA
ATOM     55  C   UNL A   1      45.329  24.450  28.685  1.00  0.00     0.031 C 
ATOM     56  C   UNL A   1      46.960  29.735  31.192  1.00  0.00     0.029 A 
ATOM     57  C   UNL A   1      46.217  28.723  30.607  1.00  0.00     0.049 A 
ATOM     58  H   UNL A   1      44.185  28.723  30.039  1.00  0.00     0.167 HD
ATOM     59  C   UNL A   1      45.852  26.465  29.646  1.00  0.00     0.074 A 
ATOM     60  C   UNL A   1      46.303  25.145  29.256  1.00  0.00     0.031 C 
ATOM     61  C   UNL A   1      46.646  27.400  30.226  1.00  0.00     0.037 A 
BRANCH  48  62
ATOM     62  C   UNL A   1      43.779  32.749  31.414  1.00  0.00     0.058 A 
ATOM     63  C   UNL A   1      43.500  33.054  32.755  1.00  0.00     0.135 A 
ATOM     64  C   UNL A   1      44.180  33.797  30.572  1.00  0.00     0.135 A 
ATOM     65  F   UNL A   1      43.096  32.092  33.599  1.00  0.00    -0.206 F 
ATOM     66  C   UNL A   1      43.590  34.357  33.237  1.00  0.00     0.059 A 
ATOM     67  C   UNL A   1      44.302  35.103  31.039  1.00  0.00     0.059 A 
ATOM     68  F   UNL A   1      44.458  33.559  29.280  1.00  0.00    -0.206 F 
ATOM     69  C   UNL A   1      43.989  35.376  32.369  1.00  0.00     0.060 A 
BRANCH  69  70
ATOM     70  S   UNL A   1      44.098  37.061  33.006  1.00  0.00     0.124 S 
ATOM     71  O   UNL A   1      45.471  37.097  33.499  1.00  0.00    -0.237 OA
ATOM     72  O   UNL A   1      43.830  37.864  31.818  1.00  0.00    -0.237 OA
ATOM     73  O   UNL A   1      43.062  37.103  34.033  1.00  0.00    -0.744 OA
ENDBRANCH  69  70
ENDBRANCH  48  62
BRANCH  49  74
ATOM     74  C   UNL A   1      42.721  23.535  27.696  1.00  0.00     0.058 A 
ATOM     75  C   UNL A   1      42.886  23.313  26.321  1.00  0.00     0.135 A 
ATOM     76  C   UNL A   1      42.419  22.429  28.506  1.00  0.00     0.135 A 
ATOM     77  F   UNL A   1      43.168  24.341  25.506  1.00  0.00    -0.206 F 
ATOM     78  C   UNL A   1      42.740  22.047  25.765  1.00  0.00     0.059 A 
ATOM     79  C   UNL A   1      42.290  21.150  27.977  1.00  0.00     0.059 A 
ATOM     80  F   UNL A   1      42.269  22.584  29.831  1.00  0.00    -0.206 F 
ATOM     81  C   UNL A   1      42.442  20.970  26.602  1.00  0.00     0.060 A 
BRANCH  81  82
ATOM     82  S   UNL A   1      42.295  19.323  25.877  1.00  0.00     0.124 S 
ATOM     83  O   UNL A   1      42.718  18.476  26.986  1.00  0.00    -0.237 OA
ATOM     84  O   UNL A   1      40.877  19.266  25.534  1.00  0.00    -0.237 OA
ATOM     85  O   UNL A   1      43.207  19.377  24.739  1.00  0.00    -0.744 OA
ENDBRANCH  81  82
ENDBRANCH  49  74
BRANCH  61  86
ATOM     86  C   UNL A   1      48.072  27.020  30.517  1.00  0.00     0.058 A 
ATOM     87  C   UNL A   1      49.083  27.142  29.554  1.00  0.00     0.135 A 
ATOM     88  C   UNL A   1      48.438  26.578  31.800  1.00  0.00     0.135 A 
ATOM     89  F   UNL A   1      48.786  27.556  28.312  1.00  0.00    -0.206 F 
ATOM     90  C   UNL A   1      50.405  26.818  29.843  1.00  0.00     0.059 A 
ATOM     91  C   UNL A   1      49.757  26.272  32.119  1.00  0.00     0.059 A 
ATOM     92  F   UNL A   1      47.510  26.454  32.762  1.00  0.00    -0.206 F 
ATOM     93  C   UNL A   1      50.733  26.385  31.129  1.00  0.00     0.060 A 
BRANCH  93  94
ATOM     94  S   UNL A   1      52.457  26.001  31.504  1.00  0.00     0.124 S 
ATOM     95  O   UNL A   1      52.386  24.568  31.772  1.00  0.00    -0.237 OA
ATOM     96  O   UNL A   1      53.139  26.382  30.271  1.00  0.00    -0.237 OA
ATOM     97  O   UNL A   1      52.748  26.843  32.660  1.00  0.00    -0.744 OA
ENDBRANCH  93  94
ENDBRANCH  61  86
ENDBRANCH  35  36
ENDBRANCH  28  30
ENDBRANCH  27  28
ENDBRANCH  26  27
ENDBRANCH  25  26
ENDBRANCH   1  25
TORSDOF 20
ENDMDL
MODEL 3
REMARK VINA RESULT:     -10.7      1.061      2.093
REMARK SMILES O=C(Cc1ccccc1)Nc1cc(Cl)ccc1C(=O)OCCOCCOC(=O)c1ccc(-c2c3nc(c(-c4c(F)cc(S(=O)(=O)[O-])cc4F)c4ccc([nH]4)c(-c4c(F)cc(S(=O)(=O)[O-])cc4F)c4nc(c(-c5c(F)cc(S(=O)(=O)[O-])cc5F)c5ccc2[nH]5)C=C4)C=C3)cc1
REMARK SMILES IDX 23 1 22 2 21 3 20 4 18 5 19 6 17 7 11 8 12 9 13 10 16 11
REMARK SMILES IDX 14 12 15 13 10 14 1 15 2 16 3 18 4 19 5 20 9 21 6 22 8 23
REMARK SMILES IDX 7 24 24 25 25 26 26 27 27 28 28 29 29 30 30 31 94 32 31 33
REMARK SMILES IDX 93 34 32 35 33 36 34 37 87 38 35 39 92 40 86 41 88 42 36 43
REMARK SMILES IDX 91 44 85 45 84 46 37 48 71 49 50 50 70 51 51 52 54 53 69 54
REMARK SMILES IDX 89 55 52 56 53 57 68 59 90 60 55 61 38 62 39 63 48 64 40 65
REMARK SMILES IDX 41 66 47 67 49 68 42 69 43 70 44 71 45 72 46 73 72 74 73 75
REMARK SMILES IDX 82 76 74 77 75 78 81 79 83 80 76 81 77 82 78 83 79 84 80 85
REMARK SMILES IDX 56 86 57 87 66 88 58 89 59 90 65 91 67 92 60 93 61 94 62 95
REMARK SMILES IDX 63 96 64 97
REMARK H PARENT 10 17 88 47 54 58
REMARK Flexibility Score: inf
ROOT
ATOM      1  O   UNL A   1      31.305  28.965  25.762  1.00  0.00    -0.374 OA
ENDROOT
BRANCH   1   2
ATOM      2  C   UNL A   1      31.997  27.761  26.100  1.00  0.00     0.202 C 
BRANCH   2   3
ATOM      3  C   UNL A   1      31.120  26.549  26.418  1.00  0.00     0.261 C 
BRANCH   3   4
ATOM      4  O   UNL A   1      31.930  25.466  26.899  1.00  0.00    -0.460 OA
BRANCH   4   5
ATOM      5  C   UNL A   1      31.512  24.222  26.556  1.00  0.00     0.340 C 
ATOM      6  O   UNL A   1      30.351  23.856  26.437  1.00  0.00    -0.246 OA
BRANCH   5   7
ATOM      7  C   UNL A   1      32.659  23.409  26.071  1.00  0.00     0.083 A 
ATOM      8  C   UNL A   1      33.102  23.298  24.738  1.00  0.00     0.057 A 
ATOM      9  C   UNL A   1      34.101  22.356  24.431  1.00  0.00     0.047 A 
ATOM     10  C   UNL A   1      34.682  21.574  25.429  1.00  0.00     0.043 A 
ATOM     11  C   UNL A   1      33.245  22.590  27.061  1.00  0.00     0.019 A 
ATOM     12  Cl  UNL A   1      35.945  20.475  25.030  1.00  0.00    -0.084 Cl
ATOM     13  C   UNL A   1      34.254  21.682  26.745  1.00  0.00     0.021 A 
BRANCH   8  14
ATOM     14  N   UNL A   1      32.636  24.048  23.636  1.00  0.00    -0.325 N 
ATOM     15  O   UNL A   1      33.864  25.991  23.911  1.00  0.00    -0.274 OA
ATOM     16  C   UNL A   1      32.981  25.357  23.341  1.00  0.00     0.228 C 
ATOM     17  H   UNL A   1      32.012  23.600  23.022  1.00  0.00     0.169 HD
BRANCH  16  18
ATOM     18  C   UNL A   1      32.193  25.923  22.173  1.00  0.00     0.135 C 
BRANCH  18  19
ATOM     19  C   UNL A   1      31.134  26.931  22.555  1.00  0.00    -0.039 A 
ATOM     20  C   UNL A   1      31.248  28.300  22.272  1.00  0.00     0.004 A 
ATOM     21  C   UNL A   1      29.951  26.471  23.155  1.00  0.00     0.004 A 
ATOM     22  C   UNL A   1      30.219  29.186  22.605  1.00  0.00     0.000 A 
ATOM     23  C   UNL A   1      28.925  27.356  23.488  1.00  0.00     0.000 A 
ATOM     24  C   UNL A   1      29.060  28.713  23.215  1.00  0.00     0.000 A 
ENDBRANCH  18  19
ENDBRANCH  16  18
ENDBRANCH   8  14
ENDBRANCH   5   7
ENDBRANCH   4   5
ENDBRANCH   3   4
ENDBRANCH   2   3
ENDBRANCH   1   2
BRANCH   1  25
ATOM     25  C   UNL A   1      31.936  30.203  26.076  1.00  0.00     0.202 C 
BRANCH  25  26
ATOM     26  C   UNL A   1      32.829  30.237  27.323  1.00  0.00     0.261 C 
BRANCH  26  27
ATOM     27  O   UNL A   1      34.094  30.893  27.126  1.00  0.00    -0.460 OA
BRANCH  27  28
ATOM     28  C   UNL A   1      34.768  31.149  28.274  1.00  0.00     0.338 C 
ATOM     29  O   UNL A   1      34.401  31.854  29.203  1.00  0.00    -0.246 OA
BRANCH  28  30
ATOM     30  C   UNL A   1      36.008  30.354  28.344  1.00  0.00     0.060 A 
ATOM     31  C   UNL A   1      36.378  29.834  29.590  1.00  0.00     0.016 A 
ATOM     32  C   UNL A   1      36.867  30.251  27.248  1.00  0.00     0.016 A 
ATOM     33  C   UNL A   1      37.638  29.265  29.762  1.00  0.00     0.010 A 
ATOM     34  C   UNL A   1      38.133  29.682  27.423  1.00  0.00     0.010 A 
ATOM     35  C   UNL A   1      38.542  29.229  28.692  1.00  0.00    -0.014 A 
BRANCH  35  36
ATOM     36  C   UNL A   1      39.960  28.871  28.943  1.00  0.00     0.031 A 
ATOM     37  C   UNL A   1      40.881  29.903  29.538  1.00  0.00     0.074 A 
ATOM     38  C   UNL A   1      40.416  27.635  28.674  1.00  0.00     0.049 A 
ATOM     39  N   UNL A   1      42.158  29.818  29.810  1.00  0.00    -0.248 NA
ATOM     40  C   UNL A   1      40.282  31.205  29.873  1.00  0.00     0.031 C 
ATOM     41  C   UNL A   1      39.612  26.537  28.142  1.00  0.00     0.029 A 
ATOM     42  N   UNL A   1      41.672  27.099  28.809  1.00  0.00    -0.354 N 
ATOM     43  C   UNL A   1      42.516  31.051  30.342  1.00  0.00     0.074 A 
ATOM     44  C   UNL A   1      41.329  31.879  30.325  1.00  0.00     0.031 C 
ATOM     45  C   UNL A   1      40.400  25.460  27.975  1.00  0.00     0.029 A 
ATOM     46  C   UNL A   1      41.766  25.800  28.370  1.00  0.00     0.049 A 
ATOM     47  H   UNL A   1      42.433  27.596  29.186  1.00  0.00     0.167 HD
ATOM     48  C   UNL A   1      43.722  31.455  30.812  1.00  0.00     0.037 A 
ATOM     49  C   UNL A   1      42.836  24.985  28.281  1.00  0.00     0.037 A 
ATOM     50  C   UNL A   1      44.898  30.626  30.835  1.00  0.00     0.049 A 
ATOM     51  C   UNL A   1      44.179  25.472  28.758  1.00  0.00     0.074 A 
ATOM     52  C   UNL A   1      46.163  30.939  31.304  1.00  0.00     0.029 A 
ATOM     53  N   UNL A   1      44.958  29.322  30.365  1.00  0.00    -0.354 N 
ATOM     54  N   UNL A   1      44.499  26.636  29.274  1.00  0.00    -0.248 NA
ATOM     55  C   UNL A   1      45.305  24.534  28.653  1.00  0.00     0.031 C 
ATOM     56  C   UNL A   1      46.996  29.837  31.081  1.00  0.00     0.029 A 
ATOM     57  C   UNL A   1      46.240  28.822  30.518  1.00  0.00     0.049 A 
ATOM     58  H   UNL A   1      44.200  28.825  29.982  1.00  0.00     0.167 HD
ATOM     59  C   UNL A   1      45.852  26.556  29.586  1.00  0.00     0.074 A 
ATOM     60  C   UNL A   1      46.292  25.230  29.202  1.00  0.00     0.031 C 
ATOM     61  C   UNL A   1      46.658  27.494  30.144  1.00  0.00     0.037 A 
BRANCH  48  62
ATOM     62  C   UNL A   1      43.832  32.865  31.323  1.00  0.00     0.058 A 
ATOM     63  C   UNL A   1      44.131  33.938  30.469  1.00  0.00     0.135 A 
ATOM     64  C   UNL A   1      43.608  33.149  32.680  1.00  0.00     0.135 A 
ATOM     65  F   UNL A   1      44.370  33.720  29.166  1.00  0.00    -0.206 F 
ATOM     66  C   UNL A   1      44.232  35.241  30.948  1.00  0.00     0.059 A 
ATOM     67  C   UNL A   1      43.679  34.448  33.176  1.00  0.00     0.059 A 
ATOM     68  F   UNL A   1      43.320  32.159  33.539  1.00  0.00    -0.206 F 
ATOM     69  C   UNL A   1      44.007  35.485  32.304  1.00  0.00     0.060 A 
BRANCH  69  70
ATOM     70  S   UNL A   1      44.145  37.179  32.912  1.00  0.00     0.124 S 
ATOM     71  O   UNL A   1      43.096  37.209  33.927  1.00  0.00    -0.237 OA
ATOM     72  O   UNL A   1      45.514  37.222  33.414  1.00  0.00    -0.237 OA
ATOM     73  O   UNL A   1      43.891  37.988  31.724  1.00  0.00    -0.744 OA
ENDBRANCH  69  70
ENDBRANCH  48  62
BRANCH  49  74
ATOM     74  C   UNL A   1      42.679  23.619  27.714  1.00  0.00     0.058 A 
ATOM     75  C   UNL A   1      42.430  22.515  28.542  1.00  0.00     0.135 A 
ATOM     76  C   UNL A   1      42.774  23.393  26.332  1.00  0.00     0.135 A 
ATOM     77  F   UNL A   1      42.338  22.680  29.871  1.00  0.00    -0.206 F 
ATOM     78  C   UNL A   1      42.298  21.231  28.023  1.00  0.00     0.059 A 
ATOM     79  C   UNL A   1      42.624  22.123  25.788  1.00  0.00     0.059 A 
ATOM     80  F   UNL A   1      42.994  24.419  25.495  1.00  0.00    -0.206 F 
ATOM     81  C   UNL A   1      42.396  21.045  26.643  1.00  0.00     0.060 A 
BRANCH  81  82
ATOM     82  S   UNL A   1      42.182  19.382  25.974  1.00  0.00     0.124 S 
ATOM     83  O   UNL A   1      42.654  18.559  27.081  1.00  0.00    -0.237 OA
ATOM     84  O   UNL A   1      40.746  19.340  25.713  1.00  0.00    -0.237 OA
ATOM     85  O   UNL A   1      43.029  19.389  24.785  1.00  0.00    -0.744 OA
ENDBRANCH  81  82
ENDBRANCH  49  74
BRANCH  61  86
ATOM     86  C   UNL A   1      48.087  27.110  30.417  1.00  0.00     0.058 A 
ATOM     87  C   UNL A   1      49.091  27.255  29.448  1.00  0.00     0.135 A 
ATOM     88  C   UNL A   1      48.463  26.642  31.687  1.00  0.00     0.135 A 
ATOM     89  F   UNL A   1      48.784  27.694  28.217  1.00  0.00    -0.206 F 
ATOM     90  C   UNL A   1      50.416  26.928  29.721  1.00  0.00     0.059 A 
ATOM     91  C   UNL A   1      49.786  26.333  31.990  1.00  0.00     0.059 A 
ATOM     92  F   UNL A   1      47.542  26.496  32.653  1.00  0.00    -0.206 F 
ATOM     93  C   UNL A   1      50.754  26.468  30.996  1.00  0.00     0.060 A 
BRANCH  93  94
ATOM     94  S   UNL A   1      52.481  26.080  31.350  1.00  0.00     0.124 S 
ATOM     95  O   UNL A   1      53.112  26.353  30.062  1.00  0.00    -0.237 OA
ATOM     96  O   UNL A   1      52.801  27.017  32.422  1.00  0.00    -0.237 OA
ATOM     97  O   UNL A   1      52.439  24.675  31.745  1.00  0.00    -0.744 OA
ENDBRANCH  93  94
ENDBRANCH  61  86
ENDBRANCH  35  36
ENDBRANCH  28  30
ENDBRANCH  27  28
ENDBRANCH  26  27
ENDBRANCH  25  26
ENDBRANCH   1  25
TORSDOF 20
ENDMDL
