MODEL 1
REMARK VINA RESULT:     -13.4      0.000      0.000
REMARK SMILES Cc1cc(/C=C2/C(=O)NC(=S)N=C2OCCOCCOC(=O)c2ccc(-c3c4nc(c(-c5c(F)cc(S(=O)(=O)[O-])cc5F)c5ccc([nH]5)c(-c5c(F)cc(S(=O)(=O)[O-])cc5F)c5nc(c(-c6c(F)cc(S(=O)(=O)[O-])cc6F)c6ccc3[nH]6)C=C5)C=C4)cc2)c(C)n1-c1cccc(C(=O)[O-])c1
REMARK SMILES IDX 18 1 17 2 16 3 15 4 14 5 13 6 5 7 6 8 7 9 8 10 9 11 12 12
REMARK SMILES IDX 10 13 11 15 4 16 1 17 2 18 3 19 91 20 89 21 90 22 92 23
REMARK SMILES IDX 93 24 100 25 94 26 96 27 95 28 97 29 98 30 99 31 19 32 20 33
REMARK SMILES IDX 21 34 22 35 23 36 24 37 88 38 25 39 87 40 26 41 27 42 28 43
REMARK SMILES IDX 81 44 29 45 86 46 80 47 82 48 30 49 85 50 79 51 78 52 31 54
REMARK SMILES IDX 65 55 44 56 64 57 45 58 48 59 63 60 83 61 46 62 47 63 62 65
REMARK SMILES IDX 84 66 49 67 32 68 33 69 42 70 34 71 35 72 41 73 43 74 36 75
REMARK SMILES IDX 37 76 38 77 39 78 40 79 66 80 67 81 76 82 68 83 69 84 75 85
REMARK SMILES IDX 77 86 70 87 71 88 72 89 73 90 74 91 50 92 51 93 60 94 52 95
REMARK SMILES IDX 53 96 59 97 61 98 54 99 55 100 56 101 57 102 58 103
REMARK H PARENT 9 14 82 53 48 64
REMARK Flexibility Score: inf
ROOT
ATOM      1  C   UNL A   1      31.513  30.284  26.075  1.00  0.00     0.202 C 
ENDROOT
BRANCH   1   2
ATOM      2  O   UNL A   1      31.784  28.904  25.743  1.00  0.00    -0.374 OA
BRANCH   2   3
ATOM      3  C   UNL A   1      32.581  28.522  24.619  1.00  0.00     0.202 C 
BRANCH   3   4
ATOM      4  C   UNL A   1      32.424  29.218  23.213  1.00  0.00     0.260 C 
BRANCH   4   5
ATOM      5  O   UNL A   1      31.429  28.649  22.313  1.00  0.00    -0.475 OA
BRANCH   5   6
ATOM      6  C   UNL A   1      30.161  29.062  22.456  1.00  0.00     0.229 C 
ATOM      7  C   UNL A   1      29.325  26.771  23.478  1.00  0.00     0.029 C 
ATOM      8  C   UNL A   1      29.218  28.064  23.051  1.00  0.00     0.103 C 
ATOM      9  C   UNL A   1      27.812  28.606  23.110  1.00  0.00     0.262 C 
ATOM     10  O   UNL A   1      26.858  28.015  23.610  1.00  0.00    -0.269 OA
ATOM     11  N   UNL A   1      27.620  29.837  22.540  1.00  0.00    -0.297 N 
ATOM     12  N   UNL A   1      29.861  30.238  22.028  1.00  0.00    -0.184 NA
ATOM     13  C   UNL A   1      28.574  30.654  22.011  1.00  0.00     0.203 C 
ATOM     14  H   UNL A   1      26.693  30.165  22.508  1.00  0.00     0.172 HD
ATOM     15  S   UNL A   1      28.093  32.117  21.350  1.00  0.00    -0.038 S 
BRANCH   7  16
ATOM     16  C   UNL A   1      30.387  25.789  23.573  1.00  0.00    -0.003 A 
ATOM     17  C   UNL A   1      33.535  23.978  22.535  1.00  0.00     0.065 C 
ATOM     18  C   UNL A   1      32.294  24.577  23.090  1.00  0.00     0.020 A 
ATOM     19  C   UNL A   1      31.413  25.538  22.595  1.00  0.00     0.031 A 
ATOM     20  N   UNL A   1      31.773  24.152  24.287  1.00  0.00    -0.318 N 
ATOM     21  C   UNL A   1      30.841  25.085  24.662  1.00  0.00     0.027 A 
ATOM     22  C   UNL A   1      30.651  25.253  26.091  1.00  0.00     0.065 C 
BRANCH  20  23
ATOM     23  C   UNL A   1      32.271  23.204  25.221  1.00  0.00     0.046 A 
ATOM     24  C   UNL A   1      33.107  23.655  26.259  1.00  0.00     0.026 A 
ATOM     25  C   UNL A   1      32.246  21.854  24.878  1.00  0.00     0.036 A 
ATOM     26  C   UNL A   1      33.903  22.749  26.961  1.00  0.00     0.003 A 
ATOM     27  C   UNL A   1      33.009  20.940  25.613  1.00  0.00    -0.001 A 
ATOM     28  C   UNL A   1      33.845  21.391  26.646  1.00  0.00     0.010 A 
BRANCH  27  29
ATOM     29  C   UNL A   1      32.982  19.499  25.278  1.00  0.00     0.072 C 
ATOM     30  O   UNL A   1      32.008  18.775  25.343  1.00  0.00    -0.545 OA
ATOM     31  O   UNL A   1      34.184  19.076  24.848  1.00  0.00    -0.545 OA
ENDBRANCH  27  29
ENDBRANCH  20  23
ENDBRANCH   7  16
ENDBRANCH   5   6
ENDBRANCH   4   5
ENDBRANCH   3   4
ENDBRANCH   2   3
ENDBRANCH   1   2
BRANCH   1  32
ATOM     32  C   UNL A   1      32.414  31.234  27.084  1.00  0.00     0.261 C 
BRANCH  32  33
ATOM     33  O   UNL A   1      33.963  31.432  27.251  1.00  0.00    -0.460 OA
BRANCH  33  34
ATOM     34  C   UNL A   1      34.524  32.523  27.977  1.00  0.00     0.338 C 
ATOM     35  O   UNL A   1      33.861  33.564  27.990  1.00  0.00    -0.246 OA
BRANCH  34  36
ATOM     36  C   UNL A   1      36.015  32.499  28.840  1.00  0.00     0.060 A 
ATOM     37  C   UNL A   1      36.085  31.841  30.067  1.00  0.00     0.016 A 
ATOM     38  C   UNL A   1      37.317  33.064  28.672  1.00  0.00     0.016 A 
ATOM     39  C   UNL A   1      37.327  31.833  31.031  1.00  0.00     0.010 A 
ATOM     40  C   UNL A   1      38.655  32.933  29.652  1.00  0.00     0.010 A 
ATOM     41  C   UNL A   1      38.766  32.309  30.938  1.00  0.00    -0.014 A 
BRANCH  41  42
ATOM     42  C   UNL A   1      40.195  31.530  31.901  1.00  0.00     0.031 A 
ATOM     43  C   UNL A   1      40.468  32.879  32.543  1.00  0.00     0.074 A 
ATOM     44  C   UNL A   1      41.360  30.323  31.990  1.00  0.00     0.049 A 
ATOM     45  N   UNL A   1      40.789  33.847  31.735  1.00  0.00    -0.248 NA
ATOM     46  C   UNL A   1      40.151  33.486  33.845  1.00  0.00     0.031 C 
ATOM     47  C   UNL A   1      40.492  28.654  32.505  1.00  0.00     0.029 A 
ATOM     48  N   UNL A   1      43.249  29.883  32.570  1.00  0.00    -0.354 N 
ATOM     49  C   UNL A   1      41.567  34.671  32.438  1.00  0.00     0.074 A 
ATOM     50  C   UNL A   1      40.829  34.653  33.709  1.00  0.00     0.031 C 
ATOM     51  C   UNL A   1      41.514  27.558  33.216  1.00  0.00     0.029 A 
ATOM     52  C   UNL A   1      43.364  28.085  33.283  1.00  0.00     0.049 A 
ATOM     53  H   UNL A   1      44.011  30.502  32.498  1.00  0.00     0.167 HD
ATOM     54  C   UNL A   1      42.834  34.236  32.108  1.00  0.00     0.037 A 
ATOM     55  C   UNL A   1      44.226  27.405  34.336  1.00  0.00     0.037 A 
ATOM     56  C   UNL A   1      43.232  33.353  33.254  1.00  0.00     0.049 A 
ATOM     57  C   UNL A   1      44.195  28.464  35.456  1.00  0.00     0.074 A 
ATOM     58  C   UNL A   1      43.109  33.366  34.657  1.00  0.00     0.029 A 
ATOM     59  N   UNL A   1      43.136  32.035  32.997  1.00  0.00    -0.354 N 
ATOM     60  N   UNL A   1      43.883  29.674  35.155  1.00  0.00    -0.248 NA
ATOM     61  C   UNL A   1      43.334  28.111  36.617  1.00  0.00     0.031 C 
ATOM     62  C   UNL A   1      42.455  32.122  35.068  1.00  0.00     0.029 A 
ATOM     63  C   UNL A   1      42.346  31.287  33.945  1.00  0.00     0.049 A 
ATOM     64  H   UNL A   1      43.573  31.613  32.222  1.00  0.00     0.167 HD
ATOM     65  C   UNL A   1      42.472  29.428  34.995  1.00  0.00     0.074 A 
ATOM     66  C   UNL A   1      42.175  28.595  36.144  1.00  0.00     0.031 C 
ATOM     67  C   UNL A   1      41.937  29.536  33.661  1.00  0.00     0.037 A 
BRANCH  54  68
ATOM     68  C   UNL A   1      42.769  33.920  30.388  1.00  0.00     0.058 A 
ATOM     69  C   UNL A   1      43.684  32.991  29.867  1.00  0.00     0.135 A 
ATOM     70  C   UNL A   1      42.354  34.800  29.318  1.00  0.00     0.135 A 
ATOM     71  F   UNL A   1      44.276  32.139  30.714  1.00  0.00    -0.206 F 
ATOM     72  C   UNL A   1      44.102  32.938  28.491  1.00  0.00     0.059 A 
ATOM     73  C   UNL A   1      42.780  34.820  27.960  1.00  0.00     0.059 A 
ATOM     74  F   UNL A   1      41.576  35.828  29.558  1.00  0.00    -0.206 F 
ATOM     75  C   UNL A   1      43.648  33.853  27.536  1.00  0.00     0.060 A 
BRANCH  75  76
ATOM     76  S   UNL A   1      44.152  33.751  25.792  1.00  0.00     0.124 S 
ATOM     77  O   UNL A   1      44.136  32.314  25.532  1.00  0.00    -0.237 OA
ATOM     78  O   UNL A   1      43.092  34.513  25.138  1.00  0.00    -0.237 OA
ATOM     79  O   UNL A   1      45.480  34.357  25.755  1.00  0.00    -0.744 OA
ENDBRANCH  75  76
ENDBRANCH  54  68
BRANCH  55  80
ATOM     80  C   UNL A   1      44.524  25.979  35.290  1.00  0.00     0.058 A 
ATOM     81  C   UNL A   1      43.667  24.810  35.182  1.00  0.00     0.135 A 
ATOM     82  C   UNL A   1      45.813  25.574  35.755  1.00  0.00     0.135 A 
ATOM     83  F   UNL A   1      42.399  24.962  34.766  1.00  0.00    -0.206 F 
ATOM     84  C   UNL A   1      44.063  23.426  35.431  1.00  0.00     0.059 A 
ATOM     85  C   UNL A   1      46.239  24.196  35.964  1.00  0.00     0.059 A 
ATOM     86  F   UNL A   1      46.782  26.492  35.862  1.00  0.00    -0.206 F 
ATOM     87  C   UNL A   1      45.373  23.117  35.780  1.00  0.00     0.060 A 
BRANCH  87  88
ATOM     88  S   UNL A   1      45.985  21.352  35.820  1.00  0.00     0.124 S 
ATOM     89  O   UNL A   1      47.297  21.437  35.189  1.00  0.00    -0.237 OA
ATOM     90  O   UNL A   1      45.999  21.039  37.247  1.00  0.00    -0.237 OA
ATOM     91  O   UNL A   1      44.977  20.624  35.053  1.00  0.00    -0.744 OA
ENDBRANCH  87  88
ENDBRANCH  55  80
BRANCH  67  92
ATOM     92  C   UNL A   1      42.365  28.674  31.633  1.00  0.00     0.058 A 
ATOM     93  C   UNL A   1      43.517  28.431  30.670  1.00  0.00     0.135 A 
ATOM     94  C   UNL A   1      41.144  28.270  30.526  1.00  0.00     0.135 A 
ATOM     95  F   UNL A   1      44.813  28.510  31.038  1.00  0.00    -0.206 F 
ATOM     96  C   UNL A   1      43.452  28.058  29.220  1.00  0.00     0.059 A 
ATOM     97  C   UNL A   1      41.111  27.903  29.162  1.00  0.00     0.059 A 
ATOM     98  F   UNL A   1      39.826  28.452  30.855  1.00  0.00    -0.206 F 
ATOM     99  C   UNL A   1      42.281  27.824  28.490  1.00  0.00     0.060 A 
BRANCH  99 100
ATOM    100  S   UNL A   1      42.247  27.413  26.714  1.00  0.00     0.124 S 
ATOM    101  O   UNL A   1      41.391  28.458  26.161  1.00  0.00    -0.237 OA
ATOM    102  O   UNL A   1      43.657  27.496  26.352  1.00  0.00    -0.237 OA
ATOM    103  O   UNL A   1      41.667  26.071  26.665  1.00  0.00    -0.744 OA
ENDBRANCH  99 100
ENDBRANCH  67  92
ENDBRANCH  41  42
ENDBRANCH  34  36
ENDBRANCH  33  34
ENDBRANCH  32  33
ENDBRANCH   1  32
TORSDOF 19
ENDMDL
MODEL 2
REMARK VINA RESULT:     -13.2      2.192      4.857
REMARK SMILES Cc1cc(/C=C2/C(=O)NC(=S)N=C2OCCOCCOC(=O)c2ccc(-c3c4nc(c(-c5c(F)cc(S(=O)(=O)[O-])cc5F)c5ccc([nH]5)c(-c5c(F)cc(S(=O)(=O)[O-])cc5F)c5nc(c(-c6c(F)cc(S(=O)(=O)[O-])cc6F)c6ccc3[nH]6)C=C5)C=C4)cc2)c(C)n1-c1cccc(C(=O)[O-])c1
REMARK SMILES IDX 18 1 17 2 16 3 15 4 14 5 13 6 5 7 6 8 7 9 8 10 9 11 12 12
REMARK SMILES IDX 10 13 11 15 4 16 1 17 2 18 3 19 91 20 89 21 90 22 92 23
REMARK SMILES IDX 93 24 100 25 94 26 96 27 95 28 97 29 98 30 99 31 19 32 20 33
REMARK SMILES IDX 21 34 22 35 23 36 24 37 88 38 25 39 87 40 26 41 27 42 28 43
REMARK SMILES IDX 81 44 29 45 86 46 80 47 82 48 30 49 85 50 79 51 78 52 31 54
REMARK SMILES IDX 65 55 44 56 64 57 45 58 48 59 63 60 83 61 46 62 47 63 62 65
REMARK SMILES IDX 84 66 49 67 32 68 33 69 42 70 34 71 35 72 41 73 43 74 36 75
REMARK SMILES IDX 37 76 38 77 39 78 40 79 66 80 67 81 76 82 68 83 69 84 75 85
REMARK SMILES IDX 77 86 70 87 71 88 72 89 73 90 74 91 50 92 51 93 60 94 52 95
REMARK SMILES IDX 53 96 59 97 61 98 54 99 55 100 56 101 57 102 58 103
REMARK H PARENT 9 14 82 53 48 64
REMARK Flexibility Score: inf
ROOT
ATOM      1  C   UNL A   1      32.480  30.178  27.176  1.00  0.00     0.202 C 
ENDROOT
BRANCH   1   2
ATOM      2  O   UNL A   1      32.843  28.878  27.691  1.00  0.00    -0.374 OA
BRANCH   2   3
ATOM      3  C   UNL A   1      33.737  27.998  27.006  1.00  0.00     0.202 C 
BRANCH   3   4
ATOM      4  C   UNL A   1      33.466  27.524  25.526  1.00  0.00     0.260 C 
BRANCH   4   5
ATOM      5  O   UNL A   1      32.843  26.217  25.366  1.00  0.00    -0.475 OA
BRANCH   5   6
ATOM      6  C   UNL A   1      33.506  25.301  24.644  1.00  0.00     0.229 C 
ATOM      7  C   UNL A   1      31.983  25.600  22.504  1.00  0.00     0.029 C 
ATOM      8  C   UNL A   1      33.007  25.091  23.249  1.00  0.00     0.103 C 
ATOM      9  C   UNL A   1      33.781  24.001  22.549  1.00  0.00     0.262 C 
ATOM     10  O   UNL A   1      33.616  23.673  21.377  1.00  0.00    -0.269 OA
ATOM     11  N   UNL A   1      34.710  23.342  23.311  1.00  0.00    -0.297 N 
ATOM     12  N   UNL A   1      34.460  24.659  25.221  1.00  0.00    -0.184 NA
ATOM     13  C   UNL A   1      35.068  23.626  24.595  1.00  0.00     0.203 C 
ATOM     14  H   UNL A   1      35.167  22.582  22.884  1.00  0.00     0.172 HD
ATOM     15  S   UNL A   1      36.226  22.662  25.330  1.00  0.00    -0.038 S 
BRANCH   7  16
ATOM     16  C   UNL A   1      30.935  26.581  22.705  1.00  0.00    -0.003 A 
ATOM     17  C   UNL A   1      27.566  27.872  23.825  1.00  0.00     0.065 C 
ATOM     18  C   UNL A   1      28.926  27.538  23.330  1.00  0.00     0.020 A 
ATOM     19  C   UNL A   1      29.607  26.327  23.201  1.00  0.00     0.031 A 
ATOM     20  N   UNL A   1      29.756  28.506  22.820  1.00  0.00    -0.318 N 
ATOM     21  C   UNL A   1      31.008  27.952  22.749  1.00  0.00     0.027 A 
ATOM     22  C   UNL A   1      32.118  28.874  22.897  1.00  0.00     0.065 C 
BRANCH  20  23
ATOM     23  C   UNL A   1      29.575  29.913  22.723  1.00  0.00     0.046 A 
ATOM     24  C   UNL A   1      29.714  30.692  23.886  1.00  0.00     0.026 A 
ATOM     25  C   UNL A   1      28.907  30.423  21.612  1.00  0.00     0.036 A 
ATOM     26  C   UNL A   1      29.197  31.988  23.926  1.00  0.00     0.003 A 
ATOM     27  C   UNL A   1      28.429  31.738  21.638  1.00  0.00    -0.001 A 
ATOM     28  C   UNL A   1      28.565  32.514  22.798  1.00  0.00     0.010 A 
BRANCH  27  29
ATOM     29  C   UNL A   1      27.734  32.307  20.462  1.00  0.00     0.072 C 
ATOM     30  O   UNL A   1      27.490  31.716  19.428  1.00  0.00    -0.545 OA
ATOM     31  O   UNL A   1      27.360  33.579  20.685  1.00  0.00    -0.545 OA
ENDBRANCH  27  29
ENDBRANCH  20  23
ENDBRANCH   7  16
ENDBRANCH   5   6
ENDBRANCH   4   5
ENDBRANCH   3   4
ENDBRANCH   2   3
ENDBRANCH   1   2
BRANCH   1  32
ATOM     32  C   UNL A   1      33.252  31.603  27.504  1.00  0.00     0.261 C 
BRANCH  32  33
ATOM     33  O   UNL A   1      34.734  32.078  27.294  1.00  0.00    -0.460 OA
BRANCH  33  34
ATOM     34  C   UNL A   1      35.315  33.138  28.048  1.00  0.00     0.338 C 
ATOM     35  O   UNL A   1      34.701  34.209  28.039  1.00  0.00    -0.246 OA
BRANCH  34  36
ATOM     36  C   UNL A   1      36.767  33.042  28.971  1.00  0.00     0.060 A 
ATOM     37  C   UNL A   1      36.820  32.193  30.075  1.00  0.00     0.016 A 
ATOM     38  C   UNL A   1      38.041  33.689  28.966  1.00  0.00     0.016 A 
ATOM     39  C   UNL A   1      38.018  32.083  31.087  1.00  0.00     0.010 A 
ATOM     40  C   UNL A   1      39.340  33.460  29.979  1.00  0.00     0.010 A 
ATOM     41  C   UNL A   1      39.431  32.636  31.149  1.00  0.00    -0.014 A 
BRANCH  41  42
ATOM     42  C   UNL A   1      40.859  31.776  32.043  1.00  0.00     0.031 A 
ATOM     43  C   UNL A   1      41.259  33.113  32.641  1.00  0.00     0.074 A 
ATOM     44  C   UNL A   1      41.942  30.493  32.089  1.00  0.00     0.049 A 
ATOM     45  N   UNL A   1      41.597  34.045  31.798  1.00  0.00    -0.248 NA
ATOM     46  C   UNL A   1      41.060  33.761  33.948  1.00  0.00     0.031 C 
ATOM     47  C   UNL A   1      40.996  28.897  32.685  1.00  0.00     0.029 A 
ATOM     48  N   UNL A   1      43.828  29.934  32.567  1.00  0.00    -0.354 N 
ATOM     49  C   UNL A   1      42.469  34.824  32.438  1.00  0.00     0.074 A 
ATOM     50  C   UNL A   1      41.807  34.877  33.749  1.00  0.00     0.031 C 
ATOM     51  C   UNL A   1      41.982  27.744  33.358  1.00  0.00     0.029 A 
ATOM     52  C   UNL A   1      43.864  28.145  33.308  1.00  0.00     0.049 A 
ATOM     53  H   UNL A   1      44.625  30.499  32.439  1.00  0.00     0.167 HD
ATOM     54  C   UNL A   1      43.682  34.298  32.044  1.00  0.00     0.037 A 
ATOM     55  C   UNL A   1      44.739  27.424  34.322  1.00  0.00     0.037 A 
ATOM     56  C   UNL A   1      44.085  33.408  33.183  1.00  0.00     0.049 A 
ATOM     57  C   UNL A   1      44.845  28.500  35.421  1.00  0.00     0.074 A 
ATOM     58  C   UNL A   1      44.046  33.452  34.590  1.00  0.00     0.029 A 
ATOM     59  N   UNL A   1      43.886  32.096  32.957  1.00  0.00    -0.354 N 
ATOM     60  N   UNL A   1      44.599  29.724  35.115  1.00  0.00    -0.248 NA
ATOM     61  C   UNL A   1      44.032  28.225  36.636  1.00  0.00     0.031 C 
ATOM     62  C   UNL A   1      43.336  32.262  35.062  1.00  0.00     0.029 A 
ATOM     63  C   UNL A   1      43.105  31.419  33.964  1.00  0.00     0.049 A 
ATOM     64  H   UNL A   1      44.247  31.633  32.167  1.00  0.00     0.167 HD
ATOM     65  C   UNL A   1      43.167  29.572  35.041  1.00  0.00     0.074 A 
ATOM     66  C   UNL A   1      42.882  28.780  36.221  1.00  0.00     0.031 C 
ATOM     67  C   UNL A   1      42.563  29.696  33.738  1.00  0.00     0.037 A 
BRANCH  54  68
ATOM     68  C   UNL A   1      43.494  33.960  30.337  1.00  0.00     0.058 A 
ATOM     69  C   UNL A   1      44.293  32.944  29.789  1.00  0.00     0.135 A 
ATOM     70  C   UNL A   1      43.100  34.856  29.272  1.00  0.00     0.135 A 
ATOM     71  F   UNL A   1      44.852  32.057  30.621  1.00  0.00    -0.206 F 
ATOM     72  C   UNL A   1      44.628  32.831  28.394  1.00  0.00     0.059 A 
ATOM     73  C   UNL A   1      43.452  34.815  27.893  1.00  0.00     0.059 A 
ATOM     74  F   UNL A   1      42.432  35.953  29.530  1.00  0.00    -0.206 F 
ATOM     75  C   UNL A   1      44.205  33.767  27.445  1.00  0.00     0.060 A 
BRANCH  75  76
ATOM     76  S   UNL A   1      44.602  33.590  25.679  1.00  0.00     0.124 S 
ATOM     77  O   UNL A   1      45.566  34.664  25.452  1.00  0.00    -0.237 OA
ATOM     78  O   UNL A   1      45.154  32.239  25.639  1.00  0.00    -0.237 OA
ATOM     79  O   UNL A   1      43.325  33.770  24.993  1.00  0.00    -0.744 OA
ENDBRANCH  75  76
ENDBRANCH  54  68
BRANCH  55  80
ATOM     80  C   UNL A   1      44.995  25.996  35.286  1.00  0.00     0.058 A 
ATOM     81  C   UNL A   1      44.027  24.913  35.297  1.00  0.00     0.135 A 
ATOM     82  C   UNL A   1      46.281  25.479  35.636  1.00  0.00     0.135 A 
ATOM     83  F   UNL A   1      42.743  25.177  35.001  1.00  0.00    -0.206 F 
ATOM     84  C   UNL A   1      44.314  23.503  35.547  1.00  0.00     0.059 A 
ATOM     85  C   UNL A   1      46.595  24.071  35.844  1.00  0.00     0.059 A 
ATOM     86  F   UNL A   1      47.338  26.302  35.620  1.00  0.00    -0.206 F 
ATOM     87  C   UNL A   1      45.618  23.077  35.777  1.00  0.00     0.060 A 
BRANCH  87  88
ATOM     88  S   UNL A   1      46.063  21.263  35.811  1.00  0.00     0.124 S 
ATOM     89  O   UNL A   1      44.991  20.639  35.043  1.00  0.00    -0.237 OA
ATOM     90  O   UNL A   1      47.380  21.233  35.180  1.00  0.00    -0.237 OA
ATOM     91  O   UNL A   1      46.070  20.939  37.236  1.00  0.00    -0.744 OA
ENDBRANCH  87  88
ENDBRANCH  55  80
BRANCH  67  92
ATOM     92  C   UNL A   1      42.811  28.775  31.707  1.00  0.00     0.058 A 
ATOM     93  C   UNL A   1      42.067  27.908  30.701  1.00  0.00     0.135 A 
ATOM     94  C   UNL A   1      44.301  28.714  30.896  1.00  0.00     0.135 A 
ATOM     95  F   UNL A   1      40.742  27.667  30.777  1.00  0.00    -0.206 F 
ATOM     96  C   UNL A   1      42.614  27.212  29.493  1.00  0.00     0.059 A 
ATOM     97  C   UNL A   1      44.788  28.061  29.743  1.00  0.00     0.059 A 
ATOM     98  F   UNL A   1      45.422  29.255  31.472  1.00  0.00    -0.206 F 
ATOM     99  C   UNL A   1      43.939  27.273  29.046  1.00  0.00     0.060 A 
BRANCH  99 100
ATOM    100  S   UNL A   1      44.570  26.375  27.590  1.00  0.00     0.124 S 
ATOM    101  O   UNL A   1      45.749  27.154  27.221  1.00  0.00    -0.237 OA
ATOM    102  O   UNL A   1      44.838  25.050  28.138  1.00  0.00    -0.237 OA
ATOM    103  O   UNL A   1      43.477  26.443  26.621  1.00  0.00    -0.744 OA
ENDBRANCH  99 100
ENDBRANCH  67  92
ENDBRANCH  41  42
ENDBRANCH  34  36
ENDBRANCH  33  34
ENDBRANCH  32  33
ENDBRANCH   1  32
TORSDOF 19
ENDMDL
MODEL 3
REMARK VINA RESULT:     -12.6      6.438     15.921
REMARK SMILES Cc1cc(/C=C2/C(=O)NC(=S)N=C2OCCOCCOC(=O)c2ccc(-c3c4nc(c(-c5c(F)cc(S(=O)(=O)[O-])cc5F)c5ccc([nH]5)c(-c5c(F)cc(S(=O)(=O)[O-])cc5F)c5nc(c(-c6c(F)cc(S(=O)(=O)[O-])cc6F)c6ccc3[nH]6)C=C5)C=C4)cc2)c(C)n1-c1cccc(C(=O)[O-])c1
REMARK SMILES IDX 18 1 17 2 16 3 15 4 14 5 13 6 5 7 6 8 7 9 8 10 9 11 12 12
REMARK SMILES IDX 10 13 11 15 4 16 1 17 2 18 3 19 91 20 89 21 90 22 92 23
REMARK SMILES IDX 93 24 100 25 94 26 96 27 95 28 97 29 98 30 99 31 19 32 20 33
REMARK SMILES IDX 21 34 22 35 23 36 24 37 88 38 25 39 87 40 26 41 27 42 28 43
REMARK SMILES IDX 81 44 29 45 86 46 80 47 82 48 30 49 85 50 79 51 78 52 31 54
REMARK SMILES IDX 65 55 44 56 64 57 45 58 48 59 63 60 83 61 46 62 47 63 62 65
REMARK SMILES IDX 84 66 49 67 32 68 33 69 42 70 34 71 35 72 41 73 43 74 36 75
REMARK SMILES IDX 37 76 38 77 39 78 40 79 66 80 67 81 76 82 68 83 69 84 75 85
REMARK SMILES IDX 77 86 70 87 71 88 72 89 73 90 74 91 50 92 51 93 60 94 52 95
REMARK SMILES IDX 53 96 59 97 61 98 54 99 55 100 56 101 57 102 58 103
REMARK H PARENT 9 14 82 53 48 64
REMARK Flexibility Score: inf
ROOT
ATOM      1  C   UNL A   1      46.040  22.314  35.673  1.00  0.00     0.202 C 
ENDROOT
BRANCH   1   2
ATOM      2  O   UNL A   1      45.657  21.520  36.818  1.00  0.00    -0.374 OA
BRANCH   2   3
ATOM      3  C   UNL A   1      46.316  21.618  38.082  1.00  0.00     0.202 C 
BRANCH   3   4
ATOM      4  C   UNL A   1      46.405  20.392  39.071  1.00  0.00     0.260 C 
BRANCH   4   5
ATOM      5  O   UNL A   1      47.140  19.226  38.597  1.00  0.00    -0.475 OA
BRANCH   5   6
ATOM      6  C   UNL A   1      48.476  19.251  38.711  1.00  0.00     0.229 C 
ATOM      7  C   UNL A   1      48.482  18.226  41.148  1.00  0.00     0.029 C 
ATOM      8  C   UNL A   1      49.026  18.723  39.999  1.00  0.00     0.103 C 
ATOM      9  C   UNL A   1      50.529  18.854  40.047  1.00  0.00     0.262 C 
ATOM     10  O   UNL A   1      51.234  18.440  40.964  1.00  0.00    -0.269 OA
ATOM     11  N   UNL A   1      51.108  19.500  38.987  1.00  0.00    -0.297 N 
ATOM     12  N   UNL A   1      49.151  19.766  37.744  1.00  0.00    -0.184 NA
ATOM     13  C   UNL A   1      50.486  19.952  37.862  1.00  0.00     0.203 C 
ATOM     14  H   UNL A   1      52.078  19.653  39.046  1.00  0.00     0.172 HD
ATOM     15  S   UNL A   1      51.409  20.732  36.701  1.00  0.00    -0.038 S 
BRANCH   7  16
ATOM     16  C   UNL A   1      47.144  17.963  41.640  1.00  0.00    -0.003 A 
ATOM     17  C   UNL A   1      43.882  18.722  43.387  1.00  0.00     0.065 C 
ATOM     18  C   UNL A   1      45.092  18.257  42.662  1.00  0.00     0.020 A 
ATOM     19  C   UNL A   1      46.353  18.827  42.476  1.00  0.00     0.031 A 
ATOM     20  N   UNL A   1      45.132  17.023  42.062  1.00  0.00    -0.318 N 
ATOM     21  C   UNL A   1      46.227  17.023  41.237  1.00  0.00     0.027 A 
ATOM     22  C   UNL A   1      46.131  16.185  40.056  1.00  0.00     0.065 C 
BRANCH  20  23
ATOM     23  C   UNL A   1      44.122  16.031  41.932  1.00  0.00     0.046 A 
ATOM     24  C   UNL A   1      43.174  16.167  40.901  1.00  0.00     0.026 A 
ATOM     25  C   UNL A   1      43.864  15.196  43.017  1.00  0.00     0.036 A 
ATOM     26  C   UNL A   1      41.977  15.452  40.953  1.00  0.00     0.003 A 
ATOM     27  C   UNL A   1      42.684  14.446  43.045  1.00  0.00    -0.001 A 
ATOM     28  C   UNL A   1      41.737  14.583  42.019  1.00  0.00     0.010 A 
BRANCH  27  29
ATOM     29  C   UNL A   1      42.398  13.538  44.178  1.00  0.00     0.072 C 
ATOM     30  O   UNL A   1      42.904  13.602  45.281  1.00  0.00    -0.545 OA
ATOM     31  O   UNL A   1      41.463  12.630  43.851  1.00  0.00    -0.545 OA
ENDBRANCH  27  29
ENDBRANCH  20  23
ENDBRANCH   7  16
ENDBRANCH   5   6
ENDBRANCH   4   5
ENDBRANCH   3   4
ENDBRANCH   2   3
ENDBRANCH   1   2
BRANCH   1  32
ATOM     32  C   UNL A   1      47.581  22.764  35.277  1.00  0.00     0.261 C 
BRANCH  32  33
ATOM     33  O   UNL A   1      48.167  24.053  34.598  1.00  0.00    -0.460 OA
BRANCH  33  34
ATOM     34  C   UNL A   1      47.508  25.314  34.647  1.00  0.00     0.338 C 
ATOM     35  O   UNL A   1      47.683  25.978  35.673  1.00  0.00    -0.246 OA
BRANCH  34  36
ATOM     36  C   UNL A   1      46.521  25.986  33.404  1.00  0.00     0.060 A 
ATOM     37  C   UNL A   1      45.149  25.735  33.409  1.00  0.00     0.016 A 
ATOM     38  C   UNL A   1      46.731  26.755  32.218  1.00  0.00     0.016 A 
ATOM     39  C   UNL A   1      44.137  26.167  32.287  1.00  0.00     0.010 A 
ATOM     40  C   UNL A   1      45.618  27.307  31.112  1.00  0.00     0.010 A 
ATOM     41  C   UNL A   1      44.211  27.041  31.048  1.00  0.00    -0.014 A 
BRANCH  41  42
ATOM     42  C   UNL A   1      42.729  27.972  30.328  1.00  0.00     0.031 A 
ATOM     43  C   UNL A   1      42.769  27.052  29.119  1.00  0.00     0.074 A 
ATOM     44  C   UNL A   1      41.845  29.398  30.251  1.00  0.00     0.049 A 
ATOM     45  N   UNL A   1      43.857  27.081  28.408  1.00  0.00    -0.248 NA
ATOM     46  C   UNL A   1      42.006  25.865  28.700  1.00  0.00     0.031 C 
ATOM     47  C   UNL A   1      40.783  29.562  31.878  1.00  0.00     0.029 A 
ATOM     48  N   UNL A   1      40.762  30.614  29.048  1.00  0.00    -0.354 N 
ATOM     49  C   UNL A   1      43.492  26.770  27.163  1.00  0.00     0.074 A 
ATOM     50  C   UNL A   1      42.543  25.690  27.467  1.00  0.00     0.031 C 
ATOM     51  C   UNL A   1      39.448  30.533  31.712  1.00  0.00     0.029 A 
ATOM     52  C   UNL A   1      39.273  31.401  30.003  1.00  0.00     0.049 A 
ATOM     53  H   UNL A   1      40.967  30.783  28.100  1.00  0.00     0.167 HD
ATOM     54  C   UNL A   1      43.315  28.012  26.588  1.00  0.00     0.037 A 
ATOM     55  C   UNL A   1      37.875  31.860  29.615  1.00  0.00     0.037 A 
ATOM     56  C   UNL A   1      41.834  28.241  26.653  1.00  0.00     0.049 A 
ATOM     57  C   UNL A   1      37.427  30.683  28.726  1.00  0.00     0.074 A 
ATOM     58  C   UNL A   1      40.663  27.481  26.462  1.00  0.00     0.029 A 
ATOM     59  N   UNL A   1      41.445  29.074  27.637  1.00  0.00    -0.354 N 
ATOM     60  N   UNL A   1      38.323  29.914  28.219  1.00  0.00    -0.248 NA
ATOM     61  C   UNL A   1      36.437  29.771  29.360  1.00  0.00     0.031 C 
ATOM     62  C   UNL A   1      39.849  27.587  27.674  1.00  0.00     0.029 A 
ATOM     63  C   UNL A   1      40.435  28.542  28.519  1.00  0.00     0.049 A 
ATOM     64  H   UNL A   1      41.820  29.977  27.746  1.00  0.00     0.167 HD
ATOM     65  C   UNL A   1      38.624  29.212  29.442  1.00  0.00     0.074 A 
ATOM     66  C   UNL A   1      37.303  28.956  29.980  1.00  0.00     0.031 C 
ATOM     67  C   UNL A   1      39.925  29.437  30.020  1.00  0.00     0.037 A 
BRANCH  54  68
ATOM     68  C   UNL A   1      44.650  28.978  27.177  1.00  0.00     0.058 A 
ATOM     69  C   UNL A   1      44.644  30.346  26.865  1.00  0.00     0.135 A 
ATOM     70  C   UNL A   1      46.014  28.576  27.441  1.00  0.00     0.135 A 
ATOM     71  F   UNL A   1      43.488  30.906  26.487  1.00  0.00    -0.206 F 
ATOM     72  C   UNL A   1      45.813  31.185  26.840  1.00  0.00     0.059 A 
ATOM     73  C   UNL A   1      47.205  29.354  27.374  1.00  0.00     0.059 A 
ATOM     74  F   UNL A   1      46.314  27.318  27.657  1.00  0.00    -0.206 F 
ATOM     75  C   UNL A   1      47.095  30.688  27.097  1.00  0.00     0.060 A 
BRANCH  75  76
ATOM     76  S   UNL A   1      48.560  31.766  27.102  1.00  0.00     0.124 S 
ATOM     77  O   UNL A   1      49.609  30.894  26.581  1.00  0.00    -0.237 OA
ATOM     78  O   UNL A   1      48.136  32.835  26.204  1.00  0.00    -0.237 OA
ATOM     79  O   UNL A   1      48.732  32.149  28.501  1.00  0.00    -0.744 OA
ENDBRANCH  75  76
ENDBRANCH  54  68
BRANCH  55  80
ATOM     80  C   UNL A   1      36.319  32.434  30.147  1.00  0.00     0.058 A 
ATOM     81  C   UNL A   1      36.039  32.647  31.556  1.00  0.00     0.135 A 
ATOM     82  C   UNL A   1      35.455  33.262  29.366  1.00  0.00     0.135 A 
ATOM     83  F   UNL A   1      36.736  31.959  32.476  1.00  0.00    -0.206 F 
ATOM     84  C   UNL A   1      35.084  33.604  32.109  1.00  0.00     0.059 A 
ATOM     85  C   UNL A   1      34.531  34.255  29.899  1.00  0.00     0.059 A 
ATOM     86  F   UNL A   1      35.594  33.271  28.034  1.00  0.00    -0.206 F 
ATOM     87  C   UNL A   1      34.360  34.445  31.271  1.00  0.00     0.060 A 
BRANCH  87  88
ATOM     88  S   UNL A   1      33.356  35.870  31.944  1.00  0.00     0.124 S 
ATOM     89  O   UNL A   1      34.181  36.376  33.036  1.00  0.00    -0.237 OA
ATOM     90  O   UNL A   1      33.231  36.760  30.793  1.00  0.00    -0.237 OA
ATOM     91  O   UNL A   1      32.104  35.240  32.358  1.00  0.00    -0.744 OA
ENDBRANCH  87  88
ENDBRANCH  55  80
BRANCH  67  92
ATOM     92  C   UNL A   1      41.166  31.192  30.668  1.00  0.00     0.058 A 
ATOM     93  C   UNL A   1      41.065  32.479  31.474  1.00  0.00     0.135 A 
ATOM     94  C   UNL A   1      42.696  31.530  30.019  1.00  0.00     0.135 A 
ATOM     95  F   UNL A   1      40.043  32.743  32.313  1.00  0.00    -0.206 F 
ATOM     96  C   UNL A   1      42.027  33.627  31.512  1.00  0.00     0.059 A 
ATOM     97  C   UNL A   1      43.594  32.618  30.085  1.00  0.00     0.059 A 
ATOM     98  F   UNL A   1      43.238  30.709  29.064  1.00  0.00    -0.206 F 
ATOM     99  C   UNL A   1      43.242  33.697  30.820  1.00  0.00     0.060 A 
BRANCH  99 100
ATOM    100  S   UNL A   1      44.363  35.134  30.864  1.00  0.00     0.124 S 
ATOM    101  O   UNL A   1      45.670  34.525  30.633  1.00  0.00    -0.237 OA
ATOM    102  O   UNL A   1      43.851  35.958  29.776  1.00  0.00    -0.237 OA
ATOM    103  O   UNL A   1      44.187  35.689  32.206  1.00  0.00    -0.744 OA
ENDBRANCH  99 100
ENDBRANCH  67  92
ENDBRANCH  41  42
ENDBRANCH  34  36
ENDBRANCH  33  34
ENDBRANCH  32  33
ENDBRANCH   1  32
TORSDOF 19
ENDMDL
