MODEL 1
REMARK VINA RESULT:     -10.8      0.000      0.000
REMARK SMILES Cc1c(C#N)c2ccccc2n1CC(=O)N1CC[C@H](O)C[C@@H]1C(=O)OCCOCCOC(=O)c1ccc(-c2c3nc(c(-c4c(F)cc(S(=O)(=O)[O-])cc4F)c4ccc([nH]4)c(-c4c(F)cc(S(=O)(=O)[O-])cc4F)c4nc(c(-c5c(F)cc(S(=O)(=O)[O-])cc5F)c5ccc2[nH]5)C=C4)C=C3)cc1
REMARK SMILES IDX 27 1 26 2 25 3 23 4 24 5 22 6 16 7 17 8 18 9 21 10 19 11
REMARK SMILES IDX 14 12 15 13 13 14 12 15 1 16 2 17 3 18 6 19 11 20 7 21 10 22
REMARK SMILES IDX 8 23 9 24 4 25 5 26 20 27 28 29 29 30 30 31 31 32 32 33
REMARK SMILES IDX 33 34 34 35 35 36 99 37 36 38 98 39 37 40 38 41 39 42 92 43
REMARK SMILES IDX 40 44 97 45 91 46 93 47 41 48 96 49 90 50 89 51 42 53 76 54
REMARK SMILES IDX 55 55 75 56 56 57 59 58 74 59 94 60 57 61 58 62 73 64 95 65
REMARK SMILES IDX 60 66 43 67 44 68 53 69 45 70 46 71 52 72 54 73 47 74 48 75
REMARK SMILES IDX 49 76 50 77 51 78 77 79 78 80 87 81 79 82 80 83 86 84 88 85
REMARK SMILES IDX 81 86 82 87 83 88 84 89 85 90 61 91 62 92 71 93 63 94 64 95
REMARK SMILES IDX 70 96 72 97 65 98 66 99 67 100 68 101 69 102
REMARK H PARENT 20 28 93 52 59 63
REMARK Flexibility Score: inf
ROOT
ATOM      1  C   UNL A   1      31.806  27.842  27.461  1.00  0.00     0.202 C 
ENDROOT
BRANCH   1   2
ATOM      2  C   UNL A   1      31.737  26.887  26.263  1.00  0.00     0.261 C 
BRANCH   2   3
ATOM      3  O   UNL A   1      32.985  26.228  25.993  1.00  0.00    -0.462 OA
BRANCH   3   4
ATOM      4  C   UNL A   1      32.942  25.370  24.933  1.00  0.00     0.329 C 
ATOM      5  O   UNL A   1      32.812  25.717  23.764  1.00  0.00    -0.250 OA
BRANCH   4   6
ATOM      6  C   UNL A   1      32.906  23.894  25.363  1.00  0.00     0.197 C 
ATOM      7  N   UNL A   1      34.145  23.306  24.866  1.00  0.00    -0.327 N 
ATOM      8  C   UNL A   1      34.112  22.915  23.454  1.00  0.00     0.123 C 
ATOM      9  C   UNL A   1      33.000  21.908  23.197  1.00  0.00     0.053 C 
ATOM     10  C   UNL A   1      31.684  23.026  25.057  1.00  0.00     0.069 C 
ATOM     11  C   UNL A   1      31.646  22.414  23.660  1.00  0.00     0.118 C 
BRANCH   7  12
ATOM     12  C   UNL A   1      35.233  23.334  25.728  1.00  0.00     0.243 C 
ATOM     13  O   UNL A   1      35.061  23.116  26.936  1.00  0.00    -0.273 OA
BRANCH  12  14
ATOM     14  C   UNL A   1      36.596  23.818  25.265  1.00  0.00     0.222 C 
BRANCH  14  15
ATOM     15  N   UNL A   1      37.741  23.184  25.892  1.00  0.00    -0.334 N 
ATOM     16  C   UNL A   1      37.520  20.989  24.656  1.00  0.00     0.066 C 
ATOM     17  C   UNL A   1      38.189  21.901  25.628  1.00  0.00     0.034 A 
ATOM     18  C   UNL A   1      39.383  21.749  26.315  1.00  0.00     0.080 A 
ATOM     19  C   UNL A   1      39.684  22.970  26.982  1.00  0.00     0.018 A 
ATOM     20  C   UNL A   1      38.647  23.859  26.692  1.00  0.00     0.050 A 
ATOM     21  C   UNL A   1      40.771  23.427  27.757  1.00  0.00     0.012 A 
ATOM     22  C   UNL A   1      38.675  25.195  27.125  1.00  0.00     0.027 A 
ATOM     23  C   UNL A   1      40.807  24.757  28.184  1.00  0.00     0.001 A 
ATOM     24  C   UNL A   1      39.780  25.630  27.853  1.00  0.00     0.002 A 
BRANCH  18  25
ATOM     25  C   UNL A   1      40.235  20.596  26.238  1.00  0.00     0.102 C 
ATOM     26  N   UNL A   1      40.929  19.674  26.233  1.00  0.00    -0.192 NA
ENDBRANCH  18  25
ENDBRANCH  14  15
ENDBRANCH  12  14
ENDBRANCH   7  12
BRANCH  11  27
ATOM     27  O   UNL A   1      31.110  23.311  22.703  1.00  0.00    -0.393 OA
ATOM     28  H   UNL A   1      31.834  23.763  22.242  1.00  0.00     0.210 HD
ENDBRANCH  11  27
ENDBRANCH   4   6
ENDBRANCH   3   4
ENDBRANCH   2   3
ENDBRANCH   1   2
BRANCH   1  29
ATOM     29  O   UNL A   1      31.229  29.140  27.350  1.00  0.00    -0.374 OA
BRANCH  29  30
ATOM     30  C   UNL A   1      32.028  30.202  26.829  1.00  0.00     0.202 C 
BRANCH  30  31
ATOM     31  C   UNL A   1      33.503  29.939  26.471  1.00  0.00     0.261 C 
BRANCH  31  32
ATOM     32  O   UNL A   1      34.330  29.892  27.640  1.00  0.00    -0.460 OA
BRANCH  32  33
ATOM     33  C   UNL A   1      34.986  31.045  27.944  1.00  0.00     0.338 C 
ATOM     34  O   UNL A   1      34.508  32.066  28.401  1.00  0.00    -0.246 OA
BRANCH  33  35
ATOM     35  C   UNL A   1      36.419  30.679  28.015  1.00  0.00     0.060 A 
ATOM     36  C   UNL A   1      36.861  29.394  27.694  1.00  0.00     0.016 A 
ATOM     37  C   UNL A   1      37.252  31.572  28.707  1.00  0.00     0.016 A 
ATOM     38  C   UNL A   1      38.117  28.984  28.141  1.00  0.00     0.010 A 
ATOM     39  C   UNL A   1      38.492  31.147  29.179  1.00  0.00     0.010 A 
ATOM     40  C   UNL A   1      38.915  29.842  28.926  1.00  0.00    -0.014 A 
BRANCH  40  41
ATOM     41  C   UNL A   1      40.295  29.433  29.230  1.00  0.00     0.031 A 
ATOM     42  C   UNL A   1      40.521  29.323  30.701  1.00  0.00     0.074 A 
ATOM     43  C   UNL A   1      41.255  29.032  28.363  1.00  0.00     0.049 A 
ATOM     44  N   UNL A   1      41.285  30.063  31.433  1.00  0.00    -0.248 NA
ATOM     45  C   UNL A   1      39.662  28.407  31.469  1.00  0.00     0.031 C 
ATOM     46  C   UNL A   1      41.153  28.818  26.919  1.00  0.00     0.029 A 
ATOM     47  N   UNL A   1      42.545  28.647  28.624  1.00  0.00    -0.354 N 
ATOM     48  C   UNL A   1      41.170  29.566  32.729  1.00  0.00     0.074 A 
ATOM     49  C   UNL A   1      40.038  28.677  32.719  1.00  0.00     0.031 C 
ATOM     50  C   UNL A   1      42.238  28.131  26.485  1.00  0.00     0.029 A 
ATOM     51  C   UNL A   1      43.178  27.964  27.583  1.00  0.00     0.049 A 
ATOM     52  H   UNL A   1      42.992  28.837  29.480  1.00  0.00     0.167 HD
ATOM     53  C   UNL A   1      42.150  29.767  33.652  1.00  0.00     0.037 A 
ATOM     54  C   UNL A   1      44.365  27.290  27.621  1.00  0.00     0.037 A 
ATOM     55  C   UNL A   1      43.035  30.826  33.241  1.00  0.00     0.049 A 
ATOM     56  C   UNL A   1      45.139  27.831  28.768  1.00  0.00     0.074 A 
ATOM     57  C   UNL A   1      42.878  32.169  32.959  1.00  0.00     0.029 A 
ATOM     58  N   UNL A   1      44.253  30.474  32.709  1.00  0.00    -0.354 N 
ATOM     59  N   UNL A   1      45.601  29.050  28.816  1.00  0.00    -0.248 NA
ATOM     60  C   UNL A   1      44.979  27.170  30.052  1.00  0.00     0.031 C 
ATOM     61  C   UNL A   1      43.749  32.416  31.860  1.00  0.00     0.029 A 
ATOM     62  C   UNL A   1      44.441  31.238  31.586  1.00  0.00     0.049 A 
ATOM     63  H   UNL A   1      44.873  29.799  33.067  1.00  0.00     0.167 HD
ATOM     64  C   UNL A   1      45.351  29.464  30.115  1.00  0.00     0.074 A 
ATOM     65  C   UNL A   1      45.024  28.241  30.848  1.00  0.00     0.031 C 
ATOM     66  C   UNL A   1      45.155  30.782  30.414  1.00  0.00     0.037 A 
BRANCH  53  67
ATOM     67  C   UNL A   1      42.539  28.773  34.723  1.00  0.00     0.058 A 
ATOM     68  C   UNL A   1      42.707  29.233  36.046  1.00  0.00     0.135 A 
ATOM     69  C   UNL A   1      43.049  27.483  34.459  1.00  0.00     0.135 A 
ATOM     70  F   UNL A   1      42.248  30.439  36.417  1.00  0.00    -0.206 F 
ATOM     71  C   UNL A   1      43.428  28.516  37.001  1.00  0.00     0.059 A 
ATOM     72  C   UNL A   1      43.726  26.729  35.411  1.00  0.00     0.059 A 
ATOM     73  F   UNL A   1      43.007  26.928  33.242  1.00  0.00    -0.206 F 
ATOM     74  C   UNL A   1      43.954  27.274  36.663  1.00  0.00     0.060 A 
BRANCH  74  75
ATOM     75  S   UNL A   1      44.996  26.410  37.850  1.00  0.00     0.124 S 
ATOM     76  O   UNL A   1      44.653  25.019  37.578  1.00  0.00    -0.237 OA
ATOM     77  O   UNL A   1      46.330  26.835  37.441  1.00  0.00    -0.237 OA
ATOM     78  O   UNL A   1      44.543  26.933  39.136  1.00  0.00    -0.744 OA
ENDBRANCH  74  75
ENDBRANCH  53  67
BRANCH  54  79
ATOM     79  C   UNL A   1      44.720  25.979  26.986  1.00  0.00     0.058 A 
ATOM     80  C   UNL A   1      44.362  24.740  27.561  1.00  0.00     0.135 A 
ATOM     81  C   UNL A   1      45.158  25.921  25.649  1.00  0.00     0.135 A 
ATOM     82  F   UNL A   1      43.903  24.689  28.821  1.00  0.00    -0.206 F 
ATOM     83  C   UNL A   1      44.399  23.532  26.843  1.00  0.00     0.059 A 
ATOM     84  C   UNL A   1      45.208  24.733  24.917  1.00  0.00     0.059 A 
ATOM     85  F   UNL A   1      45.466  27.040  24.977  1.00  0.00    -0.206 F 
ATOM     86  C   UNL A   1      44.807  23.542  25.510  1.00  0.00     0.060 A 
BRANCH  86  87
ATOM     87  S   UNL A   1      44.718  22.025  24.522  1.00  0.00     0.124 S 
ATOM     88  O   UNL A   1      43.607  21.319  25.147  1.00  0.00    -0.237 OA
ATOM     89  O   UNL A   1      44.471  22.543  23.180  1.00  0.00    -0.237 OA
ATOM     90  O   UNL A   1      46.032  21.416  24.718  1.00  0.00    -0.744 OA
ENDBRANCH  86  87
ENDBRANCH  54  79
BRANCH  66  91
ATOM     91  C   UNL A   1      45.497  31.827  29.381  1.00  0.00     0.058 A 
ATOM     92  C   UNL A   1      46.787  32.337  29.147  1.00  0.00     0.135 A 
ATOM     93  C   UNL A   1      44.493  32.199  28.472  1.00  0.00     0.135 A 
ATOM     94  F   UNL A   1      47.833  31.942  29.889  1.00  0.00    -0.206 F 
ATOM     95  C   UNL A   1      47.054  33.207  28.085  1.00  0.00     0.059 A 
ATOM     96  C   UNL A   1      44.746  33.028  27.382  1.00  0.00     0.059 A 
ATOM     97  F   UNL A   1      43.251  31.704  28.604  1.00  0.00    -0.206 F 
ATOM     98  C   UNL A   1      46.028  33.541  27.203  1.00  0.00     0.060 A 
BRANCH  98  99
ATOM     99  S   UNL A   1      46.392  34.587  25.774  1.00  0.00     0.124 S 
ATOM    100  O   UNL A   1      45.405  34.128  24.803  1.00  0.00    -0.237 OA
ATOM    101  O   UNL A   1      46.176  35.934  26.293  1.00  0.00    -0.237 OA
ATOM    102  O   UNL A   1      47.780  34.258  25.458  1.00  0.00    -0.744 OA
ENDBRANCH  98  99
ENDBRANCH  66  91
ENDBRANCH  40  41
ENDBRANCH  33  35
ENDBRANCH  32  33
ENDBRANCH  31  32
ENDBRANCH  30  31
ENDBRANCH  29  30
ENDBRANCH   1  29
TORSDOF 22
ENDMDL
MODEL 2
REMARK VINA RESULT:     -10.8      1.914      3.461
REMARK SMILES Cc1c(C#N)c2ccccc2n1CC(=O)N1CC[C@H](O)C[C@@H]1C(=O)OCCOCCOC(=O)c1ccc(-c2c3nc(c(-c4c(F)cc(S(=O)(=O)[O-])cc4F)c4ccc([nH]4)c(-c4c(F)cc(S(=O)(=O)[O-])cc4F)c4nc(c(-c5c(F)cc(S(=O)(=O)[O-])cc5F)c5ccc2[nH]5)C=C4)C=C3)cc1
REMARK SMILES IDX 27 1 26 2 25 3 23 4 24 5 22 6 16 7 17 8 18 9 21 10 19 11
REMARK SMILES IDX 14 12 15 13 13 14 12 15 1 16 2 17 3 18 6 19 11 20 7 21 10 22
REMARK SMILES IDX 8 23 9 24 4 25 5 26 20 27 28 29 29 30 30 31 31 32 32 33
REMARK SMILES IDX 33 34 34 35 35 36 99 37 36 38 98 39 37 40 38 41 39 42 92 43
REMARK SMILES IDX 40 44 97 45 91 46 93 47 41 48 96 49 90 50 89 51 42 53 76 54
REMARK SMILES IDX 55 55 75 56 56 57 59 58 74 59 94 60 57 61 58 62 73 64 95 65
REMARK SMILES IDX 60 66 43 67 44 68 53 69 45 70 46 71 52 72 54 73 47 74 48 75
REMARK SMILES IDX 49 76 50 77 51 78 77 79 78 80 87 81 79 82 80 83 86 84 88 85
REMARK SMILES IDX 81 86 82 87 83 88 84 89 85 90 61 91 62 92 71 93 63 94 64 95
REMARK SMILES IDX 70 96 72 97 65 98 66 99 67 100 68 101 69 102
REMARK H PARENT 20 28 93 52 59 63
REMARK Flexibility Score: inf
ROOT
ATOM      1  C   UNL A   1      31.102  29.715  24.372  1.00  0.00     0.202 C 
ENDROOT
BRANCH   1   2
ATOM      2  C   UNL A   1      31.365  28.950  23.070  1.00  0.00     0.261 C 
BRANCH   2   3
ATOM      3  O   UNL A   1      30.240  28.165  22.640  1.00  0.00    -0.462 OA
BRANCH   3   4
ATOM      4  C   UNL A   1      29.857  27.209  23.534  1.00  0.00     0.329 C 
ATOM      5  O   UNL A   1      28.700  27.020  23.895  1.00  0.00    -0.250 OA
BRANCH   4   6
ATOM      6  C   UNL A   1      31.050  26.486  24.181  1.00  0.00     0.197 C 
ATOM      7  N   UNL A   1      31.242  25.265  23.406  1.00  0.00    -0.327 N 
ATOM      8  C   UNL A   1      30.350  24.162  23.773  1.00  0.00     0.123 C 
ATOM      9  C   UNL A   1      30.519  23.795  25.240  1.00  0.00     0.053 C 
ATOM     10  C   UNL A   1      31.078  26.230  25.688  1.00  0.00     0.069 C 
ATOM     11  C   UNL A   1      30.326  24.989  26.158  1.00  0.00     0.118 C 
BRANCH   7  12
ATOM     12  C   UNL A   1      32.116  25.346  22.330  1.00  0.00     0.243 C 
ATOM     13  O   UNL A   1      31.711  25.787  21.246  1.00  0.00    -0.273 OA
BRANCH  12  14
ATOM     14  C   UNL A   1      33.503  24.729  22.389  1.00  0.00     0.222 C 
BRANCH  14  15
ATOM     15  N   UNL A   1      33.689  23.681  23.376  1.00  0.00    -0.334 N 
ATOM     16  C   UNL A   1      34.600  25.196  25.184  1.00  0.00     0.066 C 
ATOM     17  C   UNL A   1      34.179  23.866  24.657  1.00  0.00     0.034 A 
ATOM     18  C   UNL A   1      34.049  22.650  25.311  1.00  0.00     0.080 A 
ATOM     19  C   UNL A   1      33.441  21.718  24.423  1.00  0.00     0.018 A 
ATOM     20  C   UNL A   1      33.213  22.390  23.220  1.00  0.00     0.050 A 
ATOM     21  C   UNL A   1      33.006  20.382  24.545  1.00  0.00     0.012 A 
ATOM     22  C   UNL A   1      32.539  21.782  22.149  1.00  0.00     0.027 A 
ATOM     23  C   UNL A   1      32.329  19.774  23.485  1.00  0.00     0.001 A 
ATOM     24  C   UNL A   1      32.084  20.475  22.312  1.00  0.00     0.002 A 
BRANCH  18  25
ATOM     25  C   UNL A   1      34.348  22.426  26.697  1.00  0.00     0.102 C 
ATOM     26  N   UNL A   1      34.563  22.297  27.823  1.00  0.00    -0.192 NA
ENDBRANCH  18  25
ENDBRANCH  14  15
ENDBRANCH  12  14
ENDBRANCH   7  12
BRANCH  11  27
ATOM     27  O   UNL A   1      28.944  25.243  26.340  1.00  0.00    -0.393 OA
ATOM     28  H   UNL A   1      28.817  25.796  27.126  1.00  0.00     0.210 HD
ENDBRANCH  11  27
ENDBRANCH   4   6
ENDBRANCH   3   4
ENDBRANCH   2   3
ENDBRANCH   1   2
BRANCH   1  29
ATOM     29  O   UNL A   1      32.104  29.726  25.386  1.00  0.00    -0.374 OA
BRANCH  29  30
ATOM     30  C   UNL A   1      31.799  30.332  26.643  1.00  0.00     0.202 C 
BRANCH  30  31
ATOM     31  C   UNL A   1      32.748  31.396  27.225  1.00  0.00     0.261 C 
BRANCH  31  32
ATOM     32  O   UNL A   1      34.013  30.832  27.595  1.00  0.00    -0.460 OA
BRANCH  32  33
ATOM     33  C   UNL A   1      34.785  31.600  28.410  1.00  0.00     0.338 C 
ATOM     34  O   UNL A   1      34.407  32.342  29.299  1.00  0.00    -0.246 OA
BRANCH  33  35
ATOM     35  C   UNL A   1      36.153  31.047  28.297  1.00  0.00     0.060 A 
ATOM     36  C   UNL A   1      36.374  29.703  27.994  1.00  0.00     0.016 A 
ATOM     37  C   UNL A   1      37.188  31.848  28.807  1.00  0.00     0.016 A 
ATOM     38  C   UNL A   1      37.620  29.145  28.281  1.00  0.00     0.010 A 
ATOM     39  C   UNL A   1      38.420  31.279  29.121  1.00  0.00     0.010 A 
ATOM     40  C   UNL A   1      38.630  29.918  28.890  1.00  0.00    -0.014 A 
BRANCH  40  41
ATOM     41  C   UNL A   1      39.977  29.340  29.017  1.00  0.00     0.031 A 
ATOM     42  C   UNL A   1      40.365  29.169  30.447  1.00  0.00     0.074 A 
ATOM     43  C   UNL A   1      40.767  28.847  28.035  1.00  0.00     0.049 A 
ATOM     44  N   UNL A   1      41.297  29.794  31.086  1.00  0.00    -0.248 NA
ATOM     45  C   UNL A   1      39.500  28.345  31.308  1.00  0.00     0.031 C 
ATOM     46  C   UNL A   1      40.464  28.681  26.613  1.00  0.00     0.029 A 
ATOM     47  N   UNL A   1      42.023  28.303  28.130  1.00  0.00    -0.354 N 
ATOM     48  C   UNL A   1      41.281  29.284  32.382  1.00  0.00     0.074 A 
ATOM     49  C   UNL A   1      40.056  28.539  32.505  1.00  0.00     0.031 C 
ATOM     50  C   UNL A   1      41.397  27.878  26.041  1.00  0.00     0.029 A 
ATOM     51  C   UNL A   1      42.436  27.575  27.013  1.00  0.00     0.049 A 
ATOM     52  H   UNL A   1      42.590  28.419  28.926  1.00  0.00     0.167 HD
ATOM     53  C   UNL A   1      42.384  29.344  33.177  1.00  0.00     0.037 A 
ATOM     54  C   UNL A   1      43.527  26.762  26.898  1.00  0.00     0.037 A 
ATOM     55  C   UNL A   1      43.335  30.299  32.669  1.00  0.00     0.049 A 
ATOM     56  C   UNL A   1      44.495  27.179  27.945  1.00  0.00     0.074 A 
ATOM     57  C   UNL A   1      43.310  31.657  32.421  1.00  0.00     0.029 A 
ATOM     58  N   UNL A   1      44.426  29.815  31.987  1.00  0.00    -0.354 N 
ATOM     59  N   UNL A   1      45.106  28.332  27.945  1.00  0.00    -0.248 NA
ATOM     60  C   UNL A   1      44.414  26.511  29.233  1.00  0.00     0.031 C 
ATOM     61  C   UNL A   1      44.064  31.823  31.224  1.00  0.00     0.029 A 
ATOM     62  C   UNL A   1      44.568  30.577  30.856  1.00  0.00     0.049 A 
ATOM     63  H   UNL A   1      44.998  29.062  32.260  1.00  0.00     0.167 HD
ATOM     64  C   UNL A   1      45.068  28.742  29.269  1.00  0.00     0.074 A 
ATOM     65  C   UNL A   1      44.686  27.550  30.026  1.00  0.00     0.031 C 
ATOM     66  C   UNL A   1      45.073  30.066  29.601  1.00  0.00     0.037 A 
BRANCH  53  67
ATOM     67  C   UNL A   1      42.776  28.285  34.183  1.00  0.00     0.058 A 
ATOM     68  C   UNL A   1      42.925  28.658  35.537  1.00  0.00     0.135 A 
ATOM     69  C   UNL A   1      43.307  27.023  33.839  1.00  0.00     0.135 A 
ATOM     70  F   UNL A   1      42.445  29.830  35.982  1.00  0.00    -0.206 F 
ATOM     71  C   UNL A   1      43.646  27.888  36.449  1.00  0.00     0.059 A 
ATOM     72  C   UNL A   1      43.984  26.216  34.746  1.00  0.00     0.059 A 
ATOM     73  F   UNL A   1      43.284  26.551  32.587  1.00  0.00    -0.206 F 
ATOM     74  C   UNL A   1      44.193  26.679  36.034  1.00  0.00     0.060 A 
BRANCH  74  75
ATOM     75  S   UNL A   1      45.234  25.751  37.172  1.00  0.00     0.124 S 
ATOM     76  O   UNL A   1      45.757  24.705  36.300  1.00  0.00    -0.237 OA
ATOM     77  O   UNL A   1      46.190  26.767  37.598  1.00  0.00    -0.237 OA
ATOM     78  O   UNL A   1      44.296  25.308  38.200  1.00  0.00    -0.744 OA
ENDBRANCH  74  75
ENDBRANCH  53  67
BRANCH  54  79
ATOM     79  C   UNL A   1      43.639  25.433  26.212  1.00  0.00     0.058 A 
ATOM     80  C   UNL A   1      44.643  25.158  25.259  1.00  0.00     0.135 A 
ATOM     81  C   UNL A   1      42.944  24.310  26.700  1.00  0.00     0.135 A 
ATOM     82  F   UNL A   1      45.386  26.155  24.753  1.00  0.00    -0.206 F 
ATOM     83  C   UNL A   1      44.961  23.851  24.848  1.00  0.00     0.059 A 
ATOM     84  C   UNL A   1      43.238  23.003  26.304  1.00  0.00     0.059 A 
ATOM     85  F   UNL A   1      42.011  24.439  27.654  1.00  0.00    -0.206 F 
ATOM     86  C   UNL A   1      44.263  22.775  25.394  1.00  0.00     0.060 A 
BRANCH  86  87
ATOM     87  S   UNL A   1      44.755  21.077  24.995  1.00  0.00     0.124 S 
ATOM     88  O   UNL A   1      46.114  21.022  25.519  1.00  0.00    -0.237 OA
ATOM     89  O   UNL A   1      43.761  20.288  25.716  1.00  0.00    -0.237 OA
ATOM     90  O   UNL A   1      44.648  21.026  23.539  1.00  0.00    -0.744 OA
ENDBRANCH  86  87
ENDBRANCH  54  79
BRANCH  66  91
ATOM     91  C   UNL A   1      45.412  31.086  28.543  1.00  0.00     0.058 A 
ATOM     92  C   UNL A   1      44.527  31.539  27.546  1.00  0.00     0.135 A 
ATOM     93  C   UNL A   1      46.640  31.758  28.654  1.00  0.00     0.135 A 
ATOM     94  F   UNL A   1      43.287  31.040  27.443  1.00  0.00    -0.206 F 
ATOM     95  C   UNL A   1      44.866  32.582  26.679  1.00  0.00     0.059 A 
ATOM     96  C   UNL A   1      46.979  32.829  27.831  1.00  0.00     0.059 A 
ATOM     97  F   UNL A   1      47.509  31.414  29.619  1.00  0.00    -0.206 F 
ATOM     98  C   UNL A   1      46.093  33.227  26.834  1.00  0.00     0.060 A 
BRANCH  98  99
ATOM     99  S   UNL A   1      46.493  34.639  25.778  1.00  0.00     0.124 S 
ATOM    100  O   UNL A   1      47.880  34.366  25.421  1.00  0.00    -0.237 OA
ATOM    101  O   UNL A   1      45.532  34.512  24.687  1.00  0.00    -0.237 OA
ATOM    102  O   UNL A   1      46.288  35.788  26.657  1.00  0.00    -0.744 OA
ENDBRANCH  98  99
ENDBRANCH  66  91
ENDBRANCH  40  41
ENDBRANCH  33  35
ENDBRANCH  32  33
ENDBRANCH  31  32
ENDBRANCH  30  31
ENDBRANCH  29  30
ENDBRANCH   1  29
TORSDOF 22
ENDMDL
MODEL 3
REMARK VINA RESULT:     -10.6      1.842      3.920
REMARK SMILES Cc1c(C#N)c2ccccc2n1CC(=O)N1CC[C@H](O)C[C@@H]1C(=O)OCCOCCOC(=O)c1ccc(-c2c3nc(c(-c4c(F)cc(S(=O)(=O)[O-])cc4F)c4ccc([nH]4)c(-c4c(F)cc(S(=O)(=O)[O-])cc4F)c4nc(c(-c5c(F)cc(S(=O)(=O)[O-])cc5F)c5ccc2[nH]5)C=C4)C=C3)cc1
REMARK SMILES IDX 27 1 26 2 25 3 23 4 24 5 22 6 16 7 17 8 18 9 21 10 19 11
REMARK SMILES IDX 14 12 15 13 13 14 12 15 1 16 2 17 3 18 6 19 11 20 7 21 10 22
REMARK SMILES IDX 8 23 9 24 4 25 5 26 20 27 28 29 29 30 30 31 31 32 32 33
REMARK SMILES IDX 33 34 34 35 35 36 99 37 36 38 98 39 37 40 38 41 39 42 92 43
REMARK SMILES IDX 40 44 97 45 91 46 93 47 41 48 96 49 90 50 89 51 42 53 76 54
REMARK SMILES IDX 55 55 75 56 56 57 59 58 74 59 94 60 57 61 58 62 73 64 95 65
REMARK SMILES IDX 60 66 43 67 44 68 53 69 45 70 46 71 52 72 54 73 47 74 48 75
REMARK SMILES IDX 49 76 50 77 51 78 77 79 78 80 87 81 79 82 80 83 86 84 88 85
REMARK SMILES IDX 81 86 82 87 83 88 84 89 85 90 61 91 62 92 71 93 63 94 64 95
REMARK SMILES IDX 70 96 72 97 65 98 66 99 67 100 68 101 69 102
REMARK H PARENT 20 28 93 52 59 63
REMARK Flexibility Score: inf
ROOT
ATOM      1  C   UNL A   1      32.668  28.347  26.768  1.00  0.00     0.202 C 
ENDROOT
BRANCH   1   2
ATOM      2  C   UNL A   1      32.085  26.952  26.512  1.00  0.00     0.261 C 
BRANCH   2   3
ATOM      3  O   UNL A   1      33.039  26.036  25.952  1.00  0.00    -0.462 OA
BRANCH   3   4
ATOM      4  C   UNL A   1      32.792  24.727  26.250  1.00  0.00     0.329 C 
ATOM      5  O   UNL A   1      31.733  24.307  26.703  1.00  0.00    -0.250 OA
BRANCH   4   6
ATOM      6  C   UNL A   1      34.040  23.839  26.114  1.00  0.00     0.197 C 
ATOM      7  N   UNL A   1      33.837  23.050  24.904  1.00  0.00    -0.327 N 
ATOM      8  C   UNL A   1      32.991  21.867  25.082  1.00  0.00     0.123 C 
ATOM      9  C   UNL A   1      33.578  20.936  26.134  1.00  0.00     0.053 C 
ATOM     10  C   UNL A   1      34.519  22.989  27.292  1.00  0.00     0.069 C 
ATOM     11  C   UNL A   1      33.823  21.642  27.455  1.00  0.00     0.118 C 
BRANCH   7  12
ATOM     12  C   UNL A   1      34.325  23.592  23.723  1.00  0.00     0.243 C 
ATOM     13  O   UNL A   1      35.481  24.037  23.687  1.00  0.00    -0.273 OA
BRANCH  12  14
ATOM     14  C   UNL A   1      33.418  23.831  22.528  1.00  0.00     0.222 C 
BRANCH  14  15
ATOM     15  N   UNL A   1      32.446  24.898  22.673  1.00  0.00    -0.334 N 
ATOM     16  C   UNL A   1      30.528  23.400  23.359  1.00  0.00     0.066 C 
ATOM     17  C   UNL A   1      31.127  24.732  23.057  1.00  0.00     0.034 A 
ATOM     18  C   UNL A   1      30.598  26.003  23.221  1.00  0.00     0.080 A 
ATOM     19  C   UNL A   1      31.622  26.959  22.963  1.00  0.00     0.018 A 
ATOM     20  C   UNL A   1      32.774  26.243  22.634  1.00  0.00     0.050 A 
ATOM     21  C   UNL A   1      31.696  28.366  23.037  1.00  0.00     0.012 A 
ATOM     22  C   UNL A   1      34.003  26.883  22.406  1.00  0.00     0.027 A 
ATOM     23  C   UNL A   1      32.918  29.008  22.818  1.00  0.00     0.001 A 
ATOM     24  C   UNL A   1      34.057  28.270  22.526  1.00  0.00     0.002 A 
BRANCH  18  25
ATOM     25  C   UNL A   1      29.279  26.289  23.711  1.00  0.00     0.102 C 
ATOM     26  N   UNL A   1      28.241  26.566  24.130  1.00  0.00    -0.192 NA
ENDBRANCH  18  25
ENDBRANCH  14  15
ENDBRANCH  12  14
ENDBRANCH   7  12
BRANCH  11  27
ATOM     27  O   UNL A   1      32.608  21.757  28.177  1.00  0.00    -0.393 OA
ATOM     28  H   UNL A   1      31.891  21.346  27.670  1.00  0.00     0.210 HD
ENDBRANCH  11  27
ENDBRANCH   4   6
ENDBRANCH   3   4
ENDBRANCH   2   3
ENDBRANCH   1   2
BRANCH   1  29
ATOM     29  O   UNL A   1      31.783  29.451  26.937  1.00  0.00    -0.374 OA
BRANCH  29  30
ATOM     30  C   UNL A   1      32.192  30.735  26.467  1.00  0.00     0.202 C 
BRANCH  30  31
ATOM     31  C   UNL A   1      32.938  31.692  27.416  1.00  0.00     0.261 C 
BRANCH  31  32
ATOM     32  O   UNL A   1      34.199  31.151  27.829  1.00  0.00    -0.460 OA
BRANCH  32  33
ATOM     33  C   UNL A   1      35.005  32.000  28.522  1.00  0.00     0.338 C 
ATOM     34  O   UNL A   1      34.667  32.833  29.342  1.00  0.00    -0.246 OA
BRANCH  33  35
ATOM     35  C   UNL A   1      36.368  31.434  28.408  1.00  0.00     0.060 A 
ATOM     36  C   UNL A   1      36.588  30.159  27.885  1.00  0.00     0.016 A 
ATOM     37  C   UNL A   1      37.377  32.099  29.125  1.00  0.00     0.016 A 
ATOM     38  C   UNL A   1      37.799  29.521  28.154  1.00  0.00     0.010 A 
ATOM     39  C   UNL A   1      38.571  31.445  29.417  1.00  0.00     0.010 A 
ATOM     40  C   UNL A   1      38.774  30.142  28.961  1.00  0.00    -0.014 A 
BRANCH  40  41
ATOM     41  C   UNL A   1      40.097  29.509  29.076  1.00  0.00     0.031 A 
ATOM     42  C   UNL A   1      40.475  29.291  30.503  1.00  0.00     0.074 A 
ATOM     43  C   UNL A   1      40.870  29.007  28.084  1.00  0.00     0.049 A 
ATOM     44  N   UNL A   1      41.430  29.865  31.157  1.00  0.00    -0.248 NA
ATOM     45  C   UNL A   1      39.577  28.482  31.344  1.00  0.00     0.031 C 
ATOM     46  C   UNL A   1      40.563  28.886  26.659  1.00  0.00     0.029 A 
ATOM     47  N   UNL A   1      42.103  28.414  28.169  1.00  0.00    -0.354 N 
ATOM     48  C   UNL A   1      41.391  29.327  32.441  1.00  0.00     0.074 A 
ATOM     49  C   UNL A   1      40.138  28.627  32.545  1.00  0.00     0.031 C 
ATOM     50  C   UNL A   1      41.465  28.061  26.070  1.00  0.00     0.029 A 
ATOM     51  C   UNL A   1      42.490  27.695  27.036  1.00  0.00     0.049 A 
ATOM     52  H   UNL A   1      42.673  28.489  28.968  1.00  0.00     0.167 HD
ATOM     53  C   UNL A   1      42.494  29.326  33.239  1.00  0.00     0.037 A 
ATOM     54  C   UNL A   1      43.549  26.843  26.904  1.00  0.00     0.037 A 
ATOM     55  C   UNL A   1      43.483  30.254  32.753  1.00  0.00     0.049 A 
ATOM     56  C   UNL A   1      44.530  27.199  27.961  1.00  0.00     0.074 A 
ATOM     57  C   UNL A   1      43.511  31.618  32.535  1.00  0.00     0.029 A 
ATOM     58  N   UNL A   1      44.555  29.744  32.062  1.00  0.00    -0.354 N 
ATOM     59  N   UNL A   1      45.185  28.327  27.988  1.00  0.00    -0.248 NA
ATOM     60  C   UNL A   1      44.420  26.506  29.234  1.00  0.00     0.031 C 
ATOM     61  C   UNL A   1      44.273  31.782  31.344  1.00  0.00     0.029 A 
ATOM     62  C   UNL A   1      44.729  30.525  30.948  1.00  0.00     0.049 A 
ATOM     63  H   UNL A   1      45.097  28.964  32.318  1.00  0.00     0.167 HD
ATOM     64  C   UNL A   1      45.161  28.708  29.321  1.00  0.00     0.074 A 
ATOM     65  C   UNL A   1      44.732  27.515  30.050  1.00  0.00     0.031 C 
ATOM     66  C   UNL A   1      45.216  30.024  29.683  1.00  0.00     0.037 A 
BRANCH  53  67
ATOM     67  C   UNL A   1      42.842  28.231  34.221  1.00  0.00     0.058 A 
ATOM     68  C   UNL A   1      43.000  28.566  35.583  1.00  0.00     0.135 A 
ATOM     69  C   UNL A   1      43.328  26.958  33.849  1.00  0.00     0.135 A 
ATOM     70  F   UNL A   1      42.562  29.744  36.054  1.00  0.00    -0.206 F 
ATOM     71  C   UNL A   1      43.688  27.749  36.479  1.00  0.00     0.059 A 
ATOM     72  C   UNL A   1      43.972  26.106  34.739  1.00  0.00     0.059 A 
ATOM     73  F   UNL A   1      43.292  26.516  32.587  1.00  0.00    -0.206 F 
ATOM     74  C   UNL A   1      44.192  26.530  36.038  1.00  0.00     0.060 A 
BRANCH  74  75
ATOM     75  S   UNL A   1      45.194  25.539  37.157  1.00  0.00     0.124 S 
ATOM     76  O   UNL A   1      46.193  26.509  37.590  1.00  0.00    -0.237 OA
ATOM     77  O   UNL A   1      44.214  25.136  38.160  1.00  0.00    -0.237 OA
ATOM     78  O   UNL A   1      45.687  24.463  36.302  1.00  0.00    -0.744 OA
ENDBRANCH  74  75
ENDBRANCH  53  67
BRANCH  54  79
ATOM     79  C   UNL A   1      43.611  25.527  26.189  1.00  0.00     0.058 A 
ATOM     80  C   UNL A   1      44.592  25.243  25.214  1.00  0.00     0.135 A 
ATOM     81  C   UNL A   1      42.890  24.415  26.663  1.00  0.00     0.135 A 
ATOM     82  F   UNL A   1      45.355  26.228  24.717  1.00  0.00    -0.206 F 
ATOM     83  C   UNL A   1      44.864  23.936  24.770  1.00  0.00     0.059 A 
ATOM     84  C   UNL A   1      43.139  23.108  26.236  1.00  0.00     0.059 A 
ATOM     85  F   UNL A   1      41.976  24.551  27.635  1.00  0.00    -0.206 F 
ATOM     86  C   UNL A   1      44.142  22.870  25.304  1.00  0.00     0.060 A 
BRANCH  86  87
ATOM     87  S   UNL A   1      44.577  21.167  24.862  1.00  0.00     0.124 S 
ATOM     88  O   UNL A   1      43.472  20.410  25.438  1.00  0.00    -0.237 OA
ATOM     89  O   UNL A   1      44.619  21.225  23.404  1.00  0.00    -0.237 OA
ATOM     90  O   UNL A   1      45.871  20.969  25.511  1.00  0.00    -0.744 OA
ENDBRANCH  86  87
ENDBRANCH  54  79
BRANCH  66  91
ATOM     91  C   UNL A   1      45.596  31.053  28.648  1.00  0.00     0.058 A 
ATOM     92  C   UNL A   1      44.706  31.645  27.733  1.00  0.00     0.135 A 
ATOM     93  C   UNL A   1      46.895  31.586  28.705  1.00  0.00     0.135 A 
ATOM     94  F   UNL A   1      43.414  31.284  27.693  1.00  0.00    -0.206 F 
ATOM     95  C   UNL A   1      45.101  32.688  26.890  1.00  0.00     0.059 A 
ATOM     96  C   UNL A   1      47.296  32.654  27.906  1.00  0.00     0.059 A 
ATOM     97  F   UNL A   1      47.780  31.106  29.594  1.00  0.00    -0.206 F 
ATOM     98  C   UNL A   1      46.397  33.192  26.989  1.00  0.00     0.060 A 
BRANCH  98  99
ATOM     99  S   UNL A   1      46.880  34.604  25.969  1.00  0.00     0.124 S 
ATOM    100  O   UNL A   1      46.844  35.699  26.932  1.00  0.00    -0.237 OA
ATOM    101  O   UNL A   1      48.211  34.228  25.502  1.00  0.00    -0.237 OA
ATOM    102  O   UNL A   1      45.848  34.645  24.937  1.00  0.00    -0.744 OA
ENDBRANCH  98  99
ENDBRANCH  66  91
ENDBRANCH  40  41
ENDBRANCH  33  35
ENDBRANCH  32  33
ENDBRANCH  31  32
ENDBRANCH  30  31
ENDBRANCH  29  30
ENDBRANCH   1  29
TORSDOF 22
ENDMDL
