MODEL 1
REMARK VINA RESULT:      -9.1      0.000      0.000
REMARK SMILES O=C(C[C@@H](NC(=O)C1CCC1)c1ccc(Cl)cc1)OCCOCCOC(=O)c1ccc(-c2c3nc(c(-c4c(F)cc(S(=O)(=O)[O-])cc4F)c4ccc([nH]4)c(-c4c(F)cc(S(=O)(=O)[O-])cc4F)c4nc(c(-c5c(F)cc(S(=O)(=O)[O-])cc5F)c5ccc2[nH]5)C=C4)C=C3)cc1
REMARK SMILES IDX 22 1 21 2 20 3 19 4 2 5 1 6 3 7 4 8 5 9 6 10 7 12 8 13 9 14
REMARK SMILES IDX 11 15 10 16 12 17 13 18 18 19 14 20 17 21 15 22 16 23 23 24
REMARK SMILES IDX 24 25 25 26 26 27 27 28 28 29 29 30 93 31 30 32 92 33 31 34
REMARK SMILES IDX 32 35 33 36 86 37 34 38 91 39 85 40 87 41 35 42 90 43 84 44
REMARK SMILES IDX 83 45 36 47 70 48 49 49 69 50 50 51 53 52 68 53 88 54 51 55
REMARK SMILES IDX 52 56 67 58 89 59 54 60 37 61 38 62 47 63 39 64 40 65 46 66
REMARK SMILES IDX 48 67 41 68 42 69 43 70 44 71 45 72 71 73 72 74 81 75 73 76
REMARK SMILES IDX 74 77 80 78 82 79 75 80 76 81 77 82 78 83 79 84 55 85 56 86
REMARK SMILES IDX 65 87 57 88 58 89 64 90 66 91 59 92 60 93 61 94 62 95 63 96
REMARK H PARENT 5 11 87 46 53 57
REMARK Flexibility Score: inf
ROOT
ATOM      1  O   UNL A   1      33.290  35.028  31.186  1.00  0.00    -0.374 OA
ENDROOT
BRANCH   1   2
ATOM      2  C   UNL A   1      33.791  34.703  32.474  1.00  0.00     0.202 C 
BRANCH   2   3
ATOM      3  C   UNL A   1      34.835  35.608  33.133  1.00  0.00     0.261 C 
BRANCH   3   4
ATOM      4  O   UNL A   1      36.070  35.014  33.553  1.00  0.00    -0.463 OA
BRANCH   4   5
ATOM      5  C   UNL A   1      36.189  33.884  34.276  1.00  0.00     0.308 C 
ATOM      6  O   UNL A   1      35.701  33.828  35.404  1.00  0.00    -0.252 OA
BRANCH   5   7
ATOM      7  C   UNL A   1      37.069  32.769  33.787  1.00  0.00     0.152 C 
BRANCH   7   8
ATOM      8  C   UNL A   1      38.173  32.312  34.740  1.00  0.00     0.123 C 
BRANCH   8   9
ATOM      9  N   UNL A   1      37.620  31.883  36.037  1.00  0.00    -0.348 N 
ATOM     10  C   UNL A   1      38.020  31.970  37.353  1.00  0.00     0.223 C 
ATOM     11  H   UNL A   1      36.756  31.423  35.940  1.00  0.00     0.164 HD
ATOM     12  O   UNL A   1      37.409  31.211  38.123  1.00  0.00    -0.275 OA
BRANCH  10  13
ATOM     13  C   UNL A   1      39.061  32.981  37.868  1.00  0.00     0.078 C 
ATOM     14  C   UNL A   1      38.736  34.500  37.639  1.00  0.00     0.013 C 
ATOM     15  C   UNL A   1      39.212  33.391  39.360  1.00  0.00     0.013 C 
ATOM     16  C   UNL A   1      39.650  34.779  38.845  1.00  0.00     0.002 C 
ENDBRANCH  10  13
ENDBRANCH   8   9
BRANCH   8  17
ATOM     17  C   UNL A   1      39.131  31.289  34.136  1.00  0.00    -0.025 A 
ATOM     18  C   UNL A   1      38.690  30.111  33.499  1.00  0.00     0.007 A 
ATOM     19  C   UNL A   1      40.516  31.483  34.265  1.00  0.00     0.007 A 
ATOM     20  C   UNL A   1      39.590  29.106  33.139  1.00  0.00     0.021 A 
ATOM     21  C   UNL A   1      41.414  30.465  33.936  1.00  0.00     0.021 A 
ATOM     22  C   UNL A   1      40.944  29.270  33.400  1.00  0.00     0.041 A 
ATOM     23  Cl  UNL A   1      42.033  27.973  33.104  1.00  0.00    -0.084 Cl
ENDBRANCH   8  17
ENDBRANCH   7   8
ENDBRANCH   5   7
ENDBRANCH   4   5
ENDBRANCH   3   4
ENDBRANCH   2   3
ENDBRANCH   1   2
BRANCH   1  24
ATOM     24  C   UNL A   1      33.972  34.519  30.045  1.00  0.00     0.202 C 
BRANCH  24  25
ATOM     25  C   UNL A   1      35.106  33.550  30.358  1.00  0.00     0.261 C 
BRANCH  25  26
ATOM     26  O   UNL A   1      34.640  32.197  30.278  1.00  0.00    -0.460 OA
BRANCH  26  27
ATOM     27  C   UNL A   1      34.740  31.623  29.058  1.00  0.00     0.338 C 
ATOM     28  O   UNL A   1      34.065  31.865  28.067  1.00  0.00    -0.246 OA
BRANCH  27  29
ATOM     29  C   UNL A   1      35.969  30.808  29.025  1.00  0.00     0.060 A 
ATOM     30  C   UNL A   1      36.372  30.175  30.211  1.00  0.00     0.016 A 
ATOM     31  C   UNL A   1      36.719  30.677  27.855  1.00  0.00     0.016 A 
ATOM     32  C   UNL A   1      37.570  29.473  30.251  1.00  0.00     0.010 A 
ATOM     33  C   UNL A   1      37.926  29.984  27.897  1.00  0.00     0.010 A 
ATOM     34  C   UNL A   1      38.380  29.436  29.110  1.00  0.00    -0.014 A 
BRANCH  34  35
ATOM     35  C   UNL A   1      39.807  29.079  29.255  1.00  0.00     0.031 A 
ATOM     36  C   UNL A   1      40.730  30.123  29.822  1.00  0.00     0.074 A 
ATOM     37  C   UNL A   1      40.259  27.861  28.918  1.00  0.00     0.049 A 
ATOM     38  N   UNL A   1      42.021  30.078  30.011  1.00  0.00    -0.248 NA
ATOM     39  C   UNL A   1      40.109  31.399  30.220  1.00  0.00     0.031 C 
ATOM     40  C   UNL A   1      39.438  26.766  28.406  1.00  0.00     0.029 A 
ATOM     41  N   UNL A   1      41.528  27.347  28.957  1.00  0.00    -0.354 N 
ATOM     42  C   UNL A   1      42.369  31.321  30.529  1.00  0.00     0.074 A 
ATOM     43  C   UNL A   1      41.161  32.111  30.589  1.00  0.00     0.031 C 
ATOM     44  C   UNL A   1      40.230  25.704  28.173  1.00  0.00     0.029 A 
ATOM     45  C   UNL A   1      41.611  26.059  28.490  1.00  0.00     0.049 A 
ATOM     46  H   UNL A   1      42.305  27.853  29.286  1.00  0.00     0.167 HD
ATOM     47  C   UNL A   1      43.586  31.759  30.926  1.00  0.00     0.037 A 
ATOM     48  C   UNL A   1      42.690  25.268  28.330  1.00  0.00     0.037 A 
ATOM     49  C   UNL A   1      44.777  30.956  30.861  1.00  0.00     0.049 A 
ATOM     50  C   UNL A   1      44.045  25.793  28.729  1.00  0.00     0.074 A 
ATOM     51  C   UNL A   1      46.061  31.284  31.253  1.00  0.00     0.029 A 
ATOM     52  N   UNL A   1      44.829  29.661  30.361  1.00  0.00    -0.354 N 
ATOM     53  N   UNL A   1      44.364  26.963  29.234  1.00  0.00    -0.248 NA
ATOM     54  C   UNL A   1      45.187  24.888  28.545  1.00  0.00     0.031 C 
ATOM     55  C   UNL A   1      46.900  30.211  30.935  1.00  0.00     0.029 A 
ATOM     56  C   UNL A   1      46.128  29.186  30.411  1.00  0.00     0.049 A 
ATOM     57  H   UNL A   1      44.055  29.156  30.020  1.00  0.00     0.167 HD
ATOM     58  C   UNL A   1      45.734  26.918  29.469  1.00  0.00     0.074 A 
ATOM     59  C   UNL A   1      46.182  25.604  29.049  1.00  0.00     0.031 C 
ATOM     60  C   UNL A   1      46.547  27.869  29.994  1.00  0.00     0.037 A 
BRANCH  47  61
ATOM     61  C   UNL A   1      43.685  33.179  31.415  1.00  0.00     0.058 A 
ATOM     62  C   UNL A   1      43.732  33.500  32.783  1.00  0.00     0.135 A 
ATOM     63  C   UNL A   1      43.717  34.241  30.497  1.00  0.00     0.135 A 
ATOM     64  F   UNL A   1      43.681  32.528  33.707  1.00  0.00    -0.206 F 
ATOM     65  C   UNL A   1      43.763  34.820  33.221  1.00  0.00     0.059 A 
ATOM     66  C   UNL A   1      43.784  35.568  30.912  1.00  0.00     0.059 A 
ATOM     67  F   UNL A   1      43.670  33.996  29.178  1.00  0.00    -0.206 F 
ATOM     68  C   UNL A   1      43.785  35.848  32.277  1.00  0.00     0.060 A 
BRANCH  68  69
ATOM     69  S   UNL A   1      43.803  37.556  32.859  1.00  0.00     0.124 S 
ATOM     70  O   UNL A   1      43.652  38.292  31.607  1.00  0.00    -0.237 OA
ATOM     71  O   UNL A   1      42.653  37.591  33.757  1.00  0.00    -0.237 OA
ATOM     72  O   UNL A   1      45.105  37.682  33.506  1.00  0.00    -0.744 OA
ENDBRANCH  68  69
ENDBRANCH  47  61
BRANCH  48  73
ATOM     73  C   UNL A   1      42.523  23.891  27.794  1.00  0.00     0.058 A 
ATOM     74  C   UNL A   1      42.490  22.782  28.651  1.00  0.00     0.135 A 
ATOM     75  C   UNL A   1      42.369  23.658  26.418  1.00  0.00     0.135 A 
ATOM     76  F   UNL A   1      42.642  22.953  29.974  1.00  0.00    -0.206 F 
ATOM     77  C   UNL A   1      42.314  21.490  28.167  1.00  0.00     0.059 A 
ATOM     78  C   UNL A   1      42.167  22.378  25.911  1.00  0.00     0.059 A 
ATOM     79  F   UNL A   1      42.384  24.685  25.555  1.00  0.00    -0.206 F 
ATOM     80  C   UNL A   1      42.146  21.298  26.795  1.00  0.00     0.060 A 
BRANCH  80  81
ATOM     81  S   UNL A   1      41.851  19.624  26.186  1.00  0.00     0.124 S 
ATOM     82  O   UNL A   1      40.412  19.647  25.944  1.00  0.00    -0.237 OA
ATOM     83  O   UNL A   1      42.698  19.578  25.000  1.00  0.00    -0.237 OA
ATOM     84  O   UNL A   1      42.290  18.782  27.294  1.00  0.00    -0.744 OA
ENDBRANCH  80  81
ENDBRANCH  48  73
BRANCH  60  85
ATOM     85  C   UNL A   1      47.994  27.505  30.205  1.00  0.00     0.058 A 
ATOM     86  C   UNL A   1      48.475  27.032  31.435  1.00  0.00     0.135 A 
ATOM     87  C   UNL A   1      48.902  27.593  29.137  1.00  0.00     0.135 A 
ATOM     88  F   UNL A   1      47.650  26.930  32.490  1.00  0.00    -0.206 F 
ATOM     89  C   UNL A   1      49.813  26.695  31.610  1.00  0.00     0.059 A 
ATOM     90  C   UNL A   1      50.236  27.228  29.279  1.00  0.00     0.059 A 
ATOM     91  F   UNL A   1      48.493  28.023  27.932  1.00  0.00    -0.206 F 
ATOM     92  C   UNL A   1      50.686  26.796  30.525  1.00  0.00     0.060 A 
BRANCH  92  93
ATOM     93  S   UNL A   1      52.418  26.341  30.760  1.00  0.00     0.124 S 
ATOM     94  O   UNL A   1      52.293  25.033  31.394  1.00  0.00    -0.237 OA
ATOM     95  O   UNL A   1      52.928  26.338  29.393  1.00  0.00    -0.237 OA
ATOM     96  O   UNL A   1      52.935  27.405  31.614  1.00  0.00    -0.744 OA
ENDBRANCH  92  93
ENDBRANCH  60  85
ENDBRANCH  34  35
ENDBRANCH  27  29
ENDBRANCH  26  27
ENDBRANCH  25  26
ENDBRANCH  24  25
ENDBRANCH   1  24
TORSDOF 21
ENDMDL
MODEL 2
REMARK VINA RESULT:      -9.1      3.911     10.851
REMARK SMILES O=C(C[C@@H](NC(=O)C1CCC1)c1ccc(Cl)cc1)OCCOCCOC(=O)c1ccc(-c2c3nc(c(-c4c(F)cc(S(=O)(=O)[O-])cc4F)c4ccc([nH]4)c(-c4c(F)cc(S(=O)(=O)[O-])cc4F)c4nc(c(-c5c(F)cc(S(=O)(=O)[O-])cc5F)c5ccc2[nH]5)C=C4)C=C3)cc1
REMARK SMILES IDX 22 1 21 2 20 3 19 4 2 5 1 6 3 7 4 8 5 9 6 10 7 12 8 13 9 14
REMARK SMILES IDX 11 15 10 16 12 17 13 18 18 19 14 20 17 21 15 22 16 23 23 24
REMARK SMILES IDX 24 25 25 26 26 27 27 28 28 29 29 30 93 31 30 32 92 33 31 34
REMARK SMILES IDX 32 35 33 36 86 37 34 38 91 39 85 40 87 41 35 42 90 43 84 44
REMARK SMILES IDX 83 45 36 47 70 48 49 49 69 50 50 51 53 52 68 53 88 54 51 55
REMARK SMILES IDX 52 56 67 58 89 59 54 60 37 61 38 62 47 63 39 64 40 65 46 66
REMARK SMILES IDX 48 67 41 68 42 69 43 70 44 71 45 72 71 73 72 74 81 75 73 76
REMARK SMILES IDX 74 77 80 78 82 79 75 80 76 81 77 82 78 83 79 84 55 85 56 86
REMARK SMILES IDX 65 87 57 88 58 89 64 90 66 91 59 92 60 93 61 94 62 95 63 96
REMARK H PARENT 5 11 87 46 53 57
REMARK Flexibility Score: inf
ROOT
ATOM      1  O   UNL A   1      32.302  28.760  25.565  1.00  0.00    -0.374 OA
ENDROOT
BRANCH   1   2
ATOM      2  C   UNL A   1      32.423  28.329  24.219  1.00  0.00     0.202 C 
BRANCH   2   3
ATOM      3  C   UNL A   1      32.211  26.853  23.872  1.00  0.00     0.261 C 
BRANCH   3   4
ATOM      4  O   UNL A   1      33.372  26.039  23.659  1.00  0.00    -0.463 OA
BRANCH   4   5
ATOM      5  C   UNL A   1      33.620  25.304  22.558  1.00  0.00     0.308 C 
ATOM      6  O   UNL A   1      33.620  25.843  21.453  1.00  0.00    -0.252 OA
BRANCH   5   7
ATOM      7  C   UNL A   1      33.707  23.807  22.660  1.00  0.00     0.152 C 
BRANCH   7   8
ATOM      8  C   UNL A   1      33.851  23.232  24.068  1.00  0.00     0.123 C 
BRANCH   8   9
ATOM      9  N   UNL A   1      33.020  22.027  24.245  1.00  0.00    -0.348 N 
ATOM     10  C   UNL A   1      32.135  21.575  25.199  1.00  0.00     0.223 C 
ATOM     11  H   UNL A   1      33.123  21.392  23.500  1.00  0.00     0.164 HD
ATOM     12  O   UNL A   1      31.874  20.363  25.119  1.00  0.00    -0.275 OA
BRANCH  10  13
ATOM     13  C   UNL A   1      31.439  22.488  26.224  1.00  0.00     0.078 C 
ATOM     14  C   UNL A   1      31.145  23.961  25.766  1.00  0.00     0.013 C 
ATOM     15  C   UNL A   1      29.918  22.442  26.540  1.00  0.00     0.013 C 
ATOM     16  C   UNL A   1      30.013  23.959  26.808  1.00  0.00     0.002 C 
ENDBRANCH  10  13
ENDBRANCH   8   9
BRANCH   8  17
ATOM     17  C   UNL A   1      35.298  23.025  24.509  1.00  0.00    -0.025 A 
ATOM     18  C   UNL A   1      35.983  21.806  24.337  1.00  0.00     0.007 A 
ATOM     19  C   UNL A   1      35.969  24.065  25.173  1.00  0.00     0.007 A 
ATOM     20  C   UNL A   1      37.230  21.589  24.929  1.00  0.00     0.021 A 
ATOM     21  C   UNL A   1      37.200  23.839  25.794  1.00  0.00     0.021 A 
ATOM     22  C   UNL A   1      37.811  22.593  25.692  1.00  0.00     0.041 A 
ATOM     23  Cl  UNL A   1      39.266  22.276  26.551  1.00  0.00    -0.084 Cl
ENDBRANCH   8  17
ENDBRANCH   7   8
ENDBRANCH   5   7
ENDBRANCH   4   5
ENDBRANCH   3   4
ENDBRANCH   2   3
ENDBRANCH   1   2
BRANCH   1  24
ATOM     24  C   UNL A   1      32.301  30.159  25.832  1.00  0.00     0.202 C 
BRANCH  24  25
ATOM     25  C   UNL A   1      32.792  30.543  27.224  1.00  0.00     0.261 C 
BRANCH  25  26
ATOM     26  O   UNL A   1      34.101  30.005  27.455  1.00  0.00    -0.460 OA
BRANCH  26  27
ATOM     27  C   UNL A   1      34.883  30.728  28.287  1.00  0.00     0.338 C 
ATOM     28  O   UNL A   1      34.539  31.652  29.011  1.00  0.00    -0.246 OA
BRANCH  27  29
ATOM     29  C   UNL A   1      36.202  30.074  28.374  1.00  0.00     0.060 A 
ATOM     30  C   UNL A   1      36.582  29.517  29.605  1.00  0.00     0.016 A 
ATOM     31  C   UNL A   1      37.055  30.017  27.270  1.00  0.00     0.016 A 
ATOM     32  C   UNL A   1      37.850  28.972  29.758  1.00  0.00     0.010 A 
ATOM     33  C   UNL A   1      38.331  29.482  27.426  1.00  0.00     0.010 A 
ATOM     34  C   UNL A   1      38.749  29.016  28.686  1.00  0.00    -0.014 A 
BRANCH  34  35
ATOM     35  C   UNL A   1      40.192  28.844  28.952  1.00  0.00     0.031 A 
ATOM     36  C   UNL A   1      40.815  27.525  28.582  1.00  0.00     0.074 A 
ATOM     37  C   UNL A   1      40.927  29.835  29.480  1.00  0.00     0.049 A 
ATOM     38  N   UNL A   1      42.041  27.108  28.748  1.00  0.00    -0.248 NA
ATOM     39  C   UNL A   1      39.924  26.538  27.946  1.00  0.00     0.031 C 
ATOM     40  C   UNL A   1      40.430  31.164  29.829  1.00  0.00     0.029 A 
ATOM     41  N   UNL A   1      42.254  29.869  29.818  1.00  0.00    -0.354 N 
ATOM     42  C   UNL A   1      42.063  25.806  28.258  1.00  0.00     0.074 A 
ATOM     43  C   UNL A   1      40.723  25.490  27.823  1.00  0.00     0.031 C 
ATOM     44  C   UNL A   1      41.444  31.886  30.337  1.00  0.00     0.029 A 
ATOM     45  C   UNL A   1      42.648  31.059  30.377  1.00  0.00     0.049 A 
ATOM     46  H   UNL A   1      42.866  29.111  29.674  1.00  0.00     0.167 HD
ATOM     47  C   UNL A   1      43.113  24.956  28.171  1.00  0.00     0.037 A 
ATOM     48  C   UNL A   1      43.846  31.424  30.873  1.00  0.00     0.037 A 
ATOM     49  C   UNL A   1      44.442  25.291  28.606  1.00  0.00     0.049 A 
ATOM     50  C   UNL A   1      44.988  30.444  30.815  1.00  0.00     0.074 A 
ATOM     51  C   UNL A   1      45.588  24.520  28.550  1.00  0.00     0.029 A 
ATOM     52  N   UNL A   1      44.800  26.500  29.190  1.00  0.00    -0.354 N 
ATOM     53  N   UNL A   1      45.008  29.222  30.335  1.00  0.00    -0.248 NA
ATOM     54  C   UNL A   1      46.276  30.895  31.359  1.00  0.00     0.031 C 
ATOM     55  C   UNL A   1      46.625  25.238  29.153  1.00  0.00     0.029 A 
ATOM     56  C   UNL A   1      46.144  26.486  29.522  1.00  0.00     0.049 A 
ATOM     57  H   UNL A   1      44.187  27.255  29.346  1.00  0.00     0.167 HD
ATOM     58  C   UNL A   1      46.318  28.775  30.477  1.00  0.00     0.074 A 
ATOM     59  C   UNL A   1      47.059  29.860  31.092  1.00  0.00     0.031 C 
ATOM     60  C   UNL A   1      46.862  27.583  30.124  1.00  0.00     0.037 A 
BRANCH  47  61
ATOM     61  C   UNL A   1      42.844  23.578  27.630  1.00  0.00     0.058 A 
ATOM     62  C   UNL A   1      42.504  22.498  28.463  1.00  0.00     0.135 A 
ATOM     63  C   UNL A   1      42.944  23.329  26.251  1.00  0.00     0.135 A 
ATOM     64  F   UNL A   1      42.416  22.670  29.792  1.00  0.00    -0.206 F 
ATOM     65  C   UNL A   1      42.317  21.216  27.955  1.00  0.00     0.059 A 
ATOM     66  C   UNL A   1      42.726  22.062  25.717  1.00  0.00     0.059 A 
ATOM     67  F   UNL A   1      43.270  24.320  25.407  1.00  0.00    -0.206 F 
ATOM     68  C   UNL A   1      42.434  21.007  26.579  1.00  0.00     0.060 A 
BRANCH  68  69
ATOM     69  S   UNL A   1      42.210  19.336  25.937  1.00  0.00     0.124 S 
ATOM     70  O   UNL A   1      42.683  18.528  27.058  1.00  0.00    -0.237 OA
ATOM     71  O   UNL A   1      40.774  19.289  25.683  1.00  0.00    -0.237 OA
ATOM     72  O   UNL A   1      43.056  19.312  24.747  1.00  0.00    -0.744 OA
ENDBRANCH  68  69
ENDBRANCH  47  61
BRANCH  48  73
ATOM     73  C   UNL A   1      44.026  32.787  31.439  1.00  0.00     0.058 A 
ATOM     74  C   UNL A   1      44.547  33.829  30.659  1.00  0.00     0.135 A 
ATOM     75  C   UNL A   1      43.658  33.083  32.761  1.00  0.00     0.135 A 
ATOM     76  F   UNL A   1      44.922  33.594  29.391  1.00  0.00    -0.206 F 
ATOM     77  C   UNL A   1      44.702  35.115  31.166  1.00  0.00     0.059 A 
ATOM     78  C   UNL A   1      43.780  34.367  33.285  1.00  0.00     0.059 A 
ATOM     79  F   UNL A   1      43.145  32.125  33.548  1.00  0.00    -0.206 F 
ATOM     80  C   UNL A   1      44.309  35.376  32.480  1.00  0.00     0.060 A 
BRANCH  80  81
ATOM     81  S   UNL A   1      44.453  37.064  33.105  1.00  0.00     0.124 S 
ATOM     82  O   UNL A   1      43.734  37.818  32.085  1.00  0.00    -0.237 OA
ATOM     83  O   UNL A   1      43.799  36.963  34.406  1.00  0.00    -0.237 OA
ATOM     84  O   UNL A   1      45.895  37.283  33.152  1.00  0.00    -0.744 OA
ENDBRANCH  80  81
ENDBRANCH  48  73
BRANCH  60  85
ATOM     85  C   UNL A   1      48.343  27.408  30.333  1.00  0.00     0.058 A 
ATOM     86  C   UNL A   1      48.877  26.905  31.529  1.00  0.00     0.135 A 
ATOM     87  C   UNL A   1      49.239  27.712  29.294  1.00  0.00     0.135 A 
ATOM     88  F   UNL A   1      48.066  26.599  32.556  1.00  0.00    -0.206 F 
ATOM     89  C   UNL A   1      50.248  26.744  31.702  1.00  0.00     0.059 A 
ATOM     90  C   UNL A   1      50.609  27.527  29.432  1.00  0.00     0.059 A 
ATOM     91  F   UNL A   1      48.783  28.182  28.121  1.00  0.00    -0.206 F 
ATOM     92  C   UNL A   1      51.106  27.059  30.646  1.00  0.00     0.060 A 
BRANCH  92  93
ATOM     93  S   UNL A   1      52.883  26.832  30.878  1.00  0.00     0.124 S 
ATOM     94  O   UNL A   1      53.229  28.013  31.662  1.00  0.00    -0.237 OA
ATOM     95  O   UNL A   1      52.944  25.558  31.587  1.00  0.00    -0.237 OA
ATOM     96  O   UNL A   1      53.402  26.810  29.514  1.00  0.00    -0.744 OA
ENDBRANCH  92  93
ENDBRANCH  60  85
ENDBRANCH  34  35
ENDBRANCH  27  29
ENDBRANCH  26  27
ENDBRANCH  25  26
ENDBRANCH  24  25
ENDBRANCH   1  24
TORSDOF 21
ENDMDL
MODEL 3
REMARK VINA RESULT:      -9.0      5.545     12.752
REMARK SMILES O=C(C[C@@H](NC(=O)C1CCC1)c1ccc(Cl)cc1)OCCOCCOC(=O)c1ccc(-c2c3nc(c(-c4c(F)cc(S(=O)(=O)[O-])cc4F)c4ccc([nH]4)c(-c4c(F)cc(S(=O)(=O)[O-])cc4F)c4nc(c(-c5c(F)cc(S(=O)(=O)[O-])cc5F)c5ccc2[nH]5)C=C4)C=C3)cc1
REMARK SMILES IDX 22 1 21 2 20 3 19 4 2 5 1 6 3 7 4 8 5 9 6 10 7 12 8 13 9 14
REMARK SMILES IDX 11 15 10 16 12 17 13 18 18 19 14 20 17 21 15 22 16 23 23 24
REMARK SMILES IDX 24 25 25 26 26 27 27 28 28 29 29 30 93 31 30 32 92 33 31 34
REMARK SMILES IDX 32 35 33 36 86 37 34 38 91 39 85 40 87 41 35 42 90 43 84 44
REMARK SMILES IDX 83 45 36 47 70 48 49 49 69 50 50 51 53 52 68 53 88 54 51 55
REMARK SMILES IDX 52 56 67 58 89 59 54 60 37 61 38 62 47 63 39 64 40 65 46 66
REMARK SMILES IDX 48 67 41 68 42 69 43 70 44 71 45 72 71 73 72 74 81 75 73 76
REMARK SMILES IDX 74 77 80 78 82 79 75 80 76 81 77 82 78 83 79 84 55 85 56 86
REMARK SMILES IDX 65 87 57 88 58 89 64 90 66 91 59 92 60 93 61 94 62 95 63 96
REMARK H PARENT 5 11 87 46 53 57
REMARK Flexibility Score: inf
ROOT
ATOM      1  O   UNL A   1      39.571  21.949  26.472  1.00  0.00    -0.374 OA
ENDROOT
BRANCH   1   2
ATOM      2  C   UNL A   1      38.869  20.986  25.703  1.00  0.00     0.202 C 
BRANCH   2   3
ATOM      3  C   UNL A   1      37.578  21.383  24.983  1.00  0.00     0.261 C 
BRANCH   3   4
ATOM      4  O   UNL A   1      37.381  22.769  24.671  1.00  0.00    -0.463 OA
BRANCH   4   5
ATOM      5  C   UNL A   1      36.356  23.271  23.957  1.00  0.00     0.308 C 
ATOM      6  O   UNL A   1      36.404  23.257  22.728  1.00  0.00    -0.252 OA
BRANCH   5   7
ATOM      7  C   UNL A   1      35.249  24.012  24.653  1.00  0.00     0.152 C 
BRANCH   7   8
ATOM      8  C   UNL A   1      33.882  23.982  23.971  1.00  0.00     0.123 C 
BRANCH   8   9
ATOM      9  N   UNL A   1      33.907  24.703  22.686  1.00  0.00    -0.348 N 
ATOM     10  C   UNL A   1      33.238  25.783  22.152  1.00  0.00     0.223 C 
ATOM     11  H   UNL A   1      34.560  24.321  22.056  1.00  0.00     0.164 HD
ATOM     12  O   UNL A   1      33.338  25.887  20.918  1.00  0.00    -0.275 OA
BRANCH  10  13
ATOM     13  C   UNL A   1      32.503  26.840  22.997  1.00  0.00     0.078 C 
ATOM     14  C   UNL A   1      31.208  26.362  23.745  1.00  0.00     0.013 C 
ATOM     15  C   UNL A   1      32.966  27.303  24.407  1.00  0.00     0.013 C 
ATOM     16  C   UNL A   1      31.472  27.510  24.736  1.00  0.00     0.002 C 
ENDBRANCH  10  13
ENDBRANCH   8   9
BRANCH   8  17
ATOM     17  C   UNL A   1      33.277  22.585  23.855  1.00  0.00    -0.025 A 
ATOM     18  C   UNL A   1      33.544  21.556  24.780  1.00  0.00     0.007 A 
ATOM     19  C   UNL A   1      32.466  22.278  22.751  1.00  0.00     0.007 A 
ATOM     20  C   UNL A   1      33.138  20.242  24.535  1.00  0.00     0.021 A 
ATOM     21  C   UNL A   1      32.087  20.958  22.487  1.00  0.00     0.021 A 
ATOM     22  C   UNL A   1      32.450  19.943  23.367  1.00  0.00     0.041 A 
ATOM     23  Cl  UNL A   1      32.087  18.306  22.987  1.00  0.00    -0.084 Cl
ENDBRANCH   8  17
ENDBRANCH   7   8
ENDBRANCH   5   7
ENDBRANCH   4   5
ENDBRANCH   3   4
ENDBRANCH   2   3
ENDBRANCH   1   2
BRANCH   1  24
ATOM     24  C   UNL A   1      40.994  21.899  26.488  1.00  0.00     0.202 C 
BRANCH  24  25
ATOM     25  C   UNL A   1      41.682  23.249  26.321  1.00  0.00     0.261 C 
BRANCH  25  26
ATOM     26  O   UNL A   1      40.722  24.310  26.402  1.00  0.00    -0.460 OA
BRANCH  26  27
ATOM     27  C   UNL A   1      41.219  25.554  26.217  1.00  0.00     0.338 C 
ATOM     28  O   UNL A   1      41.403  26.127  25.152  1.00  0.00    -0.246 OA
BRANCH  27  29
ATOM     29  C   UNL A   1      41.291  26.227  27.527  1.00  0.00     0.060 A 
ATOM     30  C   UNL A   1      40.251  26.002  28.442  1.00  0.00     0.016 A 
ATOM     31  C   UNL A   1      42.355  27.072  27.848  1.00  0.00     0.016 A 
ATOM     32  C   UNL A   1      40.231  26.685  29.651  1.00  0.00     0.010 A 
ATOM     33  C   UNL A   1      42.329  27.767  29.054  1.00  0.00     0.010 A 
ATOM     34  C   UNL A   1      41.236  27.619  29.927  1.00  0.00    -0.014 A 
BRANCH  34  35
ATOM     35  C   UNL A   1      41.002  28.635  30.974  1.00  0.00     0.031 A 
ATOM     36  C   UNL A   1      41.889  28.598  32.189  1.00  0.00     0.074 A 
ATOM     37  C   UNL A   1      40.052  29.574  30.836  1.00  0.00     0.049 A 
ATOM     38  N   UNL A   1      41.865  29.344  33.261  1.00  0.00    -0.248 NA
ATOM     39  C   UNL A   1      42.942  27.566  32.199  1.00  0.00     0.031 C 
ATOM     40  C   UNL A   1      39.174  29.725  29.678  1.00  0.00     0.029 A 
ATOM     41  N   UNL A   1      39.670  30.576  31.688  1.00  0.00    -0.354 N 
ATOM     42  C   UNL A   1      42.882  28.860  34.078  1.00  0.00     0.074 A 
ATOM     43  C   UNL A   1      43.478  27.735  33.396  1.00  0.00     0.031 C 
ATOM     44  C   UNL A   1      38.348  30.763  29.895  1.00  0.00     0.029 A 
ATOM     45  C   UNL A   1      38.620  31.325  31.216  1.00  0.00     0.049 A 
ATOM     46  H   UNL A   1      40.105  30.743  32.555  1.00  0.00     0.167 HD
ATOM     47  C   UNL A   1      43.285  29.321  35.284  1.00  0.00     0.037 A 
ATOM     48  C   UNL A   1      37.954  32.340  31.799  1.00  0.00     0.037 A 
ATOM     49  C   UNL A   1      42.681  30.446  35.945  1.00  0.00     0.049 A 
ATOM     50  C   UNL A   1      38.386  32.805  33.166  1.00  0.00     0.074 A 
ATOM     51  C   UNL A   1      43.017  31.017  37.158  1.00  0.00     0.029 A 
ATOM     52  N   UNL A   1      41.603  31.168  35.447  1.00  0.00    -0.354 N 
ATOM     53  N   UNL A   1      39.358  32.354  33.926  1.00  0.00    -0.248 NA
ATOM     54  C   UNL A   1      37.634  33.922  33.754  1.00  0.00     0.031 C 
ATOM     55  C   UNL A   1      42.106  32.044  37.423  1.00  0.00     0.029 A 
ATOM     56  C   UNL A   1      41.246  32.162  36.342  1.00  0.00     0.049 A 
ATOM     57  H   UNL A   1      41.159  30.996  34.585  1.00  0.00     0.167 HD
ATOM     58  C   UNL A   1      39.364  33.161  35.059  1.00  0.00     0.074 A 
ATOM     59  C   UNL A   1      38.295  34.126  34.884  1.00  0.00     0.031 C 
ATOM     60  C   UNL A   1      40.183  33.117  36.141  1.00  0.00     0.037 A 
BRANCH  47  61
ATOM     61  C   UNL A   1      44.396  28.576  35.974  1.00  0.00     0.058 A 
ATOM     62  C   UNL A   1      44.150  27.492  36.835  1.00  0.00     0.135 A 
ATOM     63  C   UNL A   1      45.732  28.963  35.781  1.00  0.00     0.135 A 
ATOM     64  F   UNL A   1      42.892  27.091  37.076  1.00  0.00    -0.206 F 
ATOM     65  C   UNL A   1      45.183  26.850  37.512  1.00  0.00     0.059 A 
ATOM     66  C   UNL A   1      46.783  28.313  36.421  1.00  0.00     0.059 A 
ATOM     67  F   UNL A   1      46.027  29.994  34.974  1.00  0.00    -0.206 F 
ATOM     68  C   UNL A   1      46.497  27.271  37.301  1.00  0.00     0.060 A 
BRANCH  68  69
ATOM     69  S   UNL A   1      47.824  26.445  38.202  1.00  0.00     0.124 S 
ATOM     70  O   UNL A   1      48.070  25.281  37.355  1.00  0.00    -0.237 OA
ATOM     71  O   UNL A   1      48.875  27.458  38.208  1.00  0.00    -0.237 OA
ATOM     72  O   UNL A   1      47.226  26.158  39.503  1.00  0.00    -0.744 OA
ENDBRANCH  68  69
ENDBRANCH  47  61
BRANCH  48  73
ATOM     73  C   UNL A   1      36.833  32.998  31.079  1.00  0.00     0.058 A 
ATOM     74  C   UNL A   1      37.077  33.881  30.017  1.00  0.00     0.135 A 
ATOM     75  C   UNL A   1      35.496  32.741  31.418  1.00  0.00     0.135 A 
ATOM     76  F   UNL A   1      38.340  34.167  29.660  1.00  0.00    -0.206 F 
ATOM     77  C   UNL A   1      36.039  34.489  29.319  1.00  0.00     0.059 A 
ATOM     78  C   UNL A   1      34.439  33.316  30.720  1.00  0.00     0.059 A 
ATOM     79  F   UNL A   1      35.206  31.896  32.420  1.00  0.00    -0.206 F 
ATOM     80  C   UNL A   1      34.721  34.194  29.673  1.00  0.00     0.060 A 
BRANCH  80  81
ATOM     81  S   UNL A   1      33.383  34.938  28.716  1.00  0.00     0.124 S 
ATOM     82  O   UNL A   1      34.037  36.118  28.161  1.00  0.00    -0.237 OA
ATOM     83  O   UNL A   1      33.064  33.877  27.765  1.00  0.00    -0.237 OA
ATOM     84  O   UNL A   1      32.356  35.199  29.720  1.00  0.00    -0.744 OA
ENDBRANCH  80  81
ENDBRANCH  48  73
BRANCH  60  85
ATOM     85  C   UNL A   1      40.000  34.180  37.192  1.00  0.00     0.058 A 
ATOM     86  C   UNL A   1      40.672  35.411  37.137  1.00  0.00     0.135 A 
ATOM     87  C   UNL A   1      39.099  33.974  38.249  1.00  0.00     0.135 A 
ATOM     88  F   UNL A   1      41.546  35.660  36.148  1.00  0.00    -0.206 F 
ATOM     89  C   UNL A   1      40.486  36.384  38.113  1.00  0.00     0.059 A 
ATOM     90  C   UNL A   1      38.872  34.946  39.217  1.00  0.00     0.059 A 
ATOM     91  F   UNL A   1      38.416  32.821  38.343  1.00  0.00    -0.206 F 
ATOM     92  C   UNL A   1      39.583  36.141  39.150  1.00  0.00     0.060 A 
BRANCH  92  93
ATOM     93  S   UNL A   1      39.339  37.418  40.404  1.00  0.00     0.124 S 
ATOM     94  O   UNL A   1      38.967  36.620  41.566  1.00  0.00    -0.237 OA
ATOM     95  O   UNL A   1      40.653  38.051  40.462  1.00  0.00    -0.237 OA
ATOM     96  O   UNL A   1      38.276  38.245  39.843  1.00  0.00    -0.744 OA
ENDBRANCH  92  93
ENDBRANCH  60  85
ENDBRANCH  34  35
ENDBRANCH  27  29
ENDBRANCH  26  27
ENDBRANCH  25  26
ENDBRANCH  24  25
ENDBRANCH   1  24
TORSDOF 21
ENDMDL
