MODEL 1
REMARK VINA RESULT:     -10.6      0.000      0.000
REMARK SMILES COc1cc(Cl)c2c(c1)C=C(C(=O)OCCOCCOC(=O)c1ccc(-c3c4nc(c(-c5c(F)cc(S(=O)(=O)[O-])cc5F)c5ccc([nH]5)c(-c5c(F)cc(S(=O)(=O)[O-])cc5F)c5nc(c(-c6c(F)cc(S(=O)(=O)[O-])cc6F)c6ccc3[nH]6)C=C5)C=C4)cc1)[C@@H](C(F)(F)F)O2
REMARK SMILES IDX 18 1 17 2 16 3 15 4 14 5 12 6 13 7 11 8 3 9 4 10 9 11 5 12
REMARK SMILES IDX 8 13 6 14 7 15 10 16 94 17 89 18 2 19 1 20 90 21 91 22 92 23
REMARK SMILES IDX 93 24 19 25 20 26 21 27 22 28 23 29 24 30 88 31 25 32 87 33
REMARK SMILES IDX 26 34 27 35 28 36 81 37 29 38 86 39 80 40 82 41 30 42 85 43
REMARK SMILES IDX 79 44 78 45 31 47 65 48 44 49 64 50 45 51 48 52 63 53 83 54
REMARK SMILES IDX 46 55 47 56 62 58 84 59 49 60 32 61 33 62 42 63 34 64 35 65
REMARK SMILES IDX 41 66 43 67 36 68 37 69 38 70 39 71 40 72 66 73 67 74 76 75
REMARK SMILES IDX 68 76 69 77 75 78 77 79 70 80 71 81 72 82 73 83 74 84 50 85
REMARK SMILES IDX 51 86 60 87 52 88 53 89 59 90 61 91 54 92 55 93 56 94 57 95
REMARK SMILES IDX 58 96
REMARK H PARENT 82 46 48 57
REMARK Flexibility Score: inf
ROOT
ATOM      1  C   UNL A   1      32.056  28.364  25.574  1.00  0.00     0.202 C 
ENDROOT
BRANCH   1   2
ATOM      2  O   UNL A   1      31.497  27.491  26.557  1.00  0.00    -0.374 OA
BRANCH   2   3
ATOM      3  C   UNL A   1      30.756  26.366  26.088  1.00  0.00     0.202 C 
BRANCH   3   4
ATOM      4  C   UNL A   1      30.606  26.254  24.569  1.00  0.00     0.261 C 
BRANCH   4   5
ATOM      5  O   UNL A   1      30.852  24.910  24.124  1.00  0.00    -0.460 OA
BRANCH   5   6
ATOM      6  C   UNL A   1      31.819  24.790  23.187  1.00  0.00     0.338 C 
ATOM      7  O   UNL A   1      32.054  25.564  22.270  1.00  0.00    -0.246 OA
BRANCH   6   8
ATOM      8  C   UNL A   1      32.673  23.627  23.493  1.00  0.00     0.087 C 
ATOM      9  C   UNL A   1      32.828  18.981  24.686  1.00  0.00     0.121 A 
ATOM     10  C   UNL A   1      34.189  19.076  24.961  1.00  0.00     0.070 A 
ATOM     11  C   UNL A   1      32.136  20.071  24.168  1.00  0.00     0.058 A 
ATOM     12  C   UNL A   1      34.853  20.285  24.732  1.00  0.00     0.087 A 
ATOM     13  C   UNL A   1      32.794  21.290  23.974  1.00  0.00     0.022 A 
ATOM     14  Cl  UNL A   1      36.541  20.365  25.095  1.00  0.00    -0.080 Cl
ATOM     15  C   UNL A   1      34.161  21.402  24.241  1.00  0.00     0.146 A 
ATOM     16  C   UNL A   1      32.037  22.451  23.550  1.00  0.00     0.027 C 
ATOM     17  O   UNL A   1      34.861  22.558  24.021  1.00  0.00    -0.474 OA
ATOM     18  C   UNL A   1      34.144  23.796  23.751  1.00  0.00     0.316 C 
BRANCH   9  19
ATOM     19  O   UNL A   1      32.128  17.820  24.859  1.00  0.00    -0.497 OA
ATOM     20  C   UNL A   1      32.843  16.895  25.678  1.00  0.00     0.278 C 
ENDBRANCH   9  19
BRANCH  18  21
ATOM     21  C   UNL A   1      34.430  24.785  24.892  1.00  0.00     0.430 C 
ATOM     22  F   UNL A   1      33.518  24.669  25.885  1.00  0.00    -0.167 F 
ATOM     23  F   UNL A   1      35.646  24.573  25.447  1.00  0.00    -0.167 F 
ATOM     24  F   UNL A   1      34.401  26.067  24.459  1.00  0.00    -0.167 F 
ENDBRANCH  18  21
ENDBRANCH   6   8
ENDBRANCH   5   6
ENDBRANCH   4   5
ENDBRANCH   3   4
ENDBRANCH   2   3
ENDBRANCH   1   2
BRANCH   1  25
ATOM     25  C   UNL A   1      33.553  28.676  25.700  1.00  0.00     0.261 C 
BRANCH  25  26
ATOM     26  O   UNL A   1      34.012  28.602  27.062  1.00  0.00    -0.460 OA
BRANCH  26  27
ATOM     27  C   UNL A   1      34.310  29.796  27.628  1.00  0.00     0.338 C 
ATOM     28  O   UNL A   1      33.535  30.710  27.872  1.00  0.00    -0.246 OA
BRANCH  27  29
ATOM     29  C   UNL A   1      35.710  29.803  28.086  1.00  0.00     0.060 A 
ATOM     30  C   UNL A   1      36.707  30.101  27.148  1.00  0.00     0.016 A 
ATOM     31  C   UNL A   1      36.047  29.419  29.386  1.00  0.00     0.016 A 
ATOM     32  C   UNL A   1      38.051  29.970  27.492  1.00  0.00     0.010 A 
ATOM     33  C   UNL A   1      37.395  29.269  29.723  1.00  0.00     0.010 A 
ATOM     34  C   UNL A   1      38.399  29.508  28.768  1.00  0.00    -0.014 A 
BRANCH  34  35
ATOM     35  C   UNL A   1      39.797  29.112  29.059  1.00  0.00     0.031 A 
ATOM     36  C   UNL A   1      40.712  30.118  29.702  1.00  0.00     0.074 A 
ATOM     37  C   UNL A   1      40.238  27.877  28.762  1.00  0.00     0.049 A 
ATOM     38  N   UNL A   1      41.995  30.037  29.937  1.00  0.00    -0.248 NA
ATOM     39  C   UNL A   1      40.097  31.382  30.144  1.00  0.00     0.031 C 
ATOM     40  C   UNL A   1      39.424  26.796  28.208  1.00  0.00     0.029 A 
ATOM     41  N   UNL A   1      41.490  27.329  28.878  1.00  0.00    -0.354 N 
ATOM     42  C   UNL A   1      42.340  31.230  30.562  1.00  0.00     0.074 A 
ATOM     43  C   UNL A   1      41.139  32.031  30.647  1.00  0.00     0.031 C 
ATOM     44  C   UNL A   1      40.203  25.718  28.014  1.00  0.00     0.029 A 
ATOM     45  C   UNL A   1      41.576  26.044  28.397  1.00  0.00     0.049 A 
ATOM     46  H   UNL A   1      42.255  27.809  29.270  1.00  0.00     0.167 HD
ATOM     47  C   UNL A   1      43.551  31.618  31.029  1.00  0.00     0.037 A 
ATOM     48  C   UNL A   1      42.648  25.240  28.257  1.00  0.00     0.037 A 
ATOM     49  C   UNL A   1      44.746  30.825  30.921  1.00  0.00     0.049 A 
ATOM     50  C   UNL A   1      44.005  25.742  28.680  1.00  0.00     0.074 A 
ATOM     51  C   UNL A   1      46.034  31.151  31.310  1.00  0.00     0.029 A 
ATOM     52  N   UNL A   1      44.801  29.544  30.394  1.00  0.00    -0.354 N 
ATOM     53  N   UNL A   1      44.329  26.891  29.224  1.00  0.00    -0.248 NA
ATOM     54  C   UNL A   1      45.146  24.837  28.467  1.00  0.00     0.031 C 
ATOM     55  C   UNL A   1      46.872  30.077  30.994  1.00  0.00     0.029 A 
ATOM     56  C   UNL A   1      46.098  29.066  30.448  1.00  0.00     0.049 A 
ATOM     57  H   UNL A   1      44.030  29.048  30.033  1.00  0.00     0.167 HD
ATOM     58  C   UNL A   1      45.699  26.828  29.457  1.00  0.00     0.074 A 
ATOM     59  C   UNL A   1      46.144  25.532  28.993  1.00  0.00     0.031 C 
ATOM     60  C   UNL A   1      46.515  27.759  30.011  1.00  0.00     0.037 A 
BRANCH  47  61
ATOM     61  C   UNL A   1      43.653  32.957  31.699  1.00  0.00     0.058 A 
ATOM     62  C   UNL A   1      43.579  33.077  33.095  1.00  0.00     0.135 A 
ATOM     63  C   UNL A   1      43.922  34.115  30.953  1.00  0.00     0.135 A 
ATOM     64  F   UNL A   1      43.300  32.003  33.852  1.00  0.00    -0.206 F 
ATOM     65  C   UNL A   1      43.781  34.298  33.730  1.00  0.00     0.059 A 
ATOM     66  C   UNL A   1      44.145  35.343  31.568  1.00  0.00     0.059 A 
ATOM     67  F   UNL A   1      43.992  34.054  29.614  1.00  0.00    -0.206 F 
ATOM     68  C   UNL A   1      44.074  35.424  32.958  1.00  0.00     0.060 A 
BRANCH  68  69
ATOM     69  S   UNL A   1      44.396  36.985  33.804  1.00  0.00     0.124 S 
ATOM     70  O   UNL A   1      43.122  37.678  33.637  1.00  0.00    -0.237 OA
ATOM     71  O   UNL A   1      44.705  36.545  35.161  1.00  0.00    -0.237 OA
ATOM     72  O   UNL A   1      45.518  37.551  33.061  1.00  0.00    -0.744 OA
ENDBRANCH  68  69
ENDBRANCH  47  61
BRANCH  48  73
ATOM     73  C   UNL A   1      42.500  23.877  27.679  1.00  0.00     0.058 A 
ATOM     74  C   UNL A   1      42.411  22.749  28.508  1.00  0.00     0.135 A 
ATOM     75  C   UNL A   1      42.493  23.669  26.291  1.00  0.00     0.135 A 
ATOM     76  F   UNL A   1      42.425  22.896  29.842  1.00  0.00    -0.206 F 
ATOM     77  C   UNL A   1      42.350  21.463  27.985  1.00  0.00     0.059 A 
ATOM     78  C   UNL A   1      42.407  22.393  25.743  1.00  0.00     0.059 A 
ATOM     79  F   UNL A   1      42.567  24.716  25.454  1.00  0.00    -0.206 F 
ATOM     80  C   UNL A   1      42.354  21.295  26.599  1.00  0.00     0.060 A 
BRANCH  80  81
ATOM     81  S   UNL A   1      42.270  19.620  25.929  1.00  0.00     0.124 S 
ATOM     82  O   UNL A   1      43.330  19.651  24.930  1.00  0.00    -0.237 OA
ATOM     83  O   UNL A   1      42.529  18.804  27.111  1.00  0.00    -0.237 OA
ATOM     84  O   UNL A   1      40.909  19.537  25.406  1.00  0.00    -0.744 OA
ENDBRANCH  80  81
ENDBRANCH  48  73
BRANCH  60  85
ATOM     85  C   UNL A   1      47.957  27.387  30.213  1.00  0.00     0.058 A 
ATOM     86  C   UNL A   1      48.952  27.743  29.290  1.00  0.00     0.135 A 
ATOM     87  C   UNL A   1      48.352  26.711  31.379  1.00  0.00     0.135 A 
ATOM     88  F   UNL A   1      48.625  28.387  28.159  1.00  0.00    -0.206 F 
ATOM     89  C   UNL A   1      50.287  27.419  29.504  1.00  0.00     0.059 A 
ATOM     90  C   UNL A   1      49.684  26.399  31.626  1.00  0.00     0.059 A 
ATOM     91  F   UNL A   1      47.440  26.360  32.300  1.00  0.00    -0.206 F 
ATOM     92  C   UNL A   1      50.644  26.746  30.676  1.00  0.00     0.060 A 
BRANCH  92  93
ATOM     93  S   UNL A   1      52.385  26.357  30.954  1.00  0.00     0.124 S 
ATOM     94  O   UNL A   1      52.851  27.562  31.632  1.00  0.00    -0.237 OA
ATOM     95  O   UNL A   1      52.309  25.155  31.778  1.00  0.00    -0.237 OA
ATOM     96  O   UNL A   1      52.908  26.153  29.606  1.00  0.00    -0.744 OA
ENDBRANCH  92  93
ENDBRANCH  60  85
ENDBRANCH  34  35
ENDBRANCH  27  29
ENDBRANCH  26  27
ENDBRANCH  25  26
ENDBRANCH   1  25
TORSDOF 19
ENDMDL
MODEL 2
REMARK VINA RESULT:     -10.6      4.610     10.465
REMARK SMILES COc1cc(Cl)c2c(c1)C=C(C(=O)OCCOCCOC(=O)c1ccc(-c3c4nc(c(-c5c(F)cc(S(=O)(=O)[O-])cc5F)c5ccc([nH]5)c(-c5c(F)cc(S(=O)(=O)[O-])cc5F)c5nc(c(-c6c(F)cc(S(=O)(=O)[O-])cc6F)c6ccc3[nH]6)C=C5)C=C4)cc1)[C@@H](C(F)(F)F)O2
REMARK SMILES IDX 18 1 17 2 16 3 15 4 14 5 12 6 13 7 11 8 3 9 4 10 9 11 5 12
REMARK SMILES IDX 8 13 6 14 7 15 10 16 94 17 89 18 2 19 1 20 90 21 91 22 92 23
REMARK SMILES IDX 93 24 19 25 20 26 21 27 22 28 23 29 24 30 88 31 25 32 87 33
REMARK SMILES IDX 26 34 27 35 28 36 81 37 29 38 86 39 80 40 82 41 30 42 85 43
REMARK SMILES IDX 79 44 78 45 31 47 65 48 44 49 64 50 45 51 48 52 63 53 83 54
REMARK SMILES IDX 46 55 47 56 62 58 84 59 49 60 32 61 33 62 42 63 34 64 35 65
REMARK SMILES IDX 41 66 43 67 36 68 37 69 38 70 39 71 40 72 66 73 67 74 76 75
REMARK SMILES IDX 68 76 69 77 75 78 77 79 70 80 71 81 72 82 73 83 74 84 50 85
REMARK SMILES IDX 51 86 60 87 52 88 53 89 59 90 61 91 54 92 55 93 56 94 57 95
REMARK SMILES IDX 58 96
REMARK H PARENT 82 46 48 57
REMARK Flexibility Score: inf
ROOT
ATOM      1  C   UNL A   1      38.305  22.556  26.141  1.00  0.00     0.202 C 
ENDROOT
BRANCH   1   2
ATOM      2  O   UNL A   1      37.588  21.499  25.500  1.00  0.00    -0.374 OA
BRANCH   2   3
ATOM      3  C   UNL A   1      36.945  21.801  24.262  1.00  0.00     0.202 C 
BRANCH   3   4
ATOM      4  C   UNL A   1      35.444  22.087  24.345  1.00  0.00     0.261 C 
BRANCH   4   5
ATOM      5  O   UNL A   1      35.187  23.501  24.338  1.00  0.00    -0.460 OA
BRANCH   5   6
ATOM      6  C   UNL A   1      34.433  23.946  25.367  1.00  0.00     0.338 C 
ATOM      7  O   UNL A   1      34.455  23.545  26.521  1.00  0.00    -0.246 OA
BRANCH   6   8
ATOM      8  C   UNL A   1      33.632  25.108  24.938  1.00  0.00     0.087 C 
ATOM      9  C   UNL A   1      32.267  29.605  25.909  1.00  0.00     0.121 A 
ATOM     10  C   UNL A   1      31.288  29.542  24.922  1.00  0.00     0.070 A 
ATOM     11  C   UNL A   1      33.149  28.545  26.094  1.00  0.00     0.058 A 
ATOM     12  C   UNL A   1      31.184  28.396  24.129  1.00  0.00     0.087 A 
ATOM     13  C   UNL A   1      33.019  27.384  25.325  1.00  0.00     0.022 A 
ATOM     14  Cl  UNL A   1      29.949  28.354  22.921  1.00  0.00    -0.080 Cl
ATOM     15  C   UNL A   1      32.045  27.306  24.327  1.00  0.00     0.146 A 
ATOM     16  C   UNL A   1      33.865  26.242  25.609  1.00  0.00     0.027 C 
ATOM     17  O   UNL A   1      31.910  26.213  23.515  1.00  0.00    -0.474 OA
ATOM     18  C   UNL A   1      32.610  24.979  23.843  1.00  0.00     0.316 C 
BRANCH   9  19
ATOM     19  O   UNL A   1      32.441  30.709  26.696  1.00  0.00    -0.497 OA
ATOM     20  C   UNL A   1      31.403  31.667  26.489  1.00  0.00     0.278 C 
ENDBRANCH   9  19
BRANCH  18  21
ATOM     21  C   UNL A   1      31.568  23.889  24.138  1.00  0.00     0.430 C 
ATOM     22  F   UNL A   1      32.070  22.653  23.916  1.00  0.00    -0.167 F 
ATOM     23  F   UNL A   1      31.160  23.922  25.428  1.00  0.00    -0.167 F 
ATOM     24  F   UNL A   1      30.468  24.028  23.362  1.00  0.00    -0.167 F 
ENDBRANCH  18  21
ENDBRANCH   6   8
ENDBRANCH   5   6
ENDBRANCH   4   5
ENDBRANCH   3   4
ENDBRANCH   2   3
ENDBRANCH   1   2
BRANCH   1  25
ATOM     25  C   UNL A   1      39.772  22.278  26.494  1.00  0.00     0.261 C 
BRANCH  25  26
ATOM     26  O   UNL A   1      40.257  23.153  27.528  1.00  0.00    -0.460 OA
BRANCH  26  27
ATOM     27  C   UNL A   1      41.056  24.159  27.094  1.00  0.00     0.338 C 
ATOM     28  O   UNL A   1      41.833  24.127  26.152  1.00  0.00    -0.246 OA
BRANCH  27  29
ATOM     29  C   UNL A   1      40.742  25.402  27.819  1.00  0.00     0.060 A 
ATOM     30  C   UNL A   1      41.660  26.458  27.740  1.00  0.00     0.016 A 
ATOM     31  C   UNL A   1      39.621  25.493  28.647  1.00  0.00     0.016 A 
ATOM     32  C   UNL A   1      41.487  27.594  28.528  1.00  0.00     0.010 A 
ATOM     33  C   UNL A   1      39.460  26.624  29.452  1.00  0.00     0.010 A 
ATOM     34  C   UNL A   1      40.410  27.661  29.422  1.00  0.00    -0.014 A 
BRANCH  34  35
ATOM     35  C   UNL A   1      40.361  28.730  30.447  1.00  0.00     0.031 A 
ATOM     36  C   UNL A   1      41.327  28.669  31.598  1.00  0.00     0.074 A 
ATOM     37  C   UNL A   1      39.476  29.737  30.349  1.00  0.00     0.049 A 
ATOM     38  N   UNL A   1      41.389  29.419  32.667  1.00  0.00    -0.248 NA
ATOM     39  C   UNL A   1      42.368  27.627  31.534  1.00  0.00     0.031 C 
ATOM     40  C   UNL A   1      38.543  29.942  29.241  1.00  0.00     0.029 A 
ATOM     41  N   UNL A   1      39.213  30.776  31.205  1.00  0.00    -0.354 N 
ATOM     42  C   UNL A   1      42.475  28.950  33.396  1.00  0.00     0.074 A 
ATOM     43  C   UNL A   1      43.031  27.833  32.663  1.00  0.00     0.031 C 
ATOM     44  C   UNL A   1      37.796  31.030  29.495  1.00  0.00     0.029 A 
ATOM     45  C   UNL A   1      38.172  31.577  30.798  1.00  0.00     0.049 A 
ATOM     46  H   UNL A   1      39.721  30.934  32.033  1.00  0.00     0.167 HD
ATOM     47  C   UNL A   1      42.968  29.415  34.568  1.00  0.00     0.037 A 
ATOM     48  C   UNL A   1      37.579  32.612  31.422  1.00  0.00     0.037 A 
ATOM     49  C   UNL A   1      42.397  30.512  35.303  1.00  0.00     0.049 A 
ATOM     50  C   UNL A   1      38.076  33.037  32.781  1.00  0.00     0.074 A 
ATOM     51  C   UNL A   1      42.787  31.024  36.528  1.00  0.00     0.029 A 
ATOM     52  N   UNL A   1      41.321  31.274  34.875  1.00  0.00    -0.354 N 
ATOM     53  N   UNL A   1      39.072  32.553  33.484  1.00  0.00    -0.248 NA
ATOM     54  C   UNL A   1      37.363  34.145  33.434  1.00  0.00     0.031 C 
ATOM     55  C   UNL A   1      41.929  32.079  36.855  1.00  0.00     0.029 A 
ATOM     56  C   UNL A   1      41.034  32.252  35.812  1.00  0.00     0.049 A 
ATOM     57  H   UNL A   1      40.833  31.140  34.031  1.00  0.00     0.167 HD
ATOM     58  C   UNL A   1      39.133  33.328  34.638  1.00  0.00     0.074 A 
ATOM     59  C   UNL A   1      38.073  34.308  34.542  1.00  0.00     0.031 C 
ATOM     60  C   UNL A   1      39.994  33.239  35.683  1.00  0.00     0.037 A 
BRANCH  47  61
ATOM     61  C   UNL A   1      44.185  28.745  35.138  1.00  0.00     0.058 A 
ATOM     62  C   UNL A   1      44.072  27.624  35.975  1.00  0.00     0.135 A 
ATOM     63  C   UNL A   1      45.473  29.164  34.771  1.00  0.00     0.135 A 
ATOM     64  F   UNL A   1      42.862  27.198  36.374  1.00  0.00    -0.206 F 
ATOM     65  C   UNL A   1      45.195  26.934  36.419  1.00  0.00     0.059 A 
ATOM     66  C   UNL A   1      46.610  28.478  35.189  1.00  0.00     0.059 A 
ATOM     67  F   UNL A   1      45.635  30.238  33.982  1.00  0.00    -0.206 F 
ATOM     68  C   UNL A   1      46.460  27.362  36.011  1.00  0.00     0.060 A 
BRANCH  68  69
ATOM     69  S   UNL A   1      47.900  26.415  36.546  1.00  0.00     0.124 S 
ATOM     70  O   UNL A   1      48.618  26.238  35.287  1.00  0.00    -0.237 OA
ATOM     71  O   UNL A   1      48.523  27.314  37.510  1.00  0.00    -0.237 OA
ATOM     72  O   UNL A   1      47.319  25.200  37.110  1.00  0.00    -0.744 OA
ENDBRANCH  68  69
ENDBRANCH  47  61
BRANCH  48  73
ATOM     73  C   UNL A   1      36.435  33.322  30.788  1.00  0.00     0.058 A 
ATOM     74  C   UNL A   1      36.639  34.198  29.711  1.00  0.00     0.135 A 
ATOM     75  C   UNL A   1      35.126  33.177  31.272  1.00  0.00     0.135 A 
ATOM     76  F   UNL A   1      37.875  34.378  29.219  1.00  0.00    -0.206 F 
ATOM     77  C   UNL A   1      35.594  34.927  29.156  1.00  0.00     0.059 A 
ATOM     78  C   UNL A   1      34.059  33.877  30.717  1.00  0.00     0.059 A 
ATOM     79  F   UNL A   1      34.875  32.345  32.295  1.00  0.00    -0.206 F 
ATOM     80  C   UNL A   1      34.307  34.764  29.671  1.00  0.00     0.060 A 
BRANCH  80  81
ATOM     81  S   UNL A   1      32.955  35.713  28.940  1.00  0.00     0.124 S 
ATOM     82  O   UNL A   1      33.678  36.800  28.293  1.00  0.00    -0.237 OA
ATOM     83  O   UNL A   1      32.340  34.734  28.049  1.00  0.00    -0.237 OA
ATOM     84  O   UNL A   1      32.149  36.091  30.097  1.00  0.00    -0.744 OA
ENDBRANCH  80  81
ENDBRANCH  48  73
BRANCH  60  85
ATOM     85  C   UNL A   1      39.875  34.268  36.771  1.00  0.00     0.058 A 
ATOM     86  C   UNL A   1      40.584  35.477  36.729  1.00  0.00     0.135 A 
ATOM     87  C   UNL A   1      38.991  34.059  37.843  1.00  0.00     0.135 A 
ATOM     88  F   UNL A   1      41.443  35.722  35.727  1.00  0.00    -0.206 F 
ATOM     89  C   UNL A   1      40.442  36.435  37.727  1.00  0.00     0.059 A 
ATOM     90  C   UNL A   1      38.814  35.014  38.838  1.00  0.00     0.059 A 
ATOM     91  F   UNL A   1      38.279  32.924  37.922  1.00  0.00    -0.206 F 
ATOM     92  C   UNL A   1      39.554  36.194  38.779  1.00  0.00     0.060 A 
BRANCH  92  93
ATOM     93  S   UNL A   1      39.358  37.458  40.053  1.00  0.00     0.124 S 
ATOM     94  O   UNL A   1      39.035  36.648  41.223  1.00  0.00    -0.237 OA
ATOM     95  O   UNL A   1      40.671  38.095  40.067  1.00  0.00    -0.237 OA
ATOM     96  O   UNL A   1      38.270  38.288  39.545  1.00  0.00    -0.744 OA
ENDBRANCH  92  93
ENDBRANCH  60  85
ENDBRANCH  34  35
ENDBRANCH  27  29
ENDBRANCH  26  27
ENDBRANCH  25  26
ENDBRANCH   1  25
TORSDOF 19
ENDMDL
MODEL 3
REMARK VINA RESULT:     -10.6      1.347      2.235
REMARK SMILES COc1cc(Cl)c2c(c1)C=C(C(=O)OCCOCCOC(=O)c1ccc(-c3c4nc(c(-c5c(F)cc(S(=O)(=O)[O-])cc5F)c5ccc([nH]5)c(-c5c(F)cc(S(=O)(=O)[O-])cc5F)c5nc(c(-c6c(F)cc(S(=O)(=O)[O-])cc6F)c6ccc3[nH]6)C=C5)C=C4)cc1)[C@@H](C(F)(F)F)O2
REMARK SMILES IDX 18 1 17 2 16 3 15 4 14 5 12 6 13 7 11 8 3 9 4 10 9 11 5 12
REMARK SMILES IDX 8 13 6 14 7 15 10 16 94 17 89 18 2 19 1 20 90 21 91 22 92 23
REMARK SMILES IDX 93 24 19 25 20 26 21 27 22 28 23 29 24 30 88 31 25 32 87 33
REMARK SMILES IDX 26 34 27 35 28 36 81 37 29 38 86 39 80 40 82 41 30 42 85 43
REMARK SMILES IDX 79 44 78 45 31 47 65 48 44 49 64 50 45 51 48 52 63 53 83 54
REMARK SMILES IDX 46 55 47 56 62 58 84 59 49 60 32 61 33 62 42 63 34 64 35 65
REMARK SMILES IDX 41 66 43 67 36 68 37 69 38 70 39 71 40 72 66 73 67 74 76 75
REMARK SMILES IDX 68 76 69 77 75 78 77 79 70 80 71 81 72 82 73 83 74 84 50 85
REMARK SMILES IDX 51 86 60 87 52 88 53 89 59 90 61 91 54 92 55 93 56 94 57 95
REMARK SMILES IDX 58 96
REMARK H PARENT 82 46 48 57
REMARK Flexibility Score: inf
ROOT
ATOM      1  C   UNL A   1      32.138  30.354  25.794  1.00  0.00     0.202 C 
ENDROOT
BRANCH   1   2
ATOM      2  O   UNL A   1      32.340  28.954  25.592  1.00  0.00    -0.374 OA
BRANCH   2   3
ATOM      3  C   UNL A   1      31.589  28.326  24.554  1.00  0.00     0.202 C 
BRANCH   3   4
ATOM      4  C   UNL A   1      32.102  26.960  24.094  1.00  0.00     0.261 C 
BRANCH   4   5
ATOM      5  O   UNL A   1      32.996  26.391  25.064  1.00  0.00    -0.460 OA
BRANCH   5   6
ATOM      6  C   UNL A   1      32.422  25.522  25.925  1.00  0.00     0.338 C 
ATOM      7  O   UNL A   1      31.477  25.741  26.668  1.00  0.00    -0.246 OA
BRANCH   6   8
ATOM      8  C   UNL A   1      33.020  24.183  25.761  1.00  0.00     0.087 C 
ATOM      9  C   UNL A   1      37.062  21.605  25.552  1.00  0.00     0.121 A 
ATOM     10  C   UNL A   1      36.356  20.499  25.090  1.00  0.00     0.070 A 
ATOM     11  C   UNL A   1      36.390  22.767  25.916  1.00  0.00     0.058 A 
ATOM     12  C   UNL A   1      34.965  20.570  24.974  1.00  0.00     0.087 A 
ATOM     13  C   UNL A   1      35.002  22.850  25.765  1.00  0.00     0.022 A 
ATOM     14  Cl  UNL A   1      34.126  19.177  24.387  1.00  0.00    -0.080 Cl
ATOM     15  C   UNL A   1      34.277  21.747  25.306  1.00  0.00     0.146 A 
ATOM     16  C   UNL A   1      34.328  24.105  26.033  1.00  0.00     0.027 C 
ATOM     17  O   UNL A   1      32.913  21.760  25.188  1.00  0.00    -0.474 OA
ATOM     18  C   UNL A   1      32.192  23.022  25.285  1.00  0.00     0.316 C 
BRANCH   9  19
ATOM     19  O   UNL A   1      38.419  21.589  25.716  1.00  0.00    -0.497 OA
ATOM     20  C   UNL A   1      38.903  22.849  26.181  1.00  0.00     0.278 C 
ENDBRANCH   9  19
BRANCH  18  21
ATOM     21  C   UNL A   1      31.511  23.300  23.936  1.00  0.00     0.430 C 
ATOM     22  F   UNL A   1      30.381  24.027  24.095  1.00  0.00    -0.167 F 
ATOM     23  F   UNL A   1      32.315  24.000  23.103  1.00  0.00    -0.167 F 
ATOM     24  F   UNL A   1      31.172  22.153  23.303  1.00  0.00    -0.167 F 
ENDBRANCH  18  21
ENDBRANCH   6   8
ENDBRANCH   5   6
ENDBRANCH   4   5
ENDBRANCH   3   4
ENDBRANCH   2   3
ENDBRANCH   1   2
BRANCH   1  25
ATOM     25  C   UNL A   1      32.491  30.908  27.180  1.00  0.00     0.261 C 
BRANCH  25  26
ATOM     26  O   UNL A   1      33.631  30.245  27.757  1.00  0.00    -0.460 OA
BRANCH  26  27
ATOM     27  C   UNL A   1      34.630  31.072  28.151  1.00  0.00     0.338 C 
ATOM     28  O   UNL A   1      34.528  32.243  28.485  1.00  0.00    -0.246 OA
BRANCH  27  29
ATOM     29  C   UNL A   1      35.885  30.315  28.295  1.00  0.00     0.060 A 
ATOM     30  C   UNL A   1      36.156  29.723  29.536  1.00  0.00     0.016 A 
ATOM     31  C   UNL A   1      36.829  30.276  27.266  1.00  0.00     0.016 A 
ATOM     32  C   UNL A   1      37.395  29.130  29.771  1.00  0.00     0.010 A 
ATOM     33  C   UNL A   1      38.078  29.699  27.510  1.00  0.00     0.010 A 
ATOM     34  C   UNL A   1      38.378  29.157  28.773  1.00  0.00    -0.014 A 
BRANCH  34  35
ATOM     35  C   UNL A   1      39.773  28.774  29.093  1.00  0.00     0.031 A 
ATOM     36  C   UNL A   1      40.657  29.780  29.778  1.00  0.00     0.074 A 
ATOM     37  C   UNL A   1      40.239  27.552  28.784  1.00  0.00     0.049 A 
ATOM     38  N   UNL A   1      41.934  29.712  30.046  1.00  0.00    -0.248 NA
ATOM     39  C   UNL A   1      40.013  31.027  30.229  1.00  0.00     0.031 C 
ATOM     40  C   UNL A   1      39.455  26.470  28.188  1.00  0.00     0.029 A 
ATOM     41  N   UNL A   1      41.496  27.018  28.922  1.00  0.00    -0.354 N 
ATOM     42  C   UNL A   1      42.247  30.897  30.702  1.00  0.00     0.074 A 
ATOM     43  C   UNL A   1      41.032  31.680  30.771  1.00  0.00     0.031 C 
ATOM     44  C   UNL A   1      40.254  25.407  27.995  1.00  0.00     0.029 A 
ATOM     45  C   UNL A   1      41.612  25.744  28.419  1.00  0.00     0.049 A 
ATOM     46  H   UNL A   1      42.243  27.501  29.343  1.00  0.00     0.167 HD
ATOM     47  C   UNL A   1      43.439  31.292  31.207  1.00  0.00     0.037 A 
ATOM     48  C   UNL A   1      42.698  24.957  28.292  1.00  0.00     0.037 A 
ATOM     49  C   UNL A   1      44.648  30.518  31.115  1.00  0.00     0.049 A 
ATOM     50  C   UNL A   1      44.037  25.469  28.760  1.00  0.00     0.074 A 
ATOM     51  C   UNL A   1      45.921  30.854  31.545  1.00  0.00     0.029 A 
ATOM     52  N   UNL A   1      44.734  29.248  30.566  1.00  0.00    -0.354 N 
ATOM     53  N   UNL A   1      44.330  26.612  29.334  1.00  0.00    -0.248 NA
ATOM     54  C   UNL A   1      45.195  24.585  28.559  1.00  0.00     0.031 C 
ATOM     55  C   UNL A   1      46.781  29.798  31.230  1.00  0.00     0.029 A 
ATOM     56  C   UNL A   1      46.036  28.787  30.645  1.00  0.00     0.049 A 
ATOM     57  H   UNL A   1      43.980  28.749  30.176  1.00  0.00     0.167 HD
ATOM     58  C   UNL A   1      45.694  26.564  29.601  1.00  0.00     0.074 A 
ATOM     59  C   UNL A   1      46.170  25.283  29.125  1.00  0.00     0.031 C 
ATOM     60  C   UNL A   1      46.483  27.495  30.193  1.00  0.00     0.037 A 
BRANCH  47  61
ATOM     61  C   UNL A   1      43.505  32.620  31.906  1.00  0.00     0.058 A 
ATOM     62  C   UNL A   1      43.349  32.716  33.297  1.00  0.00     0.135 A 
ATOM     63  C   UNL A   1      43.821  33.789  31.196  1.00  0.00     0.135 A 
ATOM     64  F   UNL A   1      43.023  31.631  34.017  1.00  0.00    -0.206 F 
ATOM     65  C   UNL A   1      43.516  33.926  33.963  1.00  0.00     0.059 A 
ATOM     66  C   UNL A   1      44.010  35.006  31.844  1.00  0.00     0.059 A 
ATOM     67  F   UNL A   1      43.970  33.751  29.863  1.00  0.00    -0.206 F 
ATOM     68  C   UNL A   1      43.858  35.063  33.229  1.00  0.00     0.060 A 
BRANCH  68  69
ATOM     69  S   UNL A   1      44.133  36.608  34.120  1.00  0.00     0.124 S 
ATOM     70  O   UNL A   1      45.455  36.995  33.634  1.00  0.00    -0.237 OA
ATOM     71  O   UNL A   1      43.022  37.434  33.661  1.00  0.00    -0.237 OA
ATOM     72  O   UNL A   1      44.075  36.208  35.523  1.00  0.00    -0.744 OA
ENDBRANCH  68  69
ENDBRANCH  47  61
BRANCH  48  73
ATOM     73  C   UNL A   1      42.585  23.604  27.684  1.00  0.00     0.058 A 
ATOM     74  C   UNL A   1      42.386  22.470  28.485  1.00  0.00     0.135 A 
ATOM     75  C   UNL A   1      42.718  23.412  26.300  1.00  0.00     0.135 A 
ATOM     76  F   UNL A   1      42.264  22.602  29.815  1.00  0.00    -0.206 F 
ATOM     77  C   UNL A   1      42.355  21.191  27.942  1.00  0.00     0.059 A 
ATOM     78  C   UNL A   1      42.665  22.144  25.730  1.00  0.00     0.059 A 
ATOM     79  F   UNL A   1      42.901  24.465  25.489  1.00  0.00    -0.206 F 
ATOM     80  C   UNL A   1      42.500  21.037  26.562  1.00  0.00     0.060 A 
BRANCH  80  81
ATOM     81  S   UNL A   1      42.454  19.372  25.866  1.00  0.00     0.124 S 
ATOM     82  O   UNL A   1      42.987  18.580  26.967  1.00  0.00    -0.237 OA
ATOM     83  O   UNL A   1      41.032  19.197  25.583  1.00  0.00    -0.237 OA
ATOM     84  O   UNL A   1      43.311  19.477  24.689  1.00  0.00    -0.744 OA
ENDBRANCH  80  81
ENDBRANCH  48  73
BRANCH  60  85
ATOM     85  C   UNL A   1      47.924  27.139  30.426  1.00  0.00     0.058 A 
ATOM     86  C   UNL A   1      48.920  27.419  29.479  1.00  0.00     0.135 A 
ATOM     87  C   UNL A   1      48.318  26.557  31.643  1.00  0.00     0.135 A 
ATOM     88  F   UNL A   1      48.595  27.971  28.300  1.00  0.00    -0.206 F 
ATOM     89  C   UNL A   1      50.255  27.112  29.720  1.00  0.00     0.059 A 
ATOM     90  C   UNL A   1      49.649  26.265  31.915  1.00  0.00     0.059 A 
ATOM     91  F   UNL A   1      47.404  26.281  32.588  1.00  0.00    -0.206 F 
ATOM     92  C   UNL A   1      50.610  26.534  30.941  1.00  0.00     0.060 A 
BRANCH  92  93
ATOM     93  S   UNL A   1      52.350  26.166  31.251  1.00  0.00     0.124 S 
ATOM     94  O   UNL A   1      52.270  24.823  31.817  1.00  0.00    -0.237 OA
ATOM     95  O   UNL A   1      52.932  26.257  29.916  1.00  0.00    -0.237 OA
ATOM     96  O   UNL A   1      52.760  27.215  32.180  1.00  0.00    -0.744 OA
ENDBRANCH  92  93
ENDBRANCH  60  85
ENDBRANCH  34  35
ENDBRANCH  27  29
ENDBRANCH  26  27
ENDBRANCH  25  26
ENDBRANCH   1  25
TORSDOF 19
ENDMDL
