MODEL 1
REMARK VINA RESULT:     -11.1      0.000      0.000
REMARK SMILES C[C@](NC(=O)[C@](C)([NH3+])C(F)(F)F)(C(=O)OCCOCCOC(=O)c1ccc(-c2c3nc(c(-c4c(F)cc(S(=O)(=O)[O-])cc4F)c4ccc([nH]4)c(-c4c(F)cc(S(=O)(=O)[O-])cc4F)c4nc(c(-c5c(F)cc(S(=O)(=O)[O-])cc5F)c5ccc2[nH]5)C=C4)C=C3)cc1)c1ccccc1
REMARK SMILES IDX 18 1 17 2 16 3 15 4 13 5 14 6 2 7 1 8 90 9 91 10 95 11 92 12
REMARK SMILES IDX 94 13 93 14 3 15 4 16 5 18 6 19 7 20 8 21 9 25 10 26 11 27
REMARK SMILES IDX 12 28 19 29 20 30 21 31 22 32 23 33 24 34 25 35 89 36 26 37
REMARK SMILES IDX 88 38 27 39 28 40 29 41 82 42 30 43 87 44 81 45 83 46 31 47
REMARK SMILES IDX 86 48 80 49 79 50 32 52 66 53 45 54 65 55 46 56 49 57 64 58
REMARK SMILES IDX 84 59 47 60 48 61 63 63 85 64 50 65 33 66 34 67 43 68 35 69
REMARK SMILES IDX 36 70 42 71 44 72 37 73 38 74 39 75 40 76 41 77 67 78 68 79
REMARK SMILES IDX 77 80 69 81 70 82 76 83 78 84 71 85 72 86 73 87 74 88 75 89
REMARK SMILES IDX 51 90 52 91 61 92 53 93 54 94 60 95 62 96 55 97 56 98 57 99
REMARK SMILES IDX 58 100 59 101
REMARK H PARENT 3 17 8 22 8 23 8 24 83 51 49 62
REMARK Flexibility Score: inf
ROOT
ATOM      1  O   UNL A   1      39.101  21.402  25.808  1.00  0.00    -0.374 OA
ENDROOT
BRANCH   1   2
ATOM      2  C   UNL A   1      37.967  21.946  25.121  1.00  0.00     0.202 C 
BRANCH   2   3
ATOM      3  C   UNL A   1      36.668  21.993  25.944  1.00  0.00     0.261 C 
BRANCH   3   4
ATOM      4  O   UNL A   1      35.617  21.092  25.485  1.00  0.00    -0.461 OA
BRANCH   4   5
ATOM      5  C   UNL A   1      34.387  21.344  26.005  1.00  0.00     0.336 C 
ATOM      6  O   UNL A   1      34.203  21.427  27.221  1.00  0.00    -0.249 OA
BRANCH   5   7
ATOM      7  C   UNL A   1      33.162  21.401  24.969  1.00  0.00     0.161 C 
ATOM      8  C   UNL A   1      31.996  21.715  25.969  1.00  0.00     0.053 C 
BRANCH   7   9
ATOM      9  C   UNL A   1      33.444  22.636  24.054  1.00  0.00    -0.012 A 
ATOM     10  C   UNL A   1      33.820  23.877  24.595  1.00  0.00     0.007 A 
ATOM     11  C   UNL A   1      33.141  22.608  22.676  1.00  0.00     0.007 A 
ATOM     12  C   UNL A   1      33.779  25.048  23.831  1.00  0.00     0.000 A 
ATOM     13  C   UNL A   1      33.116  23.774  21.909  1.00  0.00     0.000 A 
ATOM     14  C   UNL A   1      33.406  25.000  22.493  1.00  0.00     0.000 A 
ENDBRANCH   7   9
BRANCH   7  15
ATOM     15  N   UNL A   1      32.513  20.306  24.142  1.00  0.00    -0.331 N 
ATOM     16  C   UNL A   1      32.573  18.973  23.890  1.00  0.00     0.291 C 
ATOM     17  H   UNL A   1      31.794  20.701  23.598  1.00  0.00     0.165 HD
ATOM     18  O   UNL A   1      32.168  18.641  22.768  1.00  0.00    -0.267 OA
BRANCH  16  19
ATOM     19  C   UNL A   1      33.055  17.928  24.895  1.00  0.00     0.267 C 
ATOM     20  C   UNL A   1      32.001  16.830  24.954  1.00  0.00     0.100 C 
BRANCH  19  21
ATOM     21  N   UNL A   1      33.049  18.476  26.307  1.00  0.00    -0.337 N 
ATOM     22  H   UNL A   1      33.959  18.316  26.738  1.00  0.00     0.345 HD
ATOM     23  H   UNL A   1      32.327  18.005  26.852  1.00  0.00     0.345 HD
ATOM     24  H   UNL A   1      32.856  19.478  26.282  1.00  0.00     0.345 HD
ENDBRANCH  19  21
BRANCH  19  25
ATOM     25  C   UNL A   1      34.491  17.550  24.440  1.00  0.00     0.453 C 
ATOM     26  F   UNL A   1      35.067  16.715  25.325  1.00  0.00    -0.164 F 
ATOM     27  F   UNL A   1      34.572  16.955  23.231  1.00  0.00    -0.164 F 
ATOM     28  F   UNL A   1      35.298  18.640  24.377  1.00  0.00    -0.164 F 
ENDBRANCH  19  25
ENDBRANCH  16  19
ENDBRANCH   7  15
ENDBRANCH   5   7
ENDBRANCH   4   5
ENDBRANCH   3   4
ENDBRANCH   2   3
ENDBRANCH   1   2
BRANCH   1  29
ATOM     29  C   UNL A   1      39.699  22.276  26.759  1.00  0.00     0.202 C 
BRANCH  29  30
ATOM     30  C   UNL A   1      41.193  22.554  26.526  1.00  0.00     0.261 C 
BRANCH  30  31
ATOM     31  O   UNL A   1      41.407  23.947  26.223  1.00  0.00    -0.460 OA
BRANCH  31  32
ATOM     32  C   UNL A   1      42.362  24.558  26.964  1.00  0.00     0.338 C 
ATOM     33  O   UNL A   1      43.562  24.424  26.841  1.00  0.00    -0.246 OA
BRANCH  32  34
ATOM     34  C   UNL A   1      41.763  25.611  27.822  1.00  0.00     0.060 A 
ATOM     35  C   UNL A   1      42.592  26.698  28.115  1.00  0.00     0.016 A 
ATOM     36  C   UNL A   1      40.482  25.540  28.378  1.00  0.00     0.016 A 
ATOM     37  C   UNL A   1      42.179  27.671  29.022  1.00  0.00     0.010 A 
ATOM     38  C   UNL A   1      40.063  26.533  29.285  1.00  0.00     0.010 A 
ATOM     39  C   UNL A   1      40.931  27.579  29.652  1.00  0.00    -0.014 A 
BRANCH  39  40
ATOM     40  C   UNL A   1      40.652  28.506  30.787  1.00  0.00     0.031 A 
ATOM     41  C   UNL A   1      41.532  28.460  32.014  1.00  0.00     0.074 A 
ATOM     42  C   UNL A   1      39.726  29.480  30.672  1.00  0.00     0.049 A 
ATOM     43  N   UNL A   1      41.564  29.273  33.040  1.00  0.00    -0.248 NA
ATOM     44  C   UNL A   1      42.510  27.365  32.091  1.00  0.00     0.031 C 
ATOM     45  C   UNL A   1      38.829  29.661  29.532  1.00  0.00     0.029 A 
ATOM     46  N   UNL A   1      39.403  30.517  31.516  1.00  0.00    -0.354 N 
ATOM     47  C   UNL A   1      42.566  28.793  33.876  1.00  0.00     0.074 A 
ATOM     48  C   UNL A   1      43.093  27.597  33.258  1.00  0.00     0.031 C 
ATOM     49  C   UNL A   1      38.070  30.752  29.739  1.00  0.00     0.029 A 
ATOM     50  C   UNL A   1      38.407  31.336  31.036  1.00  0.00     0.049 A 
ATOM     51  H   UNL A   1      39.846  30.660  32.385  1.00  0.00     0.167 HD
ATOM     52  C   UNL A   1      43.021  29.310  35.044  1.00  0.00     0.037 A 
ATOM     53  C   UNL A   1      37.826  32.427  31.579  1.00  0.00     0.037 A 
ATOM     54  C   UNL A   1      42.513  30.509  35.658  1.00  0.00     0.049 A 
ATOM     55  C   UNL A   1      38.311  32.943  32.912  1.00  0.00     0.074 A 
ATOM     56  C   UNL A   1      42.942  31.124  36.822  1.00  0.00     0.029 A 
ATOM     57  N   UNL A   1      41.462  31.270  35.170  1.00  0.00    -0.354 N 
ATOM     58  N   UNL A   1      39.298  32.507  33.657  1.00  0.00    -0.248 NA
ATOM     59  C   UNL A   1      37.605  34.104  33.475  1.00  0.00     0.031 C 
ATOM     60  C   UNL A   1      42.113  32.222  37.070  1.00  0.00     0.029 A 
ATOM     61  C   UNL A   1      41.204  32.325  36.030  1.00  0.00     0.049 A 
ATOM     62  H   UNL A   1      40.971  31.088  34.336  1.00  0.00     0.167 HD
ATOM     63  C   UNL A   1      39.341  33.352  34.764  1.00  0.00     0.074 A 
ATOM     64  C   UNL A   1      38.300  34.338  34.580  1.00  0.00     0.031 C 
ATOM     65  C   UNL A   1      40.168  33.308  35.839  1.00  0.00     0.037 A 
BRANCH  52  66
ATOM     66  C   UNL A   1      44.123  28.575  35.759  1.00  0.00     0.058 A 
ATOM     67  C   UNL A   1      43.854  27.544  36.671  1.00  0.00     0.135 A 
ATOM     68  C   UNL A   1      45.467  28.853  35.461  1.00  0.00     0.135 A 
ATOM     69  F   UNL A   1      42.588  27.249  37.004  1.00  0.00    -0.206 F 
ATOM     70  C   UNL A   1      44.879  26.818  37.269  1.00  0.00     0.059 A 
ATOM     71  C   UNL A   1      46.507  28.124  36.027  1.00  0.00     0.059 A 
ATOM     72  F   UNL A   1      45.779  29.832  34.595  1.00  0.00    -0.206 F 
ATOM     73  C   UNL A   1      46.203  27.111  36.935  1.00  0.00     0.060 A 
BRANCH  73  74
ATOM     74  S   UNL A   1      47.519  26.132  37.689  1.00  0.00     0.124 S 
ATOM     75  O   UNL A   1      46.955  25.847  39.005  1.00  0.00    -0.237 OA
ATOM     76  O   UNL A   1      47.617  24.993  36.782  1.00  0.00    -0.237 OA
ATOM     77  O   UNL A   1      48.665  27.036  37.681  1.00  0.00    -0.744 OA
ENDBRANCH  73  74
ENDBRANCH  52  66
BRANCH  53  78
ATOM     78  C   UNL A   1      36.691  33.098  30.884  1.00  0.00     0.058 A 
ATOM     79  C   UNL A   1      36.894  33.940  29.780  1.00  0.00     0.135 A 
ATOM     80  C   UNL A   1      35.375  32.946  31.352  1.00  0.00     0.135 A 
ATOM     81  F   UNL A   1      38.134  34.132  29.303  1.00  0.00    -0.206 F 
ATOM     82  C   UNL A   1      35.842  34.627  29.182  1.00  0.00     0.059 A 
ATOM     83  C   UNL A   1      34.303  33.597  30.751  1.00  0.00     0.059 A 
ATOM     84  F   UNL A   1      35.120  32.148  32.400  1.00  0.00    -0.206 F 
ATOM     85  C   UNL A   1      34.549  34.451  29.678  1.00  0.00     0.060 A 
BRANCH  85  86
ATOM     86  S   UNL A   1      33.185  35.331  28.885  1.00  0.00     0.124 S 
ATOM     87  O   UNL A   1      32.432  35.807  30.040  1.00  0.00    -0.237 OA
ATOM     88  O   UNL A   1      33.885  36.352  28.113  1.00  0.00    -0.237 OA
ATOM     89  O   UNL A   1      32.534  34.293  28.091  1.00  0.00    -0.744 OA
ENDBRANCH  85  86
ENDBRANCH  53  78
BRANCH  65  90
ATOM     90  C   UNL A   1      39.998  34.368  36.897  1.00  0.00     0.058 A 
ATOM     91  C   UNL A   1      40.681  35.593  36.830  1.00  0.00     0.135 A 
ATOM     92  C   UNL A   1      39.099  34.179  37.960  1.00  0.00     0.135 A 
ATOM     93  F   UNL A   1      41.554  35.825  35.838  1.00  0.00    -0.206 F 
ATOM     94  C   UNL A   1      40.498  36.582  37.792  1.00  0.00     0.059 A 
ATOM     95  C   UNL A   1      38.877  35.166  38.916  1.00  0.00     0.059 A 
ATOM     96  F   UNL A   1      38.409  33.032  38.067  1.00  0.00    -0.206 F 
ATOM     97  C   UNL A   1      39.591  36.360  38.830  1.00  0.00     0.060 A 
BRANCH  97  98
ATOM     98  S   UNL A   1      39.341  37.665  40.052  1.00  0.00     0.124 S 
ATOM     99  O   UNL A   1      40.611  38.380  39.985  1.00  0.00    -0.237 OA
ATOM    100  O   UNL A   1      38.183  38.377  39.518  1.00  0.00    -0.237 OA
ATOM    101  O   UNL A   1      39.099  36.930  41.291  1.00  0.00    -0.744 OA
ENDBRANCH  97  98
ENDBRANCH  65  90
ENDBRANCH  39  40
ENDBRANCH  32  34
ENDBRANCH  31  32
ENDBRANCH  30  31
ENDBRANCH  29  30
ENDBRANCH   1  29
TORSDOF 22
ENDMDL
MODEL 2
REMARK VINA RESULT:     -10.8      2.791      3.996
REMARK SMILES C[C@](NC(=O)[C@](C)([NH3+])C(F)(F)F)(C(=O)OCCOCCOC(=O)c1ccc(-c2c3nc(c(-c4c(F)cc(S(=O)(=O)[O-])cc4F)c4ccc([nH]4)c(-c4c(F)cc(S(=O)(=O)[O-])cc4F)c4nc(c(-c5c(F)cc(S(=O)(=O)[O-])cc5F)c5ccc2[nH]5)C=C4)C=C3)cc1)c1ccccc1
REMARK SMILES IDX 18 1 17 2 16 3 15 4 13 5 14 6 2 7 1 8 90 9 91 10 95 11 92 12
REMARK SMILES IDX 94 13 93 14 3 15 4 16 5 18 6 19 7 20 8 21 9 25 10 26 11 27
REMARK SMILES IDX 12 28 19 29 20 30 21 31 22 32 23 33 24 34 25 35 89 36 26 37
REMARK SMILES IDX 88 38 27 39 28 40 29 41 82 42 30 43 87 44 81 45 83 46 31 47
REMARK SMILES IDX 86 48 80 49 79 50 32 52 66 53 45 54 65 55 46 56 49 57 64 58
REMARK SMILES IDX 84 59 47 60 48 61 63 63 85 64 50 65 33 66 34 67 43 68 35 69
REMARK SMILES IDX 36 70 42 71 44 72 37 73 38 74 39 75 40 76 41 77 67 78 68 79
REMARK SMILES IDX 77 80 69 81 70 82 76 83 78 84 71 85 72 86 73 87 74 88 75 89
REMARK SMILES IDX 51 90 52 91 61 92 53 93 54 94 60 95 62 96 55 97 56 98 57 99
REMARK SMILES IDX 58 100 59 101
REMARK H PARENT 3 17 8 22 8 23 8 24 83 51 49 62
REMARK Flexibility Score: inf
ROOT
ATOM      1  O   UNL A   1      36.504  22.297  25.941  1.00  0.00    -0.374 OA
ENDROOT
BRANCH   1   2
ATOM      2  C   UNL A   1      35.577  23.120  25.223  1.00  0.00     0.202 C 
BRANCH   2   3
ATOM      3  C   UNL A   1      34.469  23.754  26.080  1.00  0.00     0.261 C 
BRANCH   3   4
ATOM      4  O   UNL A   1      33.663  24.760  25.398  1.00  0.00    -0.461 OA
BRANCH   4   5
ATOM      5  C   UNL A   1      32.469  25.027  25.989  1.00  0.00     0.336 C 
ATOM      6  O   UNL A   1      32.045  24.349  26.927  1.00  0.00    -0.249 OA
BRANCH   5   7
ATOM      7  C   UNL A   1      31.577  26.185  25.326  1.00  0.00     0.161 C 
ATOM      8  C   UNL A   1      30.218  25.913  26.060  1.00  0.00     0.053 C 
BRANCH   7   9
ATOM      9  C   UNL A   1      32.203  27.530  25.817  1.00  0.00    -0.012 A 
ATOM     10  C   UNL A   1      33.419  27.556  26.520  1.00  0.00     0.007 A 
ATOM     11  C   UNL A   1      31.480  28.739  25.749  1.00  0.00     0.007 A 
ATOM     12  C   UNL A   1      33.833  28.696  27.218  1.00  0.00     0.000 A 
ATOM     13  C   UNL A   1      31.900  29.882  26.433  1.00  0.00     0.000 A 
ATOM     14  C   UNL A   1      33.061  29.852  27.193  1.00  0.00     0.000 A 
ENDBRANCH   7   9
BRANCH   7  15
ATOM     15  N   UNL A   1      31.077  26.358  23.903  1.00  0.00    -0.331 N 
ATOM     16  C   UNL A   1      31.482  26.725  22.660  1.00  0.00     0.291 C 
ATOM     17  H   UNL A   1      30.123  26.118  23.869  1.00  0.00     0.165 HD
ATOM     18  O   UNL A   1      30.585  27.181  21.938  1.00  0.00    -0.267 OA
BRANCH  16  19
ATOM     19  C   UNL A   1      32.910  26.566  22.138  1.00  0.00     0.267 C 
ATOM     20  C   UNL A   1      32.819  26.191  20.664  1.00  0.00     0.100 C 
BRANCH  19  21
ATOM     21  N   UNL A   1      33.589  25.359  22.751  1.00  0.00    -0.337 N 
ATOM     22  H   UNL A   1      32.942  24.888  23.382  1.00  0.00     0.345 HD
ATOM     23  H   UNL A   1      34.413  25.661  23.272  1.00  0.00     0.345 HD
ATOM     24  H   UNL A   1      33.872  24.716  22.011  1.00  0.00     0.345 HD
ENDBRANCH  19  21
BRANCH  19  25
ATOM     25  C   UNL A   1      33.638  27.883  22.522  1.00  0.00     0.453 C 
ATOM     26  F   UNL A   1      34.453  28.283  21.529  1.00  0.00    -0.164 F 
ATOM     27  F   UNL A   1      32.828  28.924  22.808  1.00  0.00    -0.164 F 
ATOM     28  F   UNL A   1      34.432  27.715  23.611  1.00  0.00    -0.164 F 
ENDBRANCH  19  25
ENDBRANCH  16  19
ENDBRANCH   7  15
ENDBRANCH   5   7
ENDBRANCH   4   5
ENDBRANCH   3   4
ENDBRANCH   2   3
ENDBRANCH   1   2
BRANCH   1  29
ATOM     29  C   UNL A   1      37.875  22.610  25.723  1.00  0.00     0.202 C 
BRANCH  29  30
ATOM     30  C   UNL A   1      38.266  24.056  26.066  1.00  0.00     0.261 C 
BRANCH  30  31
ATOM     31  O   UNL A   1      39.591  24.101  26.630  1.00  0.00    -0.460 OA
BRANCH  31  32
ATOM     32  C   UNL A   1      40.282  25.242  26.389  1.00  0.00     0.338 C 
ATOM     33  O   UNL A   1      40.574  25.689  25.300  1.00  0.00    -0.246 OA
BRANCH  32  34
ATOM     34  C   UNL A   1      40.453  26.023  27.640  1.00  0.00     0.060 A 
ATOM     35  C   UNL A   1      39.496  25.797  28.632  1.00  0.00     0.016 A 
ATOM     36  C   UNL A   1      41.453  26.981  27.840  1.00  0.00     0.016 A 
ATOM     37  C   UNL A   1      39.483  26.576  29.787  1.00  0.00     0.010 A 
ATOM     38  C   UNL A   1      41.445  27.758  29.015  1.00  0.00     0.010 A 
ATOM     39  C   UNL A   1      40.427  27.594  29.974  1.00  0.00    -0.014 A 
BRANCH  39  40
ATOM     40  C   UNL A   1      40.211  28.547  31.100  1.00  0.00     0.031 A 
ATOM     41  C   UNL A   1      41.097  28.466  32.320  1.00  0.00     0.074 A 
ATOM     42  C   UNL A   1      39.341  29.571  30.982  1.00  0.00     0.049 A 
ATOM     43  N   UNL A   1      41.185  29.287  33.337  1.00  0.00    -0.248 NA
ATOM     44  C   UNL A   1      42.013  27.317  32.402  1.00  0.00     0.031 C 
ATOM     45  C   UNL A   1      38.446  29.790  29.847  1.00  0.00     0.029 A 
ATOM     46  N   UNL A   1      39.085  30.634  31.816  1.00  0.00    -0.354 N 
ATOM     47  C   UNL A   1      42.165  28.760  34.171  1.00  0.00     0.074 A 
ATOM     48  C   UNL A   1      42.617  27.529  33.563  1.00  0.00     0.031 C 
ATOM     49  C   UNL A   1      37.752  30.925  30.047  1.00  0.00     0.029 A 
ATOM     50  C   UNL A   1      38.133  31.504  31.334  1.00  0.00     0.049 A 
ATOM     51  H   UNL A   1      39.542  30.762  32.679  1.00  0.00     0.167 HD
ATOM     52  C   UNL A   1      42.659  29.263  35.329  1.00  0.00     0.037 A 
ATOM     53  C   UNL A   1      37.619  32.631  31.869  1.00  0.00     0.037 A 
ATOM     54  C   UNL A   1      42.225  30.497  35.932  1.00  0.00     0.049 A 
ATOM     55  C   UNL A   1      38.144  33.134  33.192  1.00  0.00     0.074 A 
ATOM     56  C   UNL A   1      42.698  31.098  37.086  1.00  0.00     0.029 A 
ATOM     57  N   UNL A   1      41.215  31.310  35.445  1.00  0.00    -0.354 N 
ATOM     58  N   UNL A   1      39.111  32.651  33.934  1.00  0.00    -0.248 NA
ATOM     59  C   UNL A   1      37.510  34.340  33.747  1.00  0.00     0.031 C 
ATOM     60  C   UNL A   1      41.934  32.245  37.327  1.00  0.00     0.029 A 
ATOM     61  C   UNL A   1      41.024  32.388  36.294  1.00  0.00     0.049 A 
ATOM     62  H   UNL A   1      40.707  31.147  34.616  1.00  0.00     0.167 HD
ATOM     63  C   UNL A   1      39.212  33.504  35.031  1.00  0.00     0.074 A 
ATOM     64  C   UNL A   1      38.226  34.546  34.843  1.00  0.00     0.031 C 
ATOM     65  C   UNL A   1      40.044  33.426  36.099  1.00  0.00     0.037 A 
BRANCH  52  66
ATOM     66  C   UNL A   1      43.723  28.475  36.043  1.00  0.00     0.058 A 
ATOM     67  C   UNL A   1      45.084  28.798  35.929  1.00  0.00     0.135 A 
ATOM     68  C   UNL A   1      43.366  27.437  36.919  1.00  0.00     0.135 A 
ATOM     69  F   UNL A   1      45.481  29.770  35.093  1.00  0.00    -0.206 F 
ATOM     70  C   UNL A   1      46.055  28.114  36.653  1.00  0.00     0.059 A 
ATOM     71  C   UNL A   1      44.318  26.756  37.672  1.00  0.00     0.059 A 
ATOM     72  F   UNL A   1      42.078  27.088  37.063  1.00  0.00    -0.206 F 
ATOM     73  C   UNL A   1      45.662  27.099  37.528  1.00  0.00     0.060 A 
BRANCH  73  74
ATOM     74  S   UNL A   1      46.931  26.250  38.491  1.00  0.00     0.124 S 
ATOM     75  O   UNL A   1      46.963  27.055  39.707  1.00  0.00    -0.237 OA
ATOM     76  O   UNL A   1      46.369  24.911  38.632  1.00  0.00    -0.237 OA
ATOM     77  O   UNL A   1      48.118  26.342  37.647  1.00  0.00    -0.744 OA
ENDBRANCH  73  74
ENDBRANCH  52  66
BRANCH  53  78
ATOM     78  C   UNL A   1      36.518  33.358  31.176  1.00  0.00     0.058 A 
ATOM     79  C   UNL A   1      35.196  33.315  31.644  1.00  0.00     0.135 A 
ATOM     80  C   UNL A   1      36.765  34.073  29.992  1.00  0.00     0.135 A 
ATOM     81  F   UNL A   1      34.902  32.632  32.762  1.00  0.00    -0.206 F 
ATOM     82  C   UNL A   1      34.155  33.928  30.952  1.00  0.00     0.059 A 
ATOM     83  C   UNL A   1      35.747  34.721  29.301  1.00  0.00     0.059 A 
ATOM     84  F   UNL A   1      38.011  34.153  29.502  1.00  0.00    -0.206 F 
ATOM     85  C   UNL A   1      34.442  34.628  29.779  1.00  0.00     0.060 A 
BRANCH  85  86
ATOM     86  S   UNL A   1      33.090  35.438  28.895  1.00  0.00     0.124 S 
ATOM     87  O   UNL A   1      33.802  36.472  28.153  1.00  0.00    -0.237 OA
ATOM     88  O   UNL A   1      32.542  34.344  28.102  1.00  0.00    -0.237 OA
ATOM     89  O   UNL A   1      32.226  35.914  29.972  1.00  0.00    -0.744 OA
ENDBRANCH  85  86
ENDBRANCH  53  78
BRANCH  65  90
ATOM     90  C   UNL A   1      39.943  34.505  37.146  1.00  0.00     0.058 A 
ATOM     91  C   UNL A   1      40.706  35.682  37.068  1.00  0.00     0.135 A 
ATOM     92  C   UNL A   1      39.032  34.387  38.209  1.00  0.00     0.135 A 
ATOM     93  F   UNL A   1      41.594  35.845  36.075  1.00  0.00    -0.206 F 
ATOM     94  C   UNL A   1      40.588  36.691  38.019  1.00  0.00     0.059 A 
ATOM     95  C   UNL A   1      38.876  35.396  39.155  1.00  0.00     0.059 A 
ATOM     96  F   UNL A   1      38.269  33.289  38.327  1.00  0.00    -0.206 F 
ATOM     97  C   UNL A   1      39.667  36.540  39.059  1.00  0.00     0.060 A 
BRANCH  97  98
ATOM     98  S   UNL A   1      39.503  37.871  40.267  1.00  0.00     0.124 S 
ATOM     99  O   UNL A   1      38.369  38.617  39.732  1.00  0.00    -0.237 OA
ATOM    100  O   UNL A   1      39.254  37.141  41.506  1.00  0.00    -0.237 OA
ATOM    101  O   UNL A   1      40.792  38.555  40.199  1.00  0.00    -0.744 OA
ENDBRANCH  97  98
ENDBRANCH  65  90
ENDBRANCH  39  40
ENDBRANCH  32  34
ENDBRANCH  31  32
ENDBRANCH  30  31
ENDBRANCH  29  30
ENDBRANCH   1  29
TORSDOF 22
ENDMDL
MODEL 3
REMARK VINA RESULT:     -10.6      1.790      8.568
REMARK SMILES C[C@](NC(=O)[C@](C)([NH3+])C(F)(F)F)(C(=O)OCCOCCOC(=O)c1ccc(-c2c3nc(c(-c4c(F)cc(S(=O)(=O)[O-])cc4F)c4ccc([nH]4)c(-c4c(F)cc(S(=O)(=O)[O-])cc4F)c4nc(c(-c5c(F)cc(S(=O)(=O)[O-])cc5F)c5ccc2[nH]5)C=C4)C=C3)cc1)c1ccccc1
REMARK SMILES IDX 18 1 17 2 16 3 15 4 13 5 14 6 2 7 1 8 90 9 91 10 95 11 92 12
REMARK SMILES IDX 94 13 93 14 3 15 4 16 5 18 6 19 7 20 8 21 9 25 10 26 11 27
REMARK SMILES IDX 12 28 19 29 20 30 21 31 22 32 23 33 24 34 25 35 89 36 26 37
REMARK SMILES IDX 88 38 27 39 28 40 29 41 82 42 30 43 87 44 81 45 83 46 31 47
REMARK SMILES IDX 86 48 80 49 79 50 32 52 66 53 45 54 65 55 46 56 49 57 64 58
REMARK SMILES IDX 84 59 47 60 48 61 63 63 85 64 50 65 33 66 34 67 43 68 35 69
REMARK SMILES IDX 36 70 42 71 44 72 37 73 38 74 39 75 40 76 41 77 67 78 68 79
REMARK SMILES IDX 77 80 69 81 70 82 76 83 78 84 71 85 72 86 73 87 74 88 75 89
REMARK SMILES IDX 51 90 52 91 61 92 53 93 54 94 60 95 62 96 55 97 56 98 57 99
REMARK SMILES IDX 58 100 59 101
REMARK H PARENT 3 17 8 22 8 23 8 24 83 51 49 62
REMARK Flexibility Score: inf
ROOT
ATOM      1  O   UNL A   1      38.466  21.531  25.512  1.00  0.00    -0.374 OA
ENDROOT
BRANCH   1   2
ATOM      2  C   UNL A   1      37.514  22.589  25.344  1.00  0.00     0.202 C 
BRANCH   2   3
ATOM      3  C   UNL A   1      36.580  22.438  24.132  1.00  0.00     0.261 C 
BRANCH   3   4
ATOM      4  O   UNL A   1      35.209  22.059  24.455  1.00  0.00    -0.461 OA
BRANCH   4   5
ATOM      5  C   UNL A   1      34.269  22.549  23.606  1.00  0.00     0.336 C 
ATOM      6  O   UNL A   1      34.548  23.386  22.745  1.00  0.00    -0.249 OA
BRANCH   5   7
ATOM      7  C   UNL A   1      32.753  22.086  23.860  1.00  0.00     0.161 C 
ATOM      8  C   UNL A   1      32.158  22.369  22.436  1.00  0.00     0.053 C 
BRANCH   7   9
ATOM      9  C   UNL A   1      32.823  20.549  24.127  1.00  0.00    -0.012 A 
ATOM     10  C   UNL A   1      32.535  19.617  23.116  1.00  0.00     0.007 A 
ATOM     11  C   UNL A   1      32.984  20.042  25.434  1.00  0.00     0.007 A 
ATOM     12  C   UNL A   1      32.300  18.269  23.412  1.00  0.00     0.000 A 
ATOM     13  C   UNL A   1      32.765  18.694  25.728  1.00  0.00     0.000 A 
ATOM     14  C   UNL A   1      32.393  17.813  24.721  1.00  0.00     0.000 A 
ENDBRANCH   7   9
BRANCH   7  15
ATOM     15  N   UNL A   1      31.664  22.694  24.725  1.00  0.00    -0.331 N 
ATOM     16  C   UNL A   1      31.346  23.817  25.420  1.00  0.00     0.291 C 
ATOM     17  H   UNL A   1      30.928  22.045  24.813  1.00  0.00     0.165 HD
ATOM     18  O   UNL A   1      30.573  23.635  26.369  1.00  0.00    -0.267 OA
BRANCH  16  19
ATOM     19  C   UNL A   1      31.845  25.217  25.066  1.00  0.00     0.267 C 
ATOM     20  C   UNL A   1      30.732  26.199  25.409  1.00  0.00     0.100 C 
BRANCH  19  21
ATOM     21  N   UNL A   1      31.996  25.388  23.569  1.00  0.00    -0.337 N 
ATOM     22  H   UNL A   1      31.305  26.058  23.232  1.00  0.00     0.345 HD
ATOM     23  H   UNL A   1      31.851  24.489  23.108  1.00  0.00     0.345 HD
ATOM     24  H   UNL A   1      32.933  25.731  23.358  1.00  0.00     0.345 HD
ENDBRANCH  19  21
BRANCH  19  25
ATOM     25  C   UNL A   1      33.210  25.363  25.794  1.00  0.00     0.453 C 
ATOM     26  F   UNL A   1      34.207  25.534  24.906  1.00  0.00    -0.164 F 
ATOM     27  F   UNL A   1      33.286  26.387  26.671  1.00  0.00    -0.164 F 
ATOM     28  F   UNL A   1      33.524  24.244  26.495  1.00  0.00    -0.164 F 
ENDBRANCH  19  25
ENDBRANCH  16  19
ENDBRANCH   7  15
ENDBRANCH   5   7
ENDBRANCH   4   5
ENDBRANCH   3   4
ENDBRANCH   2   3
ENDBRANCH   1   2
BRANCH   1  29
ATOM     29  C   UNL A   1      39.591  21.863  26.318  1.00  0.00     0.202 C 
BRANCH  29  30
ATOM     30  C   UNL A   1      39.801  23.369  26.540  1.00  0.00     0.261 C 
BRANCH  30  31
ATOM     31  O   UNL A   1      41.166  23.640  26.912  1.00  0.00    -0.460 OA
BRANCH  31  32
ATOM     32  C   UNL A   1      41.638  24.852  26.531  1.00  0.00     0.338 C 
ATOM     33  O   UNL A   1      42.172  25.115  25.474  1.00  0.00    -0.246 OA
BRANCH  32  34
ATOM     34  C   UNL A   1      41.215  25.903  27.491  1.00  0.00     0.060 A 
ATOM     35  C   UNL A   1      41.987  27.068  27.494  1.00  0.00     0.016 A 
ATOM     36  C   UNL A   1      40.161  25.761  28.400  1.00  0.00     0.016 A 
ATOM     37  C   UNL A   1      41.763  28.057  28.449  1.00  0.00     0.010 A 
ATOM     38  C   UNL A   1      39.929  26.770  29.356  1.00  0.00     0.010 A 
ATOM     39  C   UNL A   1      40.763  27.902  29.419  1.00  0.00    -0.014 A 
BRANCH  39  40
ATOM     40  C   UNL A   1      40.738  28.868  30.554  1.00  0.00     0.031 A 
ATOM     41  C   UNL A   1      39.674  29.939  30.593  1.00  0.00     0.074 A 
ATOM     42  C   UNL A   1      41.553  28.707  31.617  1.00  0.00     0.049 A 
ATOM     43  N   UNL A   1      39.375  30.775  31.555  1.00  0.00    -0.248 NA
ATOM     44  C   UNL A   1      38.827  30.079  29.397  1.00  0.00     0.031 C 
ATOM     45  C   UNL A   1      42.604  27.697  31.728  1.00  0.00     0.029 A 
ATOM     46  N   UNL A   1      41.607  29.375  32.818  1.00  0.00    -0.354 N 
ATOM     47  C   UNL A   1      38.307  31.532  31.086  1.00  0.00     0.074 A 
ATOM     48  C   UNL A   1      38.033  31.083  29.739  1.00  0.00     0.031 C 
ATOM     49  C   UNL A   1      43.187  27.801  32.936  1.00  0.00     0.029 A 
ATOM     50  C   UNL A   1      42.570  28.899  33.677  1.00  0.00     0.049 A 
ATOM     51  H   UNL A   1      41.010  30.127  33.042  1.00  0.00     0.167 HD
ATOM     52  C   UNL A   1      37.604  32.501  31.722  1.00  0.00     0.037 A 
ATOM     53  C   UNL A   1      42.923  29.303  34.916  1.00  0.00     0.037 A 
ATOM     54  C   UNL A   1      37.861  32.943  33.069  1.00  0.00     0.049 A 
ATOM     55  C   UNL A   1      42.163  30.428  35.576  1.00  0.00     0.074 A 
ATOM     56  C   UNL A   1      37.173  33.893  33.804  1.00  0.00     0.029 A 
ATOM     57  N   UNL A   1      38.885  32.478  33.878  1.00  0.00    -0.354 N 
ATOM     58  N   UNL A   1      41.120  31.090  35.137  1.00  0.00    -0.248 NA
ATOM     59  C   UNL A   1      42.626  30.857  36.905  1.00  0.00     0.031 C 
ATOM     60  C   UNL A   1      37.818  34.046  35.035  1.00  0.00     0.029 A 
ATOM     61  C   UNL A   1      38.872  33.150  35.090  1.00  0.00     0.049 A 
ATOM     62  H   UNL A   1      39.529  31.775  33.629  1.00  0.00     0.167 HD
ATOM     63  C   UNL A   1      40.793  31.998  36.142  1.00  0.00     0.074 A 
ATOM     64  C   UNL A   1      41.732  31.783  37.221  1.00  0.00     0.031 C 
ATOM     65  C   UNL A   1      39.807  32.928  36.164  1.00  0.00     0.037 A 
BRANCH  52  66
ATOM     66  C   UNL A   1      36.488  33.173  30.970  1.00  0.00     0.058 A 
ATOM     67  C   UNL A   1      35.142  32.986  31.320  1.00  0.00     0.135 A 
ATOM     68  C   UNL A   1      36.777  34.082  29.939  1.00  0.00     0.135 A 
ATOM     69  F   UNL A   1      34.809  32.116  32.286  1.00  0.00    -0.206 F 
ATOM     70  C   UNL A   1      34.121  33.672  30.670  1.00  0.00     0.059 A 
ATOM     71  C   UNL A   1      35.774  34.797  29.292  1.00  0.00     0.059 A 
ATOM     72  F   UNL A   1      38.049  34.297  29.564  1.00  0.00    -0.206 F 
ATOM     73  C   UNL A   1      34.448  34.581  29.661  1.00  0.00     0.060 A 
BRANCH  73  74
ATOM     74  S   UNL A   1      33.113  35.492  28.856  1.00  0.00     0.124 S 
ATOM     75  O   UNL A   1      33.851  36.559  28.186  1.00  0.00    -0.237 OA
ATOM     76  O   UNL A   1      32.530  34.480  27.982  1.00  0.00    -0.237 OA
ATOM     77  O   UNL A   1      32.269  35.917  29.969  1.00  0.00    -0.744 OA
ENDBRANCH  73  74
ENDBRANCH  52  66
BRANCH  53  78
ATOM     78  C   UNL A   1      44.076  28.667  35.615  1.00  0.00     0.058 A 
ATOM     79  C   UNL A   1      45.396  29.083  35.388  1.00  0.00     0.135 A 
ATOM     80  C   UNL A   1      43.876  27.588  36.491  1.00  0.00     0.135 A 
ATOM     81  F   UNL A   1      45.645  30.100  34.548  1.00  0.00    -0.206 F 
ATOM     82  C   UNL A   1      46.478  28.437  35.981  1.00  0.00     0.059 A 
ATOM     83  C   UNL A   1      44.938  26.947  37.120  1.00  0.00     0.059 A 
ATOM     84  F   UNL A   1      42.633  27.152  36.750  1.00  0.00    -0.206 F 
ATOM     85  C   UNL A   1      46.237  27.367  36.844  1.00  0.00     0.060 A 
BRANCH  85  86
ATOM     86  S   UNL A   1      47.643  26.545  37.626  1.00  0.00     0.124 S 
ATOM     87  O   UNL A   1      46.975  25.600  38.513  1.00  0.00    -0.237 OA
ATOM     88  O   UNL A   1      48.336  25.966  36.480  1.00  0.00    -0.237 OA
ATOM     89  O   UNL A   1      48.347  27.641  38.285  1.00  0.00    -0.744 OA
ENDBRANCH  85  86
ENDBRANCH  53  78
BRANCH  65  90
ATOM     90  C   UNL A   1      39.673  33.778  37.401  1.00  0.00     0.058 A 
ATOM     91  C   UNL A   1      40.320  35.019  37.516  1.00  0.00     0.135 A 
ATOM     92  C   UNL A   1      38.842  33.374  38.459  1.00  0.00     0.135 A 
ATOM     93  F   UNL A   1      41.128  35.452  36.537  1.00  0.00    -0.206 F 
ATOM     94  C   UNL A   1      40.169  35.816  38.647  1.00  0.00     0.059 A 
ATOM     95  C   UNL A   1      38.652  34.169  39.586  1.00  0.00     0.059 A 
ATOM     96  F   UNL A   1      38.189  32.203  38.398  1.00  0.00    -0.206 F 
ATOM     97  C   UNL A   1      39.330  35.384  39.676  1.00  0.00     0.060 A 
BRANCH  97  98
ATOM     98  S   UNL A   1      39.119  36.444  41.123  1.00  0.00     0.124 S 
ATOM     99  O   UNL A   1      37.990  35.808  41.793  1.00  0.00    -0.237 OA
ATOM    100  O   UNL A   1      40.409  36.318  41.794  1.00  0.00    -0.237 OA
ATOM    101  O   UNL A   1      38.847  37.758  40.545  1.00  0.00    -0.744 OA
ENDBRANCH  97  98
ENDBRANCH  65  90
ENDBRANCH  39  40
ENDBRANCH  32  34
ENDBRANCH  31  32
ENDBRANCH  30  31
ENDBRANCH  29  30
ENDBRANCH   1  29
TORSDOF 22
ENDMDL
