MODEL 1
REMARK VINA RESULT:     -12.2      0.000      0.000
REMARK SMILES CC(=O)Nc1cc(NC(C)=O)cc(C(=O)Nc2ccc(Br)cc2C(=O)OCCOCCOC(=O)c2ccc(-c3c4nc(c(-c5c(F)cc(S(=O)(=O)[O-])cc5F)c5ccc([nH]5)c(-c5c(F)cc(S(=O)(=O)[O-])cc5F)c5nc(c(-c6c(F)cc(S(=O)(=O)[O-])cc6F)c6ccc3[nH]6)C=C5)C=C4)cc2)c1
REMARK SMILES IDX 29 1 28 2 27 3 26 4 24 5 25 6 23 7 17 8 18 9 19 10 22 11
REMARK SMILES IDX 20 12 21 13 16 14 14 15 15 16 13 18 5 19 6 20 101 21 7 22
REMARK SMILES IDX 12 23 4 24 1 25 2 26 3 27 8 29 9 30 10 32 11 33 30 34 31 35
REMARK SMILES IDX 32 36 33 37 34 38 35 39 36 40 100 41 37 42 99 43 38 44 39 45
REMARK SMILES IDX 40 46 93 47 41 48 98 49 92 50 94 51 42 52 97 53 91 54 90 55
REMARK SMILES IDX 43 57 77 58 56 59 76 60 57 61 60 62 75 63 95 64 58 65 59 66
REMARK SMILES IDX 74 68 96 69 61 70 44 71 45 72 54 73 46 74 47 75 53 76 55 77
REMARK SMILES IDX 48 78 49 79 50 80 51 81 52 82 78 83 79 84 88 85 80 86 81 87
REMARK SMILES IDX 87 88 89 89 82 90 83 91 84 92 85 93 86 94 62 95 63 96 72 97
REMARK SMILES IDX 64 98 65 99 71 100 73 101 66 102 67 103 68 104 69 105 70 106
REMARK H PARENT 16 17 4 28 8 31 94 56 60 67
REMARK Flexibility Score: inf
ROOT
ATOM      1  O   UNL A   1      34.712  31.204  28.100  1.00  0.00    -0.374 OA
ENDROOT
BRANCH   1   2
ATOM      2  C   UNL A   1      33.667  30.587  27.359  1.00  0.00     0.202 C 
BRANCH   2   3
ATOM      3  C   UNL A   1      33.895  29.177  26.809  1.00  0.00     0.261 C 
BRANCH   3   4
ATOM      4  O   UNL A   1      32.985  28.798  25.760  1.00  0.00    -0.460 OA
BRANCH   4   5
ATOM      5  C   UNL A   1      32.433  27.572  25.921  1.00  0.00     0.340 C 
ATOM      6  O   UNL A   1      32.807  26.714  26.710  1.00  0.00    -0.246 OA
BRANCH   5   7
ATOM      7  C   UNL A   1      31.181  27.410  25.144  1.00  0.00     0.084 A 
ATOM      8  C   UNL A   1      30.230  26.380  25.274  1.00  0.00     0.056 A 
ATOM      9  C   UNL A   1      29.173  26.337  24.341  1.00  0.00     0.028 A 
ATOM     10  C   UNL A   1      28.995  27.342  23.386  1.00  0.00     0.018 A 
ATOM     11  C   UNL A   1      30.989  28.423  24.179  1.00  0.00     0.033 A 
ATOM     12  C   UNL A   1      29.896  28.394  23.323  1.00  0.00     0.018 A 
ATOM     13  Br  UNL A   1      29.633  29.794  22.084  1.00  0.00    -0.051 Br
BRANCH   8  14
ATOM     14  N   UNL A   1      30.140  25.387  26.276  1.00  0.00    -0.321 N 
ATOM     15  C   UNL A   1      30.536  24.069  26.351  1.00  0.00     0.255 C 
ATOM     16  O   UNL A   1      30.169  23.390  27.309  1.00  0.00    -0.269 OA
ATOM     17  H   UNL A   1      29.700  25.706  27.096  1.00  0.00     0.170 HD
BRANCH  15  18
ATOM     18  C   UNL A   1      31.440  23.453  25.355  1.00  0.00     0.044 A 
ATOM     19  C   UNL A   1      32.512  23.528  23.201  1.00  0.00     0.044 A 
ATOM     20  C   UNL A   1      32.658  22.128  23.262  1.00  0.00     0.052 A 
ATOM     21  C   UNL A   1      31.985  24.193  24.301  1.00  0.00     0.040 A 
ATOM     22  C   UNL A   1      32.263  21.398  24.387  1.00  0.00     0.044 A 
ATOM     23  C   UNL A   1      31.651  22.073  25.441  1.00  0.00     0.040 A 
BRANCH  19  24
ATOM     24  N   UNL A   1      32.727  24.126  21.942  1.00  0.00    -0.326 N 
ATOM     25  C   UNL A   1      33.653  26.384  22.483  1.00  0.00     0.114 C 
ATOM     26  C   UNL A   1      33.045  25.388  21.539  1.00  0.00     0.221 C 
ATOM     27  O   UNL A   1      32.859  25.698  20.358  1.00  0.00    -0.275 OA
ATOM     28  H   UNL A   1      32.624  23.496  21.193  1.00  0.00     0.169 HD
ENDBRANCH  19  24
BRANCH  22  29
ATOM     29  N   UNL A   1      32.370  19.995  24.505  1.00  0.00    -0.326 N 
ATOM     30  C   UNL A   1      33.525  19.251  24.657  1.00  0.00     0.221 C 
ATOM     31  H   UNL A   1      31.527  19.490  24.477  1.00  0.00     0.169 HD
ATOM     32  C   UNL A   1      33.268  17.767  24.741  1.00  0.00     0.114 C 
ATOM     33  O   UNL A   1      34.672  19.683  24.717  1.00  0.00    -0.275 OA
ENDBRANCH  22  29
ENDBRANCH  15  18
ENDBRANCH   8  14
ENDBRANCH   5   7
ENDBRANCH   4   5
ENDBRANCH   3   4
ENDBRANCH   2   3
ENDBRANCH   1   2
BRANCH   1  34
ATOM     34  C   UNL A   1      34.450  32.440  28.755  1.00  0.00     0.202 C 
BRANCH  34  35
ATOM     35  C   UNL A   1      35.045  32.682  30.148  1.00  0.00     0.261 C 
BRANCH  35  36
ATOM     36  O   UNL A   1      35.796  31.575  30.677  1.00  0.00    -0.460 OA
BRANCH  36  37
ATOM     37  C   UNL A   1      37.051  31.900  31.071  1.00  0.00     0.338 C 
ATOM     38  O   UNL A   1      37.369  32.781  31.859  1.00  0.00    -0.246 OA
BRANCH  37  39
ATOM     39  C   UNL A   1      38.045  30.953  30.538  1.00  0.00     0.060 A 
ATOM     40  C   UNL A   1      38.994  30.436  31.428  1.00  0.00     0.016 A 
ATOM     41  C   UNL A   1      38.162  30.732  29.164  1.00  0.00     0.016 A 
ATOM     42  C   UNL A   1      40.106  29.754  30.942  1.00  0.00     0.010 A 
ATOM     43  C   UNL A   1      39.286  30.056  28.677  1.00  0.00     0.010 A 
ATOM     44  C   UNL A   1      40.287  29.612  29.560  1.00  0.00    -0.014 A 
BRANCH  44  45
ATOM     45  C   UNL A   1      41.610  29.179  29.048  1.00  0.00     0.031 A 
ATOM     46  C   UNL A   1      42.732  30.184  28.997  1.00  0.00     0.074 A 
ATOM     47  C   UNL A   1      41.826  27.902  28.687  1.00  0.00     0.049 A 
ATOM     48  N   UNL A   1      43.963  30.033  28.582  1.00  0.00    -0.248 NA
ATOM     49  C   UNL A   1      42.423  31.539  29.482  1.00  0.00     0.031 C 
ATOM     50  C   UNL A   1      40.831  26.832  28.729  1.00  0.00     0.029 A 
ATOM     51  N   UNL A   1      42.958  27.292  28.210  1.00  0.00    -0.354 N 
ATOM     52  C   UNL A   1      44.574  31.271  28.749  1.00  0.00     0.074 A 
ATOM     53  C   UNL A   1      43.572  32.170  29.280  1.00  0.00     0.031 C 
ATOM     54  C   UNL A   1      41.396  25.695  28.288  1.00  0.00     0.029 A 
ATOM     55  C   UNL A   1      42.783  25.963  27.909  1.00  0.00     0.049 A 
ATOM     56  H   UNL A   1      43.815  27.762  28.093  1.00  0.00     0.167 HD
ATOM     57  C   UNL A   1      45.856  31.625  28.492  1.00  0.00     0.037 A 
ATOM     58  C   UNL A   1      43.640  25.071  27.377  1.00  0.00     0.037 A 
ATOM     59  C   UNL A   1      46.851  30.728  27.968  1.00  0.00     0.049 A 
ATOM     60  C   UNL A   1      45.049  25.499  27.055  1.00  0.00     0.074 A 
ATOM     61  C   UNL A   1      48.178  30.991  27.672  1.00  0.00     0.029 A 
ATOM     62  N   UNL A   1      46.630  29.394  27.663  1.00  0.00    -0.354 N 
ATOM     63  N   UNL A   1      45.613  26.672  27.223  1.00  0.00    -0.248 NA
ATOM     64  C   UNL A   1      45.939  24.482  26.477  1.00  0.00     0.031 C 
ATOM     65  C   UNL A   1      48.750  29.822  27.156  1.00  0.00     0.029 A 
ATOM     66  C   UNL A   1      47.791  28.823  27.171  1.00  0.00     0.049 A 
ATOM     67  H   UNL A   1      45.774  28.922  27.779  1.00  0.00     0.167 HD
ATOM     68  C   UNL A   1      46.930  26.526  26.799  1.00  0.00     0.074 A 
ATOM     69  C   UNL A   1      47.080  25.149  26.374  1.00  0.00     0.031 C 
ATOM     70  C   UNL A   1      47.925  27.446  26.766  1.00  0.00     0.037 A 
BRANCH  57  71
ATOM     71  C   UNL A   1      46.248  33.051  28.758  1.00  0.00     0.058 A 
ATOM     72  C   UNL A   1      46.780  33.451  29.994  1.00  0.00     0.135 A 
ATOM     73  C   UNL A   1      46.120  34.025  27.753  1.00  0.00     0.135 A 
ATOM     74  F   UNL A   1      46.905  32.565  30.994  1.00  0.00    -0.206 F 
ATOM     75  C   UNL A   1      47.151  34.771  30.233  1.00  0.00     0.059 A 
ATOM     76  C   UNL A   1      46.505  35.345  27.963  1.00  0.00     0.059 A 
ATOM     77  F   UNL A   1      45.614  33.695  26.555  1.00  0.00    -0.206 F 
ATOM     78  C   UNL A   1      47.007  35.712  29.211  1.00  0.00     0.060 A 
BRANCH  78  79
ATOM     79  S   UNL A   1      47.497  37.420  29.531  1.00  0.00     0.124 S 
ATOM     80  O   UNL A   1      48.786  37.484  28.847  1.00  0.00    -0.237 OA
ATOM     81  O   UNL A   1      46.415  38.178  28.914  1.00  0.00    -0.237 OA
ATOM     82  O   UNL A   1      47.557  37.489  30.988  1.00  0.00    -0.744 OA
ENDBRANCH  78  79
ENDBRANCH  57  71
BRANCH  58  83
ATOM     83  C   UNL A   1      43.192  23.679  27.107  1.00  0.00     0.058 A 
ATOM     84  C   UNL A   1      42.903  23.249  25.804  1.00  0.00     0.135 A 
ATOM     85  C   UNL A   1      43.041  22.753  28.151  1.00  0.00     0.135 A 
ATOM     86  F   UNL A   1      43.024  24.101  24.775  1.00  0.00    -0.206 F 
ATOM     87  C   UNL A   1      42.462  21.956  25.546  1.00  0.00     0.059 A 
ATOM     88  C   UNL A   1      42.625  21.447  27.916  1.00  0.00     0.059 A 
ATOM     89  F   UNL A   1      43.314  23.114  29.415  1.00  0.00    -0.206 F 
ATOM     90  C   UNL A   1      42.327  21.061  26.609  1.00  0.00     0.060 A 
BRANCH  90  91
ATOM     91  S   UNL A   1      41.801  19.369  26.260  1.00  0.00     0.124 S 
ATOM     92  O   UNL A   1      42.229  18.675  27.469  1.00  0.00    -0.237 OA
ATOM     93  O   UNL A   1      40.360  19.523  26.088  1.00  0.00    -0.237 OA
ATOM     94  O   UNL A   1      42.536  19.034  25.044  1.00  0.00    -0.744 OA
ENDBRANCH  90  91
ENDBRANCH  58  83
BRANCH  70  95
ATOM     95  C   UNL A   1      49.277  26.986  26.297  1.00  0.00     0.058 A 
ATOM     96  C   UNL A   1      49.634  27.005  24.940  1.00  0.00     0.135 A 
ATOM     97  C   UNL A   1      50.242  26.560  27.224  1.00  0.00     0.135 A 
ATOM     98  F   UNL A   1      48.746  27.399  24.013  1.00  0.00    -0.206 F 
ATOM     99  C   UNL A   1      50.894  26.596  24.514  1.00  0.00     0.059 A 
ATOM    100  C   UNL A   1      51.516  26.168  26.824  1.00  0.00     0.059 A 
ATOM    101  F   UNL A   1      49.955  26.534  28.535  1.00  0.00    -0.206 F 
ATOM    102  C   UNL A   1      51.828  26.176  25.465  1.00  0.00     0.060 A 
BRANCH 102 103
ATOM    103  S   UNL A   1      53.468  25.668  24.907  1.00  0.00     0.124 S 
ATOM    104  O   UNL A   1      53.413  26.007  23.488  1.00  0.00    -0.237 OA
ATOM    105  O   UNL A   1      54.350  26.497  25.723  1.00  0.00    -0.237 OA
ATOM    106  O   UNL A   1      53.502  24.241  25.211  1.00  0.00    -0.744 OA
ENDBRANCH 102 103
ENDBRANCH  70  95
ENDBRANCH  44  45
ENDBRANCH  37  39
ENDBRANCH  36  37
ENDBRANCH  35  36
ENDBRANCH  34  35
ENDBRANCH   1  34
TORSDOF 21
ENDMDL
MODEL 2
REMARK VINA RESULT:     -12.2      1.244      2.380
REMARK SMILES CC(=O)Nc1cc(NC(C)=O)cc(C(=O)Nc2ccc(Br)cc2C(=O)OCCOCCOC(=O)c2ccc(-c3c4nc(c(-c5c(F)cc(S(=O)(=O)[O-])cc5F)c5ccc([nH]5)c(-c5c(F)cc(S(=O)(=O)[O-])cc5F)c5nc(c(-c6c(F)cc(S(=O)(=O)[O-])cc6F)c6ccc3[nH]6)C=C5)C=C4)cc2)c1
REMARK SMILES IDX 29 1 28 2 27 3 26 4 24 5 25 6 23 7 17 8 18 9 19 10 22 11
REMARK SMILES IDX 20 12 21 13 16 14 14 15 15 16 13 18 5 19 6 20 101 21 7 22
REMARK SMILES IDX 12 23 4 24 1 25 2 26 3 27 8 29 9 30 10 32 11 33 30 34 31 35
REMARK SMILES IDX 32 36 33 37 34 38 35 39 36 40 100 41 37 42 99 43 38 44 39 45
REMARK SMILES IDX 40 46 93 47 41 48 98 49 92 50 94 51 42 52 97 53 91 54 90 55
REMARK SMILES IDX 43 57 77 58 56 59 76 60 57 61 60 62 75 63 95 64 58 65 59 66
REMARK SMILES IDX 74 68 96 69 61 70 44 71 45 72 54 73 46 74 47 75 53 76 55 77
REMARK SMILES IDX 48 78 49 79 50 80 51 81 52 82 78 83 79 84 88 85 80 86 81 87
REMARK SMILES IDX 87 88 89 89 82 90 83 91 84 92 85 93 86 94 62 95 63 96 72 97
REMARK SMILES IDX 64 98 65 99 71 100 73 101 66 102 67 103 68 104 69 105 70 106
REMARK H PARENT 16 17 4 28 8 31 94 56 60 67
REMARK Flexibility Score: inf
ROOT
ATOM      1  O   UNL A   1      34.815  31.874  28.130  1.00  0.00    -0.374 OA
ENDROOT
BRANCH   1   2
ATOM      2  C   UNL A   1      33.612  31.270  27.671  1.00  0.00     0.202 C 
BRANCH   2   3
ATOM      3  C   UNL A   1      33.709  30.045  26.760  1.00  0.00     0.261 C 
BRANCH   3   4
ATOM      4  O   UNL A   1      32.470  29.334  26.592  1.00  0.00    -0.460 OA
BRANCH   4   5
ATOM      5  C   UNL A   1      32.605  28.108  26.031  1.00  0.00     0.340 C 
ATOM      6  O   UNL A   1      33.555  27.352  26.180  1.00  0.00    -0.246 OA
BRANCH   5   7
ATOM      7  C   UNL A   1      31.378  27.672  25.324  1.00  0.00     0.084 A 
ATOM      8  C   UNL A   1      30.680  26.462  25.503  1.00  0.00     0.056 A 
ATOM      9  C   UNL A   1      29.609  26.183  24.629  1.00  0.00     0.028 A 
ATOM     10  C   UNL A   1      29.167  27.117  23.688  1.00  0.00     0.018 A 
ATOM     11  C   UNL A   1      30.919  28.610  24.373  1.00  0.00     0.033 A 
ATOM     12  C   UNL A   1      29.813  28.338  23.578  1.00  0.00     0.018 A 
ATOM     13  Br  UNL A   1      29.188  29.637  22.359  1.00  0.00    -0.051 Br
BRANCH   8  14
ATOM     14  N   UNL A   1      30.862  25.483  26.506  1.00  0.00    -0.321 N 
ATOM     15  C   UNL A   1      31.652  24.358  26.609  1.00  0.00     0.255 C 
ATOM     16  O   UNL A   1      31.473  23.588  27.552  1.00  0.00    -0.269 OA
ATOM     17  H   UNL A   1      30.303  25.638  27.301  1.00  0.00     0.170 HD
BRANCH  15  18
ATOM     18  C   UNL A   1      32.753  24.071  25.663  1.00  0.00     0.044 A 
ATOM     19  C   UNL A   1      35.112  23.882  25.223  1.00  0.00     0.044 A 
ATOM     20  C   UNL A   1      34.840  24.086  23.856  1.00  0.00     0.052 A 
ATOM     21  C   UNL A   1      34.047  23.782  26.109  1.00  0.00     0.040 A 
ATOM     22  C   UNL A   1      33.531  24.212  23.380  1.00  0.00     0.044 A 
ATOM     23  C   UNL A   1      32.482  24.202  24.297  1.00  0.00     0.040 A 
BRANCH  19  24
ATOM     24  N   UNL A   1      36.461  23.999  25.618  1.00  0.00    -0.326 N 
ATOM     25  C   UNL A   1      37.485  21.813  24.968  1.00  0.00     0.114 C 
ATOM     26  C   UNL A   1      37.498  23.120  25.706  1.00  0.00     0.221 C 
ATOM     27  O   UNL A   1      38.483  23.431  26.383  1.00  0.00    -0.275 OA
ATOM     28  H   UNL A   1      36.706  24.914  25.887  1.00  0.00     0.169 HD
ENDBRANCH  19  24
BRANCH  22  29
ATOM     29  N   UNL A   1      33.192  24.429  22.027  1.00  0.00    -0.326 N 
ATOM     30  C   UNL A   1      32.867  25.630  21.425  1.00  0.00     0.221 C 
ATOM     31  H   UNL A   1      33.188  23.635  21.446  1.00  0.00     0.169 HD
ATOM     32  C   UNL A   1      32.548  25.490  19.956  1.00  0.00     0.114 C 
ATOM     33  O   UNL A   1      32.815  26.731  21.965  1.00  0.00    -0.275 OA
ENDBRANCH  22  29
ENDBRANCH  15  18
ENDBRANCH   8  14
ENDBRANCH   5   7
ENDBRANCH   4   5
ENDBRANCH   3   4
ENDBRANCH   2   3
ENDBRANCH   1   2
BRANCH   1  34
ATOM     34  C   UNL A   1      34.734  33.077  28.884  1.00  0.00     0.202 C 
BRANCH  34  35
ATOM     35  C   UNL A   1      35.301  33.099  30.310  1.00  0.00     0.261 C 
BRANCH  35  36
ATOM     36  O   UNL A   1      35.980  31.893  30.700  1.00  0.00    -0.460 OA
BRANCH  36  37
ATOM     37  C   UNL A   1      37.223  32.099  31.201  1.00  0.00     0.338 C 
ATOM     38  O   UNL A   1      37.538  32.887  32.084  1.00  0.00    -0.246 OA
BRANCH  37  39
ATOM     39  C   UNL A   1      38.192  31.139  30.648  1.00  0.00     0.060 A 
ATOM     40  C   UNL A   1      39.136  30.590  31.526  1.00  0.00     0.016 A 
ATOM     41  C   UNL A   1      38.296  30.933  29.272  1.00  0.00     0.016 A 
ATOM     42  C   UNL A   1      40.230  29.890  31.024  1.00  0.00     0.010 A 
ATOM     43  C   UNL A   1      39.402  30.239  28.768  1.00  0.00     0.010 A 
ATOM     44  C   UNL A   1      40.398  29.762  29.638  1.00  0.00    -0.014 A 
BRANCH  44  45
ATOM     45  C   UNL A   1      41.709  29.307  29.112  1.00  0.00     0.031 A 
ATOM     46  C   UNL A   1      42.846  30.294  29.048  1.00  0.00     0.074 A 
ATOM     47  C   UNL A   1      41.900  28.027  28.749  1.00  0.00     0.049 A 
ATOM     48  N   UNL A   1      44.070  30.123  28.619  1.00  0.00    -0.248 NA
ATOM     49  C   UNL A   1      42.565  31.655  29.535  1.00  0.00     0.031 C 
ATOM     50  C   UNL A   1      40.888  26.974  28.803  1.00  0.00     0.029 A 
ATOM     51  N   UNL A   1      43.016  27.398  28.260  1.00  0.00    -0.354 N 
ATOM     52  C   UNL A   1      44.703  31.351  28.778  1.00  0.00     0.074 A 
ATOM     53  C   UNL A   1      43.721  32.266  29.320  1.00  0.00     0.031 C 
ATOM     54  C   UNL A   1      41.430  25.827  28.356  1.00  0.00     0.029 A 
ATOM     55  C   UNL A   1      42.816  26.072  27.962  1.00  0.00     0.049 A 
ATOM     56  H   UNL A   1      43.880  27.854  28.133  1.00  0.00     0.167 HD
ATOM     57  C   UNL A   1      45.987  31.685  28.507  1.00  0.00     0.037 A 
ATOM     58  C   UNL A   1      43.653  25.166  27.420  1.00  0.00     0.037 A 
ATOM     59  C   UNL A   1      46.962  30.771  27.973  1.00  0.00     0.049 A 
ATOM     60  C   UNL A   1      45.064  25.572  27.083  1.00  0.00     0.074 A 
ATOM     61  C   UNL A   1      48.289  31.012  27.661  1.00  0.00     0.029 A 
ATOM     62  N   UNL A   1      46.716  29.440  27.671  1.00  0.00    -0.354 N 
ATOM     63  N   UNL A   1      45.649  26.736  27.243  1.00  0.00    -0.248 NA
ATOM     64  C   UNL A   1      45.932  24.540  26.495  1.00  0.00     0.031 C 
ATOM     65  C   UNL A   1      48.836  29.834  27.140  1.00  0.00     0.029 A 
ATOM     66  C   UNL A   1      47.862  28.850  27.166  1.00  0.00     0.049 A 
ATOM     67  H   UNL A   1      45.853  28.982  27.797  1.00  0.00     0.167 HD
ATOM     68  C   UNL A   1      46.959  26.567  26.805  1.00  0.00     0.074 A 
ATOM     69  C   UNL A   1      47.082  25.188  26.379  1.00  0.00     0.031 C 
ATOM     70  C   UNL A   1      47.969  27.471  26.760  1.00  0.00     0.037 A 
BRANCH  57  71
ATOM     71  C   UNL A   1      46.405  33.104  28.768  1.00  0.00     0.058 A 
ATOM     72  C   UNL A   1      46.941  33.500  30.004  1.00  0.00     0.135 A 
ATOM     73  C   UNL A   1      46.298  34.075  27.758  1.00  0.00     0.135 A 
ATOM     74  F   UNL A   1      47.047  32.615  31.007  1.00  0.00    -0.206 F 
ATOM     75  C   UNL A   1      47.336  34.813  30.237  1.00  0.00     0.059 A 
ATOM     76  C   UNL A   1      46.707  35.389  27.963  1.00  0.00     0.059 A 
ATOM     77  F   UNL A   1      45.789  33.750  26.560  1.00  0.00    -0.206 F 
ATOM     78  C   UNL A   1      47.213  35.752  29.211  1.00  0.00     0.060 A 
BRANCH  78  79
ATOM     79  S   UNL A   1      47.735  37.452  29.525  1.00  0.00     0.124 S 
ATOM     80  O   UNL A   1      48.788  37.620  28.528  1.00  0.00    -0.237 OA
ATOM     81  O   UNL A   1      46.509  38.205  29.285  1.00  0.00    -0.237 OA
ATOM     82  O   UNL A   1      48.185  37.418  30.913  1.00  0.00    -0.744 OA
ENDBRANCH  78  79
ENDBRANCH  57  71
BRANCH  58  83
ATOM     83  C   UNL A   1      43.180  23.782  27.156  1.00  0.00     0.058 A 
ATOM     84  C   UNL A   1      43.156  22.816  28.172  1.00  0.00     0.135 A 
ATOM     85  C   UNL A   1      42.746  23.398  25.878  1.00  0.00     0.135 A 
ATOM     86  F   UNL A   1      43.571  23.134  29.408  1.00  0.00    -0.206 F 
ATOM     87  C   UNL A   1      42.736  21.513  27.928  1.00  0.00     0.059 A 
ATOM     88  C   UNL A   1      42.297  22.108  25.614  1.00  0.00     0.059 A 
ATOM     89  F   UNL A   1      42.740  24.289  24.873  1.00  0.00    -0.206 F 
ATOM     90  C   UNL A   1      42.307  21.169  26.645  1.00  0.00     0.060 A 
BRANCH  90  91
ATOM     91  S   UNL A   1      41.717  19.488  26.347  1.00  0.00     0.124 S 
ATOM     92  O   UNL A   1      40.288  19.710  26.157  1.00  0.00    -0.237 OA
ATOM     93  O   UNL A   1      42.468  19.104  25.156  1.00  0.00    -0.237 OA
ATOM     94  O   UNL A   1      42.090  18.781  27.568  1.00  0.00    -0.744 OA
ENDBRANCH  90  91
ENDBRANCH  58  83
BRANCH  70  95
ATOM     95  C   UNL A   1      49.308  26.989  26.276  1.00  0.00     0.058 A 
ATOM     96  C   UNL A   1      49.688  27.094  24.929  1.00  0.00     0.135 A 
ATOM     97  C   UNL A   1      50.238  26.454  27.181  1.00  0.00     0.135 A 
ATOM     98  F   UNL A   1      48.833  27.594  24.023  1.00  0.00    -0.206 F 
ATOM     99  C   UNL A   1      50.936  26.663  24.491  1.00  0.00     0.059 A 
ATOM    100  C   UNL A   1      51.501  26.038  26.771  1.00  0.00     0.059 A 
ATOM    101  F   UNL A   1      49.928  26.342  28.483  1.00  0.00    -0.206 F 
ATOM    102  C   UNL A   1      51.836  26.133  25.420  1.00  0.00     0.060 A 
BRANCH 102 103
ATOM    103  S   UNL A   1      53.461  25.598  24.848  1.00  0.00     0.124 S 
ATOM    104  O   UNL A   1      53.474  24.200  25.268  1.00  0.00    -0.237 OA
ATOM    105  O   UNL A   1      53.380  25.827  23.408  1.00  0.00    -0.237 OA
ATOM    106  O   UNL A   1      54.379  26.477  25.564  1.00  0.00    -0.744 OA
ENDBRANCH 102 103
ENDBRANCH  70  95
ENDBRANCH  44  45
ENDBRANCH  37  39
ENDBRANCH  36  37
ENDBRANCH  35  36
ENDBRANCH  34  35
ENDBRANCH   1  34
TORSDOF 21
ENDMDL
MODEL 3
REMARK VINA RESULT:     -12.0      5.901      7.882
REMARK SMILES CC(=O)Nc1cc(NC(C)=O)cc(C(=O)Nc2ccc(Br)cc2C(=O)OCCOCCOC(=O)c2ccc(-c3c4nc(c(-c5c(F)cc(S(=O)(=O)[O-])cc5F)c5ccc([nH]5)c(-c5c(F)cc(S(=O)(=O)[O-])cc5F)c5nc(c(-c6c(F)cc(S(=O)(=O)[O-])cc6F)c6ccc3[nH]6)C=C5)C=C4)cc2)c1
REMARK SMILES IDX 29 1 28 2 27 3 26 4 24 5 25 6 23 7 17 8 18 9 19 10 22 11
REMARK SMILES IDX 20 12 21 13 16 14 14 15 15 16 13 18 5 19 6 20 101 21 7 22
REMARK SMILES IDX 12 23 4 24 1 25 2 26 3 27 8 29 9 30 10 32 11 33 30 34 31 35
REMARK SMILES IDX 32 36 33 37 34 38 35 39 36 40 100 41 37 42 99 43 38 44 39 45
REMARK SMILES IDX 40 46 93 47 41 48 98 49 92 50 94 51 42 52 97 53 91 54 90 55
REMARK SMILES IDX 43 57 77 58 56 59 76 60 57 61 60 62 75 63 95 64 58 65 59 66
REMARK SMILES IDX 74 68 96 69 61 70 44 71 45 72 54 73 46 74 47 75 53 76 55 77
REMARK SMILES IDX 48 78 49 79 50 80 51 81 52 82 78 83 79 84 88 85 80 86 81 87
REMARK SMILES IDX 87 88 89 89 82 90 83 91 84 92 85 93 86 94 62 95 63 96 72 97
REMARK SMILES IDX 64 98 65 99 71 100 73 101 66 102 67 103 68 104 69 105 70 106
REMARK H PARENT 16 17 4 28 8 31 94 56 60 67
REMARK Flexibility Score: inf
ROOT
ATOM      1  O   UNL A   1      31.615  30.893  26.444  1.00  0.00    -0.374 OA
ENDROOT
BRANCH   1   2
ATOM      2  C   UNL A   1      32.387  30.001  27.239  1.00  0.00     0.202 C 
BRANCH   2   3
ATOM      3  C   UNL A   1      33.631  29.360  26.619  1.00  0.00     0.261 C 
BRANCH   3   4
ATOM      4  O   UNL A   1      33.373  28.609  25.420  1.00  0.00    -0.460 OA
BRANCH   4   5
ATOM      5  C   UNL A   1      32.815  27.394  25.635  1.00  0.00     0.340 C 
ATOM      6  O   UNL A   1      33.256  26.522  26.372  1.00  0.00    -0.246 OA
BRANCH   5   7
ATOM      7  C   UNL A   1      31.480  27.265  25.005  1.00  0.00     0.084 A 
ATOM      8  C   UNL A   1      30.515  26.271  25.256  1.00  0.00     0.056 A 
ATOM      9  C   UNL A   1      29.360  26.252  24.447  1.00  0.00     0.028 A 
ATOM     10  C   UNL A   1      29.110  27.251  23.501  1.00  0.00     0.018 A 
ATOM     11  C   UNL A   1      31.215  28.272  24.050  1.00  0.00     0.033 A 
ATOM     12  C   UNL A   1      30.033  28.270  23.321  1.00  0.00     0.018 A 
ATOM     13  Br  UNL A   1      29.681  29.663  22.096  1.00  0.00    -0.051 Br
BRANCH   8  14
ATOM     14  N   UNL A   1      30.505  25.294  26.278  1.00  0.00    -0.321 N 
ATOM     15  C   UNL A   1      30.876  23.968  26.334  1.00  0.00     0.255 C 
ATOM     16  O   UNL A   1      30.592  23.312  27.335  1.00  0.00    -0.269 OA
ATOM     17  H   UNL A   1      30.157  25.636  27.133  1.00  0.00     0.170 HD
BRANCH  15  18
ATOM     18  C   UNL A   1      31.661  23.316  25.263  1.00  0.00     0.044 A 
ATOM     19  C   UNL A   1      32.569  23.367  23.034  1.00  0.00     0.044 A 
ATOM     20  C   UNL A   1      32.628  21.960  23.061  1.00  0.00     0.052 A 
ATOM     21  C   UNL A   1      32.171  24.042  24.182  1.00  0.00     0.040 A 
ATOM     22  C   UNL A   1      32.272  21.233  24.202  1.00  0.00     0.044 A 
ATOM     23  C   UNL A   1      31.786  21.924  25.310  1.00  0.00     0.040 A 
BRANCH  19  24
ATOM     24  N   UNL A   1      32.727  23.977  21.772  1.00  0.00    -0.326 N 
ATOM     25  C   UNL A   1      33.682  26.228  22.290  1.00  0.00     0.114 C 
ATOM     26  C   UNL A   1      33.030  25.241  21.367  1.00  0.00     0.221 C 
ATOM     27  O   UNL A   1      32.790  25.562  20.198  1.00  0.00    -0.275 OA
ATOM     28  H   UNL A   1      32.589  23.353  21.023  1.00  0.00     0.169 HD
ENDBRANCH  19  24
BRANCH  22  29
ATOM     29  N   UNL A   1      32.297  19.825  24.290  1.00  0.00    -0.326 N 
ATOM     30  C   UNL A   1      33.391  19.017  24.536  1.00  0.00     0.221 C 
ATOM     31  H   UNL A   1      31.436  19.365  24.161  1.00  0.00     0.169 HD
ATOM     32  C   UNL A   1      33.052  17.547  24.549  1.00  0.00     0.114 C 
ATOM     33  O   UNL A   1      34.546  19.386  24.723  1.00  0.00    -0.275 OA
ENDBRANCH  22  29
ENDBRANCH  15  18
ENDBRANCH   8  14
ENDBRANCH   5   7
ENDBRANCH   4   5
ENDBRANCH   3   4
ENDBRANCH   2   3
ENDBRANCH   1   2
BRANCH   1  34
ATOM     34  C   UNL A   1      31.640  32.282  26.752  1.00  0.00     0.202 C 
BRANCH  34  35
ATOM     35  C   UNL A   1      32.551  32.776  27.883  1.00  0.00     0.261 C 
BRANCH  35  36
ATOM     36  O   UNL A   1      33.252  33.997  27.594  1.00  0.00    -0.460 OA
BRANCH  36  37
ATOM     37  C   UNL A   1      33.255  34.886  28.618  1.00  0.00     0.338 C 
ATOM     38  O   UNL A   1      32.393  35.716  28.873  1.00  0.00    -0.246 OA
BRANCH  37  39
ATOM     39  C   UNL A   1      34.392  34.657  29.526  1.00  0.00     0.060 A 
ATOM     40  C   UNL A   1      35.675  34.623  28.966  1.00  0.00     0.016 A 
ATOM     41  C   UNL A   1      34.186  34.293  30.858  1.00  0.00     0.016 A 
ATOM     42  C   UNL A   1      36.750  34.154  29.716  1.00  0.00     0.010 A 
ATOM     43  C   UNL A   1      35.266  33.812  31.607  1.00  0.00     0.010 A 
ATOM     44  C   UNL A   1      36.539  33.692  31.022  1.00  0.00    -0.014 A 
BRANCH  44  45
ATOM     45  C   UNL A   1      37.607  32.907  31.688  1.00  0.00     0.031 A 
ATOM     46  C   UNL A   1      38.096  33.351  33.042  1.00  0.00     0.074 A 
ATOM     47  C   UNL A   1      38.095  31.788  31.124  1.00  0.00     0.049 A 
ATOM     48  N   UNL A   1      39.022  32.828  33.804  1.00  0.00    -0.248 NA
ATOM     49  C   UNL A   1      37.453  34.546  33.614  1.00  0.00     0.031 C 
ATOM     50  C   UNL A   1      37.673  31.237  29.838  1.00  0.00     0.029 A 
ATOM     51  N   UNL A   1      39.056  30.915  31.566  1.00  0.00    -0.354 N 
ATOM     52  C   UNL A   1      39.077  33.628  34.939  1.00  0.00     0.074 A 
ATOM     53  C   UNL A   1      38.109  34.688  34.757  1.00  0.00     0.031 C 
ATOM     54  C   UNL A   1      38.379  30.120  29.590  1.00  0.00     0.029 A 
ATOM     55  C   UNL A   1      39.319  29.892  30.688  1.00  0.00     0.049 A 
ATOM     56  H   UNL A   1      39.516  31.013  32.432  1.00  0.00     0.167 HD
ATOM     57  C   UNL A   1      39.856  33.488  36.038  1.00  0.00     0.037 A 
ATOM     58  C   UNL A   1      40.223  28.897  30.756  1.00  0.00     0.037 A 
ATOM     59  C   UNL A   1      40.814  32.430  36.219  1.00  0.00     0.049 A 
ATOM     60  C   UNL A   1      41.112  28.787  31.968  1.00  0.00     0.074 A 
ATOM     61  C   UNL A   1      41.653  32.201  37.295  1.00  0.00     0.029 A 
ATOM     62  N   UNL A   1      41.060  31.422  35.298  1.00  0.00    -0.354 N 
ATOM     63  N   UNL A   1      41.149  29.549  33.036  1.00  0.00    -0.248 NA
ATOM     64  C   UNL A   1      42.079  27.680  31.987  1.00  0.00     0.031 C 
ATOM     65  C   UNL A   1      42.431  31.072  37.011  1.00  0.00     0.029 A 
ATOM     66  C   UNL A   1      42.046  30.576  35.777  1.00  0.00     0.049 A 
ATOM     67  H   UNL A   1      40.602  31.323  34.433  1.00  0.00     0.167 HD
ATOM     68  C   UNL A   1      42.121  28.996  33.865  1.00  0.00     0.074 A 
ATOM     69  C   UNL A   1      42.641  27.832  33.178  1.00  0.00     0.031 C 
ATOM     70  C   UNL A   1      42.542  29.413  35.084  1.00  0.00     0.037 A 
BRANCH  57  71
ATOM     71  C   UNL A   1      39.715  34.517  37.124  1.00  0.00     0.058 A 
ATOM     72  C   UNL A   1      38.870  34.315  38.227  1.00  0.00     0.135 A 
ATOM     73  C   UNL A   1      40.460  35.707  37.078  1.00  0.00     0.135 A 
ATOM     74  F   UNL A   1      38.122  33.203  38.309  1.00  0.00    -0.206 F 
ATOM     75  C   UNL A   1      38.750  35.267  39.235  1.00  0.00     0.059 A 
ATOM     76  C   UNL A   1      40.372  36.662  38.086  1.00  0.00     0.059 A 
ATOM     77  F   UNL A   1      41.280  35.951  36.045  1.00  0.00    -0.206 F 
ATOM     78  C   UNL A   1      39.504  36.439  39.154  1.00  0.00     0.060 A 
BRANCH  78  79
ATOM     79  S   UNL A   1      39.344  37.664  40.472  1.00  0.00     0.124 S 
ATOM     80  O   UNL A   1      40.691  38.225  40.510  1.00  0.00    -0.237 OA
ATOM     81  O   UNL A   1      38.304  38.546  39.955  1.00  0.00    -0.237 OA
ATOM     82  O   UNL A   1      38.964  36.865  41.633  1.00  0.00    -0.744 OA
ENDBRANCH  78  79
ENDBRANCH  57  71
BRANCH  58  83
ATOM     83  C   UNL A   1      40.341  27.921  29.641  1.00  0.00     0.058 A 
ATOM     84  C   UNL A   1      41.270  28.108  28.607  1.00  0.00     0.135 A 
ATOM     85  C   UNL A   1      39.520  26.784  29.585  1.00  0.00     0.135 A 
ATOM     86  F   UNL A   1      42.069  29.185  28.612  1.00  0.00    -0.206 F 
ATOM     87  C   UNL A   1      41.371  27.212  27.548  1.00  0.00     0.059 A 
ATOM     88  C   UNL A   1      39.618  25.860  28.550  1.00  0.00     0.059 A 
ATOM     89  F   UNL A   1      38.620  26.555  30.555  1.00  0.00    -0.206 F 
ATOM     90  C   UNL A   1      40.541  26.090  27.529  1.00  0.00     0.060 A 
BRANCH  90  91
ATOM     91  S   UNL A   1      40.711  24.905  26.177  1.00  0.00     0.124 S 
ATOM     92  O   UNL A   1      41.325  25.728  25.142  1.00  0.00    -0.237 OA
ATOM     93  O   UNL A   1      41.566  23.881  26.770  1.00  0.00    -0.237 OA
ATOM     94  O   UNL A   1      39.335  24.489  25.922  1.00  0.00    -0.744 OA
ENDBRANCH  90  91
ENDBRANCH  58  83
BRANCH  70  95
ATOM     95  C   UNL A   1      43.586  28.582  35.776  1.00  0.00     0.058 A 
ATOM     96  C   UNL A   1      43.242  27.503  36.605  1.00  0.00     0.135 A 
ATOM     97  C   UNL A   1      44.951  28.843  35.571  1.00  0.00     0.135 A 
ATOM     98  F   UNL A   1      41.952  27.215  36.837  1.00  0.00    -0.206 F 
ATOM     99  C   UNL A   1      44.214  26.726  37.227  1.00  0.00     0.059 A 
ATOM    100  C   UNL A   1      45.940  28.066  36.164  1.00  0.00     0.059 A 
ATOM    101  F   UNL A   1      45.333  29.857  34.778  1.00  0.00    -0.206 F 
ATOM    102  C   UNL A   1      45.562  27.017  37.002  1.00  0.00     0.060 A 
BRANCH 102 103
ATOM    103  S   UNL A   1      46.817  25.991  37.795  1.00  0.00     0.124 S 
ATOM    104  O   UNL A   1      47.562  25.496  36.642  1.00  0.00    -0.237 OA
ATOM    105  O   UNL A   1      47.522  26.950  38.640  1.00  0.00    -0.237 OA
ATOM    106  O   UNL A   1      46.033  24.991  38.513  1.00  0.00    -0.744 OA
ENDBRANCH 102 103
ENDBRANCH  70  95
ENDBRANCH  44  45
ENDBRANCH  37  39
ENDBRANCH  36  37
ENDBRANCH  35  36
ENDBRANCH  34  35
ENDBRANCH   1  34
TORSDOF 21
ENDMDL
