MODEL 1
REMARK VINA RESULT:     -11.0      0.000      0.000
REMARK SMILES C[C@@H](SCC(=O)N1c2ccccc2SC[C@H]1c1ccccc1)C(=O)OCCOCCOC(=O)c1ccc(-c2c3nc(c(-c4c(F)cc(S(=O)(=O)[O-])cc4F)c4ccc([nH]4)c(-c4c(F)cc(S(=O)(=O)[O-])cc4F)c4nc(c(-c5c(F)cc(S(=O)(=O)[O-])cc5F)c5ccc2[nH]5)C=C4)C=C3)cc1
REMARK SMILES IDX 27 1 26 2 25 3 23 4 24 5 2 6 1 7 3 8 4 9 5 10 6 11 7 12 8 13
REMARK SMILES IDX 16 14 9 15 13 16 15 17 10 18 12 19 14 20 11 21 17 22 18 23
REMARK SMILES IDX 22 24 19 25 21 26 20 27 28 28 29 29 30 30 31 31 32 32 33 33
REMARK SMILES IDX 34 34 35 35 99 36 36 37 98 38 37 39 38 40 39 41 92 42 40 43
REMARK SMILES IDX 97 44 91 45 93 46 41 47 96 48 90 49 89 50 42 52 76 53 55 54
REMARK SMILES IDX 75 55 56 56 59 57 74 58 94 59 57 60 58 61 73 63 95 64 60 65
REMARK SMILES IDX 43 66 44 67 53 68 45 69 46 70 52 71 54 72 47 73 48 74 49 75
REMARK SMILES IDX 50 76 51 77 77 78 78 79 87 80 79 81 80 82 86 83 88 84 81 85
REMARK SMILES IDX 82 86 83 87 84 88 85 89 61 90 62 91 71 92 63 93 64 94 70 95
REMARK SMILES IDX 72 96 65 97 66 98 67 99 68 100 69 101
REMARK H PARENT 93 51 59 62
REMARK Flexibility Score: inf
ROOT
ATOM      1  C   UNL A   1      41.382  20.516  26.886  1.00  0.00     0.202 C 
ENDROOT
BRANCH   1   2
ATOM      2  C   UNL A   1      40.199  21.473  27.058  1.00  0.00     0.261 C 
BRANCH   2   3
ATOM      3  O   UNL A   1      39.587  21.936  25.846  1.00  0.00    -0.462 OA
BRANCH   3   4
ATOM      4  C   UNL A   1      38.481  22.715  26.021  1.00  0.00     0.318 C 
ATOM      5  O   UNL A   1      38.447  23.721  26.726  1.00  0.00    -0.251 OA
BRANCH   4   6
ATOM      6  C   UNL A   1      37.292  22.281  25.178  1.00  0.00     0.154 C 
ATOM      7  C   UNL A   1      37.212  20.778  24.961  1.00  0.00     0.032 C 
BRANCH   6   8
ATOM      8  S   UNL A   1      35.740  22.896  25.911  1.00  0.00    -0.137 SA
BRANCH   8   9
ATOM      9  C   UNL A   1      35.422  24.449  25.012  1.00  0.00     0.170 C 
BRANCH   9  10
ATOM     10  C   UNL A   1      34.509  24.387  23.794  1.00  0.00     0.237 C 
ATOM     11  O   UNL A   1      34.912  23.902  22.731  1.00  0.00    -0.274 OA
BRANCH  10  12
ATOM     12  N   UNL A   1      33.151  24.664  24.020  1.00  0.00    -0.302 N 
ATOM     13  C   UNL A   1      32.813  26.059  24.345  1.00  0.00     0.058 A 
ATOM     14  C   UNL A   1      32.315  23.624  24.683  1.00  0.00     0.131 C 
ATOM     15  C   UNL A   1      33.685  27.102  23.961  1.00  0.00     0.027 A 
ATOM     16  C   UNL A   1      31.640  26.437  25.040  1.00  0.00     0.031 A 
ATOM     17  C   UNL A   1      30.812  23.921  24.583  1.00  0.00     0.105 C 
ATOM     18  C   UNL A   1      33.426  28.443  24.279  1.00  0.00     0.002 A 
ATOM     19  C   UNL A   1      31.390  27.787  25.349  1.00  0.00     0.017 A 
ATOM     20  S   UNL A   1      30.379  25.319  25.619  1.00  0.00    -0.121 SA
ATOM     21  C   UNL A   1      32.277  28.787  24.972  1.00  0.00     0.001 A 
BRANCH  14  22
ATOM     22  C   UNL A   1      32.438  22.173  24.227  1.00  0.00    -0.024 A 
ATOM     23  C   UNL A   1      32.157  21.743  22.924  1.00  0.00     0.006 A 
ATOM     24  C   UNL A   1      32.641  21.191  25.216  1.00  0.00     0.006 A 
ATOM     25  C   UNL A   1      32.184  20.381  22.604  1.00  0.00     0.000 A 
ATOM     26  C   UNL A   1      32.614  19.833  24.905  1.00  0.00     0.000 A 
ATOM     27  C   UNL A   1      32.418  19.428  23.591  1.00  0.00     0.000 A 
ENDBRANCH  14  22
ENDBRANCH  10  12
ENDBRANCH   9  10
ENDBRANCH   8   9
ENDBRANCH   6   8
ENDBRANCH   4   6
ENDBRANCH   3   4
ENDBRANCH   2   3
ENDBRANCH   1   2
BRANCH   1  28
ATOM     28  O   UNL A   1      42.281  20.709  25.803  1.00  0.00    -0.374 OA
BRANCH  28  29
ATOM     29  C   UNL A   1      43.226  21.771  25.870  1.00  0.00     0.202 C 
BRANCH  29  30
ATOM     30  C   UNL A   1      42.890  23.112  25.208  1.00  0.00     0.261 C 
BRANCH  30  31
ATOM     31  O   UNL A   1      42.328  24.072  26.117  1.00  0.00    -0.460 OA
BRANCH  31  32
ATOM     32  C   UNL A   1      42.835  25.326  26.000  1.00  0.00     0.338 C 
ATOM     33  O   UNL A   1      43.526  25.756  25.086  1.00  0.00    -0.246 OA
BRANCH  32  34
ATOM     34  C   UNL A   1      42.268  26.200  27.043  1.00  0.00     0.060 A 
ATOM     35  C   UNL A   1      41.321  25.729  27.953  1.00  0.00     0.016 A 
ATOM     36  C   UNL A   1      42.759  27.510  27.140  1.00  0.00     0.016 A 
ATOM     37  C   UNL A   1      40.905  26.563  28.996  1.00  0.00     0.010 A 
ATOM     38  C   UNL A   1      42.340  28.340  28.178  1.00  0.00     0.010 A 
ATOM     39  C   UNL A   1      41.433  27.861  29.133  1.00  0.00    -0.014 A 
BRANCH  39  40
ATOM     40  C   UNL A   1      41.162  28.655  30.357  1.00  0.00     0.031 A 
ATOM     41  C   UNL A   1      41.979  28.487  31.603  1.00  0.00     0.074 A 
ATOM     42  C   UNL A   1      40.131  29.522  30.335  1.00  0.00     0.049 A 
ATOM     43  N   UNL A   1      41.898  29.144  32.731  1.00  0.00    -0.248 NA
ATOM     44  C   UNL A   1      43.013  27.442  31.587  1.00  0.00     0.031 C 
ATOM     45  C   UNL A   1      39.237  29.730  29.193  1.00  0.00     0.029 A 
ATOM     46  N   UNL A   1      39.661  30.390  31.287  1.00  0.00    -0.354 N 
ATOM     47  C   UNL A   1      42.884  28.616  33.553  1.00  0.00     0.074 A 
ATOM     48  C   UNL A   1      43.515  27.542  32.812  1.00  0.00     0.031 C 
ATOM     49  C   UNL A   1      38.351  30.691  29.498  1.00  0.00     0.029 A 
ATOM     50  C   UNL A   1      38.591  31.143  30.864  1.00  0.00     0.049 A 
ATOM     51  H   UNL A   1      40.052  30.466  32.188  1.00  0.00     0.167 HD
ATOM     52  C   UNL A   1      43.241  29.010  34.799  1.00  0.00     0.037 A 
ATOM     53  C   UNL A   1      37.885  32.096  31.502  1.00  0.00     0.037 A 
ATOM     54  C   UNL A   1      42.590  30.068  35.533  1.00  0.00     0.049 A 
ATOM     55  C   UNL A   1      38.274  32.482  32.903  1.00  0.00     0.074 A 
ATOM     56  C   UNL A   1      42.903  30.560  36.790  1.00  0.00     0.029 A 
ATOM     57  N   UNL A   1      41.490  30.789  35.089  1.00  0.00    -0.354 N 
ATOM     58  N   UNL A   1      39.258  32.025  33.639  1.00  0.00    -0.248 NA
ATOM     59  C   UNL A   1      37.461  33.514  33.559  1.00  0.00     0.031 C 
ATOM     60  C   UNL A   1      41.961  31.536  37.126  1.00  0.00     0.029 A 
ATOM     61  C   UNL A   1      41.095  31.698  36.057  1.00  0.00     0.049 A 
ATOM     62  H   UNL A   1      41.056  30.670  34.214  1.00  0.00     0.167 HD
ATOM     63  C   UNL A   1      39.197  32.728  34.837  1.00  0.00     0.074 A 
ATOM     64  C   UNL A   1      38.089  33.654  34.720  1.00  0.00     0.031 C 
ATOM     65  C   UNL A   1      39.987  32.615  35.934  1.00  0.00     0.037 A 
BRANCH  52  66
ATOM     66  C   UNL A   1      44.401  28.307  35.454  1.00  0.00     0.058 A 
ATOM     67  C   UNL A   1      45.715  28.783  35.314  1.00  0.00     0.135 A 
ATOM     68  C   UNL A   1      44.194  27.198  36.290  1.00  0.00     0.135 A 
ATOM     69  F   UNL A   1      45.973  29.834  34.520  1.00  0.00    -0.206 F 
ATOM     70  C   UNL A   1      46.783  28.172  35.964  1.00  0.00     0.059 A 
ATOM     71  C   UNL A   1      45.245  26.588  36.971  1.00  0.00     0.059 A 
ATOM     72  F   UNL A   1      42.958  26.702  36.463  1.00  0.00    -0.206 F 
ATOM     73  C   UNL A   1      46.537  27.077  36.792  1.00  0.00     0.060 A 
BRANCH  73  74
ATOM     74  S   UNL A   1      47.939  26.310  37.633  1.00  0.00     0.124 S 
ATOM     75  O   UNL A   1      49.019  26.558  36.683  1.00  0.00    -0.237 OA
ATOM     76  O   UNL A   1      48.005  27.066  38.879  1.00  0.00    -0.237 OA
ATOM     77  O   UNL A   1      47.534  24.914  37.769  1.00  0.00    -0.744 OA
ENDBRANCH  73  74
ENDBRANCH  52  66
BRANCH  53  78
ATOM     78  C   UNL A   1      36.763  32.776  30.802  1.00  0.00     0.058 A 
ATOM     79  C   UNL A   1      35.431  32.440  31.082  1.00  0.00     0.135 A 
ATOM     80  C   UNL A   1      36.997  33.797  29.867  1.00  0.00     0.135 A 
ATOM     81  F   UNL A   1      35.156  31.468  31.964  1.00  0.00    -0.206 F 
ATOM     82  C   UNL A   1      34.370  33.084  30.455  1.00  0.00     0.059 A 
ATOM     83  C   UNL A   1      35.953  34.475  29.248  1.00  0.00     0.059 A 
ATOM     84  F   UNL A   1      38.254  34.167  29.577  1.00  0.00    -0.206 F 
ATOM     85  C   UNL A   1      34.641  34.106  29.543  1.00  0.00     0.060 A 
BRANCH  85  86
ATOM     86  S   UNL A   1      33.253  34.969  28.778  1.00  0.00     0.124 S 
ATOM     87  O   UNL A   1      32.469  35.357  29.946  1.00  0.00    -0.237 OA
ATOM     88  O   UNL A   1      33.923  36.054  28.068  1.00  0.00    -0.237 OA
ATOM     89  O   UNL A   1      32.650  33.949  27.925  1.00  0.00    -0.744 OA
ENDBRANCH  85  86
ENDBRANCH  53  78
BRANCH  65  90
ATOM     90  C   UNL A   1      39.694  33.520  37.100  1.00  0.00     0.058 A 
ATOM     91  C   UNL A   1      38.779  33.160  38.102  1.00  0.00     0.135 A 
ATOM     92  C   UNL A   1      40.384  34.735  37.252  1.00  0.00     0.135 A 
ATOM     93  F   UNL A   1      38.085  32.014  38.002  1.00  0.00    -0.206 F 
ATOM     94  C   UNL A   1      38.547  33.976  39.203  1.00  0.00     0.059 A 
ATOM     95  C   UNL A   1      40.190  35.553  38.361  1.00  0.00     0.059 A 
ATOM     96  F   UNL A   1      41.277  35.126  36.328  1.00  0.00    -0.206 F 
ATOM     97  C   UNL A   1      39.263  35.169  39.328  1.00  0.00     0.060 A 
BRANCH  97  98
ATOM     98  S   UNL A   1      38.981  36.194  40.787  1.00  0.00     0.124 S 
ATOM     99  O   UNL A   1      40.308  36.213  41.395  1.00  0.00    -0.237 OA
ATOM    100  O   UNL A   1      38.534  37.453  40.200  1.00  0.00    -0.237 OA
ATOM    101  O   UNL A   1      37.963  35.457  41.530  1.00  0.00    -0.744 OA
ENDBRANCH  97  98
ENDBRANCH  65  90
ENDBRANCH  39  40
ENDBRANCH  32  34
ENDBRANCH  31  32
ENDBRANCH  30  31
ENDBRANCH  29  30
ENDBRANCH  28  29
ENDBRANCH   1  28
TORSDOF 22
ENDMDL
MODEL 2
REMARK VINA RESULT:     -10.5      2.479      9.087
REMARK SMILES C[C@@H](SCC(=O)N1c2ccccc2SC[C@H]1c1ccccc1)C(=O)OCCOCCOC(=O)c1ccc(-c2c3nc(c(-c4c(F)cc(S(=O)(=O)[O-])cc4F)c4ccc([nH]4)c(-c4c(F)cc(S(=O)(=O)[O-])cc4F)c4nc(c(-c5c(F)cc(S(=O)(=O)[O-])cc5F)c5ccc2[nH]5)C=C4)C=C3)cc1
REMARK SMILES IDX 27 1 26 2 25 3 23 4 24 5 2 6 1 7 3 8 4 9 5 10 6 11 7 12 8 13
REMARK SMILES IDX 16 14 9 15 13 16 15 17 10 18 12 19 14 20 11 21 17 22 18 23
REMARK SMILES IDX 22 24 19 25 21 26 20 27 28 28 29 29 30 30 31 31 32 32 33 33
REMARK SMILES IDX 34 34 35 35 99 36 36 37 98 38 37 39 38 40 39 41 92 42 40 43
REMARK SMILES IDX 97 44 91 45 93 46 41 47 96 48 90 49 89 50 42 52 76 53 55 54
REMARK SMILES IDX 75 55 56 56 59 57 74 58 94 59 57 60 58 61 73 63 95 64 60 65
REMARK SMILES IDX 43 66 44 67 53 68 45 69 46 70 52 71 54 72 47 73 48 74 49 75
REMARK SMILES IDX 50 76 51 77 77 78 78 79 87 80 79 81 80 82 86 83 88 84 81 85
REMARK SMILES IDX 82 86 83 87 84 88 85 89 61 90 62 91 71 92 63 93 64 94 70 95
REMARK SMILES IDX 72 96 65 97 66 98 67 99 68 100 69 101
REMARK H PARENT 93 51 59 62
REMARK Flexibility Score: inf
ROOT
ATOM      1  C   UNL A   1      35.113  33.350  28.097  1.00  0.00     0.202 C 
ENDROOT
BRANCH   1   2
ATOM      2  C   UNL A   1      34.227  32.137  28.394  1.00  0.00     0.261 C 
BRANCH   2   3
ATOM      3  O   UNL A   1      34.146  31.151  27.355  1.00  0.00    -0.462 OA
BRANCH   3   4
ATOM      4  C   UNL A   1      34.659  29.929  27.681  1.00  0.00     0.318 C 
ATOM      5  O   UNL A   1      35.585  29.755  28.469  1.00  0.00    -0.251 OA
BRANCH   4   6
ATOM      6  C   UNL A   1      33.912  28.767  27.044  1.00  0.00     0.154 C 
ATOM      7  C   UNL A   1      32.399  28.889  27.138  1.00  0.00     0.032 C 
BRANCH   6   8
ATOM      8  S   UNL A   1      34.422  28.566  25.305  1.00  0.00    -0.137 SA
BRANCH   8   9
ATOM      9  C   UNL A   1      32.988  29.174  24.360  1.00  0.00     0.170 C 
BRANCH   9  10
ATOM     10  C   UNL A   1      32.658  28.473  23.048  1.00  0.00     0.237 C 
ATOM     11  O   UNL A   1      33.489  28.422  22.135  1.00  0.00    -0.274 OA
BRANCH  10  12
ATOM     12  N   UNL A   1      31.490  27.692  23.037  1.00  0.00    -0.302 N 
ATOM     13  C   UNL A   1      30.229  28.403  22.774  1.00  0.00     0.058 A 
ATOM     14  C   UNL A   1      31.399  26.538  23.975  1.00  0.00     0.131 C 
ATOM     15  C   UNL A   1      30.248  29.641  22.094  1.00  0.00     0.027 A 
ATOM     16  C   UNL A   1      28.961  27.918  23.171  1.00  0.00     0.031 A 
ATOM     17  C   UNL A   1      30.232  25.597  23.645  1.00  0.00     0.105 C 
ATOM     18  C   UNL A   1      29.079  30.375  21.851  1.00  0.00     0.002 A 
ATOM     19  C   UNL A   1      27.793  28.662  22.918  1.00  0.00     0.017 A 
ATOM     20  S   UNL A   1      28.666  26.384  24.028  1.00  0.00    -0.121 SA
ATOM     21  C   UNL A   1      27.849  29.885  22.263  1.00  0.00     0.001 A 
BRANCH  14  22
ATOM     22  C   UNL A   1      32.598  25.605  24.122  1.00  0.00    -0.024 A 
ATOM     23  C   UNL A   1      33.191  24.931  23.047  1.00  0.00     0.006 A 
ATOM     24  C   UNL A   1      32.992  25.245  25.425  1.00  0.00     0.006 A 
ATOM     25  C   UNL A   1      34.218  24.005  23.268  1.00  0.00     0.000 A 
ATOM     26  C   UNL A   1      33.977  24.284  25.644  1.00  0.00     0.000 A 
ATOM     27  C   UNL A   1      34.614  23.686  24.564  1.00  0.00     0.000 A 
ENDBRANCH  14  22
ENDBRANCH  10  12
ENDBRANCH   9  10
ENDBRANCH   8   9
ENDBRANCH   6   8
ENDBRANCH   4   6
ENDBRANCH   3   4
ENDBRANCH   2   3
ENDBRANCH   1   2
BRANCH   1  28
ATOM     28  O   UNL A   1      34.517  34.635  27.981  1.00  0.00    -0.374 OA
BRANCH  28  29
ATOM     29  C   UNL A   1      33.179  34.818  28.431  1.00  0.00     0.202 C 
BRANCH  29  30
ATOM     30  C   UNL A   1      32.903  35.824  29.554  1.00  0.00     0.261 C 
BRANCH  30  31
ATOM     31  O   UNL A   1      32.313  35.227  30.721  1.00  0.00    -0.460 OA
BRANCH  31  32
ATOM     32  C   UNL A   1      32.937  35.530  31.888  1.00  0.00     0.338 C 
ATOM     33  O   UNL A   1      32.506  36.239  32.788  1.00  0.00    -0.246 OA
BRANCH  32  34
ATOM     34  C   UNL A   1      34.154  34.712  32.040  1.00  0.00     0.060 A 
ATOM     35  C   UNL A   1      35.367  35.098  31.469  1.00  0.00     0.016 A 
ATOM     36  C   UNL A   1      34.077  33.561  32.837  1.00  0.00     0.016 A 
ATOM     37  C   UNL A   1      36.517  34.351  31.742  1.00  0.00     0.010 A 
ATOM     38  C   UNL A   1      35.224  32.817  33.105  1.00  0.00     0.010 A 
ATOM     39  C   UNL A   1      36.459  33.225  32.585  1.00  0.00    -0.014 A 
BRANCH  39  40
ATOM     40  C   UNL A   1      37.708  32.573  33.052  1.00  0.00     0.031 A 
ATOM     41  C   UNL A   1      38.390  32.992  34.319  1.00  0.00     0.074 A 
ATOM     42  C   UNL A   1      38.242  31.603  32.284  1.00  0.00     0.049 A 
ATOM     43  N   UNL A   1      39.455  32.482  34.884  1.00  0.00    -0.248 NA
ATOM     44  C   UNL A   1      37.812  34.133  35.044  1.00  0.00     0.031 C 
ATOM     45  C   UNL A   1      37.689  31.150  31.004  1.00  0.00     0.029 A 
ATOM     46  N   UNL A   1      39.354  30.820  32.461  1.00  0.00    -0.354 N 
ATOM     47  C   UNL A   1      39.663  33.218  36.042  1.00  0.00     0.074 A 
ATOM     48  C   UNL A   1      38.645  34.249  36.071  1.00  0.00     0.031 C 
ATOM     49  C   UNL A   1      38.444  30.146  30.532  1.00  0.00     0.029 A 
ATOM     50  C   UNL A   1      39.548  29.905  31.454  1.00  0.00     0.049 A 
ATOM     51  H   UNL A   1      39.955  30.906  33.236  1.00  0.00     0.167 HD
ATOM     52  C   UNL A   1      40.603  33.032  37.001  1.00  0.00     0.037 A 
ATOM     53  C   UNL A   1      40.506  28.972  31.292  1.00  0.00     0.037 A 
ATOM     54  C   UNL A   1      41.624  32.015  36.949  1.00  0.00     0.049 A 
ATOM     55  C   UNL A   1      41.565  28.818  32.349  1.00  0.00     0.074 A 
ATOM     56  C   UNL A   1      42.601  31.729  37.888  1.00  0.00     0.029 A 
ATOM     57  N   UNL A   1      41.813  31.126  35.899  1.00  0.00    -0.354 N 
ATOM     58  N   UNL A   1      41.703  29.473  33.477  1.00  0.00    -0.248 NA
ATOM     59  C   UNL A   1      42.595  27.798  32.116  1.00  0.00     0.031 C 
ATOM     60  C   UNL A   1      43.410  30.707  37.384  1.00  0.00     0.029 A 
ATOM     61  C   UNL A   1      42.906  30.313  36.156  1.00  0.00     0.049 A 
ATOM     62  H   UNL A   1      41.251  31.081  35.092  1.00  0.00     0.167 HD
ATOM     63  C   UNL A   1      42.822  28.930  34.098  1.00  0.00     0.074 A 
ATOM     64  C   UNL A   1      43.312  27.880  33.229  1.00  0.00     0.031 C 
ATOM     65  C   UNL A   1      43.390  29.271  35.281  1.00  0.00     0.037 A 
BRANCH  52  66
ATOM     66  C   UNL A   1      40.570  33.938  38.203  1.00  0.00     0.058 A 
ATOM     67  C   UNL A   1      39.785  33.631  39.326  1.00  0.00     0.135 A 
ATOM     68  C   UNL A   1      41.385  35.080  38.270  1.00  0.00     0.135 A 
ATOM     69  F   UNL A   1      38.979  32.558  39.314  1.00  0.00    -0.206 F 
ATOM     70  C   UNL A   1      39.795  34.432  40.463  1.00  0.00     0.059 A 
ATOM     71  C   UNL A   1      41.431  35.882  39.408  1.00  0.00     0.059 A 
ATOM     72  F   UNL A   1      42.159  35.420  37.227  1.00  0.00    -0.206 F 
ATOM     73  C   UNL A   1      40.624  35.554  40.495  1.00  0.00     0.060 A 
BRANCH  73  74
ATOM     74  S   UNL A   1      40.628  36.572  41.986  1.00  0.00     0.124 S 
ATOM     75  O   UNL A   1      40.915  35.578  43.016  1.00  0.00    -0.237 OA
ATOM     76  O   UNL A   1      41.698  37.524  41.709  1.00  0.00    -0.237 OA
ATOM     77  O   UNL A   1      39.282  37.136  42.020  1.00  0.00    -0.744 OA
ENDBRANCH  73  74
ENDBRANCH  52  66
BRANCH  53  78
ATOM     78  C   UNL A   1      40.479  28.088  30.097  1.00  0.00     0.058 A 
ATOM     79  C   UNL A   1      41.387  28.272  29.044  1.00  0.00     0.135 A 
ATOM     80  C   UNL A   1      39.572  27.020  29.999  1.00  0.00     0.135 A 
ATOM     81  F   UNL A   1      42.270  29.281  29.090  1.00  0.00    -0.206 F 
ATOM     82  C   UNL A   1      41.392  27.438  27.932  1.00  0.00     0.059 A 
ATOM     83  C   UNL A   1      39.576  26.155  28.910  1.00  0.00     0.059 A 
ATOM     84  F   UNL A   1      38.694  26.791  30.988  1.00  0.00    -0.206 F 
ATOM     85  C   UNL A   1      40.486  26.377  27.877  1.00  0.00     0.060 A 
BRANCH  85  86
ATOM     86  S   UNL A   1      40.541  25.271  26.452  1.00  0.00     0.124 S 
ATOM     87  O   UNL A   1      39.150  24.841  26.359  1.00  0.00    -0.237 OA
ATOM     88  O   UNL A   1      41.006  26.161  25.393  1.00  0.00    -0.237 OA
ATOM     89  O   UNL A   1      41.493  24.242  26.860  1.00  0.00    -0.744 OA
ENDBRANCH  85  86
ENDBRANCH  53  78
BRANCH  65  90
ATOM     90  C   UNL A   1      44.606  28.499  35.719  1.00  0.00     0.058 A 
ATOM     91  C   UNL A   1      45.904  28.911  35.376  1.00  0.00     0.135 A 
ATOM     92  C   UNL A   1      44.476  27.371  36.546  1.00  0.00     0.135 A 
ATOM     93  F   UNL A   1      46.086  29.977  34.580  1.00  0.00    -0.206 F 
ATOM     94  C   UNL A   1      47.027  28.223  35.822  1.00  0.00     0.059 A 
ATOM     95  C   UNL A   1      45.587  26.686  37.030  1.00  0.00     0.059 A 
ATOM     96  F   UNL A   1      43.259  26.938  36.913  1.00  0.00    -0.206 F 
ATOM     97  C   UNL A   1      46.859  27.115  36.655  1.00  0.00     0.060 A 
BRANCH  97  98
ATOM     98  S   UNL A   1      48.330  26.262  37.262  1.00  0.00     0.124 S 
ATOM     99  O   UNL A   1      49.396  27.140  36.787  1.00  0.00    -0.237 OA
ATOM    100  O   UNL A   1      48.111  26.253  38.704  1.00  0.00    -0.237 OA
ATOM    101  O   UNL A   1      48.260  24.956  36.613  1.00  0.00    -0.744 OA
ENDBRANCH  97  98
ENDBRANCH  65  90
ENDBRANCH  39  40
ENDBRANCH  32  34
ENDBRANCH  31  32
ENDBRANCH  30  31
ENDBRANCH  29  30
ENDBRANCH  28  29
ENDBRANCH   1  28
TORSDOF 22
ENDMDL
MODEL 3
REMARK VINA RESULT:     -10.5      5.784     11.674
REMARK SMILES C[C@@H](SCC(=O)N1c2ccccc2SC[C@H]1c1ccccc1)C(=O)OCCOCCOC(=O)c1ccc(-c2c3nc(c(-c4c(F)cc(S(=O)(=O)[O-])cc4F)c4ccc([nH]4)c(-c4c(F)cc(S(=O)(=O)[O-])cc4F)c4nc(c(-c5c(F)cc(S(=O)(=O)[O-])cc5F)c5ccc2[nH]5)C=C4)C=C3)cc1
REMARK SMILES IDX 27 1 26 2 25 3 23 4 24 5 2 6 1 7 3 8 4 9 5 10 6 11 7 12 8 13
REMARK SMILES IDX 16 14 9 15 13 16 15 17 10 18 12 19 14 20 11 21 17 22 18 23
REMARK SMILES IDX 22 24 19 25 21 26 20 27 28 28 29 29 30 30 31 31 32 32 33 33
REMARK SMILES IDX 34 34 35 35 99 36 36 37 98 38 37 39 38 40 39 41 92 42 40 43
REMARK SMILES IDX 97 44 91 45 93 46 41 47 96 48 90 49 89 50 42 52 76 53 55 54
REMARK SMILES IDX 75 55 56 56 59 57 74 58 94 59 57 60 58 61 73 63 95 64 60 65
REMARK SMILES IDX 43 66 44 67 53 68 45 69 46 70 52 71 54 72 47 73 48 74 49 75
REMARK SMILES IDX 50 76 51 77 77 78 78 79 87 80 79 81 80 82 86 83 88 84 81 85
REMARK SMILES IDX 82 86 83 87 84 88 85 89 61 90 62 91 71 92 63 93 64 94 70 95
REMARK SMILES IDX 72 96 65 97 66 98 67 99 68 100 69 101
REMARK H PARENT 93 51 59 62
REMARK Flexibility Score: inf
ROOT
ATOM      1  C   UNL A   1      35.145  34.240  28.868  1.00  0.00     0.202 C 
ENDROOT
BRANCH   1   2
ATOM      2  C   UNL A   1      34.009  33.244  28.614  1.00  0.00     0.261 C 
BRANCH   2   3
ATOM      3  O   UNL A   1      34.043  32.564  27.351  1.00  0.00    -0.462 OA
BRANCH   3   4
ATOM      4  C   UNL A   1      34.429  31.257  27.412  1.00  0.00     0.318 C 
ATOM      5  O   UNL A   1      35.573  30.884  27.659  1.00  0.00    -0.251 OA
BRANCH   4   6
ATOM      6  C   UNL A   1      33.280  30.276  27.237  1.00  0.00     0.154 C 
ATOM      7  C   UNL A   1      31.978  30.930  26.805  1.00  0.00     0.032 C 
BRANCH   6   8
ATOM      8  S   UNL A   1      33.746  28.961  26.063  1.00  0.00    -0.137 SA
BRANCH   8   9
ATOM      9  C   UNL A   1      32.885  29.427  24.527  1.00  0.00     0.170 C 
BRANCH   9  10
ATOM     10  C   UNL A   1      32.874  28.416  23.387  1.00  0.00     0.237 C 
ATOM     11  O   UNL A   1      33.907  28.169  22.755  1.00  0.00    -0.274 OA
BRANCH  10  12
ATOM     12  N   UNL A   1      31.723  27.618  23.276  1.00  0.00    -0.302 N 
ATOM     13  C   UNL A   1      30.474  28.317  22.933  1.00  0.00     0.058 A 
ATOM     14  C   UNL A   1      31.580  26.445  24.182  1.00  0.00     0.131 C 
ATOM     15  C   UNL A   1      30.524  29.569  22.280  1.00  0.00     0.027 A 
ATOM     16  C   UNL A   1      29.188  27.806  23.226  1.00  0.00     0.031 A 
ATOM     17  C   UNL A   1      30.456  25.495  23.749  1.00  0.00     0.105 C 
ATOM     18  C   UNL A   1      29.364  30.291  21.965  1.00  0.00     0.002 A 
ATOM     19  C   UNL A   1      28.030  28.539  22.901  1.00  0.00     0.017 A 
ATOM     20  S   UNL A   1      28.854  26.251  24.029  1.00  0.00    -0.121 SA
ATOM     21  C   UNL A   1      28.116  29.775  22.275  1.00  0.00     0.001 A 
BRANCH  14  22
ATOM     22  C   UNL A   1      32.780  25.526  24.400  1.00  0.00    -0.024 A 
ATOM     23  C   UNL A   1      33.472  25.430  25.613  1.00  0.00     0.006 A 
ATOM     24  C   UNL A   1      33.342  24.905  23.268  1.00  0.00     0.006 A 
ATOM     25  C   UNL A   1      34.631  24.650  25.711  1.00  0.00     0.000 A 
ATOM     26  C   UNL A   1      34.524  24.172  23.357  1.00  0.00     0.000 A 
ATOM     27  C   UNL A   1      35.153  24.018  24.586  1.00  0.00     0.000 A 
ENDBRANCH  14  22
ENDBRANCH  10  12
ENDBRANCH   9  10
ENDBRANCH   8   9
ENDBRANCH   6   8
ENDBRANCH   4   6
ENDBRANCH   3   4
ENDBRANCH   2   3
ENDBRANCH   1   2
BRANCH   1  28
ATOM     28  O   UNL A   1      36.366  33.774  29.425  1.00  0.00    -0.374 OA
BRANCH  28  29
ATOM     29  C   UNL A   1      36.418  33.461  30.812  1.00  0.00     0.202 C 
BRANCH  29  30
ATOM     30  C   UNL A   1      35.704  32.202  31.318  1.00  0.00     0.261 C 
BRANCH  30  31
ATOM     31  O   UNL A   1      36.180  30.992  30.707  1.00  0.00    -0.460 OA
BRANCH  31  32
ATOM     32  C   UNL A   1      36.914  30.195  31.524  1.00  0.00     0.338 C 
ATOM     33  O   UNL A   1      36.492  29.478  32.423  1.00  0.00    -0.246 OA
BRANCH  32  34
ATOM     34  C   UNL A   1      38.310  30.136  31.055  1.00  0.00     0.060 A 
ATOM     35  C   UNL A   1      39.366  29.904  31.937  1.00  0.00     0.016 A 
ATOM     36  C   UNL A   1      38.545  30.252  29.677  1.00  0.00     0.016 A 
ATOM     37  C   UNL A   1      40.656  29.737  31.425  1.00  0.00     0.010 A 
ATOM     38  C   UNL A   1      39.833  30.088  29.171  1.00  0.00     0.010 A 
ATOM     39  C   UNL A   1      40.894  29.798  30.039  1.00  0.00    -0.014 A 
BRANCH  39  40
ATOM     40  C   UNL A   1      42.212  29.400  29.485  1.00  0.00     0.031 A 
ATOM     41  C   UNL A   1      43.369  30.352  29.443  1.00  0.00     0.074 A 
ATOM     42  C   UNL A   1      42.340  28.155  28.986  1.00  0.00     0.049 A 
ATOM     43  N   UNL A   1      44.595  30.134  29.040  1.00  0.00    -0.248 NA
ATOM     44  C   UNL A   1      43.121  31.726  29.901  1.00  0.00     0.031 C 
ATOM     45  C   UNL A   1      41.264  27.162  28.929  1.00  0.00     0.029 A 
ATOM     46  N   UNL A   1      43.418  27.508  28.438  1.00  0.00    -0.354 N 
ATOM     47  C   UNL A   1      45.275  31.331  29.218  1.00  0.00     0.074 A 
ATOM     48  C   UNL A   1      44.308  32.290  29.714  1.00  0.00     0.031 C 
ATOM     49  C   UNL A   1      41.746  26.021  28.412  1.00  0.00     0.029 A 
ATOM     50  C   UNL A   1      43.152  26.211  28.071  1.00  0.00     0.049 A 
ATOM     51  H   UNL A   1      44.298  27.934  28.319  1.00  0.00     0.167 HD
ATOM     52  C   UNL A   1      46.588  31.593  29.010  1.00  0.00     0.037 A 
ATOM     53  C   UNL A   1      43.952  25.274  27.525  1.00  0.00     0.037 A 
ATOM     54  C   UNL A   1      47.535  30.634  28.496  1.00  0.00     0.049 A 
ATOM     55  C   UNL A   1      45.394  25.607  27.260  1.00  0.00     0.074 A 
ATOM     56  C   UNL A   1      48.893  30.798  28.280  1.00  0.00     0.029 A 
ATOM     57  N   UNL A   1      47.226  29.338  28.104  1.00  0.00    -0.354 N 
ATOM     58  N   UNL A   1      46.041  26.721  27.506  1.00  0.00    -0.248 NA
ATOM     59  C   UNL A   1      46.218  24.556  26.648  1.00  0.00     0.031 C 
ATOM     60  C   UNL A   1      49.392  29.624  27.709  1.00  0.00     0.029 A 
ATOM     61  C   UNL A   1      48.360  28.704  27.622  1.00  0.00     0.049 A 
ATOM     62  H   UNL A   1      46.331  28.931  28.161  1.00  0.00     0.167 HD
ATOM     63  C   UNL A   1      47.351  26.499  27.099  1.00  0.00     0.074 A 
ATOM     64  C   UNL A   1      47.410  25.138  26.608  1.00  0.00     0.031 C 
ATOM     65  C   UNL A   1      48.409  27.347  27.130  1.00  0.00     0.037 A 
BRANCH  52  66
ATOM     66  C   UNL A   1      47.093  32.970  29.349  1.00  0.00     0.058 A 
ATOM     67  C   UNL A   1      47.073  34.007  28.402  1.00  0.00     0.135 A 
ATOM     68  C   UNL A   1      47.526  33.282  30.648  1.00  0.00     0.135 A 
ATOM     69  F   UNL A   1      46.678  33.765  27.142  1.00  0.00    -0.206 F 
ATOM     70  C   UNL A   1      47.483  35.297  28.726  1.00  0.00     0.059 A 
ATOM     71  C   UNL A   1      47.915  34.572  31.001  1.00  0.00     0.059 A 
ATOM     72  F   UNL A   1      47.562  32.331  31.595  1.00  0.00    -0.206 F 
ATOM     73  C   UNL A   1      47.899  35.570  30.029  1.00  0.00     0.060 A 
BRANCH  73  74
ATOM     74  S   UNL A   1      48.415  37.253  30.427  1.00  0.00     0.124 S 
ATOM     75  O   UNL A   1      49.477  37.010  31.398  1.00  0.00    -0.237 OA
ATOM     76  O   UNL A   1      48.848  37.760  29.129  1.00  0.00    -0.237 OA
ATOM     77  O   UNL A   1      47.204  37.866  30.964  1.00  0.00    -0.744 OA
ENDBRANCH  73  74
ENDBRANCH  52  66
BRANCH  53  78
ATOM     78  C   UNL A   1      43.409  23.922  27.230  1.00  0.00     0.058 A 
ATOM     79  C   UNL A   1      43.298  22.955  28.239  1.00  0.00     0.135 A 
ATOM     80  C   UNL A   1      42.958  23.579  25.945  1.00  0.00     0.135 A 
ATOM     81  F   UNL A   1      43.719  23.232  29.483  1.00  0.00    -0.206 F 
ATOM     82  C   UNL A   1      42.769  21.694  27.986  1.00  0.00     0.059 A 
ATOM     83  C   UNL A   1      42.400  22.335  25.673  1.00  0.00     0.059 A 
ATOM     84  F   UNL A   1      43.027  24.475  24.948  1.00  0.00    -0.206 F 
ATOM     85  C   UNL A   1      42.316  21.396  26.700  1.00  0.00     0.060 A 
BRANCH  85  86
ATOM     86  S   UNL A   1      41.581  19.774  26.400  1.00  0.00     0.124 S 
ATOM     87  O   UNL A   1      41.894  19.076  27.641  1.00  0.00    -0.237 OA
ATOM     88  O   UNL A   1      40.176  20.111  26.192  1.00  0.00    -0.237 OA
ATOM     89  O   UNL A   1      42.287  19.299  25.214  1.00  0.00    -0.744 OA
ENDBRANCH  85  86
ENDBRANCH  53  78
BRANCH  65  90
ATOM     90  C   UNL A   1      49.730  26.832  26.627  1.00  0.00     0.058 A 
ATOM     91  C   UNL A   1      50.612  26.127  27.461  1.00  0.00     0.135 A 
ATOM     92  C   UNL A   1      50.091  26.987  25.278  1.00  0.00     0.135 A 
ATOM     93  F   UNL A   1      50.322  25.958  28.762  1.00  0.00    -0.206 F 
ATOM     94  C   UNL A   1      51.811  25.610  26.982  1.00  0.00     0.059 A 
ATOM     95  C   UNL A   1      51.270  26.451  24.769  1.00  0.00     0.059 A 
ATOM     96  F   UNL A   1      49.280  27.645  24.433  1.00  0.00    -0.206 F 
ATOM     97  C   UNL A   1      52.128  25.771  25.631  1.00  0.00     0.060 A 
BRANCH  97  98
ATOM     98  S   UNL A   1      53.667  25.053  25.017  1.00  0.00     0.124 S 
ATOM     99  O   UNL A   1      53.361  23.626  25.052  1.00  0.00    -0.237 OA
ATOM    100  O   UNL A   1      53.777  25.646  23.688  1.00  0.00    -0.237 OA
ATOM    101  O   UNL A   1      54.664  25.503  25.984  1.00  0.00    -0.744 OA
ENDBRANCH  97  98
ENDBRANCH  65  90
ENDBRANCH  39  40
ENDBRANCH  32  34
ENDBRANCH  31  32
ENDBRANCH  30  31
ENDBRANCH  29  30
ENDBRANCH  28  29
ENDBRANCH   1  28
TORSDOF 22
ENDMDL
