MODEL 1
REMARK VINA RESULT:     -11.9      0.000      0.000
REMARK SMILES O=C(OCCOCCOC(=O)[C@H]1CC=CC[C@@H]1C(=O)Nc1ccccc1C(=O)NCc1ccco1)c1ccc(-c2c3nc(c(-c4c(F)cc(S(=O)(=O)[O-])cc4F)c4ccc([nH]4)c(-c4c(F)cc(S(=O)(=O)[O-])cc4F)c4nc(c(-c5c(F)cc(S(=O)(=O)[O-])cc5F)c5ccc2[nH]5)C=C4)C=C3)cc1
REMARK SMILES IDX 7 1 6 2 5 3 4 4 3 5 2 6 1 7 36 8 37 9 101 10 38 11 100 12
REMARK SMILES IDX 39 13 40 14 41 15 94 16 42 17 99 18 93 19 95 20 43 21 98 22
REMARK SMILES IDX 92 23 91 24 44 26 78 27 57 28 77 29 58 30 61 31 76 32 96 33
REMARK SMILES IDX 59 34 60 35 75 37 97 38 62 39 45 40 46 41 55 42 47 43 48 44
REMARK SMILES IDX 54 45 56 46 49 47 50 48 51 49 52 50 53 51 79 52 80 53 89 54
REMARK SMILES IDX 81 55 82 56 88 57 90 58 83 59 84 60 85 61 86 62 87 63 63 64
REMARK SMILES IDX 64 65 73 66 65 67 66 68 72 69 74 70 67 71 68 72 69 73 70 74
REMARK SMILES IDX 71 75 8 76 9 77 10 78 11 79 12 80 13 81 17 82 14 83 16 84
REMARK SMILES IDX 15 85 18 86 19 87 20 88 21 90 22 91 26 92 23 93 25 94 24 95
REMARK SMILES IDX 27 96 28 97 29 98 30 100 31 101 32 102 35 103 33 104 34 105
REMARK H PARENT 95 25 61 36 20 89 29 99
REMARK Flexibility Score: inf
ROOT
ATOM      1  C   UNL A   1      31.858  29.033  26.296  1.00  0.00     0.202 C 
ENDROOT
BRANCH   1   2
ATOM      2  O   UNL A   1      31.908  30.123  27.224  1.00  0.00    -0.374 OA
BRANCH   2   3
ATOM      3  C   UNL A   1      33.130  30.860  27.248  1.00  0.00     0.202 C 
BRANCH   3   4
ATOM      4  C   UNL A   1      34.418  30.050  27.081  1.00  0.00     0.261 C 
BRANCH   4   5
ATOM      5  O   UNL A   1      34.950  29.678  28.357  1.00  0.00    -0.460 OA
BRANCH   5   6
ATOM      6  C   UNL A   1      35.935  30.323  29.027  1.00  0.00     0.338 C 
ATOM      7  O   UNL A   1      35.642  31.252  29.777  1.00  0.00    -0.246 OA
BRANCH   6   8
ATOM      8  C   UNL A   1      37.363  29.918  28.923  1.00  0.00     0.060 A 
ATOM      9  C   UNL A   1      38.168  29.587  30.016  1.00  0.00     0.016 A 
ATOM     10  C   UNL A   1      37.891  29.779  27.634  1.00  0.00     0.016 A 
ATOM     11  C   UNL A   1      39.481  29.195  29.857  1.00  0.00     0.010 A 
ATOM     12  C   UNL A   1      39.197  29.325  27.459  1.00  0.00     0.010 A 
ATOM     13  C   UNL A   1      39.990  29.038  28.577  1.00  0.00    -0.014 A 
BRANCH  13  14
ATOM     14  C   UNL A   1      41.395  28.645  28.444  1.00  0.00     0.031 A 
ATOM     15  C   UNL A   1      42.430  29.702  28.613  1.00  0.00     0.074 A 
ATOM     16  C   UNL A   1      41.698  27.349  28.255  1.00  0.00     0.049 A 
ATOM     17  N   UNL A   1      43.705  29.654  28.358  1.00  0.00    -0.248 NA
ATOM     18  C   UNL A   1      41.960  30.996  29.135  1.00  0.00     0.031 C 
ATOM     19  C   UNL A   1      40.725  26.251  28.230  1.00  0.00     0.029 A 
ATOM     20  N   UNL A   1      42.900  26.734  28.052  1.00  0.00    -0.354 N 
ATOM     21  C   UNL A   1      44.182  30.929  28.629  1.00  0.00     0.074 A 
ATOM     22  C   UNL A   1      43.064  31.723  29.081  1.00  0.00     0.031 C 
ATOM     23  C   UNL A   1      41.371  25.097  28.009  1.00  0.00     0.029 A 
ATOM     24  C   UNL A   1      42.780  25.392  27.782  1.00  0.00     0.049 A 
ATOM     25  H   UNL A   1      43.765  27.204  28.093  1.00  0.00     0.167 HD
ATOM     26  C   UNL A   1      45.447  31.379  28.477  1.00  0.00     0.037 A 
ATOM     27  C   UNL A   1      43.701  24.523  27.327  1.00  0.00     0.037 A 
ATOM     28  C   UNL A   1      46.511  30.528  28.017  1.00  0.00     0.049 A 
ATOM     29  C   UNL A   1      45.086  25.058  27.090  1.00  0.00     0.074 A 
ATOM     30  C   UNL A   1      47.831  30.846  27.769  1.00  0.00     0.029 A 
ATOM     31  N   UNL A   1      46.358  29.174  27.730  1.00  0.00    -0.354 N 
ATOM     32  N   UNL A   1      45.533  26.281  27.271  1.00  0.00    -0.248 NA
ATOM     33  C   UNL A   1      46.086  24.118  26.576  1.00  0.00     0.031 C 
ATOM     34  C   UNL A   1      48.461  29.695  27.280  1.00  0.00     0.029 A 
ATOM     35  C   UNL A   1      47.553  28.643  27.285  1.00  0.00     0.049 A 
ATOM     36  H   UNL A   1      45.520  28.668  27.829  1.00  0.00     0.167 HD
ATOM     37  C   UNL A   1      46.872  26.259  26.909  1.00  0.00     0.074 A 
ATOM     38  C   UNL A   1      47.161  24.894  26.506  1.00  0.00     0.031 C 
ATOM     39  C   UNL A   1      47.781  27.266  26.910  1.00  0.00     0.037 A 
BRANCH  26  40
ATOM     40  C   UNL A   1      45.680  32.847  28.702  1.00  0.00     0.058 A 
ATOM     41  C   UNL A   1      45.992  33.377  29.965  1.00  0.00     0.135 A 
ATOM     42  C   UNL A   1      45.496  33.752  27.644  1.00  0.00     0.135 A 
ATOM     43  F   UNL A   1      46.147  32.562  31.022  1.00  0.00    -0.206 F 
ATOM     44  C   UNL A   1      46.059  34.751  30.183  1.00  0.00     0.059 A 
ATOM     45  C   UNL A   1      45.588  35.129  27.832  1.00  0.00     0.059 A 
ATOM     46  F   UNL A   1      45.183  33.305  26.418  1.00  0.00    -0.206 F 
ATOM     47  C   UNL A   1      45.843  35.619  29.110  1.00  0.00     0.060 A 
BRANCH  47  48
ATOM     48  S   UNL A   1      45.870  37.398  29.416  1.00  0.00     0.124 S 
ATOM     49  O   UNL A   1      47.256  37.727  29.099  1.00  0.00    -0.237 OA
ATOM     50  O   UNL A   1      44.872  37.892  28.473  1.00  0.00    -0.237 OA
ATOM     51  O   UNL A   1      45.507  37.508  30.825  1.00  0.00    -0.744 OA
ENDBRANCH  47  48
ENDBRANCH  26  40
BRANCH  27  52
ATOM     52  C   UNL A   1      43.304  23.125  27.009  1.00  0.00     0.058 A 
ATOM     53  C   UNL A   1      43.285  22.650  25.692  1.00  0.00     0.135 A 
ATOM     54  C   UNL A   1      43.007  22.210  28.034  1.00  0.00     0.135 A 
ATOM     55  F   UNL A   1      43.555  23.481  24.674  1.00  0.00    -0.206 F 
ATOM     56  C   UNL A   1      42.994  21.318  25.400  1.00  0.00     0.059 A 
ATOM     57  C   UNL A   1      42.741  20.868  27.772  1.00  0.00     0.059 A 
ATOM     58  F   UNL A   1      43.024  22.606  29.317  1.00  0.00    -0.206 F 
ATOM     59  C   UNL A   1      42.733  20.433  26.449  1.00  0.00     0.060 A 
BRANCH  59  60
ATOM     60  S   UNL A   1      42.430  18.693  26.064  1.00  0.00     0.124 S 
ATOM     61  O   UNL A   1      42.767  18.048  27.327  1.00  0.00    -0.237 OA
ATOM     62  O   UNL A   1      41.014  18.701  25.709  1.00  0.00    -0.237 OA
ATOM     63  O   UNL A   1      43.344  18.429  24.956  1.00  0.00    -0.744 OA
ENDBRANCH  59  60
ENDBRANCH  27  52
BRANCH  39  64
ATOM     64  C   UNL A   1      49.182  26.916  26.506  1.00  0.00     0.058 A 
ATOM     65  C   UNL A   1      50.078  26.315  27.401  1.00  0.00     0.135 A 
ATOM     66  C   UNL A   1      49.581  27.077  25.170  1.00  0.00     0.135 A 
ATOM     67  F   UNL A   1      49.741  26.154  28.690  1.00  0.00    -0.206 F 
ATOM     68  C   UNL A   1      51.326  25.876  26.981  1.00  0.00     0.059 A 
ATOM     69  C   UNL A   1      50.813  26.618  24.722  1.00  0.00     0.059 A 
ATOM     70  F   UNL A   1      48.750  27.639  24.278  1.00  0.00    -0.206 F 
ATOM     71  C   UNL A   1      51.678  26.018  25.636  1.00  0.00     0.060 A 
BRANCH  71  72
ATOM     72  S   UNL A   1      53.261  25.354  25.085  1.00  0.00     0.124 S 
ATOM     73  O   UNL A   1      53.228  25.663  23.659  1.00  0.00    -0.237 OA
ATOM     74  O   UNL A   1      54.214  26.124  25.880  1.00  0.00    -0.237 OA
ATOM     75  O   UNL A   1      53.172  23.937  25.422  1.00  0.00    -0.744 OA
ENDBRANCH  71  72
ENDBRANCH  39  64
ENDBRANCH  13  14
ENDBRANCH   6   8
ENDBRANCH   5   6
ENDBRANCH   4   5
ENDBRANCH   3   4
ENDBRANCH   2   3
ENDBRANCH   1   2
BRANCH   1  76
ATOM     76  C   UNL A   1      31.696  27.721  27.057  1.00  0.00     0.261 C 
BRANCH  76  77
ATOM     77  O   UNL A   1      31.627  26.650  26.094  1.00  0.00    -0.463 OA
BRANCH  77  78
ATOM     78  C   UNL A   1      32.840  26.224  25.646  1.00  0.00     0.310 C 
ATOM     79  O   UNL A   1      33.917  26.567  26.122  1.00  0.00    -0.252 OA
BRANCH  78  80
ATOM     80  C   UNL A   1      32.680  25.237  24.499  1.00  0.00     0.116 C 
ATOM     81  C   UNL A   1      31.212  25.204  24.044  1.00  0.00     0.043 C 
ATOM     82  C   UNL A   1      33.588  25.601  23.299  1.00  0.00     0.097 C 
ATOM     83  C   UNL A   1      30.848  26.343  23.126  1.00  0.00    -0.030 C 
ATOM     84  C   UNL A   1      33.227  27.005  22.814  1.00  0.00     0.041 C 
ATOM     85  C   UNL A   1      31.756  27.178  22.599  1.00  0.00    -0.030 C 
BRANCH  82  86
ATOM     86  C   UNL A   1      33.584  24.408  22.326  1.00  0.00     0.228 C 
ATOM     87  O   UNL A   1      33.153  24.592  21.175  1.00  0.00    -0.274 OA
ATOM     88  N   UNL A   1      33.930  23.116  22.601  1.00  0.00    -0.325 N 
ATOM     89  H   UNL A   1      33.572  22.446  21.974  1.00  0.00     0.169 HD
BRANCH  88  90
ATOM     90  C   UNL A   1      34.710  22.599  23.635  1.00  0.00     0.054 A 
ATOM     91  C   UNL A   1      36.086  22.907  23.496  1.00  0.00     0.027 A 
ATOM     92  C   UNL A   1      34.259  21.855  24.739  1.00  0.00     0.063 A 
ATOM     93  C   UNL A   1      37.000  22.636  24.508  1.00  0.00     0.002 A 
ATOM     94  C   UNL A   1      35.223  21.612  25.757  1.00  0.00     0.016 A 
ATOM     95  C   UNL A   1      36.559  22.016  25.662  1.00  0.00     0.001 A 
BRANCH  92  96
ATOM     96  C   UNL A   1      32.903  21.290  25.082  1.00  0.00     0.253 C 
ATOM     97  O   UNL A   1      32.249  21.873  25.959  1.00  0.00    -0.269 OA
ATOM     98  N   UNL A   1      32.244  20.204  24.592  1.00  0.00    -0.345 N 
ATOM     99  H   UNL A   1      31.404  20.057  25.085  1.00  0.00     0.164 HD
BRANCH  98 100
ATOM    100  C   UNL A   1      32.408  19.205  23.567  1.00  0.00     0.191 C 
BRANCH 100 101
ATOM    101  C   UNL A   1      32.945  17.945  24.125  1.00  0.00     0.122 A 
ATOM    102  C   UNL A   1      34.139  17.270  23.984  1.00  0.00     0.047 A 
ATOM    103  O   UNL A   1      32.165  17.320  25.054  1.00  0.00    -0.467 OA
ATOM    104  C   UNL A   1      34.092  16.182  24.889  1.00  0.00     0.042 A 
ATOM    105  C   UNL A   1      32.869  16.257  25.515  1.00  0.00     0.195 A 
ENDBRANCH 100 101
ENDBRANCH  98 100
ENDBRANCH  92  96
ENDBRANCH  88  90
ENDBRANCH  82  86
ENDBRANCH  78  80
ENDBRANCH  77  78
ENDBRANCH  76  77
ENDBRANCH   1  76
TORSDOF 22
ENDMDL
MODEL 2
REMARK VINA RESULT:     -11.8      6.329     11.053
REMARK SMILES O=C(OCCOCCOC(=O)[C@H]1CC=CC[C@@H]1C(=O)Nc1ccccc1C(=O)NCc1ccco1)c1ccc(-c2c3nc(c(-c4c(F)cc(S(=O)(=O)[O-])cc4F)c4ccc([nH]4)c(-c4c(F)cc(S(=O)(=O)[O-])cc4F)c4nc(c(-c5c(F)cc(S(=O)(=O)[O-])cc5F)c5ccc2[nH]5)C=C4)C=C3)cc1
REMARK SMILES IDX 7 1 6 2 5 3 4 4 3 5 2 6 1 7 36 8 37 9 101 10 38 11 100 12
REMARK SMILES IDX 39 13 40 14 41 15 94 16 42 17 99 18 93 19 95 20 43 21 98 22
REMARK SMILES IDX 92 23 91 24 44 26 78 27 57 28 77 29 58 30 61 31 76 32 96 33
REMARK SMILES IDX 59 34 60 35 75 37 97 38 62 39 45 40 46 41 55 42 47 43 48 44
REMARK SMILES IDX 54 45 56 46 49 47 50 48 51 49 52 50 53 51 79 52 80 53 89 54
REMARK SMILES IDX 81 55 82 56 88 57 90 58 83 59 84 60 85 61 86 62 87 63 63 64
REMARK SMILES IDX 64 65 73 66 65 67 66 68 72 69 74 70 67 71 68 72 69 73 70 74
REMARK SMILES IDX 71 75 8 76 9 77 10 78 11 79 12 80 13 81 17 82 14 83 16 84
REMARK SMILES IDX 15 85 18 86 19 87 20 88 21 90 22 91 26 92 23 93 25 94 24 95
REMARK SMILES IDX 27 96 28 97 29 98 30 100 31 101 32 102 35 103 33 104 34 105
REMARK H PARENT 95 25 61 36 20 89 29 99
REMARK Flexibility Score: inf
ROOT
ATOM      1  C   UNL A   1      40.906  21.590  25.869  1.00  0.00     0.202 C 
ENDROOT
BRANCH   1   2
ATOM      2  O   UNL A   1      42.193  21.898  26.415  1.00  0.00    -0.374 OA
BRANCH   2   3
ATOM      3  C   UNL A   1      43.165  22.372  25.483  1.00  0.00     0.202 C 
BRANCH   3   4
ATOM      4  C   UNL A   1      43.081  23.851  25.102  1.00  0.00     0.261 C 
BRANCH   4   5
ATOM      5  O   UNL A   1      42.733  24.647  26.241  1.00  0.00    -0.460 OA
BRANCH   5   6
ATOM      6  C   UNL A   1      41.849  25.673  26.256  1.00  0.00     0.338 C 
ATOM      7  O   UNL A   1      41.230  25.946  25.230  1.00  0.00    -0.246 OA
BRANCH   6   8
ATOM      8  C   UNL A   1      41.566  26.459  27.487  1.00  0.00     0.060 A 
ATOM      9  C   UNL A   1      40.654  26.075  28.473  1.00  0.00     0.016 A 
ATOM     10  C   UNL A   1      42.337  27.609  27.697  1.00  0.00     0.016 A 
ATOM     11  C   UNL A   1      40.449  26.833  29.607  1.00  0.00     0.010 A 
ATOM     12  C   UNL A   1      42.181  28.350  28.868  1.00  0.00     0.010 A 
ATOM     13  C   UNL A   1      41.231  27.958  29.819  1.00  0.00    -0.014 A 
BRANCH  13  14
ATOM     14  C   UNL A   1      40.970  28.754  31.021  1.00  0.00     0.031 A 
ATOM     15  C   UNL A   1      39.835  29.717  30.983  1.00  0.00     0.074 A 
ATOM     16  C   UNL A   1      41.706  28.535  32.124  1.00  0.00     0.049 A 
ATOM     17  N   UNL A   1      39.524  30.656  31.826  1.00  0.00    -0.248 NA
ATOM     18  C   UNL A   1      38.928  29.609  29.827  1.00  0.00     0.031 C 
ATOM     19  C   UNL A   1      42.735  27.497  32.259  1.00  0.00     0.029 A 
ATOM     20  N   UNL A   1      41.703  29.162  33.338  1.00  0.00    -0.354 N 
ATOM     21  C   UNL A   1      38.421  31.294  31.275  1.00  0.00     0.074 A 
ATOM     22  C   UNL A   1      38.110  30.627  30.033  1.00  0.00     0.031 C 
ATOM     23  C   UNL A   1      43.274  27.571  33.485  1.00  0.00     0.029 A 
ATOM     24  C   UNL A   1      42.696  28.715  34.177  1.00  0.00     0.049 A 
ATOM     25  H   UNL A   1      41.057  29.862  33.585  1.00  0.00     0.167 HD
ATOM     26  C   UNL A   1      37.761  32.364  31.772  1.00  0.00     0.037 A 
ATOM     27  C   UNL A   1      43.131  29.232  35.340  1.00  0.00     0.037 A 
ATOM     28  C   UNL A   1      38.132  32.980  33.018  1.00  0.00     0.049 A 
ATOM     29  C   UNL A   1      42.437  30.468  35.841  1.00  0.00     0.074 A 
ATOM     30  C   UNL A   1      37.594  34.093  33.629  1.00  0.00     0.029 A 
ATOM     31  N   UNL A   1      39.158  32.520  33.840  1.00  0.00    -0.354 N 
ATOM     32  N   UNL A   1      41.441  31.127  35.291  1.00  0.00    -0.248 NA
ATOM     33  C   UNL A   1      42.922  31.043  37.099  1.00  0.00     0.031 C 
ATOM     34  C   UNL A   1      38.329  34.337  34.795  1.00  0.00     0.029 A 
ATOM     35  C   UNL A   1      39.285  33.339  34.945  1.00  0.00     0.049 A 
ATOM     36  H   UNL A   1      39.711  31.727  33.660  1.00  0.00     0.167 HD
ATOM     37  C   UNL A   1      41.165  32.188  36.141  1.00  0.00     0.074 A 
ATOM     38  C   UNL A   1      42.099  32.075  37.248  1.00  0.00     0.031 C 
ATOM     39  C   UNL A   1      40.230  33.164  36.024  1.00  0.00     0.037 A 
BRANCH  26  40
ATOM     40  C   UNL A   1      36.685  32.961  30.910  1.00  0.00     0.058 A 
ATOM     41  C   UNL A   1      36.969  33.815  29.831  1.00  0.00     0.135 A 
ATOM     42  C   UNL A   1      35.334  32.746  31.231  1.00  0.00     0.135 A 
ATOM     43  F   UNL A   1      38.242  34.084  29.498  1.00  0.00    -0.206 F 
ATOM     44  C   UNL A   1      35.957  34.474  29.137  1.00  0.00     0.059 A 
ATOM     45  C   UNL A   1      34.305  33.371  30.532  1.00  0.00     0.059 A 
ATOM     46  F   UNL A   1      35.002  31.952  32.260  1.00  0.00    -0.206 F 
ATOM     47  C   UNL A   1      34.628  34.254  29.504  1.00  0.00     0.060 A 
BRANCH  47  48
ATOM     48  S   UNL A   1      33.329  35.162  28.640  1.00  0.00     0.124 S 
ATOM     49  O   UNL A   1      32.652  34.087  27.920  1.00  0.00    -0.237 OA
ATOM     50  O   UNL A   1      32.577  35.755  29.742  1.00  0.00    -0.237 OA
ATOM     51  O   UNL A   1      34.067  36.106  27.808  1.00  0.00    -0.744 OA
ENDBRANCH  47  48
ENDBRANCH  26  40
BRANCH  27  52
ATOM     52  C   UNL A   1      44.303  28.624  36.025  1.00  0.00     0.058 A 
ATOM     53  C   UNL A   1      44.156  27.559  36.922  1.00  0.00     0.135 A 
ATOM     54  C   UNL A   1      45.611  29.051  35.733  1.00  0.00     0.135 A 
ATOM     55  F   UNL A   1      42.932  27.113  37.242  1.00  0.00    -0.206 F 
ATOM     56  C   UNL A   1      45.260  26.933  37.501  1.00  0.00     0.059 A 
ATOM     57  C   UNL A   1      46.730  28.426  36.275  1.00  0.00     0.059 A 
ATOM     58  F   UNL A   1      45.812  30.059  34.869  1.00  0.00    -0.206 F 
ATOM     59  C   UNL A   1      46.544  27.369  37.162  1.00  0.00     0.060 A 
BRANCH  59  60
ATOM     60  S   UNL A   1      47.968  26.503  37.861  1.00  0.00     0.124 S 
ATOM     61  O   UNL A   1      48.038  25.318  37.014  1.00  0.00    -0.237 OA
ATOM     62  O   UNL A   1      49.038  27.480  37.682  1.00  0.00    -0.237 OA
ATOM     63  O   UNL A   1      47.572  26.265  39.246  1.00  0.00    -0.744 OA
ENDBRANCH  59  60
ENDBRANCH  27  52
BRANCH  39  64
ATOM     64  C   UNL A   1      40.143  34.158  37.144  1.00  0.00     0.058 A 
ATOM     65  C   UNL A   1      40.876  35.353  37.126  1.00  0.00     0.135 A 
ATOM     66  C   UNL A   1      39.218  33.958  38.181  1.00  0.00     0.135 A 
ATOM     67  F   UNL A   1      41.779  35.578  36.160  1.00  0.00    -0.206 F 
ATOM     68  C   UNL A   1      40.689  36.324  38.101  1.00  0.00     0.059 A 
ATOM     69  C   UNL A   1      38.994  34.929  39.148  1.00  0.00     0.059 A 
ATOM     70  F   UNL A   1      38.489  32.832  38.230  1.00  0.00    -0.206 F 
ATOM     71  C   UNL A   1      39.735  36.109  39.098  1.00  0.00     0.060 A 
BRANCH  71  72
ATOM     72  S   UNL A   1      39.433  37.420  40.299  1.00  0.00     0.124 S 
ATOM     73  O   UNL A   1      38.841  36.674  41.405  1.00  0.00    -0.237 OA
ATOM     74  O   UNL A   1      40.776  37.943  40.532  1.00  0.00    -0.237 OA
ATOM     75  O   UNL A   1      38.528  38.323  39.596  1.00  0.00    -0.744 OA
ENDBRANCH  71  72
ENDBRANCH  39  64
ENDBRANCH  13  14
ENDBRANCH   6   8
ENDBRANCH   5   6
ENDBRANCH   4   5
ENDBRANCH   3   4
ENDBRANCH   2   3
ENDBRANCH   1   2
BRANCH   1  76
ATOM     76  C   UNL A   1      39.817  22.140  26.783  1.00  0.00     0.261 C 
BRANCH  76  77
ATOM     77  O   UNL A   1      38.570  22.116  26.061  1.00  0.00    -0.463 OA
BRANCH  77  78
ATOM     78  C   UNL A   1      37.974  23.334  25.935  1.00  0.00     0.310 C 
ATOM     79  O   UNL A   1      38.290  24.332  26.574  1.00  0.00    -0.252 OA
BRANCH  78  80
ATOM     80  C   UNL A   1      36.887  23.301  24.870  1.00  0.00     0.116 C 
ATOM     81  C   UNL A   1      36.500  21.843  24.571  1.00  0.00     0.043 C 
ATOM     82  C   UNL A   1      35.631  24.093  25.308  1.00  0.00     0.097 C 
ATOM     83  C   UNL A   1      35.541  21.263  25.579  1.00  0.00    -0.030 C 
ATOM     84  C   UNL A   1      35.092  23.487  26.604  1.00  0.00     0.041 C 
ATOM     85  C   UNL A   1      34.933  22.001  26.521  1.00  0.00    -0.030 C 
BRANCH  82  86
ATOM     86  C   UNL A   1      34.722  24.254  24.077  1.00  0.00     0.228 C 
ATOM     87  O   UNL A   1      34.893  23.482  23.118  1.00  0.00    -0.274 OA
ATOM     88  N   UNL A   1      33.777  25.216  23.867  1.00  0.00    -0.325 N 
ATOM     89  H   UNL A   1      33.527  25.357  22.925  1.00  0.00     0.169 HD
BRANCH  88  90
ATOM     90  C   UNL A   1      33.113  26.034  24.782  1.00  0.00     0.054 A 
ATOM     91  C   UNL A   1      33.451  27.403  24.646  1.00  0.00     0.027 A 
ATOM     92  C   UNL A   1      32.184  25.627  25.755  1.00  0.00     0.063 A 
ATOM     93  C   UNL A   1      32.768  28.395  25.340  1.00  0.00     0.002 A 
ATOM     94  C   UNL A   1      31.498  26.674  26.432  1.00  0.00     0.016 A 
ATOM     95  C   UNL A   1      31.761  28.030  26.214  1.00  0.00     0.001 A 
BRANCH  92  96
ATOM     96  C   UNL A   1      31.729  24.258  26.197  1.00  0.00     0.253 C 
ATOM     97  O   UNL A   1      31.464  24.108  27.399  1.00  0.00    -0.269 OA
ATOM     98  N   UNL A   1      31.562  23.106  25.491  1.00  0.00    -0.345 N 
ATOM     99  H   UNL A   1      31.331  22.362  26.093  1.00  0.00     0.164 HD
BRANCH  98 100
ATOM    100  C   UNL A   1      31.625  22.651  24.125  1.00  0.00     0.191 C 
BRANCH 100 101
ATOM    101  C   UNL A   1      32.023  21.229  24.050  1.00  0.00     0.122 A 
ATOM    102  C   UNL A   1      32.598  20.448  23.069  1.00  0.00     0.047 A 
ATOM    103  O   UNL A   1      31.894  20.508  25.202  1.00  0.00    -0.467 OA
ATOM    104  C   UNL A   1      32.850  19.186  23.661  1.00  0.00     0.042 A 
ATOM    105  C   UNL A   1      32.403  19.274  24.958  1.00  0.00     0.195 A 
ENDBRANCH 100 101
ENDBRANCH  98 100
ENDBRANCH  92  96
ENDBRANCH  88  90
ENDBRANCH  82  86
ENDBRANCH  78  80
ENDBRANCH  77  78
ENDBRANCH  76  77
ENDBRANCH   1  76
TORSDOF 22
ENDMDL
MODEL 3
REMARK VINA RESULT:     -11.7      6.352     11.242
REMARK SMILES O=C(OCCOCCOC(=O)[C@H]1CC=CC[C@@H]1C(=O)Nc1ccccc1C(=O)NCc1ccco1)c1ccc(-c2c3nc(c(-c4c(F)cc(S(=O)(=O)[O-])cc4F)c4ccc([nH]4)c(-c4c(F)cc(S(=O)(=O)[O-])cc4F)c4nc(c(-c5c(F)cc(S(=O)(=O)[O-])cc5F)c5ccc2[nH]5)C=C4)C=C3)cc1
REMARK SMILES IDX 7 1 6 2 5 3 4 4 3 5 2 6 1 7 36 8 37 9 101 10 38 11 100 12
REMARK SMILES IDX 39 13 40 14 41 15 94 16 42 17 99 18 93 19 95 20 43 21 98 22
REMARK SMILES IDX 92 23 91 24 44 26 78 27 57 28 77 29 58 30 61 31 76 32 96 33
REMARK SMILES IDX 59 34 60 35 75 37 97 38 62 39 45 40 46 41 55 42 47 43 48 44
REMARK SMILES IDX 54 45 56 46 49 47 50 48 51 49 52 50 53 51 79 52 80 53 89 54
REMARK SMILES IDX 81 55 82 56 88 57 90 58 83 59 84 60 85 61 86 62 87 63 63 64
REMARK SMILES IDX 64 65 73 66 65 67 66 68 72 69 74 70 67 71 68 72 69 73 70 74
REMARK SMILES IDX 71 75 8 76 9 77 10 78 11 79 12 80 13 81 17 82 14 83 16 84
REMARK SMILES IDX 15 85 18 86 19 87 20 88 21 90 22 91 26 92 23 93 25 94 24 95
REMARK SMILES IDX 27 96 28 97 29 98 30 100 31 101 32 102 35 103 33 104 34 105
REMARK H PARENT 95 25 61 36 20 89 29 99
REMARK Flexibility Score: inf
ROOT
ATOM      1  C   UNL A   1      40.419  21.116  27.058  1.00  0.00     0.202 C 
ENDROOT
BRANCH   1   2
ATOM      2  O   UNL A   1      41.502  22.028  27.278  1.00  0.00    -0.374 OA
BRANCH   2   3
ATOM      3  C   UNL A   1      42.399  22.200  26.181  1.00  0.00     0.202 C 
BRANCH   3   4
ATOM      4  C   UNL A   1      42.672  23.641  25.744  1.00  0.00     0.261 C 
BRANCH   4   5
ATOM      5  O   UNL A   1      41.537  24.473  26.009  1.00  0.00    -0.460 OA
BRANCH   5   6
ATOM      6  C   UNL A   1      41.532  25.828  26.039  1.00  0.00     0.338 C 
ATOM      7  O   UNL A   1      41.713  26.452  24.996  1.00  0.00    -0.246 OA
BRANCH   6   8
ATOM      8  C   UNL A   1      41.271  26.592  27.288  1.00  0.00     0.060 A 
ATOM      9  C   UNL A   1      40.419  26.164  28.309  1.00  0.00     0.016 A 
ATOM     10  C   UNL A   1      42.002  27.772  27.475  1.00  0.00     0.016 A 
ATOM     11  C   UNL A   1      40.233  26.905  29.457  1.00  0.00     0.010 A 
ATOM     12  C   UNL A   1      41.867  28.498  28.657  1.00  0.00     0.010 A 
ATOM     13  C   UNL A   1      40.976  28.060  29.645  1.00  0.00    -0.014 A 
BRANCH  13  14
ATOM     14  C   UNL A   1      40.735  28.836  30.864  1.00  0.00     0.031 A 
ATOM     15  C   UNL A   1      39.620  29.822  30.850  1.00  0.00     0.074 A 
ATOM     16  C   UNL A   1      41.470  28.580  31.960  1.00  0.00     0.049 A 
ATOM     17  N   UNL A   1      39.329  30.749  31.714  1.00  0.00    -0.248 NA
ATOM     18  C   UNL A   1      38.706  29.755  29.696  1.00  0.00     0.031 C 
ATOM     19  C   UNL A   1      42.480  27.520  32.069  1.00  0.00     0.029 A 
ATOM     20  N   UNL A   1      41.484  29.182  33.186  1.00  0.00    -0.354 N 
ATOM     21  C   UNL A   1      38.237  31.421  31.181  1.00  0.00     0.074 A 
ATOM     22  C   UNL A   1      37.909  30.785  29.926  1.00  0.00     0.031 C 
ATOM     23  C   UNL A   1      43.024  27.558  33.294  1.00  0.00     0.029 A 
ATOM     24  C   UNL A   1      42.471  28.699  34.012  1.00  0.00     0.049 A 
ATOM     25  H   UNL A   1      40.853  29.890  33.450  1.00  0.00     0.167 HD
ATOM     26  C   UNL A   1      37.600  32.492  31.702  1.00  0.00     0.037 A 
ATOM     27  C   UNL A   1      42.920  29.183  35.184  1.00  0.00     0.037 A 
ATOM     28  C   UNL A   1      37.988  33.075  32.958  1.00  0.00     0.049 A 
ATOM     29  C   UNL A   1      42.253  30.422  35.713  1.00  0.00     0.074 A 
ATOM     30  C   UNL A   1      37.474  34.186  33.595  1.00  0.00     0.029 A 
ATOM     31  N   UNL A   1      39.007  32.578  33.767  1.00  0.00    -0.354 N 
ATOM     32  N   UNL A   1      41.267  31.111  35.180  1.00  0.00    -0.248 NA
ATOM     33  C   UNL A   1      42.753  30.962  36.980  1.00  0.00     0.031 C 
ATOM     34  C   UNL A   1      38.218  34.391  34.762  1.00  0.00     0.029 A 
ATOM     35  C   UNL A   1      39.155  33.372  34.888  1.00  0.00     0.049 A 
ATOM     36  H   UNL A   1      39.545  31.778  33.569  1.00  0.00     0.167 HD
ATOM     37  C   UNL A   1      41.016  32.160  36.052  1.00  0.00     0.074 A 
ATOM     38  C   UNL A   1      41.952  32.006  37.153  1.00  0.00     0.031 C 
ATOM     39  C   UNL A   1      40.100  33.157  35.960  1.00  0.00     0.037 A 
BRANCH  26  40
ATOM     40  C   UNL A   1      36.533  33.128  30.856  1.00  0.00     0.058 A 
ATOM     41  C   UNL A   1      36.820  34.103  29.886  1.00  0.00     0.135 A 
ATOM     42  C   UNL A   1      35.183  32.820  31.089  1.00  0.00     0.135 A 
ATOM     43  F   UNL A   1      38.091  34.463  29.643  1.00  0.00    -0.206 F 
ATOM     44  C   UNL A   1      35.806  34.786  29.217  1.00  0.00     0.059 A 
ATOM     45  C   UNL A   1      34.154  33.468  30.411  1.00  0.00     0.059 A 
ATOM     46  F   UNL A   1      34.847  31.907  32.014  1.00  0.00    -0.206 F 
ATOM     47  C   UNL A   1      34.476  34.469  29.496  1.00  0.00     0.060 A 
BRANCH  47  48
ATOM     48  S   UNL A   1      33.170  35.403  28.671  1.00  0.00     0.124 S 
ATOM     49  O   UNL A   1      33.943  36.231  27.749  1.00  0.00    -0.237 OA
ATOM     50  O   UNL A   1      32.373  34.347  28.055  1.00  0.00    -0.237 OA
ATOM     51  O   UNL A   1      32.521  36.120  29.763  1.00  0.00    -0.744 OA
ENDBRANCH  47  48
ENDBRANCH  26  40
BRANCH  27  52
ATOM     52  C   UNL A   1      44.083  28.538  35.852  1.00  0.00     0.058 A 
ATOM     53  C   UNL A   1      45.389  29.008  35.666  1.00  0.00     0.135 A 
ATOM     54  C   UNL A   1      43.897  27.478  36.757  1.00  0.00     0.135 A 
ATOM     55  F   UNL A   1      45.625  30.014  34.810  1.00  0.00    -0.206 F 
ATOM     56  C   UNL A   1      46.468  28.458  36.355  1.00  0.00     0.059 A 
ATOM     57  C   UNL A   1      44.953  26.930  37.479  1.00  0.00     0.059 A 
ATOM     58  F   UNL A   1      42.664  26.996  36.985  1.00  0.00    -0.206 F 
ATOM     59  C   UNL A   1      46.238  27.425  37.268  1.00  0.00     0.060 A 
BRANCH  59  60
ATOM     60  S   UNL A   1      47.634  26.769  38.210  1.00  0.00     0.124 S 
ATOM     61  O   UNL A   1      47.440  27.407  39.507  1.00  0.00    -0.237 OA
ATOM     62  O   UNL A   1      47.387  25.332  38.162  1.00  0.00    -0.237 OA
ATOM     63  O   UNL A   1      48.796  27.223  37.451  1.00  0.00    -0.744 OA
ENDBRANCH  59  60
ENDBRANCH  27  52
BRANCH  39  64
ATOM     64  C   UNL A   1      40.036  34.128  37.100  1.00  0.00     0.058 A 
ATOM     65  C   UNL A   1      40.738  35.342  37.072  1.00  0.00     0.135 A 
ATOM     66  C   UNL A   1      39.163  33.887  38.172  1.00  0.00     0.135 A 
ATOM     67  F   UNL A   1      41.593  35.607  36.073  1.00  0.00    -0.206 F 
ATOM     68  C   UNL A   1      40.569  36.291  38.071  1.00  0.00     0.059 A 
ATOM     69  C   UNL A   1      38.956  34.835  39.165  1.00  0.00     0.059 A 
ATOM     70  F   UNL A   1      38.465  32.742  38.231  1.00  0.00    -0.206 F 
ATOM     71  C   UNL A   1      39.664  36.035  39.105  1.00  0.00     0.060 A 
BRANCH  71  72
ATOM     72  S   UNL A   1      39.381  37.317  40.341  1.00  0.00     0.124 S 
ATOM     73  O   UNL A   1      38.542  38.255  39.603  1.00  0.00    -0.237 OA
ATOM     74  O   UNL A   1      38.718  36.576  41.410  1.00  0.00    -0.237 OA
ATOM     75  O   UNL A   1      40.726  37.790  40.654  1.00  0.00    -0.744 OA
ENDBRANCH  71  72
ENDBRANCH  39  64
ENDBRANCH  13  14
ENDBRANCH   6   8
ENDBRANCH   5   6
ENDBRANCH   4   5
ENDBRANCH   3   4
ENDBRANCH   2   3
ENDBRANCH   1   2
BRANCH   1  76
ATOM     76  C   UNL A   1      39.742  21.436  25.729  1.00  0.00     0.261 C 
BRANCH  76  77
ATOM     77  O   UNL A   1      38.338  21.642  25.980  1.00  0.00    -0.463 OA
BRANCH  77  78
ATOM     78  C   UNL A   1      37.953  22.948  25.956  1.00  0.00     0.310 C 
ATOM     79  O   UNL A   1      38.449  23.831  26.647  1.00  0.00    -0.252 OA
BRANCH  78  80
ATOM     80  C   UNL A   1      36.848  23.172  24.934  1.00  0.00     0.116 C 
ATOM     81  C   UNL A   1      36.312  21.816  24.446  1.00  0.00     0.043 C 
ATOM     82  C   UNL A   1      35.685  24.010  25.520  1.00  0.00     0.097 C 
ATOM     83  C   UNL A   1      35.319  21.192  25.394  1.00  0.00    -0.030 C 
ATOM     84  C   UNL A   1      35.113  23.280  26.734  1.00  0.00     0.041 C 
ATOM     85  C   UNL A   1      34.805  21.842  26.448  1.00  0.00    -0.030 C 
BRANCH  82  86
ATOM     86  C   UNL A   1      34.774  24.431  24.353  1.00  0.00     0.228 C 
ATOM     87  O   UNL A   1      34.870  23.811  23.281  1.00  0.00    -0.274 OA
ATOM     88  N   UNL A   1      33.904  25.483  24.323  1.00  0.00    -0.325 N 
ATOM     89  H   UNL A   1      33.652  25.789  23.421  1.00  0.00     0.169 HD
BRANCH  88  90
ATOM     90  C   UNL A   1      33.319  26.192  25.372  1.00  0.00     0.054 A 
ATOM     91  C   UNL A   1      33.975  27.418  25.643  1.00  0.00     0.027 A 
ATOM     92  C   UNL A   1      32.192  25.811  26.119  1.00  0.00     0.063 A 
ATOM     93  C   UNL A   1      33.444  28.349  26.528  1.00  0.00     0.002 A 
ATOM     94  C   UNL A   1      31.672  26.799  27.003  1.00  0.00     0.016 A 
ATOM     95  C   UNL A   1      32.265  28.053  27.186  1.00  0.00     0.001 A 
BRANCH  92  96
ATOM     96  C   UNL A   1      31.379  24.541  26.133  1.00  0.00     0.253 C 
ATOM     97  O   UNL A   1      31.160  24.016  27.234  1.00  0.00    -0.269 OA
ATOM     98  N   UNL A   1      30.830  23.827  25.111  1.00  0.00    -0.345 N 
ATOM     99  H   UNL A   1      30.426  22.995  25.449  1.00  0.00     0.164 HD
BRANCH  98 100
ATOM    100  C   UNL A   1      30.665  23.926  23.683  1.00  0.00     0.191 C 
BRANCH 100 101
ATOM    101  C   UNL A   1      30.517  25.333  23.255  1.00  0.00     0.122 A 
ATOM    102  C   UNL A   1      29.742  26.388  23.690  1.00  0.00     0.047 A 
ATOM    103  O   UNL A   1      31.372  25.757  22.278  1.00  0.00    -0.467 OA
ATOM    104  C   UNL A   1      30.158  27.521  22.949  1.00  0.00     0.042 A 
ATOM    105  C   UNL A   1      31.150  27.083  22.104  1.00  0.00     0.195 A 
ENDBRANCH 100 101
ENDBRANCH  98 100
ENDBRANCH  92  96
ENDBRANCH  88  90
ENDBRANCH  82  86
ENDBRANCH  78  80
ENDBRANCH  77  78
ENDBRANCH  76  77
ENDBRANCH   1  76
TORSDOF 22
ENDMDL
