MODEL 1
REMARK VINA RESULT:     -10.8      0.000      0.000
REMARK SMILES O=C(OCCOCCOC(=O)[C@H]1CCCCN1C(=O)c1cn2ccccc2n1)c1ccc(-c2c3nc(c(-c4c(F)cc(S(=O)(=O)[O-])cc4F)c4ccc([nH]4)c(-c4c(F)cc(S(=O)(=O)[O-])cc4F)c4nc(c(-c5c(F)cc(S(=O)(=O)[O-])cc5F)c5ccc2[nH]5)C=C4)C=C3)cc1
REMARK SMILES IDX 5 1 4 2 3 3 2 4 1 5 29 6 30 7 94 8 31 9 93 10 32 11 33 12
REMARK SMILES IDX 34 13 87 14 35 15 92 16 86 17 88 18 36 19 91 20 85 21 84 22
REMARK SMILES IDX 37 24 71 25 50 26 70 27 51 28 54 29 69 30 89 31 52 32 53 33
REMARK SMILES IDX 68 35 90 36 55 37 38 38 39 39 48 40 40 41 41 42 47 43 49 44
REMARK SMILES IDX 42 45 43 46 44 47 45 48 46 49 72 50 73 51 82 52 74 53 75 54
REMARK SMILES IDX 81 55 83 56 76 57 77 58 78 59 79 60 80 61 56 62 57 63 66 64
REMARK SMILES IDX 58 65 59 66 65 67 67 68 60 69 61 70 62 71 63 72 64 73 6 74
REMARK SMILES IDX 7 75 8 76 9 77 10 78 11 79 12 80 13 81 17 82 14 83 16 84
REMARK SMILES IDX 15 85 18 86 19 87 20 88 21 89 28 90 22 91 27 92 23 93 26 94
REMARK SMILES IDX 24 95 25 96
REMARK H PARENT 88 23 54 34
REMARK Flexibility Score: inf
ROOT
ATOM      1  C   UNL A   1      37.981  22.577  25.444  1.00  0.00     0.202 C 
ENDROOT
BRANCH   1   2
ATOM      2  C   UNL A   1      38.222  23.901  26.169  1.00  0.00     0.261 C 
BRANCH   2   3
ATOM      3  O   UNL A   1      39.619  24.075  26.442  1.00  0.00    -0.460 OA
BRANCH   3   4
ATOM      4  C   UNL A   1      40.291  25.253  26.465  1.00  0.00     0.338 C 
ATOM      5  O   UNL A   1      40.855  25.642  25.444  1.00  0.00    -0.246 OA
BRANCH   4   6
ATOM      6  C   UNL A   1      40.298  26.145  27.659  1.00  0.00     0.060 A 
ATOM      7  C   UNL A   1      39.470  25.982  28.771  1.00  0.00     0.016 A 
ATOM      8  C   UNL A   1      41.255  27.170  27.690  1.00  0.00     0.016 A 
ATOM      9  C   UNL A   1      39.518  26.846  29.846  1.00  0.00     0.010 A 
ATOM     10  C   UNL A   1      41.352  28.015  28.798  1.00  0.00     0.010 A 
ATOM     11  C   UNL A   1      40.469  27.858  29.872  1.00  0.00    -0.014 A 
BRANCH  11  12
ATOM     12  C   UNL A   1      40.423  28.792  31.006  1.00  0.00     0.031 A 
ATOM     13  C   UNL A   1      39.355  29.837  31.011  1.00  0.00     0.074 A 
ATOM     14  C   UNL A   1      41.230  28.582  32.061  1.00  0.00     0.049 A 
ATOM     15  N   UNL A   1      39.153  30.807  31.856  1.00  0.00    -0.248 NA
ATOM     16  C   UNL A   1      38.371  29.773  29.915  1.00  0.00     0.031 C 
ATOM     17  C   UNL A   1      42.188  27.476  32.183  1.00  0.00     0.029 A 
ATOM     18  N   UNL A   1      41.349  29.254  33.245  1.00  0.00    -0.354 N 
ATOM     19  C   UNL A   1      38.057  31.505  31.365  1.00  0.00     0.074 A 
ATOM     20  C   UNL A   1      37.625  30.839  30.159  1.00  0.00     0.031 C 
ATOM     21  C   UNL A   1      42.765  27.526  33.394  1.00  0.00     0.029 A 
ATOM     22  C   UNL A   1      42.289  28.714  34.090  1.00  0.00     0.049 A 
ATOM     23  H   UNL A   1      40.812  30.048  33.471  1.00  0.00     0.167 HD
ATOM     24  C   UNL A   1      37.489  32.619  31.880  1.00  0.00     0.037 A 
ATOM     25  C   UNL A   1      42.737  29.164  35.276  1.00  0.00     0.037 A 
ATOM     26  C   UNL A   1      37.958  33.236  33.091  1.00  0.00     0.049 A 
ATOM     27  C   UNL A   1      42.145  30.449  35.789  1.00  0.00     0.074 A 
ATOM     28  C   UNL A   1      37.535  34.405  33.692  1.00  0.00     0.029 A 
ATOM     29  N   UNL A   1      38.969  32.712  33.892  1.00  0.00    -0.354 N 
ATOM     30  N   UNL A   1      41.184  31.177  35.267  1.00  0.00    -0.248 NA
ATOM     31  C   UNL A   1      42.708  30.989  37.030  1.00  0.00     0.031 C 
ATOM     32  C   UNL A   1      38.319  34.608  34.835  1.00  0.00     0.029 A 
ATOM     33  C   UNL A   1      39.194  33.539  34.976  1.00  0.00     0.049 A 
ATOM     34  H   UNL A   1      39.455  31.875  33.710  1.00  0.00     0.167 HD
ATOM     35  C   UNL A   1      41.011  32.254  36.124  1.00  0.00     0.074 A 
ATOM     36  C   UNL A   1      41.963  32.073  37.205  1.00  0.00     0.031 C 
ATOM     37  C   UNL A   1      40.151  33.300  36.031  1.00  0.00     0.037 A 
BRANCH  24  38
ATOM     38  C   UNL A   1      36.400  33.263  31.068  1.00  0.00     0.058 A 
ATOM     39  C   UNL A   1      36.663  34.002  29.904  1.00  0.00     0.135 A 
ATOM     40  C   UNL A   1      35.071  33.211  31.521  1.00  0.00     0.135 A 
ATOM     41  F   UNL A   1      37.920  34.117  29.445  1.00  0.00    -0.206 F 
ATOM     42  C   UNL A   1      35.658  34.707  29.247  1.00  0.00     0.059 A 
ATOM     43  C   UNL A   1      34.046  33.885  30.865  1.00  0.00     0.059 A 
ATOM     44  F   UNL A   1      34.763  32.530  32.636  1.00  0.00    -0.206 F 
ATOM     45  C   UNL A   1      34.355  34.653  29.744  1.00  0.00     0.060 A 
BRANCH  45  46
ATOM     46  S   UNL A   1      33.072  35.626  28.924  1.00  0.00     0.124 S 
ATOM     47  O   UNL A   1      32.343  36.166  30.069  1.00  0.00    -0.237 OA
ATOM     48  O   UNL A   1      33.853  36.592  28.158  1.00  0.00    -0.237 OA
ATOM     49  O   UNL A   1      32.350  34.636  28.130  1.00  0.00    -0.744 OA
ENDBRANCH  45  46
ENDBRANCH  24  38
BRANCH  25  50
ATOM     50  C   UNL A   1      43.807  28.432  36.008  1.00  0.00     0.058 A 
ATOM     51  C   UNL A   1      43.502  27.378  36.879  1.00  0.00     0.135 A 
ATOM     52  C   UNL A   1      45.163  28.750  35.824  1.00  0.00     0.135 A 
ATOM     53  F   UNL A   1      42.223  27.036  37.097  1.00  0.00    -0.206 F 
ATOM     54  C   UNL A   1      44.499  26.668  37.545  1.00  0.00     0.059 A 
ATOM     55  C   UNL A   1      46.179  28.038  36.456  1.00  0.00     0.059 A 
ATOM     56  F   UNL A   1      45.517  29.744  34.993  1.00  0.00    -0.206 F 
ATOM     57  C   UNL A   1      45.836  27.002  37.323  1.00  0.00     0.060 A 
BRANCH  57  58
ATOM     58  S   UNL A   1      47.123  26.043  38.151  1.00  0.00     0.124 S 
ATOM     59  O   UNL A   1      48.235  26.988  38.159  1.00  0.00    -0.237 OA
ATOM     60  O   UNL A   1      46.512  25.766  39.448  1.00  0.00    -0.237 OA
ATOM     61  O   UNL A   1      47.289  24.881  37.284  1.00  0.00    -0.744 OA
ENDBRANCH  57  58
ENDBRANCH  25  50
BRANCH  37  62
ATOM     62  C   UNL A   1      40.175  34.289  37.158  1.00  0.00     0.058 A 
ATOM     63  C   UNL A   1      40.910  35.480  37.080  1.00  0.00     0.135 A 
ATOM     64  C   UNL A   1      39.397  34.060  38.304  1.00  0.00     0.135 A 
ATOM     65  F   UNL A   1      41.674  35.734  36.005  1.00  0.00    -0.206 F 
ATOM     66  C   UNL A   1      40.892  36.406  38.115  1.00  0.00     0.059 A 
ATOM     67  C   UNL A   1      39.342  34.985  39.339  1.00  0.00     0.059 A 
ATOM     68  F   UNL A   1      38.668  32.938  38.416  1.00  0.00    -0.206 F 
ATOM     69  C   UNL A   1      40.103  36.150  39.238  1.00  0.00     0.060 A 
BRANCH  69  70
ATOM     70  S   UNL A   1      40.052  37.379  40.557  1.00  0.00     0.124 S 
ATOM     71  O   UNL A   1      41.129  38.280  40.159  1.00  0.00    -0.237 OA
ATOM     72  O   UNL A   1      38.700  37.913  40.435  1.00  0.00    -0.237 OA
ATOM     73  O   UNL A   1      40.302  36.593  41.762  1.00  0.00    -0.744 OA
ENDBRANCH  69  70
ENDBRANCH  37  62
ENDBRANCH  11  12
ENDBRANCH   4   6
ENDBRANCH   3   4
ENDBRANCH   2   3
ENDBRANCH   1   2
BRANCH   1  74
ATOM     74  O   UNL A   1      36.895  21.833  25.989  1.00  0.00    -0.374 OA
BRANCH  74  75
ATOM     75  C   UNL A   1      36.122  21.098  25.046  1.00  0.00     0.202 C 
BRANCH  75  76
ATOM     76  C   UNL A   1      34.637  21.400  25.246  1.00  0.00     0.261 C 
BRANCH  76  77
ATOM     77  O   UNL A   1      34.188  22.377  24.287  1.00  0.00    -0.462 OA
BRANCH  77  78
ATOM     78  C   UNL A   1      33.925  23.619  24.799  1.00  0.00     0.328 C 
ATOM     79  O   UNL A   1      34.686  24.267  25.498  1.00  0.00    -0.250 OA
BRANCH  78  80
ATOM     80  C   UNL A   1      32.549  24.118  24.327  1.00  0.00     0.195 C 
ATOM     81  C   UNL A   1      31.549  22.952  24.365  1.00  0.00     0.037 C 
ATOM     82  N   UNL A   1      32.033  25.275  25.095  1.00  0.00    -0.323 N 
ATOM     83  C   UNL A   1      31.054  22.634  25.778  1.00  0.00     0.005 C 
ATOM     84  C   UNL A   1      31.549  25.005  26.452  1.00  0.00     0.121 C 
ATOM     85  C   UNL A   1      30.520  23.884  26.465  1.00  0.00     0.022 C 
BRANCH  82  86
ATOM     86  C   UNL A   1      32.065  26.538  24.494  1.00  0.00     0.274 C 
ATOM     87  O   UNL A   1      31.645  26.721  23.352  1.00  0.00    -0.267 OA
BRANCH  86  88
ATOM     88  C   UNL A   1      32.600  27.664  25.267  1.00  0.00     0.147 A 
ATOM     89  C   UNL A   1      31.951  28.836  25.618  1.00  0.00     0.127 A 
ATOM     90  N   UNL A   1      33.875  27.646  25.809  1.00  0.00    -0.223 NA
ATOM     91  N   UNL A   1      32.845  29.546  26.381  1.00  0.00    -0.306 N 
ATOM     92  C   UNL A   1      33.998  28.775  26.472  1.00  0.00     0.137 A 
ATOM     93  C   UNL A   1      32.708  30.797  26.980  1.00  0.00     0.093 A 
ATOM     94  C   UNL A   1      35.078  29.307  27.232  1.00  0.00     0.048 A 
ATOM     95  C   UNL A   1      33.735  31.301  27.689  1.00  0.00     0.018 A 
ATOM     96  C   UNL A   1      34.955  30.517  27.813  1.00  0.00     0.005 A 
ENDBRANCH  86  88
ENDBRANCH  82  86
ENDBRANCH  78  80
ENDBRANCH  77  78
ENDBRANCH  76  77
ENDBRANCH  75  76
ENDBRANCH  74  75
ENDBRANCH   1  74
TORSDOF 19
ENDMDL
MODEL 2
REMARK VINA RESULT:     -10.7      1.645      3.845
REMARK SMILES O=C(OCCOCCOC(=O)[C@H]1CCCCN1C(=O)c1cn2ccccc2n1)c1ccc(-c2c3nc(c(-c4c(F)cc(S(=O)(=O)[O-])cc4F)c4ccc([nH]4)c(-c4c(F)cc(S(=O)(=O)[O-])cc4F)c4nc(c(-c5c(F)cc(S(=O)(=O)[O-])cc5F)c5ccc2[nH]5)C=C4)C=C3)cc1
REMARK SMILES IDX 5 1 4 2 3 3 2 4 1 5 29 6 30 7 94 8 31 9 93 10 32 11 33 12
REMARK SMILES IDX 34 13 87 14 35 15 92 16 86 17 88 18 36 19 91 20 85 21 84 22
REMARK SMILES IDX 37 24 71 25 50 26 70 27 51 28 54 29 69 30 89 31 52 32 53 33
REMARK SMILES IDX 68 35 90 36 55 37 38 38 39 39 48 40 40 41 41 42 47 43 49 44
REMARK SMILES IDX 42 45 43 46 44 47 45 48 46 49 72 50 73 51 82 52 74 53 75 54
REMARK SMILES IDX 81 55 83 56 76 57 77 58 78 59 79 60 80 61 56 62 57 63 66 64
REMARK SMILES IDX 58 65 59 66 65 67 67 68 60 69 61 70 62 71 63 72 64 73 6 74
REMARK SMILES IDX 7 75 8 76 9 77 10 78 11 79 12 80 13 81 17 82 14 83 16 84
REMARK SMILES IDX 15 85 18 86 19 87 20 88 21 89 28 90 22 91 27 92 23 93 26 94
REMARK SMILES IDX 24 95 25 96
REMARK H PARENT 88 23 54 34
REMARK Flexibility Score: inf
ROOT
ATOM      1  C   UNL A   1      39.364  21.701  26.171  1.00  0.00     0.202 C 
ENDROOT
BRANCH   1   2
ATOM      2  C   UNL A   1      40.043  22.843  26.925  1.00  0.00     0.261 C 
BRANCH   2   3
ATOM      3  O   UNL A   1      39.573  24.110  26.443  1.00  0.00    -0.460 OA
BRANCH   3   4
ATOM      4  C   UNL A   1      40.252  25.283  26.477  1.00  0.00     0.338 C 
ATOM      5  O   UNL A   1      40.825  25.674  25.461  1.00  0.00    -0.246 OA
BRANCH   4   6
ATOM      6  C   UNL A   1      40.256  26.170  27.675  1.00  0.00     0.060 A 
ATOM      7  C   UNL A   1      39.413  26.012  28.776  1.00  0.00     0.016 A 
ATOM      8  C   UNL A   1      41.224  27.184  27.720  1.00  0.00     0.016 A 
ATOM      9  C   UNL A   1      39.460  26.871  29.856  1.00  0.00     0.010 A 
ATOM     10  C   UNL A   1      41.318  28.023  28.834  1.00  0.00     0.010 A 
ATOM     11  C   UNL A   1      40.421  27.872  29.897  1.00  0.00    -0.014 A 
BRANCH  11  12
ATOM     12  C   UNL A   1      40.373  28.801  31.034  1.00  0.00     0.031 A 
ATOM     13  C   UNL A   1      39.307  29.848  31.041  1.00  0.00     0.074 A 
ATOM     14  C   UNL A   1      41.178  28.586  32.091  1.00  0.00     0.049 A 
ATOM     15  N   UNL A   1      39.104  30.814  31.889  1.00  0.00    -0.248 NA
ATOM     16  C   UNL A   1      38.326  29.789  29.943  1.00  0.00     0.031 C 
ATOM     17  C   UNL A   1      42.134  27.479  32.211  1.00  0.00     0.029 A 
ATOM     18  N   UNL A   1      41.295  29.253  33.278  1.00  0.00    -0.354 N 
ATOM     19  C   UNL A   1      38.010  31.516  31.399  1.00  0.00     0.074 A 
ATOM     20  C   UNL A   1      37.580  30.854  30.189  1.00  0.00     0.031 C 
ATOM     21  C   UNL A   1      42.709  27.524  33.423  1.00  0.00     0.029 A 
ATOM     22  C   UNL A   1      42.232  28.709  34.123  1.00  0.00     0.049 A 
ATOM     23  H   UNL A   1      40.758  30.047  33.505  1.00  0.00     0.167 HD
ATOM     24  C   UNL A   1      37.442  32.628  31.916  1.00  0.00     0.037 A 
ATOM     25  C   UNL A   1      42.678  29.154  35.312  1.00  0.00     0.037 A 
ATOM     26  C   UNL A   1      37.908  33.239  33.132  1.00  0.00     0.049 A 
ATOM     27  C   UNL A   1      42.086  30.437  35.828  1.00  0.00     0.074 A 
ATOM     28  C   UNL A   1      37.485  34.406  33.736  1.00  0.00     0.029 A 
ATOM     29  N   UNL A   1      38.917  32.711  33.932  1.00  0.00    -0.354 N 
ATOM     30  N   UNL A   1      41.126  31.168  35.307  1.00  0.00    -0.248 NA
ATOM     31  C   UNL A   1      42.647  30.972  37.073  1.00  0.00     0.031 C 
ATOM     32  C   UNL A   1      38.266  34.604  34.881  1.00  0.00     0.029 A 
ATOM     33  C   UNL A   1      39.140  33.533  35.021  1.00  0.00     0.049 A 
ATOM     34  H   UNL A   1      39.402  31.875  33.749  1.00  0.00     0.167 HD
ATOM     35  C   UNL A   1      40.952  32.243  36.167  1.00  0.00     0.074 A 
ATOM     36  C   UNL A   1      41.902  32.056  37.250  1.00  0.00     0.031 C 
ATOM     37  C   UNL A   1      40.094  33.289  36.077  1.00  0.00     0.037 A 
BRANCH  24  38
ATOM     38  C   UNL A   1      36.355  33.276  31.105  1.00  0.00     0.058 A 
ATOM     39  C   UNL A   1      36.616  33.970  29.913  1.00  0.00     0.135 A 
ATOM     40  C   UNL A   1      35.034  33.275  31.583  1.00  0.00     0.135 A 
ATOM     41  F   UNL A   1      37.866  34.035  29.427  1.00  0.00    -0.206 F 
ATOM     42  C   UNL A   1      35.618  34.682  29.252  1.00  0.00     0.059 A 
ATOM     43  C   UNL A   1      34.015  33.957  30.924  1.00  0.00     0.059 A 
ATOM     44  F   UNL A   1      34.729  32.638  32.725  1.00  0.00    -0.206 F 
ATOM     45  C   UNL A   1      34.323  34.680  29.774  1.00  0.00     0.060 A 
BRANCH  45  46
ATOM     46  S   UNL A   1      33.052  35.662  28.947  1.00  0.00     0.124 S 
ATOM     47  O   UNL A   1      32.393  34.649  28.128  1.00  0.00    -0.237 OA
ATOM     48  O   UNL A   1      32.272  36.173  30.070  1.00  0.00    -0.237 OA
ATOM     49  O   UNL A   1      33.819  36.662  28.213  1.00  0.00    -0.744 OA
ENDBRANCH  45  46
ENDBRANCH  24  38
BRANCH  25  50
ATOM     50  C   UNL A   1      43.745  28.418  36.043  1.00  0.00     0.058 A 
ATOM     51  C   UNL A   1      43.438  27.351  36.898  1.00  0.00     0.135 A 
ATOM     52  C   UNL A   1      45.101  28.745  35.875  1.00  0.00     0.135 A 
ATOM     53  F   UNL A   1      42.159  27.000  37.101  1.00  0.00    -0.206 F 
ATOM     54  C   UNL A   1      44.433  26.637  37.564  1.00  0.00     0.059 A 
ATOM     55  C   UNL A   1      46.116  28.030  36.507  1.00  0.00     0.059 A 
ATOM     56  F   UNL A   1      45.457  29.752  35.061  1.00  0.00    -0.206 F 
ATOM     57  C   UNL A   1      45.770  26.981  37.357  1.00  0.00     0.060 A 
BRANCH  57  58
ATOM     58  S   UNL A   1      47.055  26.019  38.184  1.00  0.00     0.124 S 
ATOM     59  O   UNL A   1      46.340  24.790  38.508  1.00  0.00    -0.237 OA
ATOM     60  O   UNL A   1      48.073  25.910  37.144  1.00  0.00    -0.237 OA
ATOM     61  O   UNL A   1      47.422  26.854  39.324  1.00  0.00    -0.744 OA
ENDBRANCH  57  58
ENDBRANCH  25  50
BRANCH  37  62
ATOM     62  C   UNL A   1      40.116  34.274  37.208  1.00  0.00     0.058 A 
ATOM     63  C   UNL A   1      40.937  35.410  37.181  1.00  0.00     0.135 A 
ATOM     64  C   UNL A   1      39.254  34.099  38.302  1.00  0.00     0.135 A 
ATOM     65  F   UNL A   1      41.782  35.611  36.158  1.00  0.00    -0.206 F 
ATOM     66  C   UNL A   1      40.918  36.335  38.218  1.00  0.00     0.059 A 
ATOM     67  C   UNL A   1      39.199  35.026  39.335  1.00  0.00     0.059 A 
ATOM     68  F   UNL A   1      38.443  33.031  38.363  1.00  0.00    -0.206 F 
ATOM     69  C   UNL A   1      40.044  36.135  39.288  1.00  0.00     0.060 A 
BRANCH  69  70
ATOM     70  S   UNL A   1      39.996  37.363  40.607  1.00  0.00     0.124 S 
ATOM     71  O   UNL A   1      39.405  38.508  39.921  1.00  0.00    -0.237 OA
ATOM     72  O   UNL A   1      39.151  36.717  41.607  1.00  0.00    -0.237 OA
ATOM     73  O   UNL A   1      41.399  37.511  40.983  1.00  0.00    -0.744 OA
ENDBRANCH  69  70
ENDBRANCH  37  62
ENDBRANCH  11  12
ENDBRANCH   4   6
ENDBRANCH   3   4
ENDBRANCH   2   3
ENDBRANCH   1   2
BRANCH   1  74
ATOM     74  O   UNL A   1      38.392  22.153  25.232  1.00  0.00    -0.374 OA
BRANCH  74  75
ATOM     75  C   UNL A   1      37.402  21.197  24.867  1.00  0.00     0.202 C 
BRANCH  75  76
ATOM     76  C   UNL A   1      36.147  21.400  25.714  1.00  0.00     0.261 C 
BRANCH  76  77
ATOM     77  O   UNL A   1      35.174  22.184  24.996  1.00  0.00    -0.462 OA
BRANCH  77  78
ATOM     78  C   UNL A   1      35.028  23.474  25.432  1.00  0.00     0.328 C 
ATOM     79  O   UNL A   1      35.943  24.234  25.699  1.00  0.00    -0.250 OA
BRANCH  78  80
ATOM     80  C   UNL A   1      33.540  23.858  25.490  1.00  0.00     0.195 C 
ATOM     81  C   UNL A   1      33.400  25.372  25.276  1.00  0.00     0.037 C 
ATOM     82  N   UNL A   1      32.688  23.112  24.534  1.00  0.00    -0.323 N 
ATOM     83  C   UNL A   1      33.545  25.783  23.808  1.00  0.00     0.005 C 
ATOM     84  C   UNL A   1      32.802  23.482  23.120  1.00  0.00     0.121 C 
ATOM     85  C   UNL A   1      32.608  24.978  22.918  1.00  0.00     0.022 C 
BRANCH  82  86
ATOM     86  C   UNL A   1      31.862  22.098  25.032  1.00  0.00     0.274 C 
ATOM     87  O   UNL A   1      30.846  22.351  25.676  1.00  0.00    -0.267 OA
BRANCH  86  88
ATOM     88  C   UNL A   1      32.224  20.705  24.751  1.00  0.00     0.147 A 
ATOM     89  C   UNL A   1      32.464  20.123  23.517  1.00  0.00     0.127 A 
ATOM     90  N   UNL A   1      32.432  19.779  25.761  1.00  0.00    -0.223 NA
ATOM     91  N   UNL A   1      32.818  18.822  23.778  1.00  0.00    -0.306 N 
ATOM     92  C   UNL A   1      32.790  18.666  25.159  1.00  0.00     0.137 A 
ATOM     93  C   UNL A   1      33.151  17.796  22.895  1.00  0.00     0.093 A 
ATOM     94  C   UNL A   1      33.134  17.385  25.676  1.00  0.00     0.048 A 
ATOM     95  C   UNL A   1      33.466  16.584  23.388  1.00  0.00     0.018 A 
ATOM     96  C   UNL A   1      33.455  16.386  24.830  1.00  0.00     0.005 A 
ENDBRANCH  86  88
ENDBRANCH  82  86
ENDBRANCH  78  80
ENDBRANCH  77  78
ENDBRANCH  76  77
ENDBRANCH  75  76
ENDBRANCH  74  75
ENDBRANCH   1  74
TORSDOF 19
ENDMDL
MODEL 3
REMARK VINA RESULT:     -10.5      6.846     11.491
REMARK SMILES O=C(OCCOCCOC(=O)[C@H]1CCCCN1C(=O)c1cn2ccccc2n1)c1ccc(-c2c3nc(c(-c4c(F)cc(S(=O)(=O)[O-])cc4F)c4ccc([nH]4)c(-c4c(F)cc(S(=O)(=O)[O-])cc4F)c4nc(c(-c5c(F)cc(S(=O)(=O)[O-])cc5F)c5ccc2[nH]5)C=C4)C=C3)cc1
REMARK SMILES IDX 5 1 4 2 3 3 2 4 1 5 29 6 30 7 94 8 31 9 93 10 32 11 33 12
REMARK SMILES IDX 34 13 87 14 35 15 92 16 86 17 88 18 36 19 91 20 85 21 84 22
REMARK SMILES IDX 37 24 71 25 50 26 70 27 51 28 54 29 69 30 89 31 52 32 53 33
REMARK SMILES IDX 68 35 90 36 55 37 38 38 39 39 48 40 40 41 41 42 47 43 49 44
REMARK SMILES IDX 42 45 43 46 44 47 45 48 46 49 72 50 73 51 82 52 74 53 75 54
REMARK SMILES IDX 81 55 83 56 76 57 77 58 78 59 79 60 80 61 56 62 57 63 66 64
REMARK SMILES IDX 58 65 59 66 65 67 67 68 60 69 61 70 62 71 63 72 64 73 6 74
REMARK SMILES IDX 7 75 8 76 9 77 10 78 11 79 12 80 13 81 17 82 14 83 16 84
REMARK SMILES IDX 15 85 18 86 19 87 20 88 21 89 28 90 22 91 27 92 23 93 26 94
REMARK SMILES IDX 24 95 25 96
REMARK H PARENT 88 23 54 34
REMARK Flexibility Score: inf
ROOT
ATOM      1  C   UNL A   1      34.269  32.119  28.220  1.00  0.00     0.202 C 
ENDROOT
BRANCH   1   2
ATOM      2  C   UNL A   1      35.749  32.282  28.564  1.00  0.00     0.261 C 
BRANCH   2   3
ATOM      3  O   UNL A   1      36.015  31.778  29.880  1.00  0.00    -0.460 OA
BRANCH   3   4
ATOM      4  C   UNL A   1      36.579  30.583  30.184  1.00  0.00     0.338 C 
ATOM      5  O   UNL A   1      35.914  29.742  30.784  1.00  0.00    -0.246 OA
BRANCH   4   6
ATOM      6  C   UNL A   1      37.951  30.210  29.735  1.00  0.00     0.060 A 
ATOM      7  C   UNL A   1      38.328  30.043  28.402  1.00  0.00     0.016 A 
ATOM      8  C   UNL A   1      38.940  30.094  30.724  1.00  0.00     0.016 A 
ATOM      9  C   UNL A   1      39.615  29.691  28.049  1.00  0.00     0.010 A 
ATOM     10  C   UNL A   1      40.259  29.795  30.373  1.00  0.00     0.010 A 
ATOM     11  C   UNL A   1      40.590  29.579  29.031  1.00  0.00    -0.014 A 
BRANCH  11  12
ATOM     12  C   UNL A   1      41.922  29.128  28.604  1.00  0.00     0.031 A 
ATOM     13  C   UNL A   1      43.059  30.091  28.720  1.00  0.00     0.074 A 
ATOM     14  C   UNL A   1      42.103  27.836  28.275  1.00  0.00     0.049 A 
ATOM     15  N   UNL A   1      44.299  29.953  28.348  1.00  0.00    -0.248 NA
ATOM     16  C   UNL A   1      42.757  31.387  29.353  1.00  0.00     0.031 C 
ATOM     17  C   UNL A   1      41.057  26.806  28.298  1.00  0.00     0.029 A 
ATOM     18  N   UNL A   1      43.228  27.156  27.903  1.00  0.00    -0.354 N 
ATOM     19  C   UNL A   1      44.914  31.161  28.646  1.00  0.00     0.074 A 
ATOM     20  C   UNL A   1      43.916  32.017  29.247  1.00  0.00     0.031 C 
ATOM     21  C   UNL A   1      41.603  25.619  27.992  1.00  0.00     0.029 A 
ATOM     22  C   UNL A   1      43.008  25.821  27.664  1.00  0.00     0.049 A 
ATOM     23  H   UNL A   1      44.112  27.582  27.815  1.00  0.00     0.167 HD
ATOM     24  C   UNL A   1      46.197  31.517  28.411  1.00  0.00     0.037 A 
ATOM     25  C   UNL A   1      43.849  24.883  27.190  1.00  0.00     0.037 A 
ATOM     26  C   UNL A   1      47.150  30.619  27.817  1.00  0.00     0.049 A 
ATOM     27  C   UNL A   1      45.250  25.323  26.861  1.00  0.00     0.074 A 
ATOM     28  C   UNL A   1      48.458  30.859  27.448  1.00  0.00     0.029 A 
ATOM     29  N   UNL A   1      46.880  29.289  27.508  1.00  0.00    -0.354 N 
ATOM     30  N   UNL A   1      45.803  26.501  27.036  1.00  0.00    -0.248 NA
ATOM     31  C   UNL A   1      46.131  24.324  26.249  1.00  0.00     0.031 C 
ATOM     32  C   UNL A   1      48.967  29.685  26.880  1.00  0.00     0.029 A 
ATOM     33  C   UNL A   1      47.993  28.696  26.942  1.00  0.00     0.049 A 
ATOM     34  H   UNL A   1      46.021  28.836  27.667  1.00  0.00     0.167 HD
ATOM     35  C   UNL A   1      47.107  26.385  26.573  1.00  0.00     0.074 A 
ATOM     36  C   UNL A   1      47.258  25.013  26.121  1.00  0.00     0.031 C 
ATOM     37  C   UNL A   1      48.089  27.318  26.521  1.00  0.00     0.037 A 
BRANCH  24  38
ATOM     38  C   UNL A   1      46.570  32.944  28.699  1.00  0.00     0.058 A 
ATOM     39  C   UNL A   1      47.040  33.361  29.955  1.00  0.00     0.135 A 
ATOM     40  C   UNL A   1      46.366  33.929  27.719  1.00  0.00     0.135 A 
ATOM     41  F   UNL A   1      47.219  32.468  30.942  1.00  0.00    -0.206 F 
ATOM     42  C   UNL A   1      47.246  34.708  30.243  1.00  0.00     0.059 A 
ATOM     43  C   UNL A   1      46.591  35.279  27.977  1.00  0.00     0.059 A 
ATOM     44  F   UNL A   1      45.906  33.590  26.505  1.00  0.00    -0.206 F 
ATOM     45  C   UNL A   1      47.005  35.660  29.252  1.00  0.00     0.060 A 
BRANCH  45  46
ATOM     46  S   UNL A   1      47.209  37.408  29.658  1.00  0.00     0.124 S 
ATOM     47  O   UNL A   1      48.591  37.436  30.129  1.00  0.00    -0.237 OA
ATOM     48  O   UNL A   1      46.966  38.058  28.374  1.00  0.00    -0.237 OA
ATOM     49  O   UNL A   1      46.193  37.641  30.679  1.00  0.00    -0.744 OA
ENDBRANCH  45  46
ENDBRANCH  24  38
BRANCH  25  50
ATOM     50  C   UNL A   1      43.378  23.490  26.964  1.00  0.00     0.058 A 
ATOM     51  C   UNL A   1      43.045  23.032  25.682  1.00  0.00     0.135 A 
ATOM     52  C   UNL A   1      43.283  22.572  28.024  1.00  0.00     0.135 A 
ATOM     53  F   UNL A   1      43.110  23.867  24.634  1.00  0.00    -0.206 F 
ATOM     54  C   UNL A   1      42.630  21.721  25.457  1.00  0.00     0.059 A 
ATOM     55  C   UNL A   1      42.899  21.249  27.822  1.00  0.00     0.059 A 
ATOM     56  F   UNL A   1      43.599  22.950  29.273  1.00  0.00    -0.206 F 
ATOM     57  C   UNL A   1      42.566  20.834  26.534  1.00  0.00     0.060 A 
BRANCH  57  58
ATOM     58  S   UNL A   1      42.077  19.123  26.225  1.00  0.00     0.124 S 
ATOM     59  O   UNL A   1      43.016  18.733  25.179  1.00  0.00    -0.237 OA
ATOM     60  O   UNL A   1      42.284  18.506  27.532  1.00  0.00    -0.237 OA
ATOM     61  O   UNL A   1      40.683  19.240  25.810  1.00  0.00    -0.744 OA
ENDBRANCH  57  58
ENDBRANCH  25  50
BRANCH  37  62
ATOM     62  C   UNL A   1      49.421  26.861  26.006  1.00  0.00     0.058 A 
ATOM     63  C   UNL A   1      49.807  27.067  24.673  1.00  0.00     0.135 A 
ATOM     64  C   UNL A   1      50.342  26.264  26.881  1.00  0.00     0.135 A 
ATOM     65  F   UNL A   1      48.954  27.627  23.801  1.00  0.00    -0.206 F 
ATOM     66  C   UNL A   1      51.059  26.674  24.218  1.00  0.00     0.059 A 
ATOM     67  C   UNL A   1      51.609  25.890  26.454  1.00  0.00     0.059 A 
ATOM     68  F   UNL A   1      50.018  26.059  28.168  1.00  0.00    -0.206 F 
ATOM     69  C   UNL A   1      51.954  26.089  25.117  1.00  0.00     0.060 A 
BRANCH  69  70
ATOM     70  S   UNL A   1      53.592  25.622  24.527  1.00  0.00     0.124 S 
ATOM     71  O   UNL A   1      53.556  26.105  23.150  1.00  0.00    -0.237 OA
ATOM     72  O   UNL A   1      54.472  26.354  25.433  1.00  0.00    -0.237 OA
ATOM     73  O   UNL A   1      53.609  24.171  24.685  1.00  0.00    -0.744 OA
ENDBRANCH  69  70
ENDBRANCH  37  62
ENDBRANCH  11  12
ENDBRANCH   4   6
ENDBRANCH   3   4
ENDBRANCH   2   3
ENDBRANCH   1   2
BRANCH   1  74
ATOM     74  O   UNL A   1      33.911  30.772  27.921  1.00  0.00    -0.374 OA
BRANCH  74  75
ATOM     75  C   UNL A   1      33.414  30.548  26.605  1.00  0.00     0.202 C 
BRANCH  75  76
ATOM     76  C   UNL A   1      33.609  29.082  26.221  1.00  0.00     0.261 C 
BRANCH  76  77
ATOM     77  O   UNL A   1      33.067  28.218  27.238  1.00  0.00    -0.462 OA
BRANCH  77  78
ATOM     78  C   UNL A   1      32.067  27.381  26.821  1.00  0.00     0.328 C 
ATOM     79  O   UNL A   1      30.955  27.311  27.317  1.00  0.00    -0.250 OA
BRANCH  78  80
ATOM     80  C   UNL A   1      32.518  26.569  25.595  1.00  0.00     0.195 C 
ATOM     81  C   UNL A   1      33.019  25.192  26.058  1.00  0.00     0.037 C 
ATOM     82  N   UNL A   1      31.476  26.424  24.553  1.00  0.00    -0.323 N 
ATOM     83  C   UNL A   1      31.881  24.226  26.397  1.00  0.00     0.005 C 
ATOM     84  C   UNL A   1      30.372  25.505  24.845  1.00  0.00     0.121 C 
ATOM     85  C   UNL A   1      30.884  24.130  25.249  1.00  0.00     0.022 C 
BRANCH  82  86
ATOM     86  C   UNL A   1      31.595  27.185  23.384  1.00  0.00     0.274 C 
ATOM     87  O   UNL A   1      32.406  26.895  22.505  1.00  0.00    -0.267 OA
BRANCH  86  88
ATOM     88  C   UNL A   1      30.710  28.342  23.213  1.00  0.00     0.147 A 
ATOM     89  C   UNL A   1      30.488  29.379  24.103  1.00  0.00     0.127 A 
ATOM     90  N   UNL A   1      30.001  28.559  22.043  1.00  0.00    -0.223 NA
ATOM     91  N   UNL A   1      29.626  30.240  23.470  1.00  0.00    -0.306 N 
ATOM     92  C   UNL A   1      29.366  29.698  22.216  1.00  0.00     0.137 A 
ATOM     93  C   UNL A   1      29.072  31.436  23.921  1.00  0.00     0.093 A 
ATOM     94  C   UNL A   1      28.492  30.428  21.361  1.00  0.00     0.048 A 
ATOM     95  C   UNL A   1      28.238  32.118  23.113  1.00  0.00     0.018 A 
ATOM     96  C   UNL A   1      27.949  31.585  21.790  1.00  0.00     0.005 A 
ENDBRANCH  86  88
ENDBRANCH  82  86
ENDBRANCH  78  80
ENDBRANCH  77  78
ENDBRANCH  76  77
ENDBRANCH  75  76
ENDBRANCH  74  75
ENDBRANCH   1  74
TORSDOF 19
ENDMDL
