MODEL 1
REMARK VINA RESULT:     -10.1      0.000      0.000
REMARK SMILES CC1=C(C)C(=O)N(C[C@H](CC(C)C)C(=O)OCCOCCOC(=O)c2ccc(-c3c4nc(c(-c5c(F)cc(S(=O)(=O)[O-])cc5F)c5ccc([nH]5)c(-c5c(F)cc(S(=O)(=O)[O-])cc5F)c5nc(c(-c6c(F)cc(S(=O)(=O)[O-])cc6F)c6ccc3[nH]6)C=C5)C=C4)cc2)C1=O
REMARK SMILES IDX 20 1 19 2 18 3 17 4 16 5 14 6 15 7 9 8 8 9 7 10 1 11 2 12
REMARK SMILES IDX 3 13 91 14 4 15 5 16 92 17 6 18 10 19 11 20 12 21 13 22
REMARK SMILES IDX 21 23 22 24 23 25 24 26 25 27 26 28 90 29 27 30 89 31 28 32
REMARK SMILES IDX 29 33 30 34 83 35 31 36 88 37 82 38 84 39 32 40 87 41 81 42
REMARK SMILES IDX 80 43 33 45 67 46 46 47 66 48 47 49 50 50 65 51 85 52 48 53
REMARK SMILES IDX 49 54 64 56 86 57 51 58 34 59 35 60 44 61 36 62 37 63 43 64
REMARK SMILES IDX 45 65 38 66 39 67 40 68 41 69 42 70 68 71 69 72 78 73 70 74
REMARK SMILES IDX 71 75 77 76 79 77 72 78 73 79 74 80 75 81 76 82 52 83 53 84
REMARK SMILES IDX 62 85 54 86 55 87 61 88 63 89 56 90 57 91 58 92 59 93 60 94
REMARK H PARENT 84 44 50 55
REMARK Flexibility Score: inf
ROOT
ATOM      1  C   UNL A   1      40.066  22.018  26.261  1.00  0.00     0.202 C 
ENDROOT
BRANCH   1   2
ATOM      2  O   UNL A   1      39.179  23.108  26.494  1.00  0.00    -0.374 OA
BRANCH   2   3
ATOM      3  C   UNL A   1      37.872  23.040  25.944  1.00  0.00     0.202 C 
BRANCH   3   4
ATOM      4  C   UNL A   1      37.495  21.818  25.106  1.00  0.00     0.261 C 
BRANCH   4   5
ATOM      5  O   UNL A   1      36.213  21.242  25.395  1.00  0.00    -0.463 OA
BRANCH   5   6
ATOM      6  C   UNL A   1      35.166  21.736  24.677  1.00  0.00     0.310 C 
ATOM      7  O   UNL A   1      35.270  22.304  23.596  1.00  0.00    -0.252 OA
BRANCH   6   8
ATOM      8  C   UNL A   1      33.839  21.624  25.420  1.00  0.00     0.119 C 
BRANCH   8   9
ATOM      9  C   UNL A   1      33.825  22.564  26.653  1.00  0.00     0.144 C 
BRANCH   9  10
ATOM     10  N   UNL A   1      33.241  23.870  26.428  1.00  0.00    -0.274 N 
ATOM     11  C   UNL A   1      33.267  27.184  24.850  1.00  0.00     0.051 C 
ATOM     12  C   UNL A   1      32.919  25.970  25.623  1.00  0.00     0.023 C 
ATOM     13  C   UNL A   1      31.747  25.553  26.118  1.00  0.00     0.023 C 
ATOM     14  C   UNL A   1      33.911  24.912  25.873  1.00  0.00     0.256 C 
ATOM     15  C   UNL A   1      30.425  26.215  26.102  1.00  0.00     0.051 C 
ATOM     16  C   UNL A   1      31.951  24.205  26.677  1.00  0.00     0.256 C 
ATOM     17  O   UNL A   1      35.084  24.968  25.562  1.00  0.00    -0.269 OA
ATOM     18  O   UNL A   1      31.092  23.541  27.234  1.00  0.00    -0.269 OA
ENDBRANCH   9  10
ENDBRANCH   8   9
BRANCH   8  19
ATOM     19  C   UNL A   1      33.364  20.150  25.591  1.00  0.00     0.020 C 
BRANCH  19  20
ATOM     20  C   UNL A   1      33.159  19.287  24.331  1.00  0.00    -0.017 C 
ATOM     21  C   UNL A   1      32.451  17.963  24.638  1.00  0.00     0.007 C 
ATOM     22  C   UNL A   1      32.337  20.052  23.287  1.00  0.00     0.007 C 
ENDBRANCH  19  20
ENDBRANCH   8  19
ENDBRANCH   6   8
ENDBRANCH   5   6
ENDBRANCH   4   5
ENDBRANCH   3   4
ENDBRANCH   2   3
ENDBRANCH   1   2
BRANCH   1  23
ATOM     23  C   UNL A   1      41.580  22.275  26.272  1.00  0.00     0.261 C 
BRANCH  23  24
ATOM     24  O   UNL A   1      42.021  23.209  27.275  1.00  0.00    -0.460 OA
BRANCH  24  25
ATOM     25  C   UNL A   1      42.450  24.398  26.779  1.00  0.00     0.338 C 
ATOM     26  O   UNL A   1      43.131  24.569  25.779  1.00  0.00    -0.246 OA
BRANCH  25  27
ATOM     27  C   UNL A   1      41.870  25.537  27.511  1.00  0.00     0.060 A 
ATOM     28  C   UNL A   1      42.634  26.706  27.602  1.00  0.00     0.016 A 
ATOM     29  C   UNL A   1      40.709  25.387  28.271  1.00  0.00     0.016 A 
ATOM     30  C   UNL A   1      42.275  27.704  28.507  1.00  0.00     0.010 A 
ATOM     31  C   UNL A   1      40.349  26.394  29.177  1.00  0.00     0.010 A 
ATOM     32  C   UNL A   1      41.159  27.534  29.337  1.00  0.00    -0.014 A 
BRANCH  32  33
ATOM     33  C   UNL A   1      40.940  28.485  30.460  1.00  0.00     0.031 A 
ATOM     34  C   UNL A   1      41.815  28.402  31.686  1.00  0.00     0.074 A 
ATOM     35  C   UNL A   1      40.012  29.454  30.362  1.00  0.00     0.049 A 
ATOM     36  N   UNL A   1      41.801  29.140  32.766  1.00  0.00    -0.248 NA
ATOM     37  C   UNL A   1      42.840  27.345  31.697  1.00  0.00     0.031 C 
ATOM     38  C   UNL A   1      39.124  29.659  29.219  1.00  0.00     0.029 A 
ATOM     39  N   UNL A   1      39.662  30.450  31.241  1.00  0.00    -0.354 N 
ATOM     40  C   UNL A   1      42.803  28.634  33.589  1.00  0.00     0.074 A 
ATOM     41  C   UNL A   1      43.384  27.504  32.895  1.00  0.00     0.031 C 
ATOM     42  C   UNL A   1      38.330  30.715  29.466  1.00  0.00     0.029 A 
ATOM     43  C   UNL A   1      38.628  31.239  30.798  1.00  0.00     0.049 A 
ATOM     44  H   UNL A   1      40.110  30.587  32.107  1.00  0.00     0.167 HD
ATOM     45  C   UNL A   1      43.208  29.074  34.805  1.00  0.00     0.037 A 
ATOM     46  C   UNL A   1      37.979  32.253  31.404  1.00  0.00     0.037 A 
ATOM     47  C   UNL A   1      42.634  30.208  35.486  1.00  0.00     0.049 A 
ATOM     48  C   UNL A   1      38.415  32.693  32.778  1.00  0.00     0.074 A 
ATOM     49  C   UNL A   1      43.001  30.755  36.704  1.00  0.00     0.029 A 
ATOM     50  N   UNL A   1      41.568  30.962  35.018  1.00  0.00    -0.354 N 
ATOM     51  N   UNL A   1      39.388  32.229  33.525  1.00  0.00    -0.248 NA
ATOM     52  C   UNL A   1      37.667  33.801  33.389  1.00  0.00     0.031 C 
ATOM     53  C   UNL A   1      42.117  31.796  37.001  1.00  0.00     0.029 A 
ATOM     54  C   UNL A   1      41.242  31.946  35.938  1.00  0.00     0.049 A 
ATOM     55  H   UNL A   1      41.111  30.819  34.157  1.00  0.00     0.167 HD
ATOM     56  C   UNL A   1      39.385  33.003  34.681  1.00  0.00     0.074 A 
ATOM     57  C   UNL A   1      38.327  33.979  34.525  1.00  0.00     0.031 C 
ATOM     58  C   UNL A   1      40.184  32.913  35.775  1.00  0.00     0.037 A 
BRANCH  45  59
ATOM     59  C   UNL A   1      44.313  28.318  35.497  1.00  0.00     0.058 A 
ATOM     60  C   UNL A   1      45.668  28.623  35.292  1.00  0.00     0.135 A 
ATOM     61  C   UNL A   1      44.005  27.307  36.424  1.00  0.00     0.135 A 
ATOM     62  F   UNL A   1      46.022  29.570  34.409  1.00  0.00    -0.206 F 
ATOM     63  C   UNL A   1      46.678  27.938  35.962  1.00  0.00     0.059 A 
ATOM     64  C   UNL A   1      44.997  26.631  37.127  1.00  0.00     0.059 A 
ATOM     65  F   UNL A   1      42.727  26.973  36.659  1.00  0.00    -0.206 F 
ATOM     66  C   UNL A   1      46.332  26.945  36.880  1.00  0.00     0.060 A 
BRANCH  66  67
ATOM     67  S   UNL A   1      47.655  26.079  37.753  1.00  0.00     0.124 S 
ATOM     68  O   UNL A   1      47.636  26.749  39.050  1.00  0.00    -0.237 OA
ATOM     69  O   UNL A   1      47.182  24.700  37.746  1.00  0.00    -0.237 OA
ATOM     70  O   UNL A   1      48.833  26.339  36.931  1.00  0.00    -0.744 OA
ENDBRANCH  66  67
ENDBRANCH  45  59
BRANCH  46  71
ATOM     71  C   UNL A   1      36.833  32.914  30.722  1.00  0.00     0.058 A 
ATOM     72  C   UNL A   1      37.034  33.896  29.740  1.00  0.00     0.135 A 
ATOM     73  C   UNL A   1      35.508  32.579  31.046  1.00  0.00     0.135 A 
ATOM     74  F   UNL A   1      38.279  34.262  29.403  1.00  0.00    -0.206 F 
ATOM     75  C   UNL A   1      35.966  34.533  29.117  1.00  0.00     0.059 A 
ATOM     76  C   UNL A   1      34.424  33.179  30.414  1.00  0.00     0.059 A 
ATOM     77  F   UNL A   1      35.260  31.639  31.972  1.00  0.00    -0.206 F 
ATOM     78  C   UNL A   1      34.663  34.163  29.457  1.00  0.00     0.060 A 
BRANCH  78  79
ATOM     79  S   UNL A   1      33.286  34.960  28.605  1.00  0.00     0.124 S 
ATOM     80  O   UNL A   1      32.724  33.847  27.847  1.00  0.00    -0.237 OA
ATOM     81  O   UNL A   1      32.479  35.448  29.719  1.00  0.00    -0.237 OA
ATOM     82  O   UNL A   1      33.938  35.999  27.812  1.00  0.00    -0.744 OA
ENDBRANCH  78  79
ENDBRANCH  46  71
BRANCH  58  83
ATOM     83  C   UNL A   1      39.968  33.916  36.878  1.00  0.00     0.058 A 
ATOM     84  C   UNL A   1      39.203  33.613  38.016  1.00  0.00     0.135 A 
ATOM     85  C   UNL A   1      40.562  35.188  36.813  1.00  0.00     0.135 A 
ATOM     86  F   UNL A   1      38.609  32.416  38.132  1.00  0.00    -0.206 F 
ATOM     87  C   UNL A   1      39.005  34.546  39.031  1.00  0.00     0.059 A 
ATOM     88  C   UNL A   1      40.406  36.123  37.831  1.00  0.00     0.059 A 
ATOM     89  F   UNL A   1      41.315  35.530  35.754  1.00  0.00    -0.206 F 
ATOM     90  C   UNL A   1      39.612  35.799  38.928  1.00  0.00     0.060 A 
BRANCH  90  91
ATOM     91  S   UNL A   1      39.358  36.995  40.258  1.00  0.00     0.124 S 
ATOM     92  O   UNL A   1      40.700  37.097  40.822  1.00  0.00    -0.237 OA
ATOM     93  O   UNL A   1      38.884  38.170  39.533  1.00  0.00    -0.237 OA
ATOM     94  O   UNL A   1      38.366  36.349  41.112  1.00  0.00    -0.744 OA
ENDBRANCH  90  91
ENDBRANCH  58  83
ENDBRANCH  32  33
ENDBRANCH  25  27
ENDBRANCH  24  25
ENDBRANCH  23  24
ENDBRANCH   1  23
TORSDOF 21
ENDMDL
MODEL 2
REMARK VINA RESULT:     -10.1      1.389      2.356
REMARK SMILES CC1=C(C)C(=O)N(C[C@H](CC(C)C)C(=O)OCCOCCOC(=O)c2ccc(-c3c4nc(c(-c5c(F)cc(S(=O)(=O)[O-])cc5F)c5ccc([nH]5)c(-c5c(F)cc(S(=O)(=O)[O-])cc5F)c5nc(c(-c6c(F)cc(S(=O)(=O)[O-])cc6F)c6ccc3[nH]6)C=C5)C=C4)cc2)C1=O
REMARK SMILES IDX 20 1 19 2 18 3 17 4 16 5 14 6 15 7 9 8 8 9 7 10 1 11 2 12
REMARK SMILES IDX 3 13 91 14 4 15 5 16 92 17 6 18 10 19 11 20 12 21 13 22
REMARK SMILES IDX 21 23 22 24 23 25 24 26 25 27 26 28 90 29 27 30 89 31 28 32
REMARK SMILES IDX 29 33 30 34 83 35 31 36 88 37 82 38 84 39 32 40 87 41 81 42
REMARK SMILES IDX 80 43 33 45 67 46 46 47 66 48 47 49 50 50 65 51 85 52 48 53
REMARK SMILES IDX 49 54 64 56 86 57 51 58 34 59 35 60 44 61 36 62 37 63 43 64
REMARK SMILES IDX 45 65 38 66 39 67 40 68 41 69 42 70 68 71 69 72 78 73 70 74
REMARK SMILES IDX 71 75 77 76 79 77 72 78 73 79 74 80 75 81 76 82 52 83 53 84
REMARK SMILES IDX 62 85 54 86 55 87 61 88 63 89 56 90 57 91 58 92 59 93 60 94
REMARK H PARENT 84 44 50 55
REMARK Flexibility Score: inf
ROOT
ATOM      1  C   UNL A   1      38.441  22.627  25.861  1.00  0.00     0.202 C 
ENDROOT
BRANCH   1   2
ATOM      2  O   UNL A   1      37.815  21.636  25.052  1.00  0.00    -0.374 OA
BRANCH   2   3
ATOM      3  C   UNL A   1      36.510  21.203  25.408  1.00  0.00     0.202 C 
BRANCH   3   4
ATOM      4  C   UNL A   1      35.481  22.255  25.826  1.00  0.00     0.261 C 
BRANCH   4   5
ATOM      5  O   UNL A   1      34.411  22.475  24.897  1.00  0.00    -0.463 OA
BRANCH   5   6
ATOM      6  C   UNL A   1      34.554  23.545  24.067  1.00  0.00     0.310 C 
ATOM      7  O   UNL A   1      35.424  23.649  23.210  1.00  0.00    -0.252 OA
BRANCH   6   8
ATOM      8  C   UNL A   1      33.590  24.679  24.398  1.00  0.00     0.119 C 
BRANCH   8   9
ATOM      9  C   UNL A   1      33.853  25.902  23.481  1.00  0.00     0.144 C 
BRANCH   9  10
ATOM     10  N   UNL A   1      32.901  26.986  23.609  1.00  0.00    -0.274 N 
ATOM     11  C   UNL A   1      29.550  28.407  23.130  1.00  0.00     0.051 C 
ATOM     12  C   UNL A   1      30.964  28.169  23.500  1.00  0.00     0.023 C 
ATOM     13  C   UNL A   1      31.750  28.780  24.395  1.00  0.00     0.023 C 
ATOM     14  C   UNL A   1      31.722  27.041  22.937  1.00  0.00     0.256 C 
ATOM     15  C   UNL A   1      31.466  29.941  25.265  1.00  0.00     0.051 C 
ATOM     16  C   UNL A   1      33.024  28.042  24.450  1.00  0.00     0.256 C 
ATOM     17  O   UNL A   1      31.311  26.279  22.084  1.00  0.00    -0.269 OA
ATOM     18  O   UNL A   1      33.980  28.346  25.145  1.00  0.00    -0.269 OA
ENDBRANCH   9  10
ENDBRANCH   8   9
BRANCH   8  19
ATOM     19  C   UNL A   1      33.429  24.907  25.930  1.00  0.00     0.020 C 
BRANCH  19  20
ATOM     20  C   UNL A   1      32.061  24.624  26.582  1.00  0.00    -0.017 C 
ATOM     21  C   UNL A   1      30.895  24.862  25.618  1.00  0.00     0.007 C 
ATOM     22  C   UNL A   1      31.996  23.175  27.081  1.00  0.00     0.007 C 
ENDBRANCH  19  20
ENDBRANCH   8  19
ENDBRANCH   6   8
ENDBRANCH   5   6
ENDBRANCH   4   5
ENDBRANCH   3   4
ENDBRANCH   2   3
ENDBRANCH   1   2
BRANCH   1  23
ATOM     23  C   UNL A   1      39.816  22.326  26.476  1.00  0.00     0.261 C 
BRANCH  23  24
ATOM     24  O   UNL A   1      40.146  23.128  27.625  1.00  0.00    -0.460 OA
BRANCH  24  25
ATOM     25  C   UNL A   1      41.082  24.082  27.388  1.00  0.00     0.338 C 
ATOM     26  O   UNL A   1      42.045  23.991  26.642  1.00  0.00    -0.246 OA
BRANCH  25  27
ATOM     27  C   UNL A   1      40.737  25.359  28.036  1.00  0.00     0.060 A 
ATOM     28  C   UNL A   1      41.774  26.272  28.263  1.00  0.00     0.016 A 
ATOM     29  C   UNL A   1      39.477  25.561  28.602  1.00  0.00     0.016 A 
ATOM     30  C   UNL A   1      41.572  27.358  29.114  1.00  0.00     0.010 A 
ATOM     31  C   UNL A   1      39.277  26.656  29.454  1.00  0.00     0.010 A 
ATOM     32  C   UNL A   1      40.338  27.530  29.756  1.00  0.00    -0.014 A 
BRANCH  32  33
ATOM     33  C   UNL A   1      40.222  28.538  30.844  1.00  0.00     0.031 A 
ATOM     34  C   UNL A   1      41.116  28.433  32.054  1.00  0.00     0.074 A 
ATOM     35  C   UNL A   1      39.372  29.575  30.725  1.00  0.00     0.049 A 
ATOM     36  N   UNL A   1      41.187  29.211  33.103  1.00  0.00    -0.248 NA
ATOM     37  C   UNL A   1      42.054  27.299  32.086  1.00  0.00     0.031 C 
ATOM     38  C   UNL A   1      38.476  29.805  29.593  1.00  0.00     0.029 A 
ATOM     39  N   UNL A   1      39.124  30.629  31.570  1.00  0.00    -0.354 N 
ATOM     40  C   UNL A   1      42.164  28.658  33.925  1.00  0.00     0.074 A 
ATOM     41  C   UNL A   1      42.637  27.460  33.266  1.00  0.00     0.031 C 
ATOM     42  C   UNL A   1      37.775  30.931  29.813  1.00  0.00     0.029 A 
ATOM     43  C   UNL A   1      38.145  31.480  31.116  1.00  0.00     0.049 A 
ATOM     44  H   UNL A   1      39.601  30.763  32.420  1.00  0.00     0.167 HD
ATOM     45  C   UNL A   1      42.632  29.112  35.113  1.00  0.00     0.037 A 
ATOM     46  C   UNL A   1      37.593  32.566  31.694  1.00  0.00     0.037 A 
ATOM     47  C   UNL A   1      42.166  30.314  35.760  1.00  0.00     0.049 A 
ATOM     48  C   UNL A   1      38.095  33.023  33.040  1.00  0.00     0.074 A 
ATOM     49  C   UNL A   1      42.604  30.876  36.946  1.00  0.00     0.029 A 
ATOM     50  N   UNL A   1      41.152  31.132  35.283  1.00  0.00    -0.354 N 
ATOM     51  N   UNL A   1      39.046  32.511  33.784  1.00  0.00    -0.248 NA
ATOM     52  C   UNL A   1      37.452  34.211  33.620  1.00  0.00     0.031 C 
ATOM     53  C   UNL A   1      41.813  31.996  37.219  1.00  0.00     0.029 A 
ATOM     54  C   UNL A   1      40.928  32.174  36.169  1.00  0.00     0.049 A 
ATOM     55  H   UNL A   1      40.665  30.993  34.439  1.00  0.00     0.167 HD
ATOM     56  C   UNL A   1      39.131  33.328  34.908  1.00  0.00     0.074 A 
ATOM     57  C   UNL A   1      38.151  34.378  34.734  1.00  0.00     0.031 C 
ATOM     58  C   UNL A   1      39.946  33.216  35.988  1.00  0.00     0.037 A 
BRANCH  45  59
ATOM     59  C   UNL A   1      43.689  28.297  35.813  1.00  0.00     0.058 A 
ATOM     60  C   UNL A   1      43.365  27.292  36.738  1.00  0.00     0.135 A 
ATOM     61  C   UNL A   1      45.048  28.491  35.510  1.00  0.00     0.135 A 
ATOM     62  F   UNL A   1      42.085  27.071  37.076  1.00  0.00    -0.206 F 
ATOM     63  C   UNL A   1      44.349  26.525  37.354  1.00  0.00     0.059 A 
ATOM     64  C   UNL A   1      46.046  27.715  36.091  1.00  0.00     0.059 A 
ATOM     65  F   UNL A   1      45.416  29.438  34.634  1.00  0.00    -0.206 F 
ATOM     66  C   UNL A   1      45.688  26.742  37.021  1.00  0.00     0.060 A 
BRANCH  66  67
ATOM     67  S   UNL A   1      46.950  25.725  37.817  1.00  0.00     0.124 S 
ATOM     68  O   UNL A   1      46.276  25.337  39.053  1.00  0.00    -0.237 OA
ATOM     69  O   UNL A   1      47.151  24.658  36.843  1.00  0.00    -0.237 OA
ATOM     70  O   UNL A   1      48.075  26.642  37.979  1.00  0.00    -0.744 OA
ENDBRANCH  66  67
ENDBRANCH  45  59
BRANCH  46  71
ATOM     71  C   UNL A   1      36.487  33.291  31.009  1.00  0.00     0.058 A 
ATOM     72  C   UNL A   1      36.726  34.095  29.884  1.00  0.00     0.135 A 
ATOM     73  C   UNL A   1      35.165  33.197  31.473  1.00  0.00     0.135 A 
ATOM     74  F   UNL A   1      37.973  34.229  29.408  1.00  0.00    -0.206 F 
ATOM     75  C   UNL A   1      35.700  34.792  29.256  1.00  0.00     0.059 A 
ATOM     76  C   UNL A   1      34.118  33.858  30.842  1.00  0.00     0.059 A 
ATOM     77  F   UNL A   1      34.880  32.433  32.540  1.00  0.00    -0.206 F 
ATOM     78  C   UNL A   1      34.396  34.662  29.739  1.00  0.00     0.060 A 
BRANCH  78  79
ATOM     79  S   UNL A   1      33.065  35.531  28.883  1.00  0.00     0.124 S 
ATOM     80  O   UNL A   1      33.808  36.508  28.097  1.00  0.00    -0.237 OA
ATOM     81  O   UNL A   1      32.432  34.451  28.131  1.00  0.00    -0.237 OA
ATOM     82  O   UNL A   1      32.263  36.076  29.975  1.00  0.00    -0.744 OA
ENDBRANCH  78  79
ENDBRANCH  46  71
BRANCH  58  83
ATOM     83  C   UNL A   1      39.836  34.275  37.054  1.00  0.00     0.058 A 
ATOM     84  C   UNL A   1      39.126  34.057  38.246  1.00  0.00     0.135 A 
ATOM     85  C   UNL A   1      40.480  35.515  36.897  1.00  0.00     0.135 A 
ATOM     86  F   UNL A   1      38.489  32.894  38.450  1.00  0.00    -0.206 F 
ATOM     87  C   UNL A   1      39.027  35.042  39.226  1.00  0.00     0.059 A 
ATOM     88  C   UNL A   1      40.422  36.500  37.878  1.00  0.00     0.059 A 
ATOM     89  F   UNL A   1      41.184  35.776  35.784  1.00  0.00    -0.206 F 
ATOM     90  C   UNL A   1      39.679  36.261  39.031  1.00  0.00     0.060 A 
BRANCH  90  91
ATOM     91  S   UNL A   1      39.553  37.524  40.316  1.00  0.00     0.124 S 
ATOM     92  O   UNL A   1      40.958  37.796  40.600  1.00  0.00    -0.237 OA
ATOM     93  O   UNL A   1      38.826  38.590  39.633  1.00  0.00    -0.237 OA
ATOM     94  O   UNL A   1      38.816  36.853  41.382  1.00  0.00    -0.744 OA
ENDBRANCH  90  91
ENDBRANCH  58  83
ENDBRANCH  32  33
ENDBRANCH  25  27
ENDBRANCH  24  25
ENDBRANCH  23  24
ENDBRANCH   1  23
TORSDOF 21
ENDMDL
MODEL 3
REMARK VINA RESULT:     -10.0      3.074      9.334
REMARK SMILES CC1=C(C)C(=O)N(C[C@H](CC(C)C)C(=O)OCCOCCOC(=O)c2ccc(-c3c4nc(c(-c5c(F)cc(S(=O)(=O)[O-])cc5F)c5ccc([nH]5)c(-c5c(F)cc(S(=O)(=O)[O-])cc5F)c5nc(c(-c6c(F)cc(S(=O)(=O)[O-])cc6F)c6ccc3[nH]6)C=C5)C=C4)cc2)C1=O
REMARK SMILES IDX 20 1 19 2 18 3 17 4 16 5 14 6 15 7 9 8 8 9 7 10 1 11 2 12
REMARK SMILES IDX 3 13 91 14 4 15 5 16 92 17 6 18 10 19 11 20 12 21 13 22
REMARK SMILES IDX 21 23 22 24 23 25 24 26 25 27 26 28 90 29 27 30 89 31 28 32
REMARK SMILES IDX 29 33 30 34 83 35 31 36 88 37 82 38 84 39 32 40 87 41 81 42
REMARK SMILES IDX 80 43 33 45 67 46 46 47 66 48 47 49 50 50 65 51 85 52 48 53
REMARK SMILES IDX 49 54 64 56 86 57 51 58 34 59 35 60 44 61 36 62 37 63 43 64
REMARK SMILES IDX 45 65 38 66 39 67 40 68 41 69 42 70 68 71 69 72 78 73 70 74
REMARK SMILES IDX 71 75 77 76 79 77 72 78 73 79 74 80 75 81 76 82 52 83 53 84
REMARK SMILES IDX 62 85 54 86 55 87 61 88 63 89 56 90 57 91 58 92 59 93 60 94
REMARK H PARENT 84 44 50 55
REMARK Flexibility Score: inf
ROOT
ATOM      1  C   UNL A   1      31.807  27.486  26.113  1.00  0.00     0.202 C 
ENDROOT
BRANCH   1   2
ATOM      2  O   UNL A   1      32.043  28.011  24.810  1.00  0.00    -0.374 OA
BRANCH   2   3
ATOM      3  C   UNL A   1      30.972  28.006  23.878  1.00  0.00     0.202 C 
BRANCH   3   4
ATOM      4  C   UNL A   1      31.295  27.823  22.395  1.00  0.00     0.261 C 
BRANCH   4   5
ATOM      5  O   UNL A   1      31.518  26.470  21.974  1.00  0.00    -0.463 OA
BRANCH   5   6
ATOM      6  C   UNL A   1      32.809  26.039  22.022  1.00  0.00     0.310 C 
ATOM      7  O   UNL A   1      33.701  26.428  21.276  1.00  0.00    -0.252 OA
BRANCH   6   8
ATOM      8  C   UNL A   1      33.016  24.911  23.027  1.00  0.00     0.119 C 
BRANCH   8   9
ATOM      9  C   UNL A   1      34.230  25.213  23.943  1.00  0.00     0.144 C 
BRANCH   9  10
ATOM     10  N   UNL A   1      34.696  24.098  24.740  1.00  0.00    -0.274 N 
ATOM     11  C   UNL A   1      34.246  21.665  27.452  1.00  0.00     0.051 C 
ATOM     12  C   UNL A   1      34.752  22.448  26.302  1.00  0.00     0.023 C 
ATOM     13  C   UNL A   1      35.686  22.159  25.388  1.00  0.00     0.023 C 
ATOM     14  C   UNL A   1      34.145  23.735  25.928  1.00  0.00     0.256 C 
ATOM     15  C   UNL A   1      36.563  20.973  25.275  1.00  0.00     0.051 C 
ATOM     16  C   UNL A   1      35.684  23.240  24.388  1.00  0.00     0.256 C 
ATOM     17  O   UNL A   1      33.267  24.300  26.549  1.00  0.00    -0.269 OA
ATOM     18  O   UNL A   1      36.435  23.307  23.428  1.00  0.00    -0.269 OA
ENDBRANCH   9  10
ENDBRANCH   8   9
BRANCH   8  19
ATOM     19  C   UNL A   1      32.892  23.498  22.383  1.00  0.00     0.020 C 
BRANCH  19  20
ATOM     20  C   UNL A   1      31.875  22.501  22.972  1.00  0.00    -0.017 C 
ATOM     21  C   UNL A   1      32.550  21.262  23.569  1.00  0.00     0.007 C 
ATOM     22  C   UNL A   1      31.037  23.176  24.065  1.00  0.00     0.007 C 
ENDBRANCH  19  20
ENDBRANCH   8  19
ENDBRANCH   6   8
ENDBRANCH   5   6
ENDBRANCH   4   5
ENDBRANCH   3   4
ENDBRANCH   2   3
ENDBRANCH   1   2
BRANCH   1  23
ATOM     23  C   UNL A   1      32.735  27.904  27.263  1.00  0.00     0.261 C 
BRANCH  23  24
ATOM     24  O   UNL A   1      34.073  28.249  26.857  1.00  0.00    -0.460 OA
BRANCH  24  25
ATOM     25  C   UNL A   1      34.379  29.563  27.009  1.00  0.00     0.338 C 
ATOM     26  O   UNL A   1      33.714  30.516  26.632  1.00  0.00    -0.246 OA
BRANCH  25  27
ATOM     27  C   UNL A   1      35.580  29.751  27.840  1.00  0.00     0.060 A 
ATOM     28  C   UNL A   1      36.791  30.001  27.184  1.00  0.00     0.016 A 
ATOM     29  C   UNL A   1      35.559  29.473  29.208  1.00  0.00     0.016 A 
ATOM     30  C   UNL A   1      37.994  29.907  27.881  1.00  0.00     0.010 A 
ATOM     31  C   UNL A   1      36.771  29.381  29.907  1.00  0.00     0.010 A 
ATOM     32  C   UNL A   1      37.997  29.546  29.235  1.00  0.00    -0.014 A 
BRANCH  32  33
ATOM     33  C   UNL A   1      39.288  29.206  29.892  1.00  0.00     0.031 A 
ATOM     34  C   UNL A   1      39.710  29.951  31.134  1.00  0.00     0.074 A 
ATOM     35  C   UNL A   1      40.047  28.198  29.424  1.00  0.00     0.049 A 
ATOM     36  N   UNL A   1      40.784  29.802  31.866  1.00  0.00    -0.248 NA
ATOM     37  C   UNL A   1      38.801  31.006  31.613  1.00  0.00     0.031 C 
ATOM     38  C   UNL A   1      39.734  27.382  28.252  1.00  0.00     0.029 A 
ATOM     39  N   UNL A   1      41.238  27.689  29.879  1.00  0.00    -0.354 N 
ATOM     40  C   UNL A   1      40.689  30.748  32.882  1.00  0.00     0.074 A 
ATOM     41  C   UNL A   1      39.466  31.487  32.653  1.00  0.00     0.031 C 
ATOM     42  C   UNL A   1      40.710  26.475  28.079  1.00  0.00     0.029 A 
ATOM     43  C   UNL A   1      41.733  26.667  29.105  1.00  0.00     0.049 A 
ATOM     44  H   UNL A   1      41.695  28.024  30.685  1.00  0.00     0.167 HD
ATOM     45  C   UNL A   1      41.536  30.973  33.916  1.00  0.00     0.037 A 
ATOM     46  C   UNL A   1      42.889  25.980  29.198  1.00  0.00     0.037 A 
ATOM     47  C   UNL A   1      42.747  30.224  34.146  1.00  0.00     0.049 A 
ATOM     48  C   UNL A   1      43.840  26.282  30.328  1.00  0.00     0.074 A 
ATOM     49  C   UNL A   1      43.651  30.353  35.186  1.00  0.00     0.029 A 
ATOM     50  N   UNL A   1      43.229  29.218  33.322  1.00  0.00    -0.354 N 
ATOM     51  N   UNL A   1      43.716  27.153  31.302  1.00  0.00    -0.248 NA
ATOM     52  C   UNL A   1      45.086  25.503  30.375  1.00  0.00     0.031 C 
ATOM     53  C   UNL A   1      44.711  29.470  34.957  1.00  0.00     0.029 A 
ATOM     54  C   UNL A   1      44.435  28.741  33.812  1.00  0.00     0.049 A 
ATOM     55  H   UNL A   1      42.780  28.890  32.510  1.00  0.00     0.167 HD
ATOM     56  C   UNL A   1      44.855  27.008  32.089  1.00  0.00     0.074 A 
ATOM     57  C   UNL A   1      45.644  25.953  31.490  1.00  0.00     0.031 C 
ATOM     58  C   UNL A   1      45.216  27.690  33.206  1.00  0.00     0.037 A 
BRANCH  45  59
ATOM     59  C   UNL A   1      41.203  32.090  34.871  1.00  0.00     0.058 A 
ATOM     60  C   UNL A   1      40.442  31.877  36.032  1.00  0.00     0.135 A 
ATOM     61  C   UNL A   1      41.701  33.385  34.647  1.00  0.00     0.135 A 
ATOM     62  F   UNL A   1      39.928  30.663  36.290  1.00  0.00    -0.206 F 
ATOM     63  C   UNL A   1      40.167  32.910  36.922  1.00  0.00     0.059 A 
ATOM     64  C   UNL A   1      41.465  34.425  35.540  1.00  0.00     0.059 A 
ATOM     65  F   UNL A   1      42.434  33.646  33.554  1.00  0.00    -0.206 F 
ATOM     66  C   UNL A   1      40.687  34.181  36.669  1.00  0.00     0.060 A 
BRANCH  66  67
ATOM     67  S   UNL A   1      40.335  35.506  37.845  1.00  0.00     0.124 S 
ATOM     68  O   UNL A   1      41.441  35.362  38.787  1.00  0.00    -0.237 OA
ATOM     69  O   UNL A   1      40.375  36.693  36.998  1.00  0.00    -0.237 OA
ATOM     70  O   UNL A   1      39.018  35.157  38.369  1.00  0.00    -0.744 OA
ENDBRANCH  66  67
ENDBRANCH  45  59
BRANCH  46  71
ATOM     71  C   UNL A   1      43.223  24.946  28.180  1.00  0.00     0.058 A 
ATOM     72  C   UNL A   1      42.872  23.600  28.364  1.00  0.00     0.135 A 
ATOM     73  C   UNL A   1      43.907  25.286  27.002  1.00  0.00     0.135 A 
ATOM     74  F   UNL A   1      42.228  23.220  29.477  1.00  0.00    -0.206 F 
ATOM     75  C   UNL A   1      43.202  22.627  27.426  1.00  0.00     0.059 A 
ATOM     76  C   UNL A   1      44.220  24.337  26.036  1.00  0.00     0.059 A 
ATOM     77  F   UNL A   1      44.258  26.562  26.773  1.00  0.00    -0.206 F 
ATOM     78  C   UNL A   1      43.872  23.007  26.261  1.00  0.00     0.060 A 
BRANCH  78  79
ATOM     79  S   UNL A   1      44.249  21.743  25.028  1.00  0.00     0.124 S 
ATOM     80  O   UNL A   1      44.020  22.468  23.783  1.00  0.00    -0.237 OA
ATOM     81  O   UNL A   1      45.640  21.422  25.336  1.00  0.00    -0.237 OA
ATOM     82  O   UNL A   1      43.289  20.684  25.328  1.00  0.00    -0.744 OA
ENDBRANCH  78  79
ENDBRANCH  46  71
BRANCH  58  83
ATOM     83  C   UNL A   1      46.507  27.295  33.875  1.00  0.00     0.058 A 
ATOM     84  C   UNL A   1      47.725  27.922  33.565  1.00  0.00     0.135 A 
ATOM     85  C   UNL A   1      46.522  26.298  34.865  1.00  0.00     0.135 A 
ATOM     86  F   UNL A   1      47.773  28.878  32.624  1.00  0.00    -0.206 F 
ATOM     87  C   UNL A   1      48.915  27.550  34.184  1.00  0.00     0.059 A 
ATOM     88  C   UNL A   1      47.693  25.934  35.522  1.00  0.00     0.059 A 
ATOM     89  F   UNL A   1      45.385  25.672  35.213  1.00  0.00    -0.206 F 
ATOM     90  C   UNL A   1      48.888  26.554  35.163  1.00  0.00     0.060 A 
BRANCH  90  91
ATOM     91  S   UNL A   1      50.436  26.090  35.968  1.00  0.00     0.124 S 
ATOM     92  O   UNL A   1      50.639  24.737  35.459  1.00  0.00    -0.237 OA
ATOM     93  O   UNL A   1      51.363  27.100  35.466  1.00  0.00    -0.237 OA
ATOM     94  O   UNL A   1      50.123  26.185  37.390  1.00  0.00    -0.744 OA
ENDBRANCH  90  91
ENDBRANCH  58  83
ENDBRANCH  32  33
ENDBRANCH  25  27
ENDBRANCH  24  25
ENDBRANCH  23  24
ENDBRANCH   1  23
TORSDOF 21
ENDMDL
