MODEL 1
REMARK VINA RESULT:     -10.5      0.000      0.000
REMARK SMILES O=C(C[N@@H+](CC(F)(F)F)[C@H]1CCCC[C@H]1O)OCCOCCOC(=O)c1ccc(-c2c3nc(c(-c4c(F)cc(S(=O)(=O)[O-])cc4F)c4ccc([nH]4)c(-c4c(F)cc(S(=O)(=O)[O-])cc4F)c4nc(c(-c5c(F)cc(S(=O)(=O)[O-])cc5F)c5ccc2[nH]5)C=C4)C=C3)cc1
REMARK SMILES IDX 20 1 19 2 18 3 17 4 2 5 1 6 3 7 4 8 5 10 6 11 7 12 8 13 9 14
REMARK SMILES IDX 10 15 11 16 15 17 12 18 14 19 13 20 16 21 21 23 22 24 23 25
REMARK SMILES IDX 24 26 25 27 26 28 27 29 91 30 28 31 90 32 29 33 30 34 31 35
REMARK SMILES IDX 84 36 32 37 89 38 83 39 85 40 33 41 88 42 82 43 81 44 34 46
REMARK SMILES IDX 68 47 47 48 67 49 48 50 51 51 66 52 86 53 49 54 50 55 65 57
REMARK SMILES IDX 87 58 52 59 35 60 36 61 45 62 37 63 38 64 44 65 46 66 39 67
REMARK SMILES IDX 40 68 41 69 42 70 43 71 69 72 70 73 79 74 71 75 72 76 78 77
REMARK SMILES IDX 80 78 73 79 74 80 75 81 76 82 77 83 53 84 54 85 63 86 55 87
REMARK SMILES IDX 56 88 62 89 64 90 57 91 58 92 59 93 60 94 61 95
REMARK H PARENT 4 9 16 22 85 45 51 56
REMARK Flexibility Score: inf
ROOT
ATOM      1  O   UNL A   1      37.961  23.337  26.207  1.00  0.00    -0.374 OA
ENDROOT
BRANCH   1   2
ATOM      2  C   UNL A   1      37.187  23.758  25.084  1.00  0.00     0.202 C 
BRANCH   2   3
ATOM      3  C   UNL A   1      35.669  23.640  25.173  1.00  0.00     0.261 C 
BRANCH   3   4
ATOM      4  O   UNL A   1      35.263  23.030  26.407  1.00  0.00    -0.459 OA
BRANCH   4   5
ATOM      5  C   UNL A   1      34.781  21.772  26.488  1.00  0.00     0.361 C 
ATOM      6  O   UNL A   1      34.282  21.380  27.544  1.00  0.00    -0.245 OA
BRANCH   5   7
ATOM      7  C   UNL A   1      34.955  20.826  25.302  1.00  0.00     0.387 C 
BRANCH   7   8
ATOM      8  N   UNL A   1      33.690  20.372  24.709  1.00  0.00    -0.314 N 
ATOM      9  H   UNL A   1      33.018  20.483  25.468  1.00  0.00     0.349 HD
BRANCH   8  10
ATOM     10  C   UNL A   1      33.258  21.256  23.598  1.00  0.00     0.380 C 
BRANCH  10  11
ATOM     11  C   UNL A   1      32.205  22.345  23.869  1.00  0.00     0.438 C 
ATOM     12  F   UNL A   1      32.748  23.582  23.833  1.00  0.00    -0.165 F 
ATOM     13  F   UNL A   1      31.226  22.302  22.936  1.00  0.00    -0.165 F 
ATOM     14  F   UNL A   1      31.617  22.186  25.077  1.00  0.00    -0.165 F 
ENDBRANCH  10  11
ENDBRANCH   8  10
BRANCH   8  15
ATOM     15  C   UNL A   1      33.523  18.925  24.455  1.00  0.00     0.213 C 
ATOM     16  C   UNL A   1      34.830  18.111  24.371  1.00  0.00     0.068 C 
ATOM     17  C   UNL A   1      32.518  18.329  25.494  1.00  0.00     0.172 C 
ATOM     18  C   UNL A   1      34.597  16.615  24.229  1.00  0.00     0.006 C 
ATOM     19  C   UNL A   1      32.375  16.810  25.374  1.00  0.00     0.038 C 
ATOM     20  C   UNL A   1      33.724  16.098  25.364  1.00  0.00     0.003 C 
BRANCH  17  21
ATOM     21  O   UNL A   1      32.858  18.653  26.843  1.00  0.00    -0.387 OA
ATOM     22  H   UNL A   1      33.111  19.587  26.896  1.00  0.00     0.211 HD
ENDBRANCH  17  21
ENDBRANCH   8  15
ENDBRANCH   7   8
ENDBRANCH   5   7
ENDBRANCH   4   5
ENDBRANCH   3   4
ENDBRANCH   2   3
ENDBRANCH   1   2
BRANCH   1  23
ATOM     23  C   UNL A   1      38.736  22.140  26.076  1.00  0.00     0.202 C 
BRANCH  23  24
ATOM     24  C   UNL A   1      40.101  22.055  26.767  1.00  0.00     0.261 C 
BRANCH  24  25
ATOM     25  O   UNL A   1      40.335  23.148  27.662  1.00  0.00    -0.460 OA
BRANCH  25  26
ATOM     26  C   UNL A   1      41.196  24.087  27.199  1.00  0.00     0.338 C 
ATOM     27  O   UNL A   1      41.859  24.038  26.175  1.00  0.00    -0.246 OA
BRANCH  26  28
ATOM     28  C   UNL A   1      41.023  25.312  28.001  1.00  0.00     0.060 A 
ATOM     29  C   UNL A   1      42.105  26.202  28.088  1.00  0.00     0.016 A 
ATOM     30  C   UNL A   1      39.816  25.586  28.643  1.00  0.00     0.016 A 
ATOM     31  C   UNL A   1      41.993  27.362  28.846  1.00  0.00     0.010 A 
ATOM     32  C   UNL A   1      39.715  26.734  29.425  1.00  0.00     0.010 A 
ATOM     33  C   UNL A   1      40.810  27.607  29.551  1.00  0.00    -0.014 A 
BRANCH  33  34
ATOM     34  C   UNL A   1      40.753  28.686  30.557  1.00  0.00     0.031 A 
ATOM     35  C   UNL A   1      41.634  28.564  31.767  1.00  0.00     0.074 A 
ATOM     36  C   UNL A   1      39.898  29.711  30.410  1.00  0.00     0.049 A 
ATOM     37  N   UNL A   1      41.638  29.278  32.859  1.00  0.00    -0.248 NA
ATOM     38  C   UNL A   1      42.637  27.484  31.747  1.00  0.00     0.031 C 
ATOM     39  C   UNL A   1      39.031  29.930  29.252  1.00  0.00     0.029 A 
ATOM     40  N   UNL A   1      39.589  30.740  31.263  1.00  0.00    -0.354 N 
ATOM     41  C   UNL A   1      42.614  28.713  33.670  1.00  0.00     0.074 A 
ATOM     42  C   UNL A   1      43.185  27.599  32.948  1.00  0.00     0.031 C 
ATOM     43  C   UNL A   1      38.255  31.002  29.486  1.00  0.00     0.029 A 
ATOM     44  C   UNL A   1      38.538  31.511  30.826  1.00  0.00     0.049 A 
ATOM     45  H   UNL A   1      40.072  30.910  32.104  1.00  0.00     0.167 HD
ATOM     46  C   UNL A   1      42.988  29.095  34.912  1.00  0.00     0.037 A 
ATOM     47  C   UNL A   1      37.850  32.479  31.465  1.00  0.00     0.037 A 
ATOM     48  C   UNL A   1      42.414  30.219  35.603  1.00  0.00     0.049 A 
ATOM     49  C   UNL A   1      38.254  32.847  32.872  1.00  0.00     0.074 A 
ATOM     50  C   UNL A   1      42.764  30.734  36.837  1.00  0.00     0.029 A 
ATOM     51  N   UNL A   1      41.361  30.986  35.128  1.00  0.00    -0.354 N 
ATOM     52  N   UNL A   1      39.221  32.352  33.609  1.00  0.00    -0.248 NA
ATOM     53  C   UNL A   1      37.472  33.898  33.537  1.00  0.00     0.031 C 
ATOM     54  C   UNL A   1      41.876  31.770  37.139  1.00  0.00     0.029 A 
ATOM     55  C   UNL A   1      41.016  31.943  36.066  1.00  0.00     0.049 A 
ATOM     56  H   UNL A   1      40.924  30.867  34.254  1.00  0.00     0.167 HD
ATOM     57  C   UNL A   1      39.175  33.045  34.814  1.00  0.00     0.074 A 
ATOM     58  C   UNL A   1      38.101  34.009  34.699  1.00  0.00     0.031 C 
ATOM     59  C   UNL A   1      39.947  32.899  35.920  1.00  0.00     0.037 A 
BRANCH  46  60
ATOM     60  C   UNL A   1      44.033  28.287  35.625  1.00  0.00     0.058 A 
ATOM     61  C   UNL A   1      43.701  27.208  36.458  1.00  0.00     0.135 A 
ATOM     62  C   UNL A   1      45.395  28.541  35.393  1.00  0.00     0.135 A 
ATOM     63  F   UNL A   1      42.415  26.936  36.734  1.00  0.00    -0.206 F 
ATOM     64  C   UNL A   1      44.683  26.404  37.029  1.00  0.00     0.059 A 
ATOM     65  C   UNL A   1      46.393  27.737  35.932  1.00  0.00     0.059 A 
ATOM     66  F   UNL A   1      45.766  29.571  34.615  1.00  0.00    -0.206 F 
ATOM     67  C   UNL A   1      46.026  26.668  36.749  1.00  0.00     0.060 A 
BRANCH  67  68
ATOM     68  S   UNL A   1      47.282  25.572  37.440  1.00  0.00     0.124 S 
ATOM     69  O   UNL A   1      46.813  24.266  36.986  1.00  0.00    -0.237 OA
ATOM     70  O   UNL A   1      48.502  26.062  36.808  1.00  0.00    -0.237 OA
ATOM     71  O   UNL A   1      47.187  25.806  38.878  1.00  0.00    -0.744 OA
ENDBRANCH  67  68
ENDBRANCH  46  60
BRANCH  47  72
ATOM     72  C   UNL A   1      36.676  33.124  30.816  1.00  0.00     0.058 A 
ATOM     73  C   UNL A   1      36.838  34.098  29.821  1.00  0.00     0.135 A 
ATOM     74  C   UNL A   1      35.364  32.804  31.205  1.00  0.00     0.135 A 
ATOM     75  F   UNL A   1      38.071  34.446  29.418  1.00  0.00    -0.206 F 
ATOM     76  C   UNL A   1      35.749  34.756  29.258  1.00  0.00     0.059 A 
ATOM     77  C   UNL A   1      34.258  33.425  30.635  1.00  0.00     0.059 A 
ATOM     78  F   UNL A   1      35.149  31.871  32.146  1.00  0.00    -0.206 F 
ATOM     79  C   UNL A   1      34.461  34.414  29.676  1.00  0.00     0.060 A 
BRANCH  79  80
ATOM     80  S   UNL A   1      33.055  35.273  28.937  1.00  0.00     0.124 S 
ATOM     81  O   UNL A   1      32.586  34.289  27.969  1.00  0.00    -0.237 OA
ATOM     82  O   UNL A   1      32.191  35.496  30.092  1.00  0.00    -0.237 OA
ATOM     83  O   UNL A   1      33.657  36.477  28.372  1.00  0.00    -0.744 OA
ENDBRANCH  79  80
ENDBRANCH  47  72
BRANCH  59  84
ATOM     84  C   UNL A   1      39.679  33.812  37.084  1.00  0.00     0.058 A 
ATOM     85  C   UNL A   1      38.827  33.434  38.133  1.00  0.00     0.135 A 
ATOM     86  C   UNL A   1      40.349  35.042  37.191  1.00  0.00     0.135 A 
ATOM     87  F   UNL A   1      38.156  32.272  38.074  1.00  0.00    -0.206 F 
ATOM     88  C   UNL A   1      38.637  34.250  39.241  1.00  0.00     0.059 A 
ATOM     89  C   UNL A   1      40.199  35.858  38.306  1.00  0.00     0.059 A 
ATOM     90  F   UNL A   1      41.183  35.444  36.219  1.00  0.00    -0.206 F 
ATOM     91  C   UNL A   1      39.336  35.458  39.323  1.00  0.00     0.060 A 
BRANCH  91  92
ATOM     92  S   UNL A   1      39.125  36.477  40.797  1.00  0.00     0.124 S 
ATOM     93  O   UNL A   1      38.543  37.691  40.236  1.00  0.00    -0.237 OA
ATOM     94  O   UNL A   1      38.229  35.662  41.613  1.00  0.00    -0.237 OA
ATOM     95  O   UNL A   1      40.483  36.613  41.315  1.00  0.00    -0.744 OA
ENDBRANCH  91  92
ENDBRANCH  59  84
ENDBRANCH  33  34
ENDBRANCH  26  28
ENDBRANCH  25  26
ENDBRANCH  24  25
ENDBRANCH  23  24
ENDBRANCH   1  23
TORSDOF 22
ENDMDL
MODEL 2
REMARK VINA RESULT:     -10.1      7.187     12.393
REMARK SMILES O=C(C[N@@H+](CC(F)(F)F)[C@H]1CCCC[C@H]1O)OCCOCCOC(=O)c1ccc(-c2c3nc(c(-c4c(F)cc(S(=O)(=O)[O-])cc4F)c4ccc([nH]4)c(-c4c(F)cc(S(=O)(=O)[O-])cc4F)c4nc(c(-c5c(F)cc(S(=O)(=O)[O-])cc5F)c5ccc2[nH]5)C=C4)C=C3)cc1
REMARK SMILES IDX 20 1 19 2 18 3 17 4 2 5 1 6 3 7 4 8 5 10 6 11 7 12 8 13 9 14
REMARK SMILES IDX 10 15 11 16 15 17 12 18 14 19 13 20 16 21 21 23 22 24 23 25
REMARK SMILES IDX 24 26 25 27 26 28 27 29 91 30 28 31 90 32 29 33 30 34 31 35
REMARK SMILES IDX 84 36 32 37 89 38 83 39 85 40 33 41 88 42 82 43 81 44 34 46
REMARK SMILES IDX 68 47 47 48 67 49 48 50 51 51 66 52 86 53 49 54 50 55 65 57
REMARK SMILES IDX 87 58 52 59 35 60 36 61 45 62 37 63 38 64 44 65 46 66 39 67
REMARK SMILES IDX 40 68 41 69 42 70 43 71 69 72 70 73 79 74 71 75 72 76 78 77
REMARK SMILES IDX 80 78 73 79 74 80 75 81 76 82 77 83 53 84 54 85 63 86 55 87
REMARK SMILES IDX 56 88 62 89 64 90 57 91 58 92 59 93 60 94 61 95
REMARK H PARENT 4 9 16 22 85 45 51 56
REMARK Flexibility Score: inf
ROOT
ATOM      1  O   UNL A   1      34.438  31.564  28.491  1.00  0.00    -0.374 OA
ENDROOT
BRANCH   1   2
ATOM      2  C   UNL A   1      35.013  30.570  27.644  1.00  0.00     0.202 C 
BRANCH   2   3
ATOM      3  C   UNL A   1      34.080  29.552  26.996  1.00  0.00     0.261 C 
BRANCH   3   4
ATOM      4  O   UNL A   1      33.228  30.169  26.019  1.00  0.00    -0.459 OA
BRANCH   4   5
ATOM      5  C   UNL A   1      32.666  29.494  24.994  1.00  0.00     0.361 C 
ATOM      6  O   UNL A   1      33.323  29.285  23.973  1.00  0.00    -0.245 OA
BRANCH   5   7
ATOM      7  C   UNL A   1      31.196  29.092  25.080  1.00  0.00     0.387 C 
BRANCH   7   8
ATOM      8  N   UNL A   1      30.570  28.834  23.775  1.00  0.00    -0.314 N 
ATOM      9  H   UNL A   1      31.286  29.120  23.107  1.00  0.00     0.349 HD
BRANCH   8  10
ATOM     10  C   UNL A   1      30.315  27.388  23.566  1.00  0.00     0.380 C 
BRANCH  10  11
ATOM     11  C   UNL A   1      31.434  26.503  22.988  1.00  0.00     0.438 C 
ATOM     12  F   UNL A   1      32.091  27.125  21.985  1.00  0.00    -0.165 F 
ATOM     13  F   UNL A   1      32.342  26.198  23.944  1.00  0.00    -0.165 F 
ATOM     14  F   UNL A   1      30.951  25.335  22.505  1.00  0.00    -0.165 F 
ENDBRANCH  10  11
ENDBRANCH   8  10
BRANCH   8  15
ATOM     15  C   UNL A   1      29.475  29.730  23.344  1.00  0.00     0.213 C 
ATOM     16  C   UNL A   1      29.470  31.130  23.989  1.00  0.00     0.068 C 
ATOM     17  C   UNL A   1      29.443  29.796  21.782  1.00  0.00     0.172 C 
ATOM     18  C   UNL A   1      28.397  32.048  23.423  1.00  0.00     0.006 C 
ATOM     19  C   UNL A   1      28.409  30.792  21.253  1.00  0.00     0.038 C 
ATOM     20  C   UNL A   1      28.533  32.163  21.911  1.00  0.00     0.003 C 
BRANCH  17  21
ATOM     21  O   UNL A   1      30.715  30.109  21.215  1.00  0.00    -0.387 OA
ATOM     22  H   UNL A   1      31.057  29.334  20.743  1.00  0.00     0.211 HD
ENDBRANCH  17  21
ENDBRANCH   8  15
ENDBRANCH   7   8
ENDBRANCH   5   7
ENDBRANCH   4   5
ENDBRANCH   3   4
ENDBRANCH   2   3
ENDBRANCH   1   2
BRANCH   1  23
ATOM     23  C   UNL A   1      35.313  32.286  29.366  1.00  0.00     0.202 C 
BRANCH  23  24
ATOM     24  C   UNL A   1      35.394  31.880  30.841  1.00  0.00     0.261 C 
BRANCH  24  25
ATOM     25  O   UNL A   1      36.728  31.558  31.252  1.00  0.00    -0.460 OA
BRANCH  25  26
ATOM     26  C   UNL A   1      37.057  30.248  31.140  1.00  0.00     0.338 C 
ATOM     27  O   UNL A   1      36.314  29.288  31.271  1.00  0.00    -0.246 OA
BRANCH  26  28
ATOM     28  C   UNL A   1      38.417  30.156  30.578  1.00  0.00     0.060 A 
ATOM     29  C   UNL A   1      38.574  30.338  29.195  1.00  0.00     0.016 A 
ATOM     30  C   UNL A   1      39.518  29.910  31.398  1.00  0.00     0.016 A 
ATOM     31  C   UNL A   1      39.835  30.243  28.619  1.00  0.00     0.010 A 
ATOM     32  C   UNL A   1      40.777  29.788  30.816  1.00  0.00     0.010 A 
ATOM     33  C   UNL A   1      40.933  29.925  29.425  1.00  0.00    -0.014 A 
BRANCH  33  34
ATOM     34  C   UNL A   1      42.228  29.569  28.812  1.00  0.00     0.031 A 
ATOM     35  C   UNL A   1      42.409  28.161  28.323  1.00  0.00     0.074 A 
ATOM     36  C   UNL A   1      43.223  30.469  28.748  1.00  0.00     0.049 A 
ATOM     37  N   UNL A   1      43.495  27.563  27.915  1.00  0.00    -0.248 NA
ATOM     38  C   UNL A   1      41.207  27.310  28.303  1.00  0.00     0.031 C 
ATOM     39  C   UNL A   1      43.126  31.868  29.165  1.00  0.00     0.029 A 
ATOM     40  N   UNL A   1      44.526  30.327  28.344  1.00  0.00    -0.354 N 
ATOM     41  C   UNL A   1      43.116  26.258  27.625  1.00  0.00     0.074 A 
ATOM     42  C   UNL A   1      41.701  26.148  27.901  1.00  0.00     0.031 C 
ATOM     43  C   UNL A   1      44.333  32.445  29.036  1.00  0.00     0.029 A 
ATOM     44  C   UNL A   1      45.292  31.445  28.575  1.00  0.00     0.049 A 
ATOM     45  H   UNL A   1      44.877  29.506  27.929  1.00  0.00     0.167 HD
ATOM     46  C   UNL A   1      43.891  25.247  27.176  1.00  0.00     0.037 A 
ATOM     47  C   UNL A   1      46.626  31.615  28.479  1.00  0.00     0.037 A 
ATOM     48  C   UNL A   1      45.295  25.387  26.894  1.00  0.00     0.049 A 
ATOM     49  C   UNL A   1      47.475  30.450  28.028  1.00  0.00     0.074 A 
ATOM     50  C   UNL A   1      46.162  24.445  26.373  1.00  0.00     0.029 A 
ATOM     51  N   UNL A   1      46.037  26.535  27.128  1.00  0.00    -0.354 N 
ATOM     52  N   UNL A   1      47.101  29.237  27.693  1.00  0.00    -0.248 NA
ATOM     53  C   UNL A   1      48.924  30.674  27.946  1.00  0.00     0.031 C 
ATOM     54  C   UNL A   1      47.444  25.001  26.355  1.00  0.00     0.029 A 
ATOM     55  C   UNL A   1      47.363  26.311  26.804  1.00  0.00     0.049 A 
ATOM     56  H   UNL A   1      45.674  27.383  27.472  1.00  0.00     0.167 HD
ATOM     57  C   UNL A   1      48.265  28.562  27.343  1.00  0.00     0.074 A 
ATOM     58  C   UNL A   1      49.352  29.507  27.484  1.00  0.00     0.031 C 
ATOM     59  C   UNL A   1      48.425  27.275  26.945  1.00  0.00     0.037 A 
BRANCH  46  60
ATOM     60  C   UNL A   1      43.267  23.893  26.992  1.00  0.00     0.058 A 
ATOM     61  C   UNL A   1      42.919  23.398  25.727  1.00  0.00     0.135 A 
ATOM     62  C   UNL A   1      43.104  23.041  28.098  1.00  0.00     0.135 A 
ATOM     63  F   UNL A   1      43.031  24.179  24.640  1.00  0.00    -0.206 F 
ATOM     64  C   UNL A   1      42.438  22.104  25.561  1.00  0.00     0.059 A 
ATOM     65  C   UNL A   1      42.649  21.734  27.954  1.00  0.00     0.059 A 
ATOM     66  F   UNL A   1      43.409  23.471  29.332  1.00  0.00    -0.206 F 
ATOM     67  C   UNL A   1      42.320  21.274  26.679  1.00  0.00     0.060 A 
BRANCH  67  68
ATOM     68  S   UNL A   1      41.763  19.575  26.437  1.00  0.00     0.124 S 
ATOM     69  O   UNL A   1      40.318  19.753  26.329  1.00  0.00    -0.237 OA
ATOM     70  O   UNL A   1      42.448  19.197  25.205  1.00  0.00    -0.237 OA
ATOM     71  O   UNL A   1      42.220  18.889  27.641  1.00  0.00    -0.744 OA
ENDBRANCH  67  68
ENDBRANCH  46  60
BRANCH  47  72
ATOM     72  C   UNL A   1      47.252  32.907  28.871  1.00  0.00     0.058 A 
ATOM     73  C   UNL A   1      47.632  33.159  30.196  1.00  0.00     0.135 A 
ATOM     74  C   UNL A   1      47.451  33.932  27.931  1.00  0.00     0.135 A 
ATOM     75  F   UNL A   1      47.456  32.216  31.135  1.00  0.00    -0.206 F 
ATOM     76  C   UNL A   1      48.154  34.390  30.585  1.00  0.00     0.059 A 
ATOM     77  C   UNL A   1      48.000  35.159  28.288  1.00  0.00     0.059 A 
ATOM     78  F   UNL A   1      47.116  33.741  26.645  1.00  0.00    -0.206 F 
ATOM     79  C   UNL A   1      48.331  35.385  29.623  1.00  0.00     0.060 A 
BRANCH  79  80
ATOM     80  S   UNL A   1      49.011  36.976  30.138  1.00  0.00     0.124 S 
ATOM     81  O   UNL A   1      48.885  36.893  31.589  1.00  0.00    -0.237 OA
ATOM     82  O   UNL A   1      50.371  36.914  29.611  1.00  0.00    -0.237 OA
ATOM     83  O   UNL A   1      48.136  37.943  29.483  1.00  0.00    -0.744 OA
ENDBRANCH  79  80
ENDBRANCH  47  72
BRANCH  59  84
ATOM     84  C   UNL A   1      49.818  26.817  26.609  1.00  0.00     0.058 A 
ATOM     85  C   UNL A   1      50.675  26.294  27.589  1.00  0.00     0.135 A 
ATOM     86  C   UNL A   1      50.267  26.824  25.278  1.00  0.00     0.135 A 
ATOM     87  F   UNL A   1      50.297  26.273  28.877  1.00  0.00    -0.206 F 
ATOM     88  C   UNL A   1      51.934  25.805  27.263  1.00  0.00     0.059 A 
ATOM     89  C   UNL A   1      51.509  26.310  24.925  1.00  0.00     0.059 A 
ATOM     90  F   UNL A   1      49.480  27.305  24.302  1.00  0.00    -0.206 F 
ATOM     91  C   UNL A   1      52.339  25.809  25.926  1.00  0.00     0.060 A 
BRANCH  91  92
ATOM     92  S   UNL A   1      53.953  25.116  25.512  1.00  0.00     0.124 S 
ATOM     93  O   UNL A   1      54.487  24.804  26.832  1.00  0.00    -0.237 OA
ATOM     94  O   UNL A   1      53.595  23.968  24.684  1.00  0.00    -0.237 OA
ATOM     95  O   UNL A   1      54.622  26.204  24.805  1.00  0.00    -0.744 OA
ENDBRANCH  91  92
ENDBRANCH  59  84
ENDBRANCH  33  34
ENDBRANCH  26  28
ENDBRANCH  25  26
ENDBRANCH  24  25
ENDBRANCH  23  24
ENDBRANCH   1  23
TORSDOF 22
ENDMDL
MODEL 3
REMARK VINA RESULT:      -9.7      0.794      8.372
REMARK SMILES O=C(C[N@@H+](CC(F)(F)F)[C@H]1CCCC[C@H]1O)OCCOCCOC(=O)c1ccc(-c2c3nc(c(-c4c(F)cc(S(=O)(=O)[O-])cc4F)c4ccc([nH]4)c(-c4c(F)cc(S(=O)(=O)[O-])cc4F)c4nc(c(-c5c(F)cc(S(=O)(=O)[O-])cc5F)c5ccc2[nH]5)C=C4)C=C3)cc1
REMARK SMILES IDX 20 1 19 2 18 3 17 4 2 5 1 6 3 7 4 8 5 10 6 11 7 12 8 13 9 14
REMARK SMILES IDX 10 15 11 16 15 17 12 18 14 19 13 20 16 21 21 23 22 24 23 25
REMARK SMILES IDX 24 26 25 27 26 28 27 29 91 30 28 31 90 32 29 33 30 34 31 35
REMARK SMILES IDX 84 36 32 37 89 38 83 39 85 40 33 41 88 42 82 43 81 44 34 46
REMARK SMILES IDX 68 47 47 48 67 49 48 50 51 51 66 52 86 53 49 54 50 55 65 57
REMARK SMILES IDX 87 58 52 59 35 60 36 61 45 62 37 63 38 64 44 65 46 66 39 67
REMARK SMILES IDX 40 68 41 69 42 70 43 71 69 72 70 73 79 74 71 75 72 76 78 77
REMARK SMILES IDX 80 78 73 79 74 80 75 81 76 82 77 83 53 84 54 85 63 86 55 87
REMARK SMILES IDX 56 88 62 89 64 90 57 91 58 92 59 93 60 94 61 95
REMARK H PARENT 4 9 16 22 85 45 51 56
REMARK Flexibility Score: inf
ROOT
ATOM      1  O   UNL A   1      39.830  21.624  26.042  1.00  0.00    -0.374 OA
ENDROOT
BRANCH   1   2
ATOM      2  C   UNL A   1      38.669  22.450  26.126  1.00  0.00     0.202 C 
BRANCH   2   3
ATOM      3  C   UNL A   1      37.404  21.986  25.412  1.00  0.00     0.261 C 
BRANCH   3   4
ATOM      4  O   UNL A   1      36.242  22.169  26.234  1.00  0.00    -0.459 OA
BRANCH   4   5
ATOM      5  C   UNL A   1      35.093  21.482  26.056  1.00  0.00     0.361 C 
ATOM      6  O   UNL A   1      34.306  21.364  26.996  1.00  0.00    -0.245 OA
BRANCH   5   7
ATOM      7  C   UNL A   1      34.840  20.778  24.726  1.00  0.00     0.387 C 
BRANCH   7   8
ATOM      8  N   UNL A   1      33.520  20.140  24.629  1.00  0.00    -0.314 N 
ATOM      9  H   UNL A   1      33.177  20.156  25.590  1.00  0.00     0.349 HD
BRANCH   8  10
ATOM     10  C   UNL A   1      32.582  20.944  23.807  1.00  0.00     0.380 C 
BRANCH  10  11
ATOM     11  C   UNL A   1      32.968  22.381  23.414  1.00  0.00     0.438 C 
ATOM     12  F   UNL A   1      32.121  22.888  22.490  1.00  0.00    -0.165 F 
ATOM     13  F   UNL A   1      32.931  23.196  24.493  1.00  0.00    -0.165 F 
ATOM     14  F   UNL A   1      34.221  22.443  22.905  1.00  0.00    -0.165 F 
ENDBRANCH  10  11
ENDBRANCH   8  10
BRANCH   8  15
ATOM     15  C   UNL A   1      33.471  18.682  24.385  1.00  0.00     0.213 C 
ATOM     16  C   UNL A   1      34.840  17.979  24.294  1.00  0.00     0.068 C 
ATOM     17  C   UNL A   1      32.528  18.012  25.437  1.00  0.00     0.172 C 
ATOM     18  C   UNL A   1      34.731  16.467  24.163  1.00  0.00     0.006 C 
ATOM     19  C   UNL A   1      32.511  16.485  25.327  1.00  0.00     0.038 C 
ATOM     20  C   UNL A   1      33.914  15.888  25.309  1.00  0.00     0.003 C 
BRANCH  17  21
ATOM     21  O   UNL A   1      32.851  18.372  26.780  1.00  0.00    -0.387 OA
ATOM     22  H   UNL A   1      32.383  17.784  27.393  1.00  0.00     0.211 HD
ENDBRANCH  17  21
ENDBRANCH   8  15
ENDBRANCH   7   8
ENDBRANCH   5   7
ENDBRANCH   4   5
ENDBRANCH   3   4
ENDBRANCH   2   3
ENDBRANCH   1   2
BRANCH   1  23
ATOM     23  C   UNL A   1      41.022  22.074  26.698  1.00  0.00     0.202 C 
BRANCH  23  24
ATOM     24  C   UNL A   1      41.922  23.093  25.992  1.00  0.00     0.261 C 
BRANCH  24  25
ATOM     25  O   UNL A   1      41.434  24.434  26.108  1.00  0.00    -0.460 OA
BRANCH  25  26
ATOM     26  C   UNL A   1      42.384  25.363  26.377  1.00  0.00     0.338 C 
ATOM     27  O   UNL A   1      43.379  25.612  25.716  1.00  0.00    -0.246 OA
BRANCH  26  28
ATOM     28  C   UNL A   1      41.899  26.220  27.475  1.00  0.00     0.060 A 
ATOM     29  C   UNL A   1      42.570  27.429  27.715  1.00  0.00     0.016 A 
ATOM     30  C   UNL A   1      40.798  25.846  28.244  1.00  0.00     0.016 A 
ATOM     31  C   UNL A   1      42.158  28.260  28.750  1.00  0.00     0.010 A 
ATOM     32  C   UNL A   1      40.405  26.666  29.299  1.00  0.00     0.010 A 
ATOM     33  C   UNL A   1      41.100  27.858  29.571  1.00  0.00    -0.014 A 
BRANCH  33  34
ATOM     34  C   UNL A   1      40.809  28.587  30.821  1.00  0.00     0.031 A 
ATOM     35  C   UNL A   1      39.706  29.605  30.800  1.00  0.00     0.074 A 
ATOM     36  C   UNL A   1      41.551  28.377  31.922  1.00  0.00     0.049 A 
ATOM     37  N   UNL A   1      39.380  30.487  31.704  1.00  0.00    -0.248 NA
ATOM     38  C   UNL A   1      38.865  29.640  29.591  1.00  0.00     0.031 C 
ATOM     39  C   UNL A   1      42.619  27.384  32.044  1.00  0.00     0.029 A 
ATOM     40  N   UNL A   1      41.545  29.018  33.134  1.00  0.00    -0.354 N 
ATOM     41  C   UNL A   1      38.323  31.205  31.161  1.00  0.00     0.074 A 
ATOM     42  C   UNL A   1      38.057  30.659  29.850  1.00  0.00     0.031 C 
ATOM     43  C   UNL A   1      43.195  27.512  33.252  1.00  0.00     0.029 A 
ATOM     44  C   UNL A   1      42.568  28.624  33.963  1.00  0.00     0.049 A 
ATOM     45  H   UNL A   1      40.872  29.692  33.386  1.00  0.00     0.167 HD
ATOM     46  C   UNL A   1      37.645  32.235  31.715  1.00  0.00     0.037 A 
ATOM     47  C   UNL A   1      42.982  29.147  35.135  1.00  0.00     0.037 A 
ATOM     48  C   UNL A   1      37.919  32.751  33.029  1.00  0.00     0.049 A 
ATOM     49  C   UNL A   1      42.240  30.332  35.702  1.00  0.00     0.074 A 
ATOM     50  C   UNL A   1      37.250  33.748  33.714  1.00  0.00     0.029 A 
ATOM     51  N   UNL A   1      38.954  32.323  33.847  1.00  0.00    -0.354 N 
ATOM     52  N   UNL A   1      41.200  30.966  35.213  1.00  0.00    -0.248 NA
ATOM     53  C   UNL A   1      42.730  30.878  36.975  1.00  0.00     0.031 C 
ATOM     54  C   UNL A   1      37.923  33.971  34.918  1.00  0.00     0.029 A 
ATOM     55  C   UNL A   1      38.971  33.068  35.012  1.00  0.00     0.049 A 
ATOM     56  H   UNL A   1      39.582  31.596  33.630  1.00  0.00     0.167 HD
ATOM     57  C   UNL A   1      40.900  31.970  36.128  1.00  0.00     0.074 A 
ATOM     58  C   UNL A   1      41.854  31.845  37.210  1.00  0.00     0.031 C 
ATOM     59  C   UNL A   1      39.928  32.914  36.080  1.00  0.00     0.037 A 
BRANCH  46  60
ATOM     60  C   UNL A   1      36.570  32.903  30.905  1.00  0.00     0.058 A 
ATOM     61  C   UNL A   1      35.208  32.754  31.207  1.00  0.00     0.135 A 
ATOM     62  C   UNL A   1      36.919  33.783  29.867  1.00  0.00     0.135 A 
ATOM     63  F   UNL A   1      34.818  31.906  32.173  1.00  0.00    -0.206 F 
ATOM     64  C   UNL A   1      34.230  33.459  30.514  1.00  0.00     0.059 A 
ATOM     65  C   UNL A   1      35.962  34.518  29.177  1.00  0.00     0.059 A 
ATOM     66  F   UNL A   1      38.208  33.951  29.529  1.00  0.00    -0.206 F 
ATOM     67  C   UNL A   1      34.618  34.350  29.509  1.00  0.00     0.060 A 
BRANCH  67  68
ATOM     68  S   UNL A   1      33.341  35.311  28.670  1.00  0.00     0.124 S 
ATOM     69  O   UNL A   1      34.141  36.310  27.968  1.00  0.00    -0.237 OA
ATOM     70  O   UNL A   1      32.702  34.305  27.827  1.00  0.00    -0.237 OA
ATOM     71  O   UNL A   1      32.522  35.821  29.763  1.00  0.00    -0.744 OA
ENDBRANCH  67  68
ENDBRANCH  46  60
BRANCH  47  72
ATOM     72  C   UNL A   1      44.187  28.602  35.820  1.00  0.00     0.058 A 
ATOM     73  C   UNL A   1      44.081  27.584  36.777  1.00  0.00     0.135 A 
ATOM     74  C   UNL A   1      45.468  29.116  35.555  1.00  0.00     0.135 A 
ATOM     75  F   UNL A   1      42.880  27.064  37.074  1.00  0.00    -0.206 F 
ATOM     76  C   UNL A   1      45.193  27.118  37.473  1.00  0.00     0.059 A 
ATOM     77  C   UNL A   1      46.598  28.645  36.213  1.00  0.00     0.059 A 
ATOM     78  F   UNL A   1      45.628  30.085  34.639  1.00  0.00    -0.206 F 
ATOM     79  C   UNL A   1      46.448  27.658  37.185  1.00  0.00     0.060 A 
BRANCH  79  80
ATOM     80  S   UNL A   1      47.883  27.043  38.092  1.00  0.00     0.124 S 
ATOM     81  O   UNL A   1      47.593  25.616  38.168  1.00  0.00    -0.237 OA
ATOM     82  O   UNL A   1      48.986  27.426  37.216  1.00  0.00    -0.237 OA
ATOM     83  O   UNL A   1      47.817  27.769  39.357  1.00  0.00    -0.744 OA
ENDBRANCH  79  80
ENDBRANCH  47  72
BRANCH  59  84
ATOM     84  C   UNL A   1      39.826  33.872  37.235  1.00  0.00     0.058 A 
ATOM     85  C   UNL A   1      40.339  35.175  37.156  1.00  0.00     0.135 A 
ATOM     86  C   UNL A   1      39.134  33.507  38.401  1.00  0.00     0.135 A 
ATOM     87  F   UNL A   1      41.017  35.570  36.065  1.00  0.00    -0.206 F 
ATOM     88  C   UNL A   1      40.181  36.081  38.198  1.00  0.00     0.059 A 
ATOM     89  C   UNL A   1      38.936  34.407  39.443  1.00  0.00     0.059 A 
ATOM     90  F   UNL A   1      38.616  32.275  38.522  1.00  0.00    -0.206 F 
ATOM     91  C   UNL A   1      39.469  35.689  39.335  1.00  0.00     0.060 A 
BRANCH  91  92
ATOM     92  S   UNL A   1      39.220  36.896  40.654  1.00  0.00     0.124 S 
ATOM     93  O   UNL A   1      40.515  36.872  41.323  1.00  0.00    -0.237 OA
ATOM     94  O   UNL A   1      38.913  38.112  39.908  1.00  0.00    -0.237 OA
ATOM     95  O   UNL A   1      38.108  36.340  41.419  1.00  0.00    -0.744 OA
ENDBRANCH  91  92
ENDBRANCH  59  84
ENDBRANCH  33  34
ENDBRANCH  26  28
ENDBRANCH  25  26
ENDBRANCH  24  25
ENDBRANCH  23  24
ENDBRANCH   1  23
TORSDOF 22
ENDMDL
