MODEL 1
REMARK VINA RESULT:     -10.4      0.000      0.000
REMARK SMILES CCC[C@@H](Oc1ccc(-c2ccccc2)cc1)C(=O)OCCOCCOC(=O)c1ccc(-c2c3nc(c(-c4c(F)cc(S(=O)(=O)[O-])cc4F)c4ccc([nH]4)c(-c4c(F)cc(S(=O)(=O)[O-])cc4F)c4nc(c(-c5c(F)cc(S(=O)(=O)[O-])cc5F)c5ccc2[nH]5)C=C4)C=C3)cc1
REMARK SMILES IDX 23 1 22 2 21 3 20 4 18 5 19 6 4 7 3 8 2 9 1 10 5 11 6 12
REMARK SMILES IDX 7 13 17 14 8 15 16 16 9 17 10 18 11 19 15 20 12 21 14 22
REMARK SMILES IDX 13 23 24 24 25 25 26 26 27 27 28 28 29 29 30 30 94 31 31 32
REMARK SMILES IDX 93 33 32 34 33 35 34 36 87 37 35 38 92 39 86 40 88 41 36 42
REMARK SMILES IDX 91 43 85 44 84 45 37 47 71 48 50 49 70 50 51 51 54 52 69 53
REMARK SMILES IDX 89 54 52 55 53 56 68 58 90 59 55 60 38 61 39 62 48 63 40 64
REMARK SMILES IDX 41 65 47 66 49 67 42 68 43 69 44 70 45 71 46 72 72 73 73 74
REMARK SMILES IDX 82 75 74 76 75 77 81 78 83 79 76 80 77 81 78 82 79 83 80 84
REMARK SMILES IDX 56 85 57 86 66 87 58 88 59 89 65 90 67 91 60 92 61 93 62 94
REMARK SMILES IDX 63 95 64 96
REMARK H PARENT 88 46 54 57
REMARK Flexibility Score: inf
ROOT
ATOM      1  O   UNL A   1      34.690  30.405  27.153  1.00  0.00    -0.374 OA
ENDROOT
BRANCH   1   2
ATOM      2  C   UNL A   1      33.410  29.904  26.772  1.00  0.00     0.202 C 
BRANCH   2   3
ATOM      3  C   UNL A   1      33.273  28.385  26.616  1.00  0.00     0.261 C 
BRANCH   3   4
ATOM      4  O   UNL A   1      32.218  28.014  25.709  1.00  0.00    -0.461 OA
BRANCH   4   5
ATOM      5  C   UNL A   1      31.329  27.086  26.168  1.00  0.00     0.347 C 
ATOM      6  O   UNL A   1      30.862  27.064  27.302  1.00  0.00    -0.248 OA
BRANCH   5   7
ATOM      7  C   UNL A   1      30.955  26.055  25.102  1.00  0.00     0.282 C 
BRANCH   7   8
ATOM      8  C   UNL A   1      29.864  26.583  24.144  1.00  0.00     0.057 C 
BRANCH   8   9
ATOM      9  C   UNL A   1      30.301  27.640  23.118  1.00  0.00     0.001 C 
ATOM     10  C   UNL A   1      29.269  28.719  22.834  1.00  0.00     0.004 C 
ENDBRANCH   8   9
ENDBRANCH   7   8
BRANCH   7  11
ATOM     11  O   UNL A   1      32.176  25.750  24.407  1.00  0.00    -0.479 OA
BRANCH  11  12
ATOM     12  C   UNL A   1      32.401  24.405  24.383  1.00  0.00     0.120 A 
ATOM     13  C   UNL A   1      31.452  23.504  24.852  1.00  0.00     0.047 A 
ATOM     14  C   UNL A   1      33.615  23.955  23.888  1.00  0.00     0.047 A 
ATOM     15  C   UNL A   1      31.698  22.130  24.749  1.00  0.00     0.012 A 
ATOM     16  C   UNL A   1      33.833  22.586  23.743  1.00  0.00     0.012 A 
ATOM     17  C   UNL A   1      32.883  21.637  24.167  1.00  0.00    -0.018 A 
BRANCH  17  18
ATOM     18  C   UNL A   1      33.139  20.186  24.003  1.00  0.00    -0.018 A 
ATOM     19  C   UNL A   1      32.307  19.368  23.218  1.00  0.00     0.009 A 
ATOM     20  C   UNL A   1      34.246  19.571  24.617  1.00  0.00     0.009 A 
ATOM     21  C   UNL A   1      32.570  18.002  23.055  1.00  0.00     0.001 A 
ATOM     22  C   UNL A   1      34.521  18.211  24.445  1.00  0.00     0.001 A 
ATOM     23  C   UNL A   1      33.680  17.427  23.666  1.00  0.00     0.000 A 
ENDBRANCH  17  18
ENDBRANCH  11  12
ENDBRANCH   7  11
ENDBRANCH   5   7
ENDBRANCH   4   5
ENDBRANCH   3   4
ENDBRANCH   2   3
ENDBRANCH   1   2
BRANCH   1  24
ATOM     24  C   UNL A   1      34.721  31.517  28.042  1.00  0.00     0.202 C 
BRANCH  24  25
ATOM     25  C   UNL A   1      35.482  31.337  29.365  1.00  0.00     0.261 C 
BRANCH  25  26
ATOM     26  O   UNL A   1      35.960  29.995  29.573  1.00  0.00    -0.460 OA
BRANCH  26  27
ATOM     27  C   UNL A   1      36.819  29.854  30.612  1.00  0.00     0.338 C 
ATOM     28  O   UNL A   1      36.531  29.588  31.774  1.00  0.00    -0.246 OA
BRANCH  27  29
ATOM     29  C   UNL A   1      38.215  29.902  30.145  1.00  0.00     0.060 A 
ATOM     30  C   UNL A   1      38.441  29.883  28.762  1.00  0.00     0.016 A 
ATOM     31  C   UNL A   1      39.286  29.860  31.038  1.00  0.00     0.016 A 
ATOM     32  C   UNL A   1      39.741  29.781  28.265  1.00  0.00     0.010 A 
ATOM     33  C   UNL A   1      40.587  29.746  30.538  1.00  0.00     0.010 A 
ATOM     34  C   UNL A   1      40.820  29.673  29.152  1.00  0.00    -0.014 A 
BRANCH  34  35
ATOM     35  C   UNL A   1      42.174  29.340  28.646  1.00  0.00     0.031 A 
ATOM     36  C   UNL A   1      42.461  27.925  28.219  1.00  0.00     0.074 A 
ATOM     37  C   UNL A   1      43.135  30.276  28.571  1.00  0.00     0.049 A 
ATOM     38  N   UNL A   1      43.594  27.380  27.864  1.00  0.00    -0.248 NA
ATOM     39  C   UNL A   1      41.314  27.003  28.194  1.00  0.00     0.031 C 
ATOM     40  C   UNL A   1      42.965  31.690  28.902  1.00  0.00     0.029 A 
ATOM     41  N   UNL A   1      44.456  30.172  28.208  1.00  0.00    -0.354 N 
ATOM     42  C   UNL A   1      43.304  26.048  27.591  1.00  0.00     0.074 A 
ATOM     43  C   UNL A   1      41.889  25.864  27.836  1.00  0.00     0.031 C 
ATOM     44  C   UNL A   1      44.144  32.318  28.751  1.00  0.00     0.029 A 
ATOM     45  C   UNL A   1      45.159  31.344  28.354  1.00  0.00     0.049 A 
ATOM     46  H   UNL A   1      44.860  29.338  27.877  1.00  0.00     0.167 HD
ATOM     47  C   UNL A   1      44.141  25.069  27.172  1.00  0.00     0.037 A 
ATOM     48  C   UNL A   1      46.478  31.593  28.216  1.00  0.00     0.037 A 
ATOM     49  C   UNL A   1      45.546  25.261  26.926  1.00  0.00     0.049 A 
ATOM     50  C   UNL A   1      47.405  30.473  27.821  1.00  0.00     0.074 A 
ATOM     51  C   UNL A   1      46.477  24.335  26.489  1.00  0.00     0.029 A 
ATOM     52  N   UNL A   1      46.223  26.458  27.099  1.00  0.00    -0.354 N 
ATOM     53  N   UNL A   1      47.119  29.218  27.563  1.00  0.00    -0.248 NA
ATOM     54  C   UNL A   1      48.834  30.796  27.705  1.00  0.00     0.031 C 
ATOM     55  C   UNL A   1      47.727  24.961  26.441  1.00  0.00     0.029 A 
ATOM     56  C   UNL A   1      47.565  26.290  26.799  1.00  0.00     0.049 A 
ATOM     57  H   UNL A   1      45.812  27.304  27.392  1.00  0.00     0.167 HD
ATOM     58  C   UNL A   1      48.325  28.614  27.224  1.00  0.00     0.074 A 
ATOM     59  C   UNL A   1      49.345  29.637  27.310  1.00  0.00     0.031 C 
ATOM     60  C   UNL A   1      48.565  27.327  26.870  1.00  0.00     0.037 A 
BRANCH  47  61
ATOM     61  C   UNL A   1      43.566  23.693  26.985  1.00  0.00     0.058 A 
ATOM     62  C   UNL A   1      43.295  22.851  28.075  1.00  0.00     0.135 A 
ATOM     63  C   UNL A   1      43.253  23.223  25.700  1.00  0.00     0.135 A 
ATOM     64  F   UNL A   1      43.591  23.245  29.324  1.00  0.00    -0.206 F 
ATOM     65  C   UNL A   1      42.755  21.581  27.895  1.00  0.00     0.059 A 
ATOM     66  C   UNL A   1      42.690  21.966  25.498  1.00  0.00     0.059 A 
ATOM     67  F   UNL A   1      43.495  23.988  24.624  1.00  0.00    -0.206 F 
ATOM     68  C   UNL A   1      42.459  21.147  26.601  1.00  0.00     0.060 A 
BRANCH  68  69
ATOM     69  S   UNL A   1      41.761  19.496  26.383  1.00  0.00     0.124 S 
ATOM     70  O   UNL A   1      42.362  19.092  25.116  1.00  0.00    -0.237 OA
ATOM     71  O   UNL A   1      42.241  18.792  27.566  1.00  0.00    -0.237 OA
ATOM     72  O   UNL A   1      40.321  19.739  26.344  1.00  0.00    -0.744 OA
ENDBRANCH  68  69
ENDBRANCH  47  61
BRANCH  48  73
ATOM     73  C   UNL A   1      47.006  32.958  28.481  1.00  0.00     0.058 A 
ATOM     74  C   UNL A   1      47.102  33.909  27.455  1.00  0.00     0.135 A 
ATOM     75  C   UNL A   1      47.422  33.338  29.767  1.00  0.00     0.135 A 
ATOM     76  F   UNL A   1      46.728  33.589  26.207  1.00  0.00    -0.206 F 
ATOM     77  C   UNL A   1      47.600  35.186  27.691  1.00  0.00     0.059 A 
ATOM     78  C   UNL A   1      47.901  34.617  30.032  1.00  0.00     0.059 A 
ATOM     79  F   UNL A   1      47.343  32.466  30.785  1.00  0.00    -0.206 F 
ATOM     80  C   UNL A   1      47.994  35.532  28.985  1.00  0.00     0.060 A 
BRANCH  80  81
ATOM     81  S   UNL A   1      48.594  37.208  29.291  1.00  0.00     0.124 S 
ATOM     82  O   UNL A   1      47.462  37.803  29.991  1.00  0.00    -0.237 OA
ATOM     83  O   UNL A   1      49.786  36.964  30.097  1.00  0.00    -0.237 OA
ATOM     84  O   UNL A   1      48.849  37.723  27.948  1.00  0.00    -0.744 OA
ENDBRANCH  80  81
ENDBRANCH  48  73
BRANCH  60  85
ATOM     85  C   UNL A   1      49.973  26.950  26.499  1.00  0.00     0.058 A 
ATOM     86  C   UNL A   1      50.906  26.542  27.464  1.00  0.00     0.135 A 
ATOM     87  C   UNL A   1      50.360  26.908  25.150  1.00  0.00     0.135 A 
ATOM     88  F   UNL A   1      50.587  26.572  28.768  1.00  0.00    -0.206 F 
ATOM     89  C   UNL A   1      52.178  26.109  27.104  1.00  0.00     0.059 A 
ATOM     90  C   UNL A   1      51.619  26.456  24.766  1.00  0.00     0.059 A 
ATOM     91  F   UNL A   1      49.501  27.279  24.188  1.00  0.00    -0.206 F 
ATOM     92  C   UNL A   1      52.522  26.061  25.751  1.00  0.00     0.060 A 
BRANCH  92  93
ATOM     93  S   UNL A   1      54.151  25.429  25.293  1.00  0.00     0.124 S 
ATOM     94  O   UNL A   1      53.951  23.988  25.406  1.00  0.00    -0.237 OA
ATOM     95  O   UNL A   1      54.316  25.942  23.935  1.00  0.00    -0.237 OA
ATOM     96  O   UNL A   1      55.039  26.021  26.290  1.00  0.00    -0.744 OA
ENDBRANCH  92  93
ENDBRANCH  60  85
ENDBRANCH  34  35
ENDBRANCH  27  29
ENDBRANCH  26  27
ENDBRANCH  25  26
ENDBRANCH  24  25
ENDBRANCH   1  24
TORSDOF 22
ENDMDL
MODEL 2
REMARK VINA RESULT:     -10.2      1.076      2.378
REMARK SMILES CCC[C@@H](Oc1ccc(-c2ccccc2)cc1)C(=O)OCCOCCOC(=O)c1ccc(-c2c3nc(c(-c4c(F)cc(S(=O)(=O)[O-])cc4F)c4ccc([nH]4)c(-c4c(F)cc(S(=O)(=O)[O-])cc4F)c4nc(c(-c5c(F)cc(S(=O)(=O)[O-])cc5F)c5ccc2[nH]5)C=C4)C=C3)cc1
REMARK SMILES IDX 23 1 22 2 21 3 20 4 18 5 19 6 4 7 3 8 2 9 1 10 5 11 6 12
REMARK SMILES IDX 7 13 17 14 8 15 16 16 9 17 10 18 11 19 15 20 12 21 14 22
REMARK SMILES IDX 13 23 24 24 25 25 26 26 27 27 28 28 29 29 30 30 94 31 31 32
REMARK SMILES IDX 93 33 32 34 33 35 34 36 87 37 35 38 92 39 86 40 88 41 36 42
REMARK SMILES IDX 91 43 85 44 84 45 37 47 71 48 50 49 70 50 51 51 54 52 69 53
REMARK SMILES IDX 89 54 52 55 53 56 68 58 90 59 55 60 38 61 39 62 48 63 40 64
REMARK SMILES IDX 41 65 47 66 49 67 42 68 43 69 44 70 45 71 46 72 72 73 73 74
REMARK SMILES IDX 82 75 74 76 75 77 81 78 83 79 76 80 77 81 78 82 79 83 80 84
REMARK SMILES IDX 56 85 57 86 66 87 58 88 59 89 65 90 67 91 60 92 61 93 62 94
REMARK SMILES IDX 63 95 64 96
REMARK H PARENT 88 46 54 57
REMARK Flexibility Score: inf
ROOT
ATOM      1  O   UNL A   1      32.816  30.433  27.223  1.00  0.00    -0.374 OA
ENDROOT
BRANCH   1   2
ATOM      2  C   UNL A   1      32.144  29.242  26.815  1.00  0.00     0.202 C 
BRANCH   2   3
ATOM      3  C   UNL A   1      32.301  28.819  25.350  1.00  0.00     0.261 C 
BRANCH   3   4
ATOM      4  O   UNL A   1      33.004  27.571  25.206  1.00  0.00    -0.461 OA
BRANCH   4   5
ATOM      5  C   UNL A   1      32.654  26.803  24.133  1.00  0.00     0.347 C 
ATOM      6  O   UNL A   1      32.123  27.228  23.112  1.00  0.00    -0.248 OA
BRANCH   5   7
ATOM      7  C   UNL A   1      33.006  25.328  24.327  1.00  0.00     0.282 C 
BRANCH   7   8
ATOM      8  C   UNL A   1      33.869  25.099  25.588  1.00  0.00     0.057 C 
BRANCH   8   9
ATOM      9  C   UNL A   1      35.231  24.420  25.377  1.00  0.00     0.001 C 
ATOM     10  C   UNL A   1      35.291  22.962  25.803  1.00  0.00     0.004 C 
ENDBRANCH   8   9
ENDBRANCH   7   8
BRANCH   7  11
ATOM     11  O   UNL A   1      31.750  24.634  24.404  1.00  0.00    -0.479 OA
BRANCH  11  12
ATOM     12  C   UNL A   1      31.933  23.283  24.336  1.00  0.00     0.120 A 
ATOM     13  C   UNL A   1      32.489  22.685  23.211  1.00  0.00     0.047 A 
ATOM     14  C   UNL A   1      31.535  22.514  25.418  1.00  0.00     0.047 A 
ATOM     15  C   UNL A   1      32.718  21.304  23.209  1.00  0.00     0.012 A 
ATOM     16  C   UNL A   1      31.811  21.148  25.430  1.00  0.00     0.012 A 
ATOM     17  C   UNL A   1      32.410  20.506  24.329  1.00  0.00    -0.018 A 
BRANCH  17  18
ATOM     18  C   UNL A   1      32.692  19.051  24.365  1.00  0.00    -0.018 A 
ATOM     19  C   UNL A   1      33.000  18.325  23.201  1.00  0.00     0.009 A 
ATOM     20  C   UNL A   1      32.682  18.340  25.579  1.00  0.00     0.009 A 
ATOM     21  C   UNL A   1      33.284  16.954  23.250  1.00  0.00     0.001 A 
ATOM     22  C   UNL A   1      32.980  16.976  25.636  1.00  0.00     0.001 A 
ATOM     23  C   UNL A   1      33.278  16.282  24.469  1.00  0.00     0.000 A 
ENDBRANCH  17  18
ENDBRANCH  11  12
ENDBRANCH   7  11
ENDBRANCH   5   7
ENDBRANCH   4   5
ENDBRANCH   3   4
ENDBRANCH   2   3
ENDBRANCH   1   2
BRANCH   1  24
ATOM     24  C   UNL A   1      34.239  30.413  27.234  1.00  0.00     0.202 C 
BRANCH  24  25
ATOM     25  C   UNL A   1      34.944  31.174  28.369  1.00  0.00     0.261 C 
BRANCH  25  26
ATOM     26  O   UNL A   1      35.726  30.325  29.228  1.00  0.00    -0.460 OA
BRANCH  26  27
ATOM     27  C   UNL A   1      36.790  30.933  29.809  1.00  0.00     0.338 C 
ATOM     28  O   UNL A   1      36.759  31.824  30.651  1.00  0.00    -0.246 OA
BRANCH  27  29
ATOM     29  C   UNL A   1      38.046  30.270  29.419  1.00  0.00     0.060 A 
ATOM     30  C   UNL A   1      39.059  30.172  30.383  1.00  0.00     0.016 A 
ATOM     31  C   UNL A   1      38.271  29.846  28.110  1.00  0.00     0.016 A 
ATOM     32  C   UNL A   1      40.318  29.685  30.030  1.00  0.00     0.010 A 
ATOM     33  C   UNL A   1      39.538  29.370  27.754  1.00  0.00     0.010 A 
ATOM     34  C   UNL A   1      40.576  29.317  28.703  1.00  0.00    -0.014 A 
BRANCH  34  35
ATOM     35  C   UNL A   1      41.962  29.015  28.267  1.00  0.00     0.031 A 
ATOM     36  C   UNL A   1      42.311  27.601  27.888  1.00  0.00     0.074 A 
ATOM     37  C   UNL A   1      42.897  29.979  28.215  1.00  0.00     0.049 A 
ATOM     38  N   UNL A   1      43.475  27.083  27.599  1.00  0.00    -0.248 NA
ATOM     39  C   UNL A   1      41.195  26.643  27.833  1.00  0.00     0.031 C 
ATOM     40  C   UNL A   1      42.668  31.394  28.503  1.00  0.00     0.029 A 
ATOM     41  N   UNL A   1      44.235  29.908  27.916  1.00  0.00    -0.354 N 
ATOM     42  C   UNL A   1      43.239  25.737  27.344  1.00  0.00     0.074 A 
ATOM     43  C   UNL A   1      41.820  25.515  27.529  1.00  0.00     0.031 C 
ATOM     44  C   UNL A   1      43.834  32.055  28.392  1.00  0.00     0.029 A 
ATOM     45  C   UNL A   1      44.895  31.105  28.065  1.00  0.00     0.049 A 
ATOM     46  H   UNL A   1      44.679  29.080  27.624  1.00  0.00     0.167 HD
ATOM     47  C   UNL A   1      44.124  24.776  26.988  1.00  0.00     0.037 A 
ATOM     48  C   UNL A   1      46.211  31.392  27.982  1.00  0.00     0.037 A 
ATOM     49  C   UNL A   1      45.532  25.006  26.802  1.00  0.00     0.049 A 
ATOM     50  C   UNL A   1      47.189  30.292  27.657  1.00  0.00     0.074 A 
ATOM     51  C   UNL A   1      46.510  24.100  26.431  1.00  0.00     0.029 A 
ATOM     52  N   UNL A   1      46.164  26.228  26.978  1.00  0.00    -0.354 N 
ATOM     53  N   UNL A   1      46.953  29.024  27.417  1.00  0.00    -0.248 NA
ATOM     54  C   UNL A   1      48.612  30.658  27.599  1.00  0.00     0.031 C 
ATOM     55  C   UNL A   1      47.741  24.764  26.425  1.00  0.00     0.029 A 
ATOM     56  C   UNL A   1      47.523  26.095  26.744  1.00  0.00     0.049 A 
ATOM     57  H   UNL A   1      45.714  27.066  27.232  1.00  0.00     0.167 HD
ATOM     58  C   UNL A   1      48.192  28.450  27.148  1.00  0.00     0.074 A 
ATOM     59  C   UNL A   1      49.175  29.507  27.255  1.00  0.00     0.031 C 
ATOM     60  C   UNL A   1      48.487  27.164  26.836  1.00  0.00     0.037 A 
BRANCH  47  61
ATOM     61  C   UNL A   1      43.600  23.378  26.808  1.00  0.00     0.058 A 
ATOM     62  C   UNL A   1      43.424  22.813  25.536  1.00  0.00     0.135 A 
ATOM     63  C   UNL A   1      43.299  22.584  27.926  1.00  0.00     0.135 A 
ATOM     64  F   UNL A   1      43.681  23.535  24.434  1.00  0.00    -0.206 F 
ATOM     65  C   UNL A   1      42.946  21.517  25.377  1.00  0.00     0.059 A 
ATOM     66  C   UNL A   1      42.842  21.277  27.792  1.00  0.00     0.059 A 
ATOM     67  F   UNL A   1      43.447  23.078  29.165  1.00  0.00    -0.206 F 
ATOM     68  C   UNL A   1      42.654  20.757  26.512  1.00  0.00     0.060 A 
BRANCH  68  69
ATOM     69  S   UNL A   1      42.033  19.076  26.292  1.00  0.00     0.124 S 
ATOM     70  O   UNL A   1      42.057  18.575  27.663  1.00  0.00    -0.237 OA
ATOM     71  O   UNL A   1      40.709  19.302  25.722  1.00  0.00    -0.237 OA
ATOM     72  O   UNL A   1      43.006  18.470  25.386  1.00  0.00    -0.744 OA
ENDBRANCH  68  69
ENDBRANCH  47  61
BRANCH  48  73
ATOM     73  C   UNL A   1      46.685  32.778  28.238  1.00  0.00     0.058 A 
ATOM     74  C   UNL A   1      47.114  33.173  29.514  1.00  0.00     0.135 A 
ATOM     75  C   UNL A   1      46.721  33.734  27.211  1.00  0.00     0.135 A 
ATOM     76  F   UNL A   1      47.085  32.298  30.531  1.00  0.00    -0.206 F 
ATOM     77  C   UNL A   1      47.553  34.468  29.765  1.00  0.00     0.059 A 
ATOM     78  C   UNL A   1      47.179  35.029  27.432  1.00  0.00     0.059 A 
ATOM     79  F   UNL A   1      46.329  33.404  25.970  1.00  0.00    -0.206 F 
ATOM     80  C   UNL A   1      47.586  35.389  28.716  1.00  0.00     0.060 A 
BRANCH  80  81
ATOM     81  S   UNL A   1      48.204  37.055  29.042  1.00  0.00     0.124 S 
ATOM     82  O   UNL A   1      49.631  36.894  28.789  1.00  0.00    -0.237 OA
ATOM     83  O   UNL A   1      47.468  37.851  28.065  1.00  0.00    -0.237 OA
ATOM     84  O   UNL A   1      47.830  37.284  30.435  1.00  0.00    -0.744 OA
ENDBRANCH  80  81
ENDBRANCH  48  73
BRANCH  60  85
ATOM     85  C   UNL A   1      49.921  26.822  26.540  1.00  0.00     0.058 A 
ATOM     86  C   UNL A   1      50.463  26.965  25.254  1.00  0.00     0.135 A 
ATOM     87  C   UNL A   1      50.784  26.436  27.578  1.00  0.00     0.135 A 
ATOM     88  F   UNL A   1      49.679  27.324  24.225  1.00  0.00    -0.206 F 
ATOM     89  C   UNL A   1      51.813  26.734  25.007  1.00  0.00     0.059 A 
ATOM     90  C   UNL A   1      52.141  26.222  27.358  1.00  0.00     0.059 A 
ATOM     91  F   UNL A   1      50.316  26.294  28.828  1.00  0.00    -0.206 F 
ATOM     92  C   UNL A   1      52.646  26.371  26.068  1.00  0.00     0.060 A 
BRANCH  92  93
ATOM     93  S   UNL A   1      54.408  26.142  25.747  1.00  0.00     0.124 S 
ATOM     94  O   UNL A   1      54.770  25.166  26.769  1.00  0.00    -0.237 OA
ATOM     95  O   UNL A   1      54.416  25.652  24.371  1.00  0.00    -0.237 OA
ATOM     96  O   UNL A   1      54.964  27.480  25.931  1.00  0.00    -0.744 OA
ENDBRANCH  92  93
ENDBRANCH  60  85
ENDBRANCH  34  35
ENDBRANCH  27  29
ENDBRANCH  26  27
ENDBRANCH  25  26
ENDBRANCH  24  25
ENDBRANCH   1  24
TORSDOF 22
ENDMDL
MODEL 3
REMARK VINA RESULT:     -10.1      1.089      8.334
REMARK SMILES CCC[C@@H](Oc1ccc(-c2ccccc2)cc1)C(=O)OCCOCCOC(=O)c1ccc(-c2c3nc(c(-c4c(F)cc(S(=O)(=O)[O-])cc4F)c4ccc([nH]4)c(-c4c(F)cc(S(=O)(=O)[O-])cc4F)c4nc(c(-c5c(F)cc(S(=O)(=O)[O-])cc5F)c5ccc2[nH]5)C=C4)C=C3)cc1
REMARK SMILES IDX 23 1 22 2 21 3 20 4 18 5 19 6 4 7 3 8 2 9 1 10 5 11 6 12
REMARK SMILES IDX 7 13 17 14 8 15 16 16 9 17 10 18 11 19 15 20 12 21 14 22
REMARK SMILES IDX 13 23 24 24 25 25 26 26 27 27 28 28 29 29 30 30 94 31 31 32
REMARK SMILES IDX 93 33 32 34 33 35 34 36 87 37 35 38 92 39 86 40 88 41 36 42
REMARK SMILES IDX 91 43 85 44 84 45 37 47 71 48 50 49 70 50 51 51 54 52 69 53
REMARK SMILES IDX 89 54 52 55 53 56 68 58 90 59 55 60 38 61 39 62 48 63 40 64
REMARK SMILES IDX 41 65 47 66 49 67 42 68 43 69 44 70 45 71 46 72 72 73 73 74
REMARK SMILES IDX 82 75 74 76 75 77 81 78 83 79 76 80 77 81 78 82 79 83 80 84
REMARK SMILES IDX 56 85 57 86 66 87 58 88 59 89 65 90 67 91 60 92 61 93 62 94
REMARK SMILES IDX 63 95 64 96
REMARK H PARENT 88 46 54 57
REMARK Flexibility Score: inf
ROOT
ATOM      1  O   UNL A   1      33.228  30.637  27.228  1.00  0.00    -0.374 OA
ENDROOT
BRANCH   1   2
ATOM      2  C   UNL A   1      32.575  29.433  26.831  1.00  0.00     0.202 C 
BRANCH   2   3
ATOM      3  C   UNL A   1      33.463  28.295  26.313  1.00  0.00     0.261 C 
BRANCH   3   4
ATOM      4  O   UNL A   1      32.955  26.994  26.662  1.00  0.00    -0.461 OA
BRANCH   4   5
ATOM      5  C   UNL A   1      32.161  26.388  25.732  1.00  0.00     0.347 C 
ATOM      6  O   UNL A   1      31.056  26.794  25.383  1.00  0.00    -0.248 OA
BRANCH   5   7
ATOM      7  C   UNL A   1      32.801  25.130  25.144  1.00  0.00     0.282 C 
BRANCH   7   8
ATOM      8  C   UNL A   1      33.980  25.464  24.205  1.00  0.00     0.057 C 
BRANCH   8   9
ATOM      9  C   UNL A   1      33.655  25.591  22.708  1.00  0.00     0.001 C 
ATOM     10  C   UNL A   1      33.273  26.990  22.254  1.00  0.00     0.004 C 
ENDBRANCH   8   9
ENDBRANCH   7   8
BRANCH   7  11
ATOM     11  O   UNL A   1      33.219  24.342  26.271  1.00  0.00    -0.479 OA
BRANCH  11  12
ATOM     12  C   UNL A   1      33.325  23.024  25.932  1.00  0.00     0.120 A 
ATOM     13  C   UNL A   1      34.544  22.359  25.990  1.00  0.00     0.047 A 
ATOM     14  C   UNL A   1      32.182  22.363  25.512  1.00  0.00     0.047 A 
ATOM     15  C   UNL A   1      34.595  20.991  25.696  1.00  0.00     0.012 A 
ATOM     16  C   UNL A   1      32.230  20.992  25.269  1.00  0.00     0.012 A 
ATOM     17  C   UNL A   1      33.434  20.269  25.355  1.00  0.00    -0.018 A 
BRANCH  17  18
ATOM     18  C   UNL A   1      33.460  18.810  25.090  1.00  0.00    -0.018 A 
ATOM     19  C   UNL A   1      34.419  18.225  24.244  1.00  0.00     0.009 A 
ATOM     20  C   UNL A   1      32.530  17.946  25.697  1.00  0.00     0.009 A 
ATOM     21  C   UNL A   1      34.445  16.843  24.016  1.00  0.00     0.001 A 
ATOM     22  C   UNL A   1      32.561  16.565  25.486  1.00  0.00     0.001 A 
ATOM     23  C   UNL A   1      33.519  16.014  24.642  1.00  0.00     0.000 A 
ENDBRANCH  17  18
ENDBRANCH  11  12
ENDBRANCH   7  11
ENDBRANCH   5   7
ENDBRANCH   4   5
ENDBRANCH   3   4
ENDBRANCH   2   3
ENDBRANCH   1   2
BRANCH   1  24
ATOM     24  C   UNL A   1      34.598  30.548  27.605  1.00  0.00     0.202 C 
BRANCH  24  25
ATOM     25  C   UNL A   1      35.258  31.821  28.159  1.00  0.00     0.261 C 
BRANCH  25  26
ATOM     26  O   UNL A   1      36.076  31.584  29.320  1.00  0.00    -0.460 OA
BRANCH  26  27
ATOM     27  C   UNL A   1      36.482  30.300  29.474  1.00  0.00     0.338 C 
ATOM     28  O   UNL A   1      35.772  29.326  29.702  1.00  0.00    -0.246 OA
BRANCH  27  29
ATOM     29  C   UNL A   1      37.916  30.167  29.168  1.00  0.00     0.060 A 
ATOM     30  C   UNL A   1      38.273  29.761  27.874  1.00  0.00     0.016 A 
ATOM     31  C   UNL A   1      38.891  30.332  30.152  1.00  0.00     0.016 A 
ATOM     32  C   UNL A   1      39.605  29.480  27.570  1.00  0.00     0.010 A 
ATOM     33  C   UNL A   1      40.224  30.038  29.848  1.00  0.00     0.010 A 
ATOM     34  C   UNL A   1      40.584  29.580  28.567  1.00  0.00    -0.014 A 
BRANCH  34  35
ATOM     35  C   UNL A   1      41.956  29.071  28.321  1.00  0.00     0.031 A 
ATOM     36  C   UNL A   1      43.101  30.048  28.310  1.00  0.00     0.074 A 
ATOM     37  C   UNL A   1      42.181  27.763  28.105  1.00  0.00     0.049 A 
ATOM     38  N   UNL A   1      44.354  29.852  27.997  1.00  0.00    -0.248 NA
ATOM     39  C   UNL A   1      42.785  31.431  28.701  1.00  0.00     0.031 C 
ATOM     40  C   UNL A   1      41.164  26.714  28.145  1.00  0.00     0.029 A 
ATOM     41  N   UNL A   1      43.340  27.098  27.790  1.00  0.00    -0.354 N 
ATOM     42  C   UNL A   1      44.976  31.088  28.135  1.00  0.00     0.074 A 
ATOM     43  C   UNL A   1      43.957  32.030  28.545  1.00  0.00     0.031 C 
ATOM     44  C   UNL A   1      41.740  25.537  27.840  1.00  0.00     0.029 A 
ATOM     45  C   UNL A   1      43.154  25.758  27.544  1.00  0.00     0.049 A 
ATOM     46  H   UNL A   1      44.219  27.538  27.744  1.00  0.00     0.167 HD
ATOM     47  C   UNL A   1      46.278  31.406  27.939  1.00  0.00     0.037 A 
ATOM     48  C   UNL A   1      44.020  24.825  27.096  1.00  0.00     0.037 A 
ATOM     49  C   UNL A   1      47.286  30.462  27.536  1.00  0.00     0.049 A 
ATOM     50  C   UNL A   1      45.448  25.216  26.813  1.00  0.00     0.074 A 
ATOM     51  C   UNL A   1      48.635  30.683  27.321  1.00  0.00     0.029 A 
ATOM     52  N   UNL A   1      47.056  29.118  27.281  1.00  0.00    -0.354 N 
ATOM     53  N   UNL A   1      46.024  26.387  26.949  1.00  0.00    -0.248 NA
ATOM     54  C   UNL A   1      46.342  24.164  26.308  1.00  0.00     0.031 C 
ATOM     55  C   UNL A   1      49.212  29.483  26.894  1.00  0.00     0.029 A 
ATOM     56  C   UNL A   1      48.233  28.502  26.892  1.00  0.00     0.049 A 
ATOM     57  H   UNL A   1      46.184  28.668  27.366  1.00  0.00     0.167 HD
ATOM     58  C   UNL A   1      47.353  26.204  26.578  1.00  0.00     0.074 A 
ATOM     59  C   UNL A   1      47.497  24.811  26.211  1.00  0.00     0.031 C 
ATOM     60  C   UNL A   1      48.363  27.107  26.548  1.00  0.00     0.037 A 
BRANCH  47  61
ATOM     61  C   UNL A   1      46.680  32.843  28.126  1.00  0.00     0.058 A 
ATOM     62  C   UNL A   1      46.526  33.792  27.104  1.00  0.00     0.135 A 
ATOM     63  C   UNL A   1      47.198  33.280  29.355  1.00  0.00     0.135 A 
ATOM     64  F   UNL A   1      46.051  33.423  25.904  1.00  0.00    -0.206 F 
ATOM     65  C   UNL A   1      46.893  35.121  27.287  1.00  0.00     0.059 A 
ATOM     66  C   UNL A   1      47.549  34.610  29.568  1.00  0.00     0.059 A 
ATOM     67  F   UNL A   1      47.367  32.412  30.365  1.00  0.00    -0.206 F 
ATOM     68  C   UNL A   1      47.407  35.520  28.523  1.00  0.00     0.060 A 
BRANCH  68  69
ATOM     69  S   UNL A   1      47.880  37.248  28.745  1.00  0.00     0.124 S 
ATOM     70  O   UNL A   1      46.731  37.940  28.171  1.00  0.00    -0.237 OA
ATOM     71  O   UNL A   1      48.024  37.351  30.193  1.00  0.00    -0.237 OA
ATOM     72  O   UNL A   1      49.123  37.360  27.985  1.00  0.00    -0.744 OA
ENDBRANCH  68  69
ENDBRANCH  47  61
BRANCH  48  73
ATOM     73  C   UNL A   1      43.553  23.433  26.861  1.00  0.00     0.058 A 
ATOM     74  C   UNL A   1      43.307  22.561  27.931  1.00  0.00     0.135 A 
ATOM     75  C   UNL A   1      43.341  22.949  25.560  1.00  0.00     0.135 A 
ATOM     76  F   UNL A   1      43.507  22.975  29.192  1.00  0.00    -0.206 F 
ATOM     77  C   UNL A   1      42.876  21.255  27.722  1.00  0.00     0.059 A 
ATOM     78  C   UNL A   1      42.888  21.654  25.327  1.00  0.00     0.059 A 
ATOM     79  F   UNL A   1      43.556  23.746  24.502  1.00  0.00    -0.206 F 
ATOM     80  C   UNL A   1      42.665  20.812  26.415  1.00  0.00     0.060 A 
BRANCH  80  81
ATOM     81  S   UNL A   1      42.059  19.130  26.156  1.00  0.00     0.124 S 
ATOM     82  O   UNL A   1      42.930  18.665  25.083  1.00  0.00    -0.237 OA
ATOM     83  O   UNL A   1      42.277  18.521  27.464  1.00  0.00    -0.237 OA
ATOM     84  O   UNL A   1      40.659  19.331  25.792  1.00  0.00    -0.744 OA
ENDBRANCH  80  81
ENDBRANCH  48  73
BRANCH  60  85
ATOM     85  C   UNL A   1      49.730  26.622  26.152  1.00  0.00     0.058 A 
ATOM     86  C   UNL A   1      50.221  26.782  24.848  1.00  0.00     0.135 A 
ATOM     87  C   UNL A   1      50.592  26.075  27.116  1.00  0.00     0.135 A 
ATOM     88  F   UNL A   1      49.433  27.293  23.887  1.00  0.00    -0.206 F 
ATOM     89  C   UNL A   1      51.519  26.412  24.511  1.00  0.00     0.059 A 
ATOM     90  C   UNL A   1      51.902  25.720  26.807  1.00  0.00     0.059 A 
ATOM     91  F   UNL A   1      50.174  25.909  28.381  1.00  0.00    -0.206 F 
ATOM     92  C   UNL A   1      52.355  25.890  25.501  1.00  0.00     0.060 A 
BRANCH  92  93
ATOM     93  S   UNL A   1      54.060  25.481  25.067  1.00  0.00     0.124 S 
ATOM     94  O   UNL A   1      54.143  25.974  23.696  1.00  0.00    -0.237 OA
ATOM     95  O   UNL A   1      54.825  26.233  26.059  1.00  0.00    -0.237 OA
ATOM     96  O   UNL A   1      54.110  24.029  25.217  1.00  0.00    -0.744 OA
ENDBRANCH  92  93
ENDBRANCH  60  85
ENDBRANCH  34  35
ENDBRANCH  27  29
ENDBRANCH  26  27
ENDBRANCH  25  26
ENDBRANCH  24  25
ENDBRANCH   1  24
TORSDOF 22
ENDMDL
