MODEL 1
REMARK VINA RESULT:     -11.3      0.000      0.000
REMARK SMILES O=C(OCCOCCOC(=O)c1ccc(-c2c3nc(c(-c4c(F)cc(S(=O)(=O)[O-])cc4F)c4ccc([nH]4)c(-c4c(F)cc(S(=O)(=O)[O-])cc4F)c4nc(c(-c5c(F)cc(S(=O)(=O)[O-])cc5F)c5ccc2[nH]5)C=C4)C=C3)cc1)C1=Cc2c(cc(Cl)c(Cl)c2Cl)O[C@H]1C(F)(F)F
REMARK SMILES IDX 7 1 6 2 5 3 4 4 3 5 2 6 1 7 78 8 79 9 90 10 80 11 89 12
REMARK SMILES IDX 81 13 87 14 82 15 85 16 88 17 83 18 86 19 84 20 91 21 92 22
REMARK SMILES IDX 93 23 94 24 8 25 9 26 10 27 11 28 12 29 13 30 77 31 14 32
REMARK SMILES IDX 76 33 15 34 16 35 17 36 70 37 18 38 75 39 69 40 71 41 19 42
REMARK SMILES IDX 74 43 68 44 67 45 20 47 54 48 33 49 53 50 34 51 37 52 52 53
REMARK SMILES IDX 72 54 35 55 36 56 51 58 73 59 38 60 21 61 22 62 31 63 23 64
REMARK SMILES IDX 24 65 30 66 32 67 25 68 26 69 27 70 28 71 29 72 55 73 56 74
REMARK SMILES IDX 65 75 57 76 58 77 64 78 66 79 59 80 60 81 61 82 62 83 63 84
REMARK SMILES IDX 39 85 40 86 49 87 41 88 42 89 48 90 50 91 43 92 44 93 45 94
REMARK SMILES IDX 46 95 47 96
REMARK H PARENT 71 46 37 57
REMARK Flexibility Score: inf
ROOT
ATOM      1  C   UNL A   1      32.975  29.326  25.054  1.00  0.00     0.202 C 
ENDROOT
BRANCH   1   2
ATOM      2  O   UNL A   1      31.943  29.332  24.070  1.00  0.00    -0.374 OA
BRANCH   2   3
ATOM      3  C   UNL A   1      32.392  28.916  22.781  1.00  0.00     0.202 C 
BRANCH   3   4
ATOM      4  C   UNL A   1      33.884  28.585  22.798  1.00  0.00     0.261 C 
BRANCH   4   5
ATOM      5  O   UNL A   1      34.203  27.399  22.041  1.00  0.00    -0.460 OA
BRANCH   5   6
ATOM      6  C   UNL A   1      33.471  26.279  21.861  1.00  0.00     0.338 C 
ATOM      7  O   UNL A   1      33.178  25.944  20.714  1.00  0.00    -0.246 OA
BRANCH   6   8
ATOM      8  C   UNL A   1      33.241  25.301  22.956  1.00  0.00     0.087 C 
ATOM      9  C   UNL A   1      34.044  24.970  23.972  1.00  0.00     0.029 C 
ATOM     10  C   UNL A   1      31.864  24.657  22.921  1.00  0.00     0.316 C 
ATOM     11  C   UNL A   1      34.085  23.536  24.261  1.00  0.00     0.038 A 
ATOM     12  O   UNL A   1      31.719  23.482  23.787  1.00  0.00    -0.475 OA
ATOM     13  C   UNL A   1      32.876  22.856  24.159  1.00  0.00     0.131 A 
ATOM     14  C   UNL A   1      35.273  22.801  24.497  1.00  0.00     0.072 A 
ATOM     15  C   UNL A   1      32.810  21.493  24.421  1.00  0.00     0.069 A 
ATOM     16  C   UNL A   1      35.223  21.410  24.696  1.00  0.00     0.079 A 
ATOM     17  Cl  UNL A   1      36.810  23.602  24.434  1.00  0.00    -0.082 Cl
ATOM     18  C   UNL A   1      33.977  20.769  24.681  1.00  0.00     0.064 A 
ATOM     19  Cl  UNL A   1      36.680  20.489  24.928  1.00  0.00    -0.081 Cl
ATOM     20  Cl  UNL A   1      33.804  19.068  24.942  1.00  0.00    -0.083 Cl
BRANCH  10  21
ATOM     21  C   UNL A   1      30.753  25.680  23.317  1.00  0.00     0.430 C 
ATOM     22  F   UNL A   1      30.482  26.609  22.371  1.00  0.00    -0.167 F 
ATOM     23  F   UNL A   1      29.589  25.046  23.603  1.00  0.00    -0.167 F 
ATOM     24  F   UNL A   1      31.094  26.384  24.429  1.00  0.00    -0.167 F 
ENDBRANCH  10  21
ENDBRANCH   6   8
ENDBRANCH   5   6
ENDBRANCH   4   5
ENDBRANCH   3   4
ENDBRANCH   2   3
ENDBRANCH   1   2
BRANCH   1  25
ATOM     25  C   UNL A   1      32.542  29.991  26.362  1.00  0.00     0.261 C 
BRANCH  25  26
ATOM     26  O   UNL A   1      33.425  29.638  27.443  1.00  0.00    -0.460 OA
BRANCH  26  27
ATOM     27  C   UNL A   1      34.123  30.665  28.010  1.00  0.00     0.338 C 
ATOM     28  O   UNL A   1      33.674  31.731  28.356  1.00  0.00    -0.246 OA
BRANCH  27  29
ATOM     29  C   UNL A   1      35.539  30.252  28.257  1.00  0.00     0.060 A 
ATOM     30  C   UNL A   1      35.916  29.932  29.571  1.00  0.00     0.016 A 
ATOM     31  C   UNL A   1      36.482  30.140  27.230  1.00  0.00     0.016 A 
ATOM     32  C   UNL A   1      37.216  29.486  29.854  1.00  0.00     0.010 A 
ATOM     33  C   UNL A   1      37.781  29.703  27.515  1.00  0.00     0.010 A 
ATOM     34  C   UNL A   1      38.160  29.374  28.826  1.00  0.00    -0.014 A 
BRANCH  34  35
ATOM     35  C   UNL A   1      39.578  29.026  29.102  1.00  0.00     0.031 A 
ATOM     36  C   UNL A   1      40.512  30.108  29.566  1.00  0.00     0.074 A 
ATOM     37  C   UNL A   1      40.056  27.789  28.862  1.00  0.00     0.049 A 
ATOM     38  N   UNL A   1      41.809  30.071  29.720  1.00  0.00    -0.248 NA
ATOM     39  C   UNL A   1      39.902  31.408  29.892  1.00  0.00     0.031 C 
ATOM     40  C   UNL A   1      39.259  26.642  28.434  1.00  0.00     0.029 A 
ATOM     41  N   UNL A   1      41.341  27.300  28.912  1.00  0.00    -0.354 N 
ATOM     42  C   UNL A   1      42.175  31.339  30.148  1.00  0.00     0.074 A 
ATOM     43  C   UNL A   1      40.964  32.127  30.224  1.00  0.00     0.031 C 
ATOM     44  C   UNL A   1      40.074  25.593  28.225  1.00  0.00     0.029 A 
ATOM     45  C   UNL A   1      41.457  26.003  28.464  1.00  0.00     0.049 A 
ATOM     46  H   UNL A   1      42.106  27.828  29.237  1.00  0.00     0.167 HD
ATOM     47  C   UNL A   1      43.409  31.805  30.445  1.00  0.00     0.037 A 
ATOM     48  C   UNL A   1      42.552  25.249  28.230  1.00  0.00     0.037 A 
ATOM     49  C   UNL A   1      44.618  31.030  30.361  1.00  0.00     0.049 A 
ATOM     50  C   UNL A   1      43.925  25.827  28.487  1.00  0.00     0.074 A 
ATOM     51  C   UNL A   1      45.907  31.415  30.692  1.00  0.00     0.029 A 
ATOM     52  N   UNL A   1      44.696  29.728  29.894  1.00  0.00    -0.354 N 
ATOM     53  N   UNL A   1      44.250  27.005  28.963  1.00  0.00    -0.248 NA
ATOM     54  C   UNL A   1      45.081  24.975  28.166  1.00  0.00     0.031 C 
ATOM     55  C   UNL A   1      46.772  30.366  30.366  1.00  0.00     0.029 A 
ATOM     56  C   UNL A   1      46.017  29.311  29.884  1.00  0.00     0.049 A 
ATOM     57  H   UNL A   1      43.928  29.183  29.611  1.00  0.00     0.167 HD
ATOM     58  C   UNL A   1      45.641  27.024  29.019  1.00  0.00     0.074 A 
ATOM     59  C   UNL A   1      46.099  25.737  28.546  1.00  0.00     0.031 C 
ATOM     60  C   UNL A   1      46.466  28.021  29.424  1.00  0.00     0.037 A 
BRANCH  47  61
ATOM     61  C   UNL A   1      43.530  33.240  30.866  1.00  0.00     0.058 A 
ATOM     62  C   UNL A   1      43.548  33.611  32.219  1.00  0.00     0.135 A 
ATOM     63  C   UNL A   1      43.706  34.246  29.902  1.00  0.00     0.135 A 
ATOM     64  F   UNL A   1      43.361  32.688  33.175  1.00  0.00    -0.206 F 
ATOM     65  C   UNL A   1      43.732  34.934  32.602  1.00  0.00     0.059 A 
ATOM     66  C   UNL A   1      43.915  35.573  30.265  1.00  0.00     0.059 A 
ATOM     67  F   UNL A   1      43.689  33.940  28.595  1.00  0.00    -0.206 F 
ATOM     68  C   UNL A   1      43.921  35.907  31.618  1.00  0.00     0.060 A 
BRANCH  68  69
ATOM     69  S   UNL A   1      44.199  37.613  32.137  1.00  0.00     0.124 S 
ATOM     70  O   UNL A   1      45.628  37.599  32.428  1.00  0.00    -0.237 OA
ATOM     71  O   UNL A   1      43.801  38.365  30.952  1.00  0.00    -0.237 OA
ATOM     72  O   UNL A   1      43.324  37.764  33.295  1.00  0.00    -0.744 OA
ENDBRANCH  68  69
ENDBRANCH  47  61
BRANCH  48  73
ATOM     73  C   UNL A   1      42.425  23.877  27.663  1.00  0.00     0.058 A 
ATOM     74  C   UNL A   1      42.426  22.744  28.490  1.00  0.00     0.135 A 
ATOM     75  C   UNL A   1      42.377  23.668  26.275  1.00  0.00     0.135 A 
ATOM     76  F   UNL A   1      42.489  22.889  29.823  1.00  0.00    -0.206 F 
ATOM     77  C   UNL A   1      42.426  21.454  27.965  1.00  0.00     0.059 A 
ATOM     78  C   UNL A   1      42.346  22.389  25.727  1.00  0.00     0.059 A 
ATOM     79  F   UNL A   1      42.366  24.715  25.434  1.00  0.00    -0.206 F 
ATOM     80  C   UNL A   1      42.392  21.288  26.580  1.00  0.00     0.060 A 
BRANCH  80  81
ATOM     81  S   UNL A   1      42.397  19.612  25.905  1.00  0.00     0.124 S 
ATOM     82  O   UNL A   1      42.686  18.818  27.094  1.00  0.00    -0.237 OA
ATOM     83  O   UNL A   1      41.046  19.492  25.369  1.00  0.00    -0.237 OA
ATOM     84  O   UNL A   1      43.459  19.659  24.904  1.00  0.00    -0.744 OA
ENDBRANCH  80  81
ENDBRANCH  48  73
BRANCH  60  85
ATOM     85  C   UNL A   1      47.950  27.767  29.401  1.00  0.00     0.058 A 
ATOM     86  C   UNL A   1      48.599  27.103  30.453  1.00  0.00     0.135 A 
ATOM     87  C   UNL A   1      48.716  28.114  28.275  1.00  0.00     0.135 A 
ATOM     88  F   UNL A   1      47.917  26.755  31.556  1.00  0.00    -0.206 F 
ATOM     89  C   UNL A   1      49.956  26.799  30.394  1.00  0.00     0.059 A 
ATOM     90  C   UNL A   1      50.068  27.796  28.184  1.00  0.00     0.059 A 
ATOM     91  F   UNL A   1      48.143  28.743  27.237  1.00  0.00    -0.206 F 
ATOM     92  C   UNL A   1      50.681  27.143  29.251  1.00  0.00     0.060 A 
BRANCH  92  93
ATOM     93  S   UNL A   1      52.425  26.684  29.161  1.00  0.00     0.124 S 
ATOM     94  O   UNL A   1      52.462  25.905  27.927  1.00  0.00    -0.237 OA
ATOM     95  O   UNL A   1      53.088  27.983  29.110  1.00  0.00    -0.237 OA
ATOM     96  O   UNL A   1      52.642  25.925  30.390  1.00  0.00    -0.744 OA
ENDBRANCH  92  93
ENDBRANCH  60  85
ENDBRANCH  34  35
ENDBRANCH  27  29
ENDBRANCH  26  27
ENDBRANCH  25  26
ENDBRANCH   1  25
TORSDOF 18
ENDMDL
MODEL 2
REMARK VINA RESULT:     -11.1      3.790      9.706
REMARK SMILES O=C(OCCOCCOC(=O)c1ccc(-c2c3nc(c(-c4c(F)cc(S(=O)(=O)[O-])cc4F)c4ccc([nH]4)c(-c4c(F)cc(S(=O)(=O)[O-])cc4F)c4nc(c(-c5c(F)cc(S(=O)(=O)[O-])cc5F)c5ccc2[nH]5)C=C4)C=C3)cc1)C1=Cc2c(cc(Cl)c(Cl)c2Cl)O[C@H]1C(F)(F)F
REMARK SMILES IDX 7 1 6 2 5 3 4 4 3 5 2 6 1 7 78 8 79 9 90 10 80 11 89 12
REMARK SMILES IDX 81 13 87 14 82 15 85 16 88 17 83 18 86 19 84 20 91 21 92 22
REMARK SMILES IDX 93 23 94 24 8 25 9 26 10 27 11 28 12 29 13 30 77 31 14 32
REMARK SMILES IDX 76 33 15 34 16 35 17 36 70 37 18 38 75 39 69 40 71 41 19 42
REMARK SMILES IDX 74 43 68 44 67 45 20 47 54 48 33 49 53 50 34 51 37 52 52 53
REMARK SMILES IDX 72 54 35 55 36 56 51 58 73 59 38 60 21 61 22 62 31 63 23 64
REMARK SMILES IDX 24 65 30 66 32 67 25 68 26 69 27 70 28 71 29 72 55 73 56 74
REMARK SMILES IDX 65 75 57 76 58 77 64 78 66 79 59 80 60 81 61 82 62 83 63 84
REMARK SMILES IDX 39 85 40 86 49 87 41 88 42 89 48 90 50 91 43 92 44 93 45 94
REMARK SMILES IDX 46 95 47 96
REMARK H PARENT 71 46 37 57
REMARK Flexibility Score: inf
ROOT
ATOM      1  C   UNL A   1      35.849  22.091  26.049  1.00  0.00     0.202 C 
ENDROOT
BRANCH   1   2
ATOM      2  O   UNL A   1      35.003  20.946  26.128  1.00  0.00    -0.374 OA
BRANCH   2   3
ATOM      3  C   UNL A   1      33.746  21.217  26.748  1.00  0.00     0.202 C 
BRANCH   3   4
ATOM      4  C   UNL A   1      33.835  22.440  27.661  1.00  0.00     0.261 C 
BRANCH   4   5
ATOM      5  O   UNL A   1      32.542  22.995  27.981  1.00  0.00    -0.460 OA
BRANCH   5   6
ATOM      6  C   UNL A   1      31.560  23.404  27.150  1.00  0.00     0.338 C 
ATOM      7  O   UNL A   1      30.392  23.164  27.453  1.00  0.00    -0.246 OA
BRANCH   6   8
ATOM      8  C   UNL A   1      31.812  24.359  26.039  1.00  0.00     0.087 C 
ATOM      9  C   UNL A   1      32.624  25.420  26.009  1.00  0.00     0.029 C 
ATOM     10  C   UNL A   1      31.080  24.007  24.753  1.00  0.00     0.316 C 
ATOM     11  C   UNL A   1      32.052  26.593  25.346  1.00  0.00     0.038 A 
ATOM     12  O   UNL A   1      31.063  25.077  23.750  1.00  0.00    -0.475 OA
ATOM     13  C   UNL A   1      31.288  26.345  24.211  1.00  0.00     0.131 A 
ATOM     14  C   UNL A   1      32.116  27.911  25.860  1.00  0.00     0.072 A 
ATOM     15  C   UNL A   1      30.709  27.393  23.509  1.00  0.00     0.069 A 
ATOM     16  C   UNL A   1      31.475  28.970  25.191  1.00  0.00     0.079 A 
ATOM     17  Cl  UNL A   1      32.900  28.209  27.379  1.00  0.00    -0.082 Cl
ATOM     18  C   UNL A   1      30.793  28.701  23.997  1.00  0.00     0.064 A 
ATOM     19  Cl  UNL A   1      31.499  30.582  25.842  1.00  0.00    -0.081 Cl
ATOM     20  Cl  UNL A   1      29.995  29.933  23.084  1.00  0.00    -0.083 Cl
BRANCH  10  21
ATOM     21  C   UNL A   1      31.695  22.737  24.084  1.00  0.00     0.430 C 
ATOM     22  F   UNL A   1      31.394  21.573  24.703  1.00  0.00    -0.167 F 
ATOM     23  F   UNL A   1      31.289  22.624  22.794  1.00  0.00    -0.167 F 
ATOM     24  F   UNL A   1      33.053  22.792  24.058  1.00  0.00    -0.167 F 
ENDBRANCH  10  21
ENDBRANCH   6   8
ENDBRANCH   5   6
ENDBRANCH   4   5
ENDBRANCH   3   4
ENDBRANCH   2   3
ENDBRANCH   1   2
BRANCH   1  25
ATOM     25  C   UNL A   1      37.014  21.893  25.076  1.00  0.00     0.261 C 
BRANCH  25  26
ATOM     26  O   UNL A   1      37.935  22.998  25.136  1.00  0.00    -0.460 OA
BRANCH  26  27
ATOM     27  C   UNL A   1      39.081  22.788  25.848  1.00  0.00     0.338 C 
ATOM     28  O   UNL A   1      39.793  21.815  25.789  1.00  0.00    -0.246 OA
BRANCH  27  29
ATOM     29  C   UNL A   1      39.414  23.999  26.658  1.00  0.00     0.060 A 
ATOM     30  C   UNL A   1      40.296  24.942  26.107  1.00  0.00     0.016 A 
ATOM     31  C   UNL A   1      38.856  24.242  27.918  1.00  0.00     0.016 A 
ATOM     32  C   UNL A   1      40.603  26.124  26.798  1.00  0.00     0.010 A 
ATOM     33  C   UNL A   1      39.170  25.417  28.610  1.00  0.00     0.010 A 
ATOM     34  C   UNL A   1      40.045  26.367  28.059  1.00  0.00    -0.014 A 
BRANCH  34  35
ATOM     35  C   UNL A   1      40.440  27.544  28.875  1.00  0.00     0.031 A 
ATOM     36  C   UNL A   1      41.680  27.456  29.720  1.00  0.00     0.074 A 
ATOM     37  C   UNL A   1      39.666  28.646  28.938  1.00  0.00     0.049 A 
ATOM     38  N   UNL A   1      42.129  28.292  30.618  1.00  0.00    -0.248 NA
ATOM     39  C   UNL A   1      42.520  26.262  29.532  1.00  0.00     0.031 C 
ATOM     40  C   UNL A   1      38.453  28.873  28.156  1.00  0.00     0.029 A 
ATOM     41  N   UNL A   1      39.770  29.770  29.724  1.00  0.00    -0.354 N 
ATOM     42  C   UNL A   1      43.295  27.725  31.112  1.00  0.00     0.074 A 
ATOM     43  C   UNL A   1      43.482  26.468  30.419  1.00  0.00     0.031 C 
ATOM     44  C   UNL A   1      37.905  30.044  28.525  1.00  0.00     0.029 A 
ATOM     45  C   UNL A   1      38.704  30.632  29.600  1.00  0.00     0.049 A 
ATOM     46  H   UNL A   1      40.535  29.942  30.321  1.00  0.00     0.167 HD
ATOM     47  C   UNL A   1      44.131  28.204  32.061  1.00  0.00     0.037 A 
ATOM     48  C   UNL A   1      38.384  31.741  30.301  1.00  0.00     0.037 A 
ATOM     49  C   UNL A   1      43.945  29.446  32.761  1.00  0.00     0.049 A 
ATOM     50  C   UNL A   1      39.291  32.205  31.417  1.00  0.00     0.074 A 
ATOM     51  C   UNL A   1      44.773  30.030  33.705  1.00  0.00     0.029 A 
ATOM     52  N   UNL A   1      42.850  30.284  32.617  1.00  0.00    -0.354 N 
ATOM     53  N   UNL A   1      40.430  31.696  31.823  1.00  0.00    -0.248 NA
ATOM     54  C   UNL A   1      38.864  33.390  32.179  1.00  0.00     0.031 C 
ATOM     55  C   UNL A   1      44.149  31.189  34.177  1.00  0.00     0.029 A 
ATOM     56  C   UNL A   1      42.959  31.355  33.489  1.00  0.00     0.049 A 
ATOM     57  H   UNL A   1      42.106  30.138  31.989  1.00  0.00     0.167 HD
ATOM     58  C   UNL A   1      40.863  32.512  32.865  1.00  0.00     0.074 A 
ATOM     59  C   UNL A   1      39.876  33.557  33.020  1.00  0.00     0.031 C 
ATOM     60  C   UNL A   1      41.978  32.402  33.629  1.00  0.00     0.037 A 
BRANCH  47  61
ATOM     61  C   UNL A   1      45.321  27.369  32.430  1.00  0.00     0.058 A 
ATOM     62  C   UNL A   1      46.559  27.531  31.791  1.00  0.00     0.135 A 
ATOM     63  C   UNL A   1      45.238  26.449  33.487  1.00  0.00     0.135 A 
ATOM     64  F   UNL A   1      46.682  28.382  30.761  1.00  0.00    -0.206 F 
ATOM     65  C   UNL A   1      47.676  26.804  32.186  1.00  0.00     0.059 A 
ATOM     66  C   UNL A   1      46.348  25.728  33.913  1.00  0.00     0.059 A 
ATOM     67  F   UNL A   1      44.072  26.255  34.124  1.00  0.00    -0.206 F 
ATOM     68  C   UNL A   1      47.562  25.910  33.252  1.00  0.00     0.060 A 
BRANCH  68  69
ATOM     69  S   UNL A   1      49.033  25.005  33.777  1.00  0.00     0.124 S 
ATOM     70  O   UNL A   1      49.560  25.884  34.816  1.00  0.00    -0.237 OA
ATOM     71  O   UNL A   1      48.469  23.742  34.242  1.00  0.00    -0.237 OA
ATOM     72  O   UNL A   1      49.834  24.920  32.561  1.00  0.00    -0.744 OA
ENDBRANCH  68  69
ENDBRANCH  47  61
BRANCH  48  73
ATOM     73  C   UNL A   1      37.116  32.474  30.029  1.00  0.00     0.058 A 
ATOM     74  C   UNL A   1      37.078  33.555  29.135  1.00  0.00     0.135 A 
ATOM     75  C   UNL A   1      35.933  32.158  30.717  1.00  0.00     0.135 A 
ATOM     76  F   UNL A   1      38.187  33.909  28.465  1.00  0.00    -0.206 F 
ATOM     77  C   UNL A   1      35.928  34.321  28.960  1.00  0.00     0.059 A 
ATOM     78  C   UNL A   1      34.763  32.891  30.538  1.00  0.00     0.059 A 
ATOM     79  F   UNL A   1      35.908  31.130  31.580  1.00  0.00    -0.206 F 
ATOM     80  C   UNL A   1      34.777  33.983  29.673  1.00  0.00     0.060 A 
BRANCH  80  81
ATOM     81  S   UNL A   1      33.290  34.985  29.447  1.00  0.00     0.124 S 
ATOM     82  O   UNL A   1      33.852  36.239  28.960  1.00  0.00    -0.237 OA
ATOM     83  O   UNL A   1      32.537  34.202  28.473  1.00  0.00    -0.237 OA
ATOM     84  O   UNL A   1      32.711  35.029  30.787  1.00  0.00    -0.744 OA
ENDBRANCH  80  81
ENDBRANCH  48  73
BRANCH  60  85
ATOM     85  C   UNL A   1      42.217  33.443  34.689  1.00  0.00     0.058 A 
ATOM     86  C   UNL A   1      42.829  34.671  34.391  1.00  0.00     0.135 A 
ATOM     87  C   UNL A   1      41.751  33.247  36.000  1.00  0.00     0.135 A 
ATOM     88  F   UNL A   1      43.299  34.909  33.156  1.00  0.00    -0.206 F 
ATOM     89  C   UNL A   1      42.976  35.663  35.355  1.00  0.00     0.059 A 
ATOM     90  C   UNL A   1      41.865  34.235  36.973  1.00  0.00     0.059 A 
ATOM     91  F   UNL A   1      41.150  32.095  36.338  1.00  0.00    -0.206 F 
ATOM     92  C   UNL A   1      42.484  35.439  36.642  1.00  0.00     0.060 A 
BRANCH  92  93
ATOM     93  S   UNL A   1      42.624  36.761  37.866  1.00  0.00     0.124 S 
ATOM     94  O   UNL A   1      43.306  36.077  38.961  1.00  0.00    -0.237 OA
ATOM     95  O   UNL A   1      43.412  37.762  37.155  1.00  0.00    -0.237 OA
ATOM     96  O   UNL A   1      41.236  37.133  38.125  1.00  0.00    -0.744 OA
ENDBRANCH  92  93
ENDBRANCH  60  85
ENDBRANCH  34  35
ENDBRANCH  27  29
ENDBRANCH  26  27
ENDBRANCH  25  26
ENDBRANCH   1  25
TORSDOF 18
ENDMDL
MODEL 3
REMARK VINA RESULT:     -11.0      2.359      3.362
REMARK SMILES O=C(OCCOCCOC(=O)c1ccc(-c2c3nc(c(-c4c(F)cc(S(=O)(=O)[O-])cc4F)c4ccc([nH]4)c(-c4c(F)cc(S(=O)(=O)[O-])cc4F)c4nc(c(-c5c(F)cc(S(=O)(=O)[O-])cc5F)c5ccc2[nH]5)C=C4)C=C3)cc1)C1=Cc2c(cc(Cl)c(Cl)c2Cl)O[C@H]1C(F)(F)F
REMARK SMILES IDX 7 1 6 2 5 3 4 4 3 5 2 6 1 7 78 8 79 9 90 10 80 11 89 12
REMARK SMILES IDX 81 13 87 14 82 15 85 16 88 17 83 18 86 19 84 20 91 21 92 22
REMARK SMILES IDX 93 23 94 24 8 25 9 26 10 27 11 28 12 29 13 30 77 31 14 32
REMARK SMILES IDX 76 33 15 34 16 35 17 36 70 37 18 38 75 39 69 40 71 41 19 42
REMARK SMILES IDX 74 43 68 44 67 45 20 47 54 48 33 49 53 50 34 51 37 52 52 53
REMARK SMILES IDX 72 54 35 55 36 56 51 58 73 59 38 60 21 61 22 62 31 63 23 64
REMARK SMILES IDX 24 65 30 66 32 67 25 68 26 69 27 70 28 71 29 72 55 73 56 74
REMARK SMILES IDX 65 75 57 76 58 77 64 78 66 79 59 80 60 81 61 82 62 83 63 84
REMARK SMILES IDX 39 85 40 86 49 87 41 88 42 89 48 90 50 91 43 92 44 93 45 94
REMARK SMILES IDX 46 95 47 96
REMARK H PARENT 71 46 37 57
REMARK Flexibility Score: inf
ROOT
ATOM      1  C   UNL A   1      34.491  31.541  27.645  1.00  0.00     0.202 C 
ENDROOT
BRANCH   1   2
ATOM      2  O   UNL A   1      33.607  30.424  27.686  1.00  0.00    -0.374 OA
BRANCH   2   3
ATOM      3  C   UNL A   1      33.261  29.932  26.392  1.00  0.00     0.202 C 
BRANCH   3   4
ATOM      4  C   UNL A   1      34.000  28.630  26.082  1.00  0.00     0.261 C 
BRANCH   4   5
ATOM      5  O   UNL A   1      33.934  28.266  24.687  1.00  0.00    -0.460 OA
BRANCH   5   6
ATOM      6  C   UNL A   1      33.594  27.086  24.129  1.00  0.00     0.338 C 
ATOM      7  O   UNL A   1      33.661  26.971  22.905  1.00  0.00    -0.246 OA
BRANCH   6   8
ATOM      8  C   UNL A   1      33.410  25.853  24.938  1.00  0.00     0.087 C 
ATOM      9  C   UNL A   1      34.300  25.199  25.691  1.00  0.00     0.029 C 
ATOM     10  C   UNL A   1      31.981  25.332  24.941  1.00  0.00     0.316 C 
ATOM     11  C   UNL A   1      34.230  23.742  25.570  1.00  0.00     0.038 A 
ATOM     12  O   UNL A   1      31.830  23.972  25.468  1.00  0.00    -0.475 OA
ATOM     13  C   UNL A   1      32.956  23.195  25.473  1.00  0.00     0.131 A 
ATOM     14  C   UNL A   1      35.357  22.898  25.412  1.00  0.00     0.072 A 
ATOM     15  C   UNL A   1      32.785  21.821  25.362  1.00  0.00     0.069 A 
ATOM     16  C   UNL A   1      35.192  21.513  25.230  1.00  0.00     0.079 A 
ATOM     17  Cl  UNL A   1      36.948  23.587  25.334  1.00  0.00    -0.082 Cl
ATOM     18  C   UNL A   1      33.896  20.981  25.234  1.00  0.00     0.064 A 
ATOM     19  Cl  UNL A   1      36.565  20.476  24.978  1.00  0.00    -0.081 Cl
ATOM     20  Cl  UNL A   1      33.584  19.290  25.045  1.00  0.00    -0.083 Cl
BRANCH  10  21
ATOM     21  C   UNL A   1      31.042  26.268  25.766  1.00  0.00     0.430 C 
ATOM     22  F   UNL A   1      29.857  25.714  26.111  1.00  0.00    -0.167 F 
ATOM     23  F   UNL A   1      31.646  26.673  26.911  1.00  0.00    -0.167 F 
ATOM     24  F   UNL A   1      30.726  27.396  25.075  1.00  0.00    -0.167 F 
ENDBRANCH  10  21
ENDBRANCH   6   8
ENDBRANCH   5   6
ENDBRANCH   4   5
ENDBRANCH   3   4
ENDBRANCH   2   3
ENDBRANCH   1   2
BRANCH   1  25
ATOM     25  C   UNL A   1      34.681  32.190  29.018  1.00  0.00     0.261 C 
BRANCH  25  26
ATOM     26  O   UNL A   1      36.070  32.215  29.395  1.00  0.00    -0.460 OA
BRANCH  26  27
ATOM     27  C   UNL A   1      36.455  31.303  30.335  1.00  0.00     0.338 C 
ATOM     28  O   UNL A   1      35.772  30.866  31.230  1.00  0.00    -0.246 OA
BRANCH  27  29
ATOM     29  C   UNL A   1      37.838  30.814  30.045  1.00  0.00     0.060 A 
ATOM     30  C   UNL A   1      38.158  30.482  28.719  1.00  0.00     0.016 A 
ATOM     31  C   UNL A   1      38.824  30.711  31.031  1.00  0.00     0.016 A 
ATOM     32  C   UNL A   1      39.455  30.069  28.378  1.00  0.00     0.010 A 
ATOM     33  C   UNL A   1      40.115  30.291  30.692  1.00  0.00     0.010 A 
ATOM     34  C   UNL A   1      40.443  29.966  29.366  1.00  0.00    -0.014 A 
BRANCH  34  35
ATOM     35  C   UNL A   1      41.790  29.416  29.068  1.00  0.00     0.031 A 
ATOM     36  C   UNL A   1      42.954  30.362  28.971  1.00  0.00     0.074 A 
ATOM     37  C   UNL A   1      41.969  28.107  28.800  1.00  0.00     0.049 A 
ATOM     38  N   UNL A   1      44.177  30.129  28.577  1.00  0.00    -0.248 NA
ATOM     39  C   UNL A   1      42.700  31.758  29.364  1.00  0.00     0.031 C 
ATOM     40  C   UNL A   1      40.936  27.078  28.880  1.00  0.00     0.029 A 
ATOM     41  N   UNL A   1      43.084  27.425  28.370  1.00  0.00    -0.354 N 
ATOM     42  C   UNL A   1      44.839  31.346  28.661  1.00  0.00     0.074 A 
ATOM     43  C   UNL A   1      43.879  32.319  29.138  1.00  0.00     0.031 C 
ATOM     44  C   UNL A   1      41.453  25.903  28.478  1.00  0.00     0.029 A 
ATOM     45  C   UNL A   1      42.843  26.103  28.072  1.00  0.00     0.049 A 
ATOM     46  H   UNL A   1      43.972  27.844  28.284  1.00  0.00     0.167 HD
ATOM     47  C   UNL A   1      46.127  31.629  28.362  1.00  0.00     0.037 A 
ATOM     48  C   UNL A   1      43.635  25.174  27.497  1.00  0.00     0.037 A 
ATOM     49  C   UNL A   1      47.083  30.670  27.877  1.00  0.00     0.049 A 
ATOM     50  C   UNL A   1      45.044  25.542  27.090  1.00  0.00     0.074 A 
ATOM     51  C   UNL A   1      48.425  30.864  27.596  1.00  0.00     0.029 A 
ATOM     52  N   UNL A   1      46.799  29.347  27.578  1.00  0.00    -0.354 N 
ATOM     53  N   UNL A   1      45.679  26.679  27.245  1.00  0.00    -0.248 NA
ATOM     54  C   UNL A   1      45.842  24.501  26.422  1.00  0.00     0.031 C 
ATOM     55  C   UNL A   1      48.937  29.675  27.067  1.00  0.00     0.029 A 
ATOM     56  C   UNL A   1      47.929  28.727  27.070  1.00  0.00     0.049 A 
ATOM     57  H   UNL A   1      45.925  28.914  27.705  1.00  0.00     0.167 HD
ATOM     58  C   UNL A   1      46.952  26.482  26.717  1.00  0.00     0.074 A 
ATOM     59  C   UNL A   1      47.008  25.114  26.253  1.00  0.00     0.031 C 
ATOM     60  C   UNL A   1      47.982  27.358  26.622  1.00  0.00     0.037 A 
BRANCH  47  61
ATOM     61  C   UNL A   1      46.586  33.048  28.522  1.00  0.00     0.058 A 
ATOM     62  C   UNL A   1      46.493  33.974  27.471  1.00  0.00     0.135 A 
ATOM     63  C   UNL A   1      47.053  33.504  29.765  1.00  0.00     0.135 A 
ATOM     64  F   UNL A   1      46.073  33.580  26.259  1.00  0.00    -0.206 F 
ATOM     65  C   UNL A   1      46.853  35.304  27.648  1.00  0.00     0.059 A 
ATOM     66  C   UNL A   1      47.397  34.835  29.970  1.00  0.00     0.059 A 
ATOM     67  F   UNL A   1      47.166  32.653  30.797  1.00  0.00    -0.206 F 
ATOM     68  C   UNL A   1      47.298  35.727  28.902  1.00  0.00     0.060 A 
BRANCH  68  69
ATOM     69  S   UNL A   1      47.722  37.467  29.123  1.00  0.00     0.124 S 
ATOM     70  O   UNL A   1      46.596  38.127  28.470  1.00  0.00    -0.237 OA
ATOM     71  O   UNL A   1      47.773  37.592  30.576  1.00  0.00    -0.237 OA
ATOM     72  O   UNL A   1      49.006  37.594  28.441  1.00  0.00    -0.744 OA
ENDBRANCH  68  69
ENDBRANCH  47  61
BRANCH  48  73
ATOM     73  C   UNL A   1      43.116  23.809  27.200  1.00  0.00     0.058 A 
ATOM     74  C   UNL A   1      43.115  22.802  28.177  1.00  0.00     0.135 A 
ATOM     75  C   UNL A   1      42.683  23.462  25.910  1.00  0.00     0.135 A 
ATOM     76  F   UNL A   1      43.538  23.077  29.421  1.00  0.00    -0.206 F 
ATOM     77  C   UNL A   1      42.742  21.493  27.880  1.00  0.00     0.059 A 
ATOM     78  C   UNL A   1      42.277  22.168  25.596  1.00  0.00     0.059 A 
ATOM     79  F   UNL A   1      42.655  24.386  24.936  1.00  0.00    -0.206 F 
ATOM     80  C   UNL A   1      42.331  21.186  26.583  1.00  0.00     0.060 A 
BRANCH  80  81
ATOM     81  S   UNL A   1      41.854  19.485  26.202  1.00  0.00     0.124 S 
ATOM     82  O   UNL A   1      42.269  18.787  27.413  1.00  0.00    -0.237 OA
ATOM     83  O   UNL A   1      40.415  19.608  25.997  1.00  0.00    -0.237 OA
ATOM     84  O   UNL A   1      42.628  19.183  25.001  1.00  0.00    -0.744 OA
ENDBRANCH  80  81
ENDBRANCH  48  73
BRANCH  60  85
ATOM     85  C   UNL A   1      49.272  26.873  26.016  1.00  0.00     0.058 A 
ATOM     86  C   UNL A   1      49.584  27.103  24.667  1.00  0.00     0.135 A 
ATOM     87  C   UNL A   1      50.244  26.247  26.814  1.00  0.00     0.135 A 
ATOM     88  F   UNL A   1      48.689  27.691  23.857  1.00  0.00    -0.206 F 
ATOM     89  C   UNL A   1      50.811  26.724  24.129  1.00  0.00     0.059 A 
ATOM     90  C   UNL A   1      51.487  25.883  26.304  1.00  0.00     0.059 A 
ATOM     91  F   UNL A   1      50.001  26.010  28.113  1.00  0.00    -0.206 F 
ATOM     92  C   UNL A   1      51.759  26.122  24.958  1.00  0.00     0.060 A 
BRANCH  92  93
ATOM     93  S   UNL A   1      53.370  25.694  24.262  1.00  0.00     0.124 S 
ATOM     94  O   UNL A   1      53.161  25.967  22.843  1.00  0.00    -0.237 OA
ATOM     95  O   UNL A   1      54.265  26.613  24.959  1.00  0.00    -0.237 OA
ATOM     96  O   UNL A   1      53.531  24.286  24.614  1.00  0.00    -0.744 OA
ENDBRANCH  92  93
ENDBRANCH  60  85
ENDBRANCH  34  35
ENDBRANCH  27  29
ENDBRANCH  26  27
ENDBRANCH  25  26
ENDBRANCH   1  25
TORSDOF 18
ENDMDL
