MODEL 1
REMARK VINA RESULT:     -10.9      0.000      0.000
REMARK SMILES Cc1cc(Oc2ccnc(C(=O)OCCOCCOC(=O)c3ccc(-c4c5nc(c(-c6c(F)cc(S(=O)(=O)[O-])cc6F)c6ccc([nH]6)c(-c6c(F)cc(S(=O)(=O)[O-])cc6F)c6nc(c(-c7c(F)cc(S(=O)(=O)[O-])cc7F)c7ccc4[nH]7)C=C6)C=C5)cc3)c2)cc(C)c1Cl
REMARK SMILES IDX 17 1 16 2 15 3 14 4 13 5 11 6 12 7 10 8 6 9 7 10 88 11 8 12
REMARK SMILES IDX 9 13 5 14 4 15 1 16 2 17 3 18 92 19 90 20 93 21 89 22 91 23
REMARK SMILES IDX 18 24 19 25 20 26 21 27 22 28 23 29 87 30 24 31 86 32 25 33
REMARK SMILES IDX 26 34 27 35 80 36 28 37 85 38 79 39 81 40 29 41 84 42 78 43
REMARK SMILES IDX 77 44 30 46 64 47 43 48 63 49 44 50 47 51 62 52 82 53 45 54
REMARK SMILES IDX 46 55 61 57 83 58 48 59 31 60 32 61 41 62 33 63 34 64 40 65
REMARK SMILES IDX 42 66 35 67 36 68 37 69 38 70 39 71 65 72 66 73 75 74 67 75
REMARK SMILES IDX 68 76 74 77 76 78 69 79 70 80 71 81 72 82 73 83 49 84 50 85
REMARK SMILES IDX 59 86 51 87 52 88 58 89 60 90 53 91 54 92 55 93 56 94 57 95
REMARK H PARENT 81 45 47 56
REMARK Flexibility Score: inf
ROOT
ATOM      1  C   UNL A   1      44.081  22.495  25.113  1.00  0.00     0.202 C 
ENDROOT
BRANCH   1   2
ATOM      2  O   UNL A   1      43.730  21.182  24.673  1.00  0.00    -0.374 OA
BRANCH   2   3
ATOM      3  C   UNL A   1      43.681  20.160  25.670  1.00  0.00     0.202 C 
BRANCH   3   4
ATOM      4  C   UNL A   1      42.305  19.526  25.898  1.00  0.00     0.261 C 
BRANCH   4   5
ATOM      5  O   UNL A   1      41.254  20.474  25.635  1.00  0.00    -0.459 OA
BRANCH   5   6
ATOM      6  C   UNL A   1      40.522  20.850  26.717  1.00  0.00     0.357 C 
ATOM      7  O   UNL A   1      40.743  20.539  27.877  1.00  0.00    -0.244 OA
BRANCH   6   8
ATOM      8  C   UNL A   1      39.459  21.819  26.301  1.00  0.00     0.152 A 
ATOM      9  C   UNL A   1      37.451  22.417  25.157  1.00  0.00     0.131 A 
ATOM     10  C   UNL A   1      37.571  23.704  25.674  1.00  0.00     0.067 A 
ATOM     11  C   UNL A   1      38.395  21.446  25.489  1.00  0.00     0.083 A 
ATOM     12  C   UNL A   1      38.680  23.994  26.445  1.00  0.00     0.116 A 
ATOM     13  N   UNL A   1      39.623  23.088  26.765  1.00  0.00    -0.249 NA
BRANCH   9  14
ATOM     14  O   UNL A   1      36.384  21.986  24.405  1.00  0.00    -0.457 OA
BRANCH  14  15
ATOM     15  C   UNL A   1      35.094  22.079  24.878  1.00  0.00     0.128 A 
ATOM     16  C   UNL A   1      33.022  22.254  28.058  1.00  0.00     0.046 C 
ATOM     17  C   UNL A   1      33.377  22.252  26.596  1.00  0.00    -0.028 A 
ATOM     18  C   UNL A   1      34.727  22.129  26.223  1.00  0.00     0.052 A 
ATOM     19  C   UNL A   1      32.398  22.397  25.593  1.00  0.00     0.047 A 
ATOM     20  C   UNL A   1      32.760  22.397  24.233  1.00  0.00    -0.028 A 
ATOM     21  Cl  UNL A   1      30.732  22.595  26.038  1.00  0.00    -0.084 Cl
ATOM     22  C   UNL A   1      34.113  22.226  23.894  1.00  0.00     0.052 A 
ATOM     23  C   UNL A   1      31.753  22.607  23.137  1.00  0.00     0.046 C 
ENDBRANCH  14  15
ENDBRANCH   9  14
ENDBRANCH   6   8
ENDBRANCH   5   6
ENDBRANCH   4   5
ENDBRANCH   3   4
ENDBRANCH   2   3
ENDBRANCH   1   2
BRANCH   1  24
ATOM     24  C   UNL A   1      42.910  23.402  25.512  1.00  0.00     0.261 C 
BRANCH  24  25
ATOM     25  O   UNL A   1      43.357  24.696  25.956  1.00  0.00    -0.460 OA
BRANCH  25  26
ATOM     26  C   UNL A   1      42.431  25.680  25.866  1.00  0.00     0.338 C 
ATOM     27  O   UNL A   1      41.646  25.871  24.948  1.00  0.00    -0.246 OA
BRANCH  26  28
ATOM     28  C   UNL A   1      42.362  26.428  27.137  1.00  0.00     0.060 A 
ATOM     29  C   UNL A   1      41.369  26.058  28.053  1.00  0.00     0.016 A 
ATOM     30  C   UNL A   1      43.205  27.509  27.405  1.00  0.00     0.016 A 
ATOM     31  C   UNL A   1      41.185  26.797  29.221  1.00  0.00     0.010 A 
ATOM     32  C   UNL A   1      43.012  28.255  28.572  1.00  0.00     0.010 A 
ATOM     33  C   UNL A   1      41.981  27.922  29.470  1.00  0.00    -0.014 A 
BRANCH  33  34
ATOM     34  C   UNL A   1      41.644  28.832  30.593  1.00  0.00     0.031 A 
ATOM     35  C   UNL A   1      42.468  28.773  31.851  1.00  0.00     0.074 A 
ATOM     36  C   UNL A   1      40.634  29.716  30.486  1.00  0.00     0.049 A 
ATOM     37  N   UNL A   1      42.312  29.420  32.976  1.00  0.00    -0.248 NA
ATOM     38  C   UNL A   1      43.624  27.860  31.837  1.00  0.00     0.031 C 
ATOM     39  C   UNL A   1      39.797  29.904  29.302  1.00  0.00     0.029 A 
ATOM     40  N   UNL A   1      40.138  30.617  31.395  1.00  0.00    -0.354 N 
ATOM     41  C   UNL A   1      43.348  28.998  33.802  1.00  0.00     0.074 A 
ATOM     42  C   UNL A   1      44.107  28.014  33.061  1.00  0.00     0.031 C 
ATOM     43  C   UNL A   1      38.881  30.854  29.562  1.00  0.00     0.029 A 
ATOM     44  C   UNL A   1      39.045  31.315  30.939  1.00  0.00     0.049 A 
ATOM     45  H   UNL A   1      40.528  30.751  32.289  1.00  0.00     0.167 HD
ATOM     46  C   UNL A   1      43.645  29.400  35.061  1.00  0.00     0.037 A 
ATOM     47  C   UNL A   1      38.256  32.207  31.571  1.00  0.00     0.037 A 
ATOM     48  C   UNL A   1      42.885  30.378  35.796  1.00  0.00     0.049 A 
ATOM     49  C   UNL A   1      38.556  32.577  33.002  1.00  0.00     0.074 A 
ATOM     50  C   UNL A   1      43.094  30.841  37.084  1.00  0.00     0.029 A 
ATOM     51  N   UNL A   1      41.771  31.045  35.309  1.00  0.00    -0.354 N 
ATOM     52  N   UNL A   1      39.533  32.164  33.773  1.00  0.00    -0.248 NA
ATOM     53  C   UNL A   1      37.648  33.536  33.648  1.00  0.00     0.031 C 
ATOM     54  C   UNL A   1      42.087  31.761  37.387  1.00  0.00     0.029 A 
ATOM     55  C   UNL A   1      41.277  31.907  36.272  1.00  0.00     0.049 A 
ATOM     56  H   UNL A   1      41.388  30.922  34.409  1.00  0.00     0.167 HD
ATOM     57  C   UNL A   1      39.379  32.841  34.979  1.00  0.00     0.074 A 
ATOM     58  C   UNL A   1      38.216  33.691  34.836  1.00  0.00     0.031 C 
ATOM     59  C   UNL A   1      40.135  32.769  36.103  1.00  0.00     0.037 A 
BRANCH  46  60
ATOM     60  C   UNL A   1      44.837  28.778  35.732  1.00  0.00     0.058 A 
ATOM     61  C   UNL A   1      44.727  27.583  36.461  1.00  0.00     0.135 A 
ATOM     62  C   UNL A   1      46.111  29.353  35.603  1.00  0.00     0.135 A 
ATOM     63  F   UNL A   1      43.529  27.003  36.631  1.00  0.00    -0.206 F 
ATOM     64  C   UNL A   1      45.837  26.988  37.051  1.00  0.00     0.059 A 
ATOM     65  C   UNL A   1      47.239  28.762  36.164  1.00  0.00     0.059 A 
ATOM     66  F   UNL A   1      46.269  30.498  34.920  1.00  0.00    -0.206 F 
ATOM     67  C   UNL A   1      47.090  27.585  36.895  1.00  0.00     0.060 A 
BRANCH  67  68
ATOM     68  S   UNL A   1      48.524  26.788  37.650  1.00  0.00     0.124 S 
ATOM     69  O   UNL A   1      47.939  26.224  38.863  1.00  0.00    -0.237 OA
ATOM     70  O   UNL A   1      48.918  25.823  36.629  1.00  0.00    -0.237 OA
ATOM     71  O   UNL A   1      49.455  27.892  37.859  1.00  0.00    -0.744 OA
ENDBRANCH  67  68
ENDBRANCH  46  60
BRANCH  47  72
ATOM     72  C   UNL A   1      37.087  32.805  30.870  1.00  0.00     0.058 A 
ATOM     73  C   UNL A   1      37.249  33.868  29.969  1.00  0.00     0.135 A 
ATOM     74  C   UNL A   1      35.783  32.349  31.113  1.00  0.00     0.135 A 
ATOM     75  F   UNL A   1      38.476  34.347  29.711  1.00  0.00    -0.206 F 
ATOM     76  C   UNL A   1      36.159  34.477  29.355  1.00  0.00     0.059 A 
ATOM     77  C   UNL A   1      34.678  32.923  30.492  1.00  0.00     0.059 A 
ATOM     78  F   UNL A   1      35.573  31.327  31.958  1.00  0.00    -0.206 F 
ATOM     79  C   UNL A   1      34.876  33.999  29.626  1.00  0.00     0.060 A 
BRANCH  79  80
ATOM     80  S   UNL A   1      33.466  34.782  28.814  1.00  0.00     0.124 S 
ATOM     81  O   UNL A   1      33.096  33.772  27.831  1.00  0.00    -0.237 OA
ATOM     82  O   UNL A   1      32.535  34.966  29.924  1.00  0.00    -0.237 OA
ATOM     83  O   UNL A   1      34.035  36.013  28.274  1.00  0.00    -0.744 OA
ENDBRANCH  79  80
ENDBRANCH  47  72
BRANCH  59  84
ATOM     84  C   UNL A   1      39.772  33.672  37.248  1.00  0.00     0.058 A 
ATOM     85  C   UNL A   1      38.885  33.271  38.258  1.00  0.00     0.135 A 
ATOM     86  C   UNL A   1      40.376  34.936  37.370  1.00  0.00     0.135 A 
ATOM     87  F   UNL A   1      38.276  32.077  38.187  1.00  0.00    -0.206 F 
ATOM     88  C   UNL A   1      38.596  34.096  39.341  1.00  0.00     0.059 A 
ATOM     89  C   UNL A   1      40.121  35.766  38.455  1.00  0.00     0.059 A 
ATOM     90  F   UNL A   1      41.241  35.363  36.435  1.00  0.00    -0.206 F 
ATOM     91  C   UNL A   1      39.222  35.340  39.432  1.00  0.00     0.060 A 
BRANCH  91  92
ATOM     92  S   UNL A   1      38.875  36.383  40.866  1.00  0.00     0.124 S 
ATOM     93  O   UNL A   1      40.176  36.419  41.525  1.00  0.00    -0.237 OA
ATOM     94  O   UNL A   1      38.443  37.633  40.247  1.00  0.00    -0.237 OA
ATOM     95  O   UNL A   1      37.832  35.649  41.575  1.00  0.00    -0.744 OA
ENDBRANCH  91  92
ENDBRANCH  59  84
ENDBRANCH  33  34
ENDBRANCH  26  28
ENDBRANCH  25  26
ENDBRANCH  24  25
ENDBRANCH   1  24
TORSDOF 19
ENDMDL
MODEL 2
REMARK VINA RESULT:     -10.9      6.447     14.040
REMARK SMILES Cc1cc(Oc2ccnc(C(=O)OCCOCCOC(=O)c3ccc(-c4c5nc(c(-c6c(F)cc(S(=O)(=O)[O-])cc6F)c6ccc([nH]6)c(-c6c(F)cc(S(=O)(=O)[O-])cc6F)c6nc(c(-c7c(F)cc(S(=O)(=O)[O-])cc7F)c7ccc4[nH]7)C=C6)C=C5)cc3)c2)cc(C)c1Cl
REMARK SMILES IDX 17 1 16 2 15 3 14 4 13 5 11 6 12 7 10 8 6 9 7 10 88 11 8 12
REMARK SMILES IDX 9 13 5 14 4 15 1 16 2 17 3 18 92 19 90 20 93 21 89 22 91 23
REMARK SMILES IDX 18 24 19 25 20 26 21 27 22 28 23 29 87 30 24 31 86 32 25 33
REMARK SMILES IDX 26 34 27 35 80 36 28 37 85 38 79 39 81 40 29 41 84 42 78 43
REMARK SMILES IDX 77 44 30 46 64 47 43 48 63 49 44 50 47 51 62 52 82 53 45 54
REMARK SMILES IDX 46 55 61 57 83 58 48 59 31 60 32 61 41 62 33 63 34 64 40 65
REMARK SMILES IDX 42 66 35 67 36 68 37 69 38 70 39 71 65 72 66 73 75 74 67 75
REMARK SMILES IDX 68 76 74 77 76 78 69 79 70 80 71 81 72 82 73 83 49 84 50 85
REMARK SMILES IDX 59 86 51 87 52 88 58 89 60 90 53 91 54 92 55 93 56 94 57 95
REMARK H PARENT 81 45 47 56
REMARK Flexibility Score: inf
ROOT
ATOM      1  C   UNL A   1      36.207  33.466  29.074  1.00  0.00     0.202 C 
ENDROOT
BRANCH   1   2
ATOM      2  O   UNL A   1      35.497  33.055  27.904  1.00  0.00    -0.374 OA
BRANCH   2   3
ATOM      3  C   UNL A   1      34.115  32.736  28.068  1.00  0.00     0.202 C 
BRANCH   3   4
ATOM      4  C   UNL A   1      33.150  33.924  27.999  1.00  0.00     0.261 C 
BRANCH   4   5
ATOM      5  O   UNL A   1      32.805  34.382  29.319  1.00  0.00    -0.459 OA
BRANCH   5   6
ATOM      6  C   UNL A   1      32.777  35.732  29.481  1.00  0.00     0.357 C 
ATOM      7  O   UNL A   1      32.362  36.545  28.670  1.00  0.00    -0.244 OA
BRANCH   6   8
ATOM      8  C   UNL A   1      33.219  36.088  30.867  1.00  0.00     0.152 A 
ATOM      9  C   UNL A   1      34.017  35.553  33.052  1.00  0.00     0.131 A 
ATOM     10  C   UNL A   1      34.047  36.913  33.346  1.00  0.00     0.067 A 
ATOM     11  C   UNL A   1      33.618  35.125  31.786  1.00  0.00     0.083 A 
ATOM     12  C   UNL A   1      33.600  37.796  32.382  1.00  0.00     0.116 A 
ATOM     13  N   UNL A   1      33.185  37.417  31.158  1.00  0.00    -0.249 NA
BRANCH   9  14
ATOM     14  O   UNL A   1      34.463  34.571  33.905  1.00  0.00    -0.457 OA
BRANCH  14  15
ATOM     15  C   UNL A   1      35.809  34.361  34.109  1.00  0.00     0.128 A 
ATOM     16  C   UNL A   1      39.207  34.527  32.417  1.00  0.00     0.046 C 
ATOM     17  C   UNL A   1      38.163  34.343  33.485  1.00  0.00    -0.028 A 
ATOM     18  C   UNL A   1      36.812  34.563  33.161  1.00  0.00     0.052 A 
ATOM     19  C   UNL A   1      38.502  33.983  34.803  1.00  0.00     0.047 A 
ATOM     20  C   UNL A   1      37.504  33.824  35.782  1.00  0.00    -0.028 A 
ATOM     21  Cl  UNL A   1      40.169  33.751  35.230  1.00  0.00    -0.084 Cl
ATOM     22  C   UNL A   1      36.161  34.007  35.414  1.00  0.00     0.052 A 
ATOM     23  C   UNL A   1      37.832  33.497  37.214  1.00  0.00     0.046 C 
ENDBRANCH  14  15
ENDBRANCH   9  14
ENDBRANCH   6   8
ENDBRANCH   5   6
ENDBRANCH   4   5
ENDBRANCH   3   4
ENDBRANCH   2   3
ENDBRANCH   1   2
BRANCH   1  24
ATOM     24  C   UNL A   1      35.846  32.727  30.369  1.00  0.00     0.261 C 
BRANCH  24  25
ATOM     25  O   UNL A   1      36.997  32.113  30.977  1.00  0.00    -0.460 OA
BRANCH  25  26
ATOM     26  C   UNL A   1      36.914  30.770  31.128  1.00  0.00     0.338 C 
ATOM     27  O   UNL A   1      35.967  30.136  31.575  1.00  0.00    -0.246 OA
BRANCH  26  28
ATOM     28  C   UNL A   1      38.084  30.117  30.510  1.00  0.00     0.060 A 
ATOM     29  C   UNL A   1      39.010  29.503  31.363  1.00  0.00     0.016 A 
ATOM     30  C   UNL A   1      38.310  30.158  29.132  1.00  0.00     0.016 A 
ATOM     31  C   UNL A   1      40.188  28.966  30.847  1.00  0.00     0.010 A 
ATOM     32  C   UNL A   1      39.498  29.628  28.617  1.00  0.00     0.010 A 
ATOM     33  C   UNL A   1      40.457  29.058  29.475  1.00  0.00    -0.014 A 
BRANCH  33  34
ATOM     34  C   UNL A   1      41.798  28.690  28.958  1.00  0.00     0.031 A 
ATOM     35  C   UNL A   1      42.865  29.749  28.882  1.00  0.00     0.074 A 
ATOM     36  C   UNL A   1      42.071  27.426  28.584  1.00  0.00     0.049 A 
ATOM     37  N   UNL A   1      44.079  29.670  28.402  1.00  0.00    -0.248 NA
ATOM     38  C   UNL A   1      42.515  31.074  29.421  1.00  0.00     0.031 C 
ATOM     39  C   UNL A   1      41.139  26.302  28.659  1.00  0.00     0.029 A 
ATOM     40  N   UNL A   1      43.216  26.879  28.058  1.00  0.00    -0.354 N 
ATOM     41  C   UNL A   1      44.639  30.931  28.581  1.00  0.00     0.074 A 
ATOM     42  C   UNL A   1      43.622  31.764  29.185  1.00  0.00     0.031 C 
ATOM     43  C   UNL A   1      41.745  25.200  28.183  1.00  0.00     0.029 A 
ATOM     44  C   UNL A   1      43.093  25.547  27.739  1.00  0.00     0.049 A 
ATOM     45  H   UNL A   1      44.044  27.392  27.921  1.00  0.00     0.167 HD
ATOM     46  C   UNL A   1      45.890  31.352  28.279  1.00  0.00     0.037 A 
ATOM     47  C   UNL A   1      43.964  24.713  27.137  1.00  0.00     0.037 A 
ATOM     48  C   UNL A   1      46.899  30.520  27.676  1.00  0.00     0.049 A 
ATOM     49  C   UNL A   1      45.323  25.227  26.733  1.00  0.00     0.074 A 
ATOM     50  C   UNL A   1      48.191  30.858  27.316  1.00  0.00     0.029 A 
ATOM     51  N   UNL A   1      46.729  29.184  27.347  1.00  0.00    -0.354 N 
ATOM     52  N   UNL A   1      45.836  26.423  26.901  1.00  0.00    -0.248 NA
ATOM     53  C   UNL A   1      46.222  24.279  26.059  1.00  0.00     0.031 C 
ATOM     54  C   UNL A   1      48.791  29.737  26.736  1.00  0.00     0.029 A 
ATOM     55  C   UNL A   1      47.889  28.686  26.778  1.00  0.00     0.049 A 
ATOM     56  H   UNL A   1      45.905  28.666  27.496  1.00  0.00     0.167 HD
ATOM     57  C   UNL A   1      47.128  26.358  26.390  1.00  0.00     0.074 A 
ATOM     58  C   UNL A   1      47.321  25.008  25.907  1.00  0.00     0.031 C 
ATOM     59  C   UNL A   1      48.073  27.329  26.329  1.00  0.00     0.037 A 
BRANCH  46  60
ATOM     60  C   UNL A   1      46.240  32.781  28.586  1.00  0.00     0.058 A 
ATOM     61  C   UNL A   1      46.821  33.147  29.811  1.00  0.00     0.135 A 
ATOM     62  C   UNL A   1      46.040  33.788  27.629  1.00  0.00     0.135 A 
ATOM     63  F   UNL A   1      47.015  32.227  30.769  1.00  0.00    -0.206 F 
ATOM     64  C   UNL A   1      47.178  34.464  30.080  1.00  0.00     0.059 A 
ATOM     65  C   UNL A   1      46.412  35.107  27.867  1.00  0.00     0.059 A 
ATOM     66  F   UNL A   1      45.484  33.491  26.443  1.00  0.00    -0.206 F 
ATOM     67  C   UNL A   1      46.972  35.437  29.100  1.00  0.00     0.060 A 
BRANCH  67  68
ATOM     68  S   UNL A   1      47.460  37.138  29.459  1.00  0.00     0.124 S 
ATOM     69  O   UNL A   1      47.739  37.066  30.890  1.00  0.00    -0.237 OA
ATOM     70  O   UNL A   1      48.622  37.318  28.595  1.00  0.00    -0.237 OA
ATOM     71  O   UNL A   1      46.281  37.915  29.089  1.00  0.00    -0.744 OA
ENDBRANCH  67  68
ENDBRANCH  46  60
BRANCH  47  72
ATOM     72  C   UNL A   1      43.581  23.302  26.856  1.00  0.00     0.058 A 
ATOM     73  C   UNL A   1      43.350  22.862  25.544  1.00  0.00     0.135 A 
ATOM     74  C   UNL A   1      43.404  22.376  27.895  1.00  0.00     0.135 A 
ATOM     75  F   UNL A   1      43.496  23.713  24.516  1.00  0.00    -0.206 F 
ATOM     76  C   UNL A   1      42.930  21.564  25.274  1.00  0.00     0.059 A 
ATOM     77  C   UNL A   1      43.011  21.065  27.649  1.00  0.00     0.059 A 
ATOM     78  F   UNL A   1      43.624  22.743  29.168  1.00  0.00    -0.206 F 
ATOM     79  C   UNL A   1      42.760  20.672  26.334  1.00  0.00     0.060 A 
BRANCH  79  80
ATOM     80  S   UNL A   1      42.230  18.983  25.976  1.00  0.00     0.124 S 
ATOM     81  O   UNL A   1      40.793  19.157  25.809  1.00  0.00    -0.237 OA
ATOM     82  O   UNL A   1      42.984  18.676  24.764  1.00  0.00    -0.237 OA
ATOM     83  O   UNL A   1      42.645  18.246  27.166  1.00  0.00    -0.744 OA
ENDBRANCH  79  80
ENDBRANCH  47  72
BRANCH  59  84
ATOM     84  C   UNL A   1      49.422  26.959  25.778  1.00  0.00     0.058 A 
ATOM     85  C   UNL A   1      49.759  27.178  24.434  1.00  0.00     0.135 A 
ATOM     86  C   UNL A   1      50.413  26.438  26.627  1.00  0.00     0.135 A 
ATOM     87  F   UNL A   1      48.848  27.667  23.580  1.00  0.00    -0.206 F 
ATOM     88  C   UNL A   1      51.028  26.878  23.946  1.00  0.00     0.059 A 
ATOM     89  C   UNL A   1      51.694  26.155  26.167  1.00  0.00     0.059 A 
ATOM     90  F   UNL A   1      50.144  26.219  27.925  1.00  0.00    -0.206 F 
ATOM     91  C   UNL A   1      51.990  26.371  24.822  1.00  0.00     0.060 A 
BRANCH  91  92
ATOM     92  S   UNL A   1      53.647  26.030  24.188  1.00  0.00     0.124 S 
ATOM     93  O   UNL A   1      53.914  24.713  24.757  1.00  0.00    -0.237 OA
ATOM     94  O   UNL A   1      53.442  26.067  22.743  1.00  0.00    -0.237 OA
ATOM     95  O   UNL A   1      54.449  27.123  24.729  1.00  0.00    -0.744 OA
ENDBRANCH  91  92
ENDBRANCH  59  84
ENDBRANCH  33  34
ENDBRANCH  26  28
ENDBRANCH  25  26
ENDBRANCH  24  25
ENDBRANCH   1  24
TORSDOF 19
ENDMDL
MODEL 3
REMARK VINA RESULT:     -10.8      6.284     12.181
REMARK SMILES Cc1cc(Oc2ccnc(C(=O)OCCOCCOC(=O)c3ccc(-c4c5nc(c(-c6c(F)cc(S(=O)(=O)[O-])cc6F)c6ccc([nH]6)c(-c6c(F)cc(S(=O)(=O)[O-])cc6F)c6nc(c(-c7c(F)cc(S(=O)(=O)[O-])cc7F)c7ccc4[nH]7)C=C6)C=C5)cc3)c2)cc(C)c1Cl
REMARK SMILES IDX 17 1 16 2 15 3 14 4 13 5 11 6 12 7 10 8 6 9 7 10 88 11 8 12
REMARK SMILES IDX 9 13 5 14 4 15 1 16 2 17 3 18 92 19 90 20 93 21 89 22 91 23
REMARK SMILES IDX 18 24 19 25 20 26 21 27 22 28 23 29 87 30 24 31 86 32 25 33
REMARK SMILES IDX 26 34 27 35 80 36 28 37 85 38 79 39 81 40 29 41 84 42 78 43
REMARK SMILES IDX 77 44 30 46 64 47 43 48 63 49 44 50 47 51 62 52 82 53 45 54
REMARK SMILES IDX 46 55 61 57 83 58 48 59 31 60 32 61 41 62 33 63 34 64 40 65
REMARK SMILES IDX 42 66 35 67 36 68 37 69 38 70 39 71 65 72 66 73 75 74 67 75
REMARK SMILES IDX 68 76 74 77 76 78 69 79 70 80 71 81 72 82 73 83 49 84 50 85
REMARK SMILES IDX 59 86 51 87 52 88 58 89 60 90 53 91 54 92 55 93 56 94 57 95
REMARK H PARENT 81 45 47 56
REMARK Flexibility Score: inf
ROOT
ATOM      1  C   UNL A   1      33.870  31.724  27.687  1.00  0.00     0.202 C 
ENDROOT
BRANCH   1   2
ATOM      2  O   UNL A   1      33.738  30.310  27.530  1.00  0.00    -0.374 OA
BRANCH   2   3
ATOM      3  C   UNL A   1      33.329  29.840  26.245  1.00  0.00     0.202 C 
BRANCH   3   4
ATOM      4  C   UNL A   1      31.816  29.791  26.011  1.00  0.00     0.261 C 
BRANCH   4   5
ATOM      5  O   UNL A   1      31.426  28.530  25.437  1.00  0.00    -0.459 OA
BRANCH   5   6
ATOM      6  C   UNL A   1      31.292  27.503  26.319  1.00  0.00     0.357 C 
ATOM      7  O   UNL A   1      31.123  27.608  27.524  1.00  0.00    -0.244 OA
BRANCH   6   8
ATOM      8  C   UNL A   1      31.254  26.200  25.582  1.00  0.00     0.152 A 
ATOM      9  C   UNL A   1      31.661  23.857  25.376  1.00  0.00     0.131 A 
ATOM     10  C   UNL A   1      31.063  23.891  24.119  1.00  0.00     0.067 A 
ATOM     11  C   UNL A   1      31.742  25.023  26.137  1.00  0.00     0.083 A 
ATOM     12  C   UNL A   1      30.637  25.112  23.635  1.00  0.00     0.116 A 
ATOM     13  N   UNL A   1      30.722  26.262  24.332  1.00  0.00    -0.249 NA
BRANCH   9  14
ATOM     14  O   UNL A   1      32.097  22.707  25.990  1.00  0.00    -0.457 OA
BRANCH  14  15
ATOM     15  C   UNL A   1      33.320  22.153  25.683  1.00  0.00     0.128 A 
ATOM     16  C   UNL A   1      37.058  22.837  25.683  1.00  0.00     0.046 C 
ATOM     17  C   UNL A   1      35.750  22.108  25.531  1.00  0.00    -0.028 A 
ATOM     18  C   UNL A   1      34.555  22.778  25.852  1.00  0.00     0.052 A 
ATOM     19  C   UNL A   1      35.691  20.768  25.102  1.00  0.00     0.047 A 
ATOM     20  C   UNL A   1      34.453  20.110  24.975  1.00  0.00    -0.028 A 
ATOM     21  Cl  UNL A   1      37.159  19.913  24.745  1.00  0.00    -0.084 Cl
ATOM     22  C   UNL A   1      33.277  20.822  25.260  1.00  0.00     0.052 A 
ATOM     23  C   UNL A   1      34.354  18.663  24.577  1.00  0.00     0.046 C 
ENDBRANCH  14  15
ENDBRANCH   9  14
ENDBRANCH   6   8
ENDBRANCH   5   6
ENDBRANCH   4   5
ENDBRANCH   3   4
ENDBRANCH   2   3
ENDBRANCH   1   2
BRANCH   1  24
ATOM     24  C   UNL A   1      34.761  32.188  28.846  1.00  0.00     0.261 C 
BRANCH  24  25
ATOM     25  O   UNL A   1      35.507  31.099  29.421  1.00  0.00    -0.460 OA
BRANCH  25  26
ATOM     26  C   UNL A   1      36.558  31.472  30.188  1.00  0.00     0.338 C 
ATOM     27  O   UNL A   1      36.534  32.214  31.161  1.00  0.00    -0.246 OA
BRANCH  26  28
ATOM     28  C   UNL A   1      37.764  30.714  29.799  1.00  0.00     0.060 A 
ATOM     29  C   UNL A   1      38.694  30.416  30.804  1.00  0.00     0.016 A 
ATOM     30  C   UNL A   1      38.015  30.356  28.473  1.00  0.00     0.016 A 
ATOM     31  C   UNL A   1      39.901  29.799  30.479  1.00  0.00     0.010 A 
ATOM     32  C   UNL A   1      39.232  29.746  28.147  1.00  0.00     0.010 A 
ATOM     33  C   UNL A   1      40.193  29.494  29.143  1.00  0.00    -0.014 A 
BRANCH  33  34
ATOM     34  C   UNL A   1      41.557  29.044  28.769  1.00  0.00     0.031 A 
ATOM     35  C   UNL A   1      42.677  30.050  28.754  1.00  0.00     0.074 A 
ATOM     36  C   UNL A   1      41.802  27.755  28.468  1.00  0.00     0.049 A 
ATOM     37  N   UNL A   1      43.924  29.897  28.394  1.00  0.00    -0.248 NA
ATOM     38  C   UNL A   1      42.344  31.411  29.209  1.00  0.00     0.031 C 
ATOM     39  C   UNL A   1      40.812  26.679  28.496  1.00  0.00     0.029 A 
ATOM     40  N   UNL A   1      42.961  27.135  28.073  1.00  0.00    -0.354 N 
ATOM     41  C   UNL A   1      44.526  31.137  28.578  1.00  0.00     0.074 A 
ATOM     42  C   UNL A   1      43.500  32.040  29.052  1.00  0.00     0.031 C 
ATOM     43  C   UNL A   1      41.405  25.531  28.120  1.00  0.00     0.029 A 
ATOM     44  C   UNL A   1      42.804  25.799  27.793  1.00  0.00     0.049 A 
ATOM     45  H   UNL A   1      43.823  27.604  27.996  1.00  0.00     0.167 HD
ATOM     46  C   UNL A   1      45.819  31.489  28.381  1.00  0.00     0.037 A 
ATOM     47  C   UNL A   1      43.685  24.902  27.307  1.00  0.00     0.037 A 
ATOM     48  C   UNL A   1      46.837  30.587  27.906  1.00  0.00     0.049 A 
ATOM     49  C   UNL A   1      45.099  25.337  27.014  1.00  0.00     0.074 A 
ATOM     50  C   UNL A   1      48.173  30.852  27.657  1.00  0.00     0.029 A 
ATOM     51  N   UNL A   1      46.633  29.248  27.612  1.00  0.00    -0.354 N 
ATOM     52  N   UNL A   1      45.652  26.514  27.186  1.00  0.00    -0.248 NA
ATOM     53  C   UNL A   1      46.009  24.322  26.463  1.00  0.00     0.031 C 
ATOM     54  C   UNL A   1      48.768  29.681  27.177  1.00  0.00     0.029 A 
ATOM     55  C   UNL A   1      47.816  28.675  27.173  1.00  0.00     0.049 A 
ATOM     56  H   UNL A   1      45.775  28.774  27.701  1.00  0.00     0.167 HD
ATOM     57  C   UNL A   1      46.981  26.370  26.802  1.00  0.00     0.074 A 
ATOM     58  C   UNL A   1      47.151  24.994  26.388  1.00  0.00     0.031 C 
ATOM     59  C   UNL A   1      47.974  27.294  26.794  1.00  0.00     0.037 A 
BRANCH  46  60
ATOM     60  C   UNL A   1      46.209  32.912  28.666  1.00  0.00     0.058 A 
ATOM     61  C   UNL A   1      46.695  33.300  29.925  1.00  0.00     0.135 A 
ATOM     62  C   UNL A   1      46.144  33.887  27.659  1.00  0.00     0.135 A 
ATOM     63  F   UNL A   1      46.758  32.412  30.929  1.00  0.00    -0.206 F 
ATOM     64  C   UNL A   1      47.089  34.610  30.177  1.00  0.00     0.059 A 
ATOM     65  C   UNL A   1      46.556  35.197  27.882  1.00  0.00     0.059 A 
ATOM     66  F   UNL A   1      45.683  33.568  26.439  1.00  0.00    -0.206 F 
ATOM     67  C   UNL A   1      47.019  35.551  29.149  1.00  0.00     0.060 A 
BRANCH  67  68
ATOM     68  S   UNL A   1      47.554  37.241  29.488  1.00  0.00     0.124 S 
ATOM     69  O   UNL A   1      46.321  37.989  29.259  1.00  0.00    -0.237 OA
ATOM     70  O   UNL A   1      47.995  37.156  30.877  1.00  0.00    -0.237 OA
ATOM     71  O   UNL A   1      48.614  37.465  28.510  1.00  0.00    -0.744 OA
ENDBRANCH  67  68
ENDBRANCH  46  60
BRANCH  47  72
ATOM     72  C   UNL A   1      43.261  23.500  27.043  1.00  0.00     0.058 A 
ATOM     73  C   UNL A   1      43.156  22.566  28.085  1.00  0.00     0.135 A 
ATOM     74  C   UNL A   1      42.987  23.057  25.740  1.00  0.00     0.135 A 
ATOM     75  F   UNL A   1      43.417  22.938  29.347  1.00  0.00    -0.206 F 
ATOM     76  C   UNL A   1      42.821  21.238  27.842  1.00  0.00     0.059 A 
ATOM     77  C   UNL A   1      42.625  21.740  25.474  1.00  0.00     0.059 A 
ATOM     78  F   UNL A   1      43.062  23.913  24.708  1.00  0.00    -0.206 F 
ATOM     79  C   UNL A   1      42.561  20.833  26.531  1.00  0.00     0.060 A 
BRANCH  79  80
ATOM     80  S   UNL A   1      42.112  19.111  26.225  1.00  0.00     0.124 S 
ATOM     81  O   UNL A   1      40.711  19.238  25.842  1.00  0.00    -0.237 OA
ATOM     82  O   UNL A   1      43.036  18.737  25.158  1.00  0.00    -0.237 OA
ATOM     83  O   UNL A   1      42.362  18.468  27.512  1.00  0.00    -0.744 OA
ENDBRANCH  79  80
ENDBRANCH  47  72
BRANCH  59  84
ATOM     84  C   UNL A   1      49.348  26.841  26.386  1.00  0.00     0.058 A 
ATOM     85  C   UNL A   1      50.245  26.275  27.304  1.00  0.00     0.135 A 
ATOM     86  C   UNL A   1      49.745  26.913  25.040  1.00  0.00     0.135 A 
ATOM     87  F   UNL A   1      49.918  26.188  28.602  1.00  0.00    -0.206 F 
ATOM     88  C   UNL A   1      51.496  25.812  26.905  1.00  0.00     0.059 A 
ATOM     89  C   UNL A   1      50.979  26.434  24.615  1.00  0.00     0.059 A 
ATOM     90  F   UNL A   1      48.918  27.437  24.120  1.00  0.00    -0.206 F 
ATOM     91  C   UNL A   1      51.851  25.892  25.557  1.00  0.00     0.060 A 
BRANCH  91  92
ATOM     92  S   UNL A   1      53.458  25.245  25.044  1.00  0.00     0.124 S 
ATOM     93  O   UNL A   1      53.308  23.822  25.334  1.00  0.00    -0.237 OA
ATOM     94  O   UNL A   1      53.502  25.602  23.629  1.00  0.00    -0.237 OA
ATOM     95  O   UNL A   1      54.401  25.963  25.895  1.00  0.00    -0.744 OA
ENDBRANCH  91  92
ENDBRANCH  59  84
ENDBRANCH  33  34
ENDBRANCH  26  28
ENDBRANCH  25  26
ENDBRANCH  24  25
ENDBRANCH   1  24
TORSDOF 19
ENDMDL
