MODEL 1
REMARK VINA RESULT:     -11.5      0.000      0.000
REMARK SMILES Cc1cc2c(c(C)c1Cl)C=C(C(=O)OCCOCCOC(=O)c1ccc(-c3c4nc(c(-c5c(F)cc(S(=O)(=O)[O-])cc5F)c5ccc([nH]5)c(-c5c(F)cc(S(=O)(=O)[O-])cc5F)c5nc(c(-c6c(F)cc(S(=O)(=O)[O-])cc6F)c6ccc3[nH]6)C=C5)C=C4)cc1)[C@@H](C(F)(F)F)O2
REMARK SMILES IDX 18 1 17 2 16 3 15 4 14 5 12 6 13 7 11 8 1 9 2 10 3 11 8 12
REMARK SMILES IDX 4 13 6 14 9 15 5 16 94 17 7 18 10 19 89 20 90 21 91 22 92 23
REMARK SMILES IDX 93 24 19 25 20 26 21 27 22 28 23 29 24 30 88 31 25 32 87 33
REMARK SMILES IDX 26 34 27 35 28 36 81 37 29 38 86 39 80 40 82 41 30 42 85 43
REMARK SMILES IDX 79 44 78 45 31 47 65 48 44 49 64 50 45 51 48 52 63 53 83 54
REMARK SMILES IDX 46 55 47 56 62 58 84 59 49 60 32 61 33 62 42 63 34 64 35 65
REMARK SMILES IDX 41 66 43 67 36 68 37 69 38 70 39 71 40 72 66 73 67 74 76 75
REMARK SMILES IDX 68 76 69 77 75 78 77 79 70 80 71 81 72 82 73 83 74 84 50 85
REMARK SMILES IDX 51 86 60 87 52 88 53 89 59 90 61 91 54 92 55 93 56 94 57 95
REMARK SMILES IDX 58 96
REMARK H PARENT 82 46 48 57
REMARK Flexibility Score: inf
ROOT
ATOM      1  C   UNL A   1      39.406  21.854  26.221  1.00  0.00     0.202 C 
ENDROOT
BRANCH   1   2
ATOM      2  O   UNL A   1      38.055  22.200  25.912  1.00  0.00    -0.374 OA
BRANCH   2   3
ATOM      3  C   UNL A   1      37.469  21.619  24.748  1.00  0.00     0.202 C 
BRANCH   3   4
ATOM      4  C   UNL A   1      36.065  22.097  24.369  1.00  0.00     0.261 C 
BRANCH   4   5
ATOM      5  O   UNL A   1      35.881  23.491  24.660  1.00  0.00    -0.460 OA
BRANCH   5   6
ATOM      6  C   UNL A   1      34.825  23.763  25.461  1.00  0.00     0.338 C 
ATOM      7  O   UNL A   1      34.610  23.310  26.575  1.00  0.00    -0.246 OA
BRANCH   6   8
ATOM      8  C   UNL A   1      34.000  24.826  24.856  1.00  0.00     0.087 C 
ATOM      9  C   UNL A   1      30.036  29.827  23.817  1.00  0.00     0.046 C 
ATOM     10  C   UNL A   1      31.142  28.912  24.270  1.00  0.00    -0.028 A 
ATOM     11  C   UNL A   1      31.352  27.731  23.544  1.00  0.00     0.052 A 
ATOM     12  C   UNL A   1      31.995  29.205  25.352  1.00  0.00     0.047 A 
ATOM     13  C   UNL A   1      32.319  26.810  23.938  1.00  0.00     0.128 A 
ATOM     14  C   UNL A   1      32.989  28.285  25.764  1.00  0.00    -0.021 A 
ATOM     15  Cl  UNL A   1      31.805  30.720  26.183  1.00  0.00    -0.084 Cl
ATOM     16  C   UNL A   1      33.108  27.057  25.065  1.00  0.00     0.022 A 
ATOM     17  O   UNL A   1      32.420  25.698  23.150  1.00  0.00    -0.475 OA
ATOM     18  C   UNL A   1      33.917  28.574  26.921  1.00  0.00     0.047 C 
ATOM     19  C   UNL A   1      33.998  25.992  25.515  1.00  0.00     0.027 C 
ATOM     20  C   UNL A   1      33.212  24.567  23.607  1.00  0.00     0.316 C 
BRANCH  20  21
ATOM     21  C   UNL A   1      32.286  23.349  23.728  1.00  0.00     0.430 C 
ATOM     22  F   UNL A   1      31.220  23.464  22.900  1.00  0.00    -0.167 F 
ATOM     23  F   UNL A   1      32.919  22.202  23.394  1.00  0.00    -0.167 F 
ATOM     24  F   UNL A   1      31.811  23.203  24.985  1.00  0.00    -0.167 F 
ENDBRANCH  20  21
ENDBRANCH   6   8
ENDBRANCH   5   6
ENDBRANCH   4   5
ENDBRANCH   3   4
ENDBRANCH   2   3
ENDBRANCH   1   2
BRANCH   1  25
ATOM     25  C   UNL A   1      40.376  22.998  26.536  1.00  0.00     0.261 C 
BRANCH  25  26
ATOM     26  O   UNL A   1      39.732  24.285  26.508  1.00  0.00    -0.460 OA
BRANCH  26  27
ATOM     27  C   UNL A   1      40.574  25.335  26.343  1.00  0.00     0.338 C 
ATOM     28  O   UNL A   1      41.078  25.718  25.296  1.00  0.00    -0.246 OA
BRANCH  27  29
ATOM     29  C   UNL A   1      40.672  26.105  27.595  1.00  0.00     0.060 A 
ATOM     30  C   UNL A   1      39.639  25.956  28.530  1.00  0.00     0.016 A 
ATOM     31  C   UNL A   1      41.702  27.021  27.810  1.00  0.00     0.016 A 
ATOM     32  C   UNL A   1      39.611  26.758  29.668  1.00  0.00     0.010 A 
ATOM     33  C   UNL A   1      41.663  27.835  28.947  1.00  0.00     0.010 A 
ATOM     34  C   UNL A   1      40.599  27.731  29.862  1.00  0.00    -0.014 A 
BRANCH  34  35
ATOM     35  C   UNL A   1      40.427  28.736  30.937  1.00  0.00     0.031 A 
ATOM     36  C   UNL A   1      41.326  28.672  32.143  1.00  0.00     0.074 A 
ATOM     37  C   UNL A   1      39.522  29.723  30.817  1.00  0.00     0.049 A 
ATOM     38  N   UNL A   1      41.347  29.438  33.201  1.00  0.00    -0.248 NA
ATOM     39  C   UNL A   1      42.338  27.603  32.153  1.00  0.00     0.031 C 
ATOM     40  C   UNL A   1      38.634  29.918  29.671  1.00  0.00     0.029 A 
ATOM     41  N   UNL A   1      39.203  30.750  31.669  1.00  0.00    -0.354 N 
ATOM     42  C   UNL A   1      42.376  28.952  34.000  1.00  0.00     0.074 A 
ATOM     43  C   UNL A   1      42.931  27.801  33.321  1.00  0.00     0.031 C 
ATOM     44  C   UNL A   1      37.870  31.002  29.892  1.00  0.00     0.029 A 
ATOM     45  C   UNL A   1      38.192  31.558  31.206  1.00  0.00     0.049 A 
ATOM     46  H   UNL A   1      39.655  30.894  32.532  1.00  0.00     0.167 HD
ATOM     47  C   UNL A   1      42.826  29.430  35.184  1.00  0.00     0.037 A 
ATOM     48  C   UNL A   1      37.588  32.616  31.783  1.00  0.00     0.037 A 
ATOM     49  C   UNL A   1      42.266  30.572  35.856  1.00  0.00     0.049 A 
ATOM     50  C   UNL A   1      38.044  33.073  33.144  1.00  0.00     0.074 A 
ATOM     51  C   UNL A   1      42.648  31.134  37.062  1.00  0.00     0.029 A 
ATOM     52  N   UNL A   1      41.202  31.328  35.384  1.00  0.00    -0.354 N 
ATOM     53  N   UNL A   1      39.017  32.604  33.889  1.00  0.00    -0.248 NA
ATOM     54  C   UNL A   1      37.319  34.202  33.746  1.00  0.00     0.031 C 
ATOM     55  C   UNL A   1      41.788  32.200  37.340  1.00  0.00     0.029 A 
ATOM     56  C   UNL A   1      40.900  32.335  36.285  1.00  0.00     0.049 A 
ATOM     57  H   UNL A   1      40.733  31.171  34.533  1.00  0.00     0.167 HD
ATOM     58  C   UNL A   1      39.034  33.390  35.036  1.00  0.00     0.074 A 
ATOM     59  C   UNL A   1      37.982  34.374  34.882  1.00  0.00     0.031 C 
ATOM     60  C   UNL A   1      39.848  33.307  36.118  1.00  0.00     0.037 A 
BRANCH  47  61
ATOM     61  C   UNL A   1      43.973  28.711  35.835  1.00  0.00     0.058 A 
ATOM     62  C   UNL A   1      43.762  27.620  36.692  1.00  0.00     0.135 A 
ATOM     63  C   UNL A   1      45.298  29.086  35.564  1.00  0.00     0.135 A 
ATOM     64  F   UNL A   1      42.515  27.232  37.001  1.00  0.00    -0.206 F 
ATOM     65  C   UNL A   1      44.827  26.936  37.272  1.00  0.00     0.059 A 
ATOM     66  C   UNL A   1      46.379  28.402  36.113  1.00  0.00     0.059 A 
ATOM     67  F   UNL A   1      45.554  30.127  34.755  1.00  0.00    -0.206 F 
ATOM     68  C   UNL A   1      46.131  27.333  36.973  1.00  0.00     0.060 A 
BRANCH  68  69
ATOM     69  S   UNL A   1      47.499  26.424  37.723  1.00  0.00     0.124 S 
ATOM     70  O   UNL A   1      47.677  25.330  36.773  1.00  0.00    -0.237 OA
ATOM     71  O   UNL A   1      48.563  27.423  37.744  1.00  0.00    -0.237 OA
ATOM     72  O   UNL A   1      46.978  26.038  39.030  1.00  0.00    -0.744 OA
ENDBRANCH  68  69
ENDBRANCH  47  61
BRANCH  48  73
ATOM     73  C   UNL A   1      36.485  33.316  31.074  1.00  0.00     0.058 A 
ATOM     74  C   UNL A   1      35.158  33.204  31.513  1.00  0.00     0.135 A 
ATOM     75  C   UNL A   1      36.736  34.121  29.951  1.00  0.00     0.135 A 
ATOM     76  F   UNL A   1      34.866  32.435  32.574  1.00  0.00    -0.206 F 
ATOM     77  C   UNL A   1      34.118  33.863  30.866  1.00  0.00     0.059 A 
ATOM     78  C   UNL A   1      35.716  34.808  29.301  1.00  0.00     0.059 A 
ATOM     79  F   UNL A   1      37.990  34.266  29.495  1.00  0.00    -0.206 F 
ATOM     80  C   UNL A   1      34.409  34.668  29.763  1.00  0.00     0.060 A 
BRANCH  80  81
ATOM     81  S   UNL A   1      33.057  35.566  28.969  1.00  0.00     0.124 S 
ATOM     82  O   UNL A   1      32.458  34.525  28.142  1.00  0.00    -0.237 OA
ATOM     83  O   UNL A   1      32.268  36.004  30.116  1.00  0.00    -0.237 OA
ATOM     84  O   UNL A   1      33.742  36.632  28.245  1.00  0.00    -0.744 OA
ENDBRANCH  80  81
ENDBRANCH  48  73
BRANCH  60  85
ATOM     85  C   UNL A   1      39.651  34.311  37.220  1.00  0.00     0.058 A 
ATOM     86  C   UNL A   1      38.960  33.984  38.395  1.00  0.00     0.135 A 
ATOM     87  C   UNL A   1      40.231  35.588  37.133  1.00  0.00     0.135 A 
ATOM     88  F   UNL A   1      38.382  32.779  38.525  1.00  0.00    -0.206 F 
ATOM     89  C   UNL A   1      38.839  34.891  39.443  1.00  0.00     0.059 A 
ATOM     90  C   UNL A   1      40.147  36.501  38.179  1.00  0.00     0.059 A 
ATOM     91  F   UNL A   1      40.914  35.946  36.034  1.00  0.00    -0.206 F 
ATOM     92  C   UNL A   1      39.442  36.145  39.328  1.00  0.00     0.060 A 
BRANCH  92  93
ATOM     93  S   UNL A   1      39.319  37.291  40.718  1.00  0.00     0.124 S 
ATOM     94  O   UNL A   1      38.445  38.324  40.173  1.00  0.00    -0.237 OA
ATOM     95  O   UNL A   1      38.738  36.453  41.762  1.00  0.00    -0.237 OA
ATOM     96  O   UNL A   1      40.703  37.697  40.948  1.00  0.00    -0.744 OA
ENDBRANCH  92  93
ENDBRANCH  60  85
ENDBRANCH  34  35
ENDBRANCH  27  29
ENDBRANCH  26  27
ENDBRANCH  25  26
ENDBRANCH   1  25
TORSDOF 18
ENDMDL
MODEL 2
REMARK VINA RESULT:     -11.3      4.880     10.595
REMARK SMILES Cc1cc2c(c(C)c1Cl)C=C(C(=O)OCCOCCOC(=O)c1ccc(-c3c4nc(c(-c5c(F)cc(S(=O)(=O)[O-])cc5F)c5ccc([nH]5)c(-c5c(F)cc(S(=O)(=O)[O-])cc5F)c5nc(c(-c6c(F)cc(S(=O)(=O)[O-])cc6F)c6ccc3[nH]6)C=C5)C=C4)cc1)[C@@H](C(F)(F)F)O2
REMARK SMILES IDX 18 1 17 2 16 3 15 4 14 5 12 6 13 7 11 8 1 9 2 10 3 11 8 12
REMARK SMILES IDX 4 13 6 14 9 15 5 16 94 17 7 18 10 19 89 20 90 21 91 22 92 23
REMARK SMILES IDX 93 24 19 25 20 26 21 27 22 28 23 29 24 30 88 31 25 32 87 33
REMARK SMILES IDX 26 34 27 35 28 36 81 37 29 38 86 39 80 40 82 41 30 42 85 43
REMARK SMILES IDX 79 44 78 45 31 47 65 48 44 49 64 50 45 51 48 52 63 53 83 54
REMARK SMILES IDX 46 55 47 56 62 58 84 59 49 60 32 61 33 62 42 63 34 64 35 65
REMARK SMILES IDX 41 66 43 67 36 68 37 69 38 70 39 71 40 72 66 73 67 74 76 75
REMARK SMILES IDX 68 76 69 77 75 78 77 79 70 80 71 81 72 82 73 83 74 84 50 85
REMARK SMILES IDX 51 86 60 87 52 88 53 89 59 90 61 91 54 92 55 93 56 94 57 95
REMARK SMILES IDX 58 96
REMARK H PARENT 82 46 48 57
REMARK Flexibility Score: inf
ROOT
ATOM      1  C   UNL A   1      32.700  29.803  25.535  1.00  0.00     0.202 C 
ENDROOT
BRANCH   1   2
ATOM      2  O   UNL A   1      31.360  29.470  25.167  1.00  0.00    -0.374 OA
BRANCH   2   3
ATOM      3  C   UNL A   1      31.066  28.100  24.899  1.00  0.00     0.202 C 
BRANCH   3   4
ATOM      4  C   UNL A   1      31.565  27.073  25.919  1.00  0.00     0.261 C 
BRANCH   4   5
ATOM      5  O   UNL A   1      31.808  25.794  25.311  1.00  0.00    -0.460 OA
BRANCH   5   6
ATOM      6  C   UNL A   1      32.951  25.723  24.591  1.00  0.00     0.338 C 
ATOM      7  O   UNL A   1      33.494  26.632  23.980  1.00  0.00    -0.246 OA
BRANCH   6   8
ATOM      8  C   UNL A   1      33.563  24.391  24.753  1.00  0.00     0.087 C 
ATOM      9  C   UNL A   1      37.612  19.353  24.910  1.00  0.00     0.046 C 
ATOM     10  C   UNL A   1      36.929  20.682  25.092  1.00  0.00    -0.028 A 
ATOM     11  C   UNL A   1      35.562  20.761  24.794  1.00  0.00     0.052 A 
ATOM     12  C   UNL A   1      37.585  21.828  25.584  1.00  0.00     0.047 A 
ATOM     13  C   UNL A   1      34.877  21.970  24.885  1.00  0.00     0.128 A 
ATOM     14  C   UNL A   1      36.905  23.064  25.690  1.00  0.00    -0.021 A 
ATOM     15  Cl  UNL A   1      39.253  21.701  26.056  1.00  0.00    -0.084 Cl
ATOM     16  C   UNL A   1      35.546  23.129  25.288  1.00  0.00     0.022 A 
ATOM     17  O   UNL A   1      33.550  21.915  24.562  1.00  0.00    -0.475 OA
ATOM     18  C   UNL A   1      37.584  24.309  26.214  1.00  0.00     0.047 C 
ATOM     19  C   UNL A   1      34.817  24.391  25.220  1.00  0.00     0.027 C 
ATOM     20  C   UNL A   1      32.806  23.150  24.381  1.00  0.00     0.316 C 
BRANCH  20  21
ATOM     21  C   UNL A   1      32.276  23.185  22.941  1.00  0.00     0.430 C 
ATOM     22  F   UNL A   1      33.122  23.860  22.127  1.00  0.00    -0.167 F 
ATOM     23  F   UNL A   1      32.142  21.943  22.424  1.00  0.00    -0.167 F 
ATOM     24  F   UNL A   1      31.069  23.791  22.864  1.00  0.00    -0.167 F 
ENDBRANCH  20  21
ENDBRANCH   6   8
ENDBRANCH   5   6
ENDBRANCH   4   5
ENDBRANCH   3   4
ENDBRANCH   2   3
ENDBRANCH   1   2
BRANCH   1  25
ATOM     25  C   UNL A   1      32.903  30.591  26.835  1.00  0.00     0.261 C 
BRANCH  25  26
ATOM     26  O   UNL A   1      33.823  29.940  27.730  1.00  0.00    -0.460 OA
BRANCH  26  27
ATOM     27  C   UNL A   1      34.737  30.765  28.298  1.00  0.00     0.338 C 
ATOM     28  O   UNL A   1      34.523  31.842  28.838  1.00  0.00    -0.246 OA
BRANCH  27  29
ATOM     29  C   UNL A   1      36.050  30.101  28.354  1.00  0.00     0.060 A 
ATOM     30  C   UNL A   1      36.429  29.512  29.568  1.00  0.00     0.016 A 
ATOM     31  C   UNL A   1      36.931  30.131  27.271  1.00  0.00     0.016 A 
ATOM     32  C   UNL A   1      37.710  28.990  29.718  1.00  0.00     0.010 A 
ATOM     33  C   UNL A   1      38.223  29.618  27.429  1.00  0.00     0.010 A 
ATOM     34  C   UNL A   1      38.628  29.077  28.663  1.00  0.00    -0.014 A 
BRANCH  34  35
ATOM     35  C   UNL A   1      40.051  28.745  28.910  1.00  0.00     0.031 A 
ATOM     36  C   UNL A   1      40.929  29.763  29.587  1.00  0.00     0.074 A 
ATOM     37  C   UNL A   1      40.541  27.535  28.586  1.00  0.00     0.049 A 
ATOM     38  N   UNL A   1      42.197  29.691  29.892  1.00  0.00    -0.248 NA
ATOM     39  C   UNL A   1      40.287  31.031  29.974  1.00  0.00     0.031 C 
ATOM     40  C   UNL A   1      39.774  26.450  27.977  1.00  0.00     0.029 A 
ATOM     41  N   UNL A   1      41.804  27.016  28.729  1.00  0.00    -0.354 N 
ATOM     42  C   UNL A   1      42.506  30.896  30.514  1.00  0.00     0.074 A 
ATOM     43  C   UNL A   1      41.301  31.697  30.508  1.00  0.00     0.031 C 
ATOM     44  C   UNL A   1      40.583  25.391  27.799  1.00  0.00     0.029 A 
ATOM     45  C   UNL A   1      41.930  25.734  28.253  1.00  0.00     0.049 A 
ATOM     46  H   UNL A   1      42.549  27.516  29.135  1.00  0.00     0.167 HD
ATOM     47  C   UNL A   1      43.683  31.293  31.051  1.00  0.00     0.037 A 
ATOM     48  C   UNL A   1      43.013  24.934  28.179  1.00  0.00     0.037 A 
ATOM     49  C   UNL A   1      44.880  30.495  31.050  1.00  0.00     0.049 A 
ATOM     50  C   UNL A   1      44.335  25.433  28.700  1.00  0.00     0.074 A 
ATOM     51  C   UNL A   1      46.124  30.808  31.566  1.00  0.00     0.029 A 
ATOM     52  N   UNL A   1      44.983  29.224  30.502  1.00  0.00    -0.354 N 
ATOM     53  N   UNL A   1      44.613  26.575  29.283  1.00  0.00    -0.248 NA
ATOM     54  C   UNL A   1      45.492  24.538  28.551  1.00  0.00     0.031 C 
ATOM     55  C   UNL A   1      46.992  29.747  31.291  1.00  0.00     0.029 A 
ATOM     56  C   UNL A   1      46.277  28.750  30.647  1.00  0.00     0.049 A 
ATOM     57  H   UNL A   1      44.246  28.732  30.074  1.00  0.00     0.167 HD
ATOM     58  C   UNL A   1      45.970  26.528  29.589  1.00  0.00     0.074 A 
ATOM     59  C   UNL A   1      46.454  25.240  29.136  1.00  0.00     0.031 C 
ATOM     60  C   UNL A   1      46.744  27.464  30.190  1.00  0.00     0.037 A 
BRANCH  47  61
ATOM     61  C   UNL A   1      43.738  32.658  31.677  1.00  0.00     0.058 A 
ATOM     62  C   UNL A   1      43.549  32.841  33.056  1.00  0.00     0.135 A 
ATOM     63  C   UNL A   1      44.030  33.790  30.899  1.00  0.00     0.135 A 
ATOM     64  F   UNL A   1      43.248  31.795  33.843  1.00  0.00    -0.206 F 
ATOM     65  C   UNL A   1      43.629  34.102  33.639  1.00  0.00     0.059 A 
ATOM     66  C   UNL A   1      44.140  35.057  31.465  1.00  0.00     0.059 A 
ATOM     67  F   UNL A   1      44.215  33.670  29.575  1.00  0.00    -0.206 F 
ATOM     68  C   UNL A   1      43.928  35.203  32.835  1.00  0.00     0.060 A 
BRANCH  68  69
ATOM     69  S   UNL A   1      44.044  36.828  33.612  1.00  0.00     0.124 S 
ATOM     70  O   UNL A   1      45.010  36.574  34.677  1.00  0.00    -0.237 OA
ATOM     71  O   UNL A   1      44.517  37.666  32.514  1.00  0.00    -0.237 OA
ATOM     72  O   UNL A   1      42.680  37.093  34.057  1.00  0.00    -0.744 OA
ENDBRANCH  68  69
ENDBRANCH  47  61
BRANCH  48  73
ATOM     73  C   UNL A   1      42.891  23.575  27.586  1.00  0.00     0.058 A 
ATOM     74  C   UNL A   1      43.151  23.355  26.226  1.00  0.00     0.135 A 
ATOM     75  C   UNL A   1      42.525  22.470  28.371  1.00  0.00     0.135 A 
ATOM     76  F   UNL A   1      43.491  24.383  25.434  1.00  0.00    -0.206 F 
ATOM     77  C   UNL A   1      43.052  22.087  25.662  1.00  0.00     0.059 A 
ATOM     78  C   UNL A   1      42.442  21.189  27.835  1.00  0.00     0.059 A 
ATOM     79  F   UNL A   1      42.272  22.628  29.679  1.00  0.00    -0.206 F 
ATOM     80  C   UNL A   1      42.702  21.008  26.477  1.00  0.00     0.060 A 
BRANCH  80  81
ATOM     81  S   UNL A   1      42.636  19.358  25.745  1.00  0.00     0.124 S 
ATOM     82  O   UNL A   1      43.057  18.523  26.862  1.00  0.00    -0.237 OA
ATOM     83  O   UNL A   1      41.231  19.252  25.361  1.00  0.00    -0.237 OA
ATOM     84  O   UNL A   1      43.577  19.447  24.632  1.00  0.00    -0.744 OA
ENDBRANCH  80  81
ENDBRANCH  48  73
BRANCH  60  85
ATOM     85  C   UNL A   1      48.194  27.135  30.413  1.00  0.00     0.058 A 
ATOM     86  C   UNL A   1      49.172  27.449  29.458  1.00  0.00     0.135 A 
ATOM     87  C   UNL A   1      48.620  26.575  31.629  1.00  0.00     0.135 A 
ATOM     88  F   UNL A   1      48.818  27.981  28.278  1.00  0.00    -0.206 F 
ATOM     89  C   UNL A   1      50.522  27.209  29.695  1.00  0.00     0.059 A 
ATOM     90  C   UNL A   1      49.966  26.350  31.898  1.00  0.00     0.059 A 
ATOM     91  F   UNL A   1      47.724  26.266  32.581  1.00  0.00    -0.206 F 
ATOM     92  C   UNL A   1      50.909  26.664  30.921  1.00  0.00     0.060 A 
BRANCH  92  93
ATOM     93  S   UNL A   1      52.669  26.406  31.232  1.00  0.00     0.124 S 
ATOM     94  O   UNL A   1      53.224  26.508  29.887  1.00  0.00    -0.237 OA
ATOM     95  O   UNL A   1      52.991  27.505  32.136  1.00  0.00    -0.237 OA
ATOM     96  O   UNL A   1      52.717  25.075  31.832  1.00  0.00    -0.744 OA
ENDBRANCH  92  93
ENDBRANCH  60  85
ENDBRANCH  34  35
ENDBRANCH  27  29
ENDBRANCH  26  27
ENDBRANCH  25  26
ENDBRANCH   1  25
TORSDOF 18
ENDMDL
MODEL 3
REMARK VINA RESULT:     -11.3      6.533     11.992
REMARK SMILES Cc1cc2c(c(C)c1Cl)C=C(C(=O)OCCOCCOC(=O)c1ccc(-c3c4nc(c(-c5c(F)cc(S(=O)(=O)[O-])cc5F)c5ccc([nH]5)c(-c5c(F)cc(S(=O)(=O)[O-])cc5F)c5nc(c(-c6c(F)cc(S(=O)(=O)[O-])cc6F)c6ccc3[nH]6)C=C5)C=C4)cc1)[C@@H](C(F)(F)F)O2
REMARK SMILES IDX 18 1 17 2 16 3 15 4 14 5 12 6 13 7 11 8 1 9 2 10 3 11 8 12
REMARK SMILES IDX 4 13 6 14 9 15 5 16 94 17 7 18 10 19 89 20 90 21 91 22 92 23
REMARK SMILES IDX 93 24 19 25 20 26 21 27 22 28 23 29 24 30 88 31 25 32 87 33
REMARK SMILES IDX 26 34 27 35 28 36 81 37 29 38 86 39 80 40 82 41 30 42 85 43
REMARK SMILES IDX 79 44 78 45 31 47 65 48 44 49 64 50 45 51 48 52 63 53 83 54
REMARK SMILES IDX 46 55 47 56 62 58 84 59 49 60 32 61 33 62 42 63 34 64 35 65
REMARK SMILES IDX 41 66 43 67 36 68 37 69 38 70 39 71 40 72 66 73 67 74 76 75
REMARK SMILES IDX 68 76 69 77 75 78 77 79 70 80 71 81 72 82 73 83 74 84 50 85
REMARK SMILES IDX 51 86 60 87 52 88 53 89 59 90 61 91 54 92 55 93 56 94 57 95
REMARK SMILES IDX 58 96
REMARK H PARENT 82 46 48 57
REMARK Flexibility Score: inf
ROOT
ATOM      1  C   UNL A   1      34.215  31.017  27.404  1.00  0.00     0.202 C 
ENDROOT
BRANCH   1   2
ATOM      2  O   UNL A   1      32.902  30.467  27.519  1.00  0.00    -0.374 OA
BRANCH   2   3
ATOM      3  C   UNL A   1      32.253  30.039  26.323  1.00  0.00     0.202 C 
BRANCH   3   4
ATOM      4  C   UNL A   1      33.108  29.278  25.307  1.00  0.00     0.261 C 
BRANCH   4   5
ATOM      5  O   UNL A   1      32.698  27.906  25.188  1.00  0.00    -0.460 OA
BRANCH   5   6
ATOM      6  C   UNL A   1      33.335  27.211  24.219  1.00  0.00     0.338 C 
ATOM      7  O   UNL A   1      34.000  27.668  23.301  1.00  0.00    -0.246 OA
BRANCH   6   8
ATOM      8  C   UNL A   1      33.240  25.765  24.495  1.00  0.00     0.087 C 
ATOM      9  C   UNL A   1      34.165  19.370  24.696  1.00  0.00     0.046 C 
ATOM     10  C   UNL A   1      34.306  20.867  24.765  1.00  0.00    -0.028 A 
ATOM     11  C   UNL A   1      33.132  21.633  24.787  1.00  0.00     0.052 A 
ATOM     12  C   UNL A   1      35.549  21.525  24.851  1.00  0.00     0.047 A 
ATOM     13  C   UNL A   1      33.184  23.024  24.794  1.00  0.00     0.128 A 
ATOM     14  C   UNL A   1      35.623  22.938  24.866  1.00  0.00    -0.021 A 
ATOM     15  Cl  UNL A   1      36.998  20.569  24.935  1.00  0.00    -0.084 Cl
ATOM     16  C   UNL A   1      34.418  23.682  24.790  1.00  0.00     0.022 A 
ATOM     17  O   UNL A   1      31.971  23.653  24.809  1.00  0.00    -0.475 OA
ATOM     18  C   UNL A   1      36.942  23.669  24.958  1.00  0.00     0.047 C 
ATOM     19  C   UNL A   1      34.411  25.134  24.645  1.00  0.00     0.027 C 
ATOM     20  C   UNL A   1      31.904  25.085  24.565  1.00  0.00     0.316 C 
BRANCH  20  21
ATOM     21  C   UNL A   1      31.049  25.320  23.312  1.00  0.00     0.430 C 
ATOM     22  F   UNL A   1      31.824  25.419  22.206  1.00  0.00    -0.167 F 
ATOM     23  F   UNL A   1      30.185  24.303  23.096  1.00  0.00    -0.167 F 
ATOM     24  F   UNL A   1      30.325  26.459  23.405  1.00  0.00    -0.167 F 
ENDBRANCH  20  21
ENDBRANCH   6   8
ENDBRANCH   5   6
ENDBRANCH   4   5
ENDBRANCH   3   4
ENDBRANCH   2   3
ENDBRANCH   1   2
BRANCH   1  25
ATOM     25  C   UNL A   1      34.751  31.827  28.590  1.00  0.00     0.261 C 
BRANCH  25  26
ATOM     26  O   UNL A   1      35.515  31.019  29.504  1.00  0.00    -0.460 OA
BRANCH  26  27
ATOM     27  C   UNL A   1      36.638  31.611  29.978  1.00  0.00     0.338 C 
ATOM     28  O   UNL A   1      36.703  32.579  30.724  1.00  0.00    -0.246 OA
BRANCH  27  29
ATOM     29  C   UNL A   1      37.820  30.806  29.625  1.00  0.00     0.060 A 
ATOM     30  C   UNL A   1      38.781  30.592  30.622  1.00  0.00     0.016 A 
ATOM     31  C   UNL A   1      38.029  30.347  28.324  1.00  0.00     0.016 A 
ATOM     32  C   UNL A   1      39.978  29.954  30.309  1.00  0.00     0.010 A 
ATOM     33  C   UNL A   1      39.239  29.720  28.008  1.00  0.00     0.010 A 
ATOM     34  C   UNL A   1      40.232  29.552  28.992  1.00  0.00    -0.014 A 
BRANCH  34  35
ATOM     35  C   UNL A   1      41.594  29.102  28.619  1.00  0.00     0.031 A 
ATOM     36  C   UNL A   1      42.724  30.095  28.663  1.00  0.00     0.074 A 
ATOM     37  C   UNL A   1      41.830  27.818  28.299  1.00  0.00     0.049 A 
ATOM     38  N   UNL A   1      43.987  29.925  28.372  1.00  0.00    -0.248 NA
ATOM     39  C   UNL A   1      42.385  31.460  29.098  1.00  0.00     0.031 C 
ATOM     40  C   UNL A   1      40.826  26.756  28.275  1.00  0.00     0.029 A 
ATOM     41  N   UNL A   1      42.994  27.189  27.936  1.00  0.00    -0.354 N 
ATOM     42  C   UNL A   1      44.596  31.155  28.594  1.00  0.00     0.074 A 
ATOM     43  C   UNL A   1      43.557  32.073  29.009  1.00  0.00     0.031 C 
ATOM     44  C   UNL A   1      41.418  25.603  27.917  1.00  0.00     0.029 A 
ATOM     45  C   UNL A   1      42.836  25.852  27.657  1.00  0.00     0.049 A 
ATOM     46  H   UNL A   1      43.862  27.651  27.881  1.00  0.00     0.167 HD
ATOM     47  C   UNL A   1      45.903  31.485  28.477  1.00  0.00     0.037 A 
ATOM     48  C   UNL A   1      43.729  24.939  27.227  1.00  0.00     0.037 A 
ATOM     49  C   UNL A   1      46.931  30.570  28.059  1.00  0.00     0.049 A 
ATOM     50  C   UNL A   1      45.162  25.353  27.014  1.00  0.00     0.074 A 
ATOM     51  C   UNL A   1      48.285  30.809  27.905  1.00  0.00     0.029 A 
ATOM     52  N   UNL A   1      46.720  29.239  27.725  1.00  0.00    -0.354 N 
ATOM     53  N   UNL A   1      45.723  26.520  27.226  1.00  0.00    -0.248 NA
ATOM     54  C   UNL A   1      46.082  24.329  26.499  1.00  0.00     0.031 C 
ATOM     55  C   UNL A   1      48.886  29.636  27.435  1.00  0.00     0.029 A 
ATOM     56  C   UNL A   1      47.914  28.652  27.343  1.00  0.00     0.049 A 
ATOM     57  H   UNL A   1      45.849  28.781  27.756  1.00  0.00     0.167 HD
ATOM     58  C   UNL A   1      47.065  26.365  26.892  1.00  0.00     0.074 A 
ATOM     59  C   UNL A   1      47.233  24.989  26.473  1.00  0.00     0.031 C 
ATOM     60  C   UNL A   1      48.066  27.279  26.928  1.00  0.00     0.037 A 
BRANCH  47  61
ATOM     61  C   UNL A   1      46.296  32.901  28.793  1.00  0.00     0.058 A 
ATOM     62  C   UNL A   1      46.716  33.276  30.078  1.00  0.00     0.135 A 
ATOM     63  C   UNL A   1      46.297  33.883  27.790  1.00  0.00     0.135 A 
ATOM     64  F   UNL A   1      46.715  32.381  31.079  1.00  0.00    -0.206 F 
ATOM     65  C   UNL A   1      47.107  34.580  30.363  1.00  0.00     0.059 A 
ATOM     66  C   UNL A   1      46.708  35.189  28.046  1.00  0.00     0.059 A 
ATOM     67  F   UNL A   1      45.899  33.578  26.544  1.00  0.00    -0.206 F 
ATOM     68  C   UNL A   1      47.102  35.529  29.338  1.00  0.00     0.060 A 
BRANCH  68  69
ATOM     69  S   UNL A   1      47.628  37.212  29.723  1.00  0.00     0.124 S 
ATOM     70  O   UNL A   1      46.366  37.941  29.630  1.00  0.00    -0.237 OA
ATOM     71  O   UNL A   1      48.178  37.067  31.067  1.00  0.00    -0.237 OA
ATOM     72  O   UNL A   1      48.601  37.514  28.678  1.00  0.00    -0.744 OA
ENDBRANCH  68  69
ENDBRANCH  47  61
BRANCH  48  73
ATOM     73  C   UNL A   1      43.293  23.541  26.969  1.00  0.00     0.058 A 
ATOM     74  C   UNL A   1      43.111  23.071  25.661  1.00  0.00     0.135 A 
ATOM     75  C   UNL A   1      43.064  22.644  28.025  1.00  0.00     0.135 A 
ATOM     76  F   UNL A   1      43.306  23.895  24.620  1.00  0.00    -0.206 F 
ATOM     77  C   UNL A   1      42.715  21.762  25.406  1.00  0.00     0.059 A 
ATOM     78  C   UNL A   1      42.690  21.324  27.794  1.00  0.00     0.059 A 
ATOM     79  F   UNL A   1      43.231  23.044  29.295  1.00  0.00    -0.206 F 
ATOM     80  C   UNL A   1      42.512  20.894  26.481  1.00  0.00     0.060 A 
BRANCH  80  81
ATOM     81  S   UNL A   1      42.056  19.181  26.133  1.00  0.00     0.124 S 
ATOM     82  O   UNL A   1      42.384  18.527  27.394  1.00  0.00    -0.237 OA
ATOM     83  O   UNL A   1      40.635  19.301  25.825  1.00  0.00    -0.237 OA
ATOM     84  O   UNL A   1      42.908  18.831  24.999  1.00  0.00    -0.744 OA
ENDBRANCH  80  81
ENDBRANCH  48  73
BRANCH  60  85
ATOM     85  C   UNL A   1      49.441  26.826  26.522  1.00  0.00     0.058 A 
ATOM     86  C   UNL A   1      50.328  26.257  27.448  1.00  0.00     0.135 A 
ATOM     87  C   UNL A   1      49.844  26.887  25.178  1.00  0.00     0.135 A 
ATOM     88  F   UNL A   1      49.994  26.181  28.746  1.00  0.00    -0.206 F 
ATOM     89  C   UNL A   1      51.573  25.774  27.057  1.00  0.00     0.059 A 
ATOM     90  C   UNL A   1      51.073  26.386  24.761  1.00  0.00     0.059 A 
ATOM     91  F   UNL A   1      49.027  27.412  24.251  1.00  0.00    -0.206 F 
ATOM     92  C   UNL A   1      51.934  25.837  25.710  1.00  0.00     0.060 A 
BRANCH  92  93
ATOM     93  S   UNL A   1      53.532  25.160  25.213  1.00  0.00     0.124 S 
ATOM     94  O   UNL A   1      54.419  25.725  26.223  1.00  0.00    -0.237 OA
ATOM     95  O   UNL A   1      53.302  23.722  25.303  1.00  0.00    -0.237 OA
ATOM     96  O   UNL A   1      53.714  25.676  23.859  1.00  0.00    -0.744 OA
ENDBRANCH  92  93
ENDBRANCH  60  85
ENDBRANCH  34  35
ENDBRANCH  27  29
ENDBRANCH  26  27
ENDBRANCH  25  26
ENDBRANCH   1  25
TORSDOF 18
ENDMDL
