MODEL 1
REMARK VINA RESULT:     -10.5      0.000      0.000
REMARK SMILES CC1(CNS(=O)(=O)Cc2ccc(C(=O)OCCOCCOC(=O)c3ccc(-c4c5nc(c(-c6c(F)cc(S(=O)(=O)[O-])cc6F)c6ccc([nH]6)c(-c6c(F)cc(S(=O)(=O)[O-])cc6F)c6nc(c(-c7c(F)cc(S(=O)(=O)[O-])cc7F)c7ccc4[nH]7)C=C6)C=C5)cc3)cc2)COC1
REMARK SMILES IDX 17 1 16 2 15 3 13 4 14 5 12 6 9 7 10 8 91 9 11 10 90 11 8 12
REMARK SMILES IDX 5 13 6 14 7 15 4 16 3 18 2 19 1 20 92 21 94 22 93 23 18 24
REMARK SMILES IDX 19 25 20 26 21 27 22 28 23 29 24 30 25 31 89 32 26 33 88 34
REMARK SMILES IDX 27 35 28 36 29 37 82 38 30 39 87 40 81 41 83 42 31 43 86 44
REMARK SMILES IDX 80 45 79 46 32 48 66 49 45 50 65 51 46 52 49 53 64 54 84 55
REMARK SMILES IDX 47 56 48 57 63 59 85 60 50 61 33 62 34 63 43 64 35 65 36 66
REMARK SMILES IDX 42 67 44 68 37 69 38 70 39 71 40 72 41 73 67 74 68 75 77 76
REMARK SMILES IDX 69 77 70 78 76 79 78 80 71 81 72 82 73 83 74 84 75 85 51 86
REMARK SMILES IDX 52 87 61 88 53 89 54 90 60 91 62 92 55 93 56 94 57 95 58 96
REMARK SMILES IDX 59 97
REMARK H PARENT 4 17 83 47 49 58
REMARK Flexibility Score: inf
ROOT
ATOM      1  C   UNL A   1      43.644  19.164  25.482  1.00  0.00     0.202 C 
ENDROOT
BRANCH   1   2
ATOM      2  C   UNL A   1      42.382  18.743  26.239  1.00  0.00     0.261 C 
BRANCH   2   3
ATOM      3  O   UNL A   1      41.216  19.378  25.696  1.00  0.00    -0.460 OA
BRANCH   3   4
ATOM      4  C   UNL A   1      40.474  20.084  26.582  1.00  0.00     0.338 C 
ATOM      5  O   UNL A   1      40.791  20.388  27.723  1.00  0.00    -0.246 OA
BRANCH   4   6
ATOM      6  C   UNL A   1      39.233  20.576  25.936  1.00  0.00     0.060 A 
ATOM      7  C   UNL A   1      36.870  21.608  24.807  1.00  0.00    -0.032 A 
ATOM      8  C   UNL A   1      37.758  22.451  25.485  1.00  0.00     0.006 A 
ATOM      9  C   UNL A   1      37.228  20.266  24.634  1.00  0.00     0.006 A 
ATOM     10  C   UNL A   1      38.933  21.938  26.043  1.00  0.00     0.016 A 
ATOM     11  C   UNL A   1      38.386  19.741  25.207  1.00  0.00     0.016 A 
BRANCH   7  12
ATOM     12  C   UNL A   1      35.571  22.148  24.268  1.00  0.00     0.189 C 
BRANCH  12  13
ATOM     13  S   UNL A   1      34.211  21.938  25.440  1.00  0.00     0.215 S 
ATOM     14  O   UNL A   1      33.464  23.172  25.495  1.00  0.00    -0.212 OA
ATOM     15  O   UNL A   1      34.706  21.329  26.661  1.00  0.00    -0.212 OA
BRANCH  13  16
ATOM     16  N   UNL A   1      33.200  20.786  24.726  1.00  0.00    -0.214 NA
ATOM     17  H   UNL A   1      32.263  21.189  24.679  1.00  0.00     0.141 HD
BRANCH  16  18
ATOM     18  C   UNL A   1      33.083  19.472  25.389  1.00  0.00     0.110 C 
BRANCH  18  19
ATOM     19  C   UNL A   1      33.162  18.296  24.407  1.00  0.00     0.028 C 
ATOM     20  C   UNL A   1      32.433  18.497  23.087  1.00  0.00     0.018 C 
ATOM     21  C   UNL A   1      32.799  16.967  25.101  1.00  0.00     0.170 C 
ATOM     22  C   UNL A   1      34.559  17.655  24.294  1.00  0.00     0.170 C 
ATOM     23  O   UNL A   1      34.203  16.654  25.284  1.00  0.00    -0.380 OA
ENDBRANCH  18  19
ENDBRANCH  16  18
ENDBRANCH  13  16
ENDBRANCH  12  13
ENDBRANCH   7  12
ENDBRANCH   4   6
ENDBRANCH   3   4
ENDBRANCH   2   3
ENDBRANCH   1   2
BRANCH   1  24
ATOM     24  O   UNL A   1      43.571  20.408  24.785  1.00  0.00    -0.374 OA
BRANCH  24  25
ATOM     25  C   UNL A   1      43.733  21.594  25.566  1.00  0.00     0.202 C 
BRANCH  25  26
ATOM     26  C   UNL A   1      42.720  22.717  25.313  1.00  0.00     0.261 C 
BRANCH  26  27
ATOM     27  O   UNL A   1      42.668  23.647  26.411  1.00  0.00    -0.460 OA
BRANCH  27  28
ATOM     28  C   UNL A   1      43.036  24.912  26.100  1.00  0.00     0.338 C 
ATOM     29  O   UNL A   1      43.636  25.280  25.101  1.00  0.00    -0.246 OA
BRANCH  28  30
ATOM     30  C   UNL A   1      42.446  25.857  27.066  1.00  0.00     0.060 A 
ATOM     31  C   UNL A   1      42.915  27.177  27.051  1.00  0.00     0.016 A 
ATOM     32  C   UNL A   1      41.501  25.451  28.012  1.00  0.00     0.016 A 
ATOM     33  C   UNL A   1      42.482  28.084  28.016  1.00  0.00     0.010 A 
ATOM     34  C   UNL A   1      41.074  26.361  28.984  1.00  0.00     0.010 A 
ATOM     35  C   UNL A   1      41.590  27.669  29.013  1.00  0.00    -0.014 A 
BRANCH  35  36
ATOM     36  C   UNL A   1      41.316  28.556  30.170  1.00  0.00     0.031 A 
ATOM     37  C   UNL A   1      42.174  28.434  31.399  1.00  0.00     0.074 A 
ATOM     38  C   UNL A   1      40.331  29.470  30.119  1.00  0.00     0.049 A 
ATOM     39  N   UNL A   1      42.088  29.069  32.538  1.00  0.00    -0.248 NA
ATOM     40  C   UNL A   1      43.275  27.460  31.335  1.00  0.00     0.031 C 
ATOM     41  C   UNL A   1      39.462  29.711  28.968  1.00  0.00     0.029 A 
ATOM     42  N   UNL A   1      39.894  30.363  31.064  1.00  0.00    -0.354 N 
ATOM     43  C   UNL A   1      43.115  28.569  33.330  1.00  0.00     0.074 A 
ATOM     44  C   UNL A   1      43.791  27.552  32.552  1.00  0.00     0.031 C 
ATOM     45  C   UNL A   1      38.588  30.683  29.280  1.00  0.00     0.029 A 
ATOM     46  C   UNL A   1      38.815  31.110  30.660  1.00  0.00     0.049 A 
ATOM     47  H   UNL A   1      40.315  30.460  31.950  1.00  0.00     0.167 HD
ATOM     48  C   UNL A   1      43.469  28.929  34.587  1.00  0.00     0.037 A 
ATOM     49  C   UNL A   1      38.081  32.018  31.334  1.00  0.00     0.037 A 
ATOM     50  C   UNL A   1      42.792  29.941  35.355  1.00  0.00     0.049 A 
ATOM     51  C   UNL A   1      38.448  32.355  32.755  1.00  0.00     0.074 A 
ATOM     52  C   UNL A   1      43.080  30.391  36.631  1.00  0.00     0.029 A 
ATOM     53  N   UNL A   1      41.682  30.653  34.922  1.00  0.00    -0.354 N 
ATOM     54  N   UNL A   1      39.431  31.887  33.487  1.00  0.00    -0.248 NA
ATOM     55  C   UNL A   1      37.608  33.346  33.442  1.00  0.00     0.031 C 
ATOM     56  C   UNL A   1      42.116  31.340  36.989  1.00  0.00     0.029 A 
ATOM     57  C   UNL A   1      41.258  31.521  35.915  1.00  0.00     0.049 A 
ATOM     58  H   UNL A   1      41.258  30.556  34.039  1.00  0.00     0.167 HD
ATOM     59  C   UNL A   1      39.347  32.547  34.709  1.00  0.00     0.074 A 
ATOM     60  C   UNL A   1      38.218  33.450  34.616  1.00  0.00     0.031 C 
ATOM     61  C   UNL A   1      40.135  32.420  35.806  1.00  0.00     0.037 A 
BRANCH  48  62
ATOM     62  C   UNL A   1      44.623  28.197  35.216  1.00  0.00     0.058 A 
ATOM     63  C   UNL A   1      45.955  28.582  34.995  1.00  0.00     0.135 A 
ATOM     64  C   UNL A   1      44.392  27.096  36.057  1.00  0.00     0.135 A 
ATOM     65  F   UNL A   1      46.235  29.617  34.187  1.00  0.00    -0.206 F 
ATOM     66  C   UNL A   1      47.019  27.877  35.552  1.00  0.00     0.059 A 
ATOM     67  C   UNL A   1      45.438  26.394  36.648  1.00  0.00     0.059 A 
ATOM     68  F   UNL A   1      43.138  26.684  36.303  1.00  0.00    -0.206 F 
ATOM     69  C   UNL A   1      46.749  26.780  36.371  1.00  0.00     0.060 A 
BRANCH  69  70
ATOM     70  S   UNL A   1      48.138  25.859  37.066  1.00  0.00     0.124 S 
ATOM     71  O   UNL A   1      49.126  26.918  37.246  1.00  0.00    -0.237 OA
ATOM     72  O   UNL A   1      47.568  25.308  38.291  1.00  0.00    -0.237 OA
ATOM     73  O   UNL A   1      48.451  24.880  36.028  1.00  0.00    -0.744 OA
ENDBRANCH  69  70
ENDBRANCH  48  62
BRANCH  49  74
ATOM     74  C   UNL A   1      36.925  32.673  30.667  1.00  0.00     0.058 A 
ATOM     75  C   UNL A   1      35.609  32.289  30.959  1.00  0.00     0.135 A 
ATOM     76  C   UNL A   1      37.114  33.712  29.742  1.00  0.00     0.135 A 
ATOM     77  F   UNL A   1      35.378  31.292  31.827  1.00  0.00    -0.206 F 
ATOM     78  C   UNL A   1      34.519  32.911  30.358  1.00  0.00     0.059 A 
ATOM     79  C   UNL A   1      36.040  34.365  29.146  1.00  0.00     0.059 A 
ATOM     80  F   UNL A   1      38.354  34.124  29.436  1.00  0.00    -0.206 F 
ATOM     81  C   UNL A   1      34.745  33.954  29.457  1.00  0.00     0.060 A 
BRANCH  81  82
ATOM     82  S   UNL A   1      33.322  34.801  28.739  1.00  0.00     0.124 S 
ATOM     83  O   UNL A   1      32.813  33.792  27.818  1.00  0.00    -0.237 OA
ATOM     84  O   UNL A   1      32.499  35.067  29.916  1.00  0.00    -0.237 OA
ATOM     85  O   UNL A   1      33.913  35.983  28.119  1.00  0.00    -0.744 OA
ENDBRANCH  81  82
ENDBRANCH  49  74
BRANCH  61  86
ATOM     86  C   UNL A   1      39.833  33.304  36.986  1.00  0.00     0.058 A 
ATOM     87  C   UNL A   1      38.889  32.943  37.960  1.00  0.00     0.135 A 
ATOM     88  C   UNL A   1      40.544  34.501  37.174  1.00  0.00     0.135 A 
ATOM     89  F   UNL A   1      38.178  31.813  37.826  1.00  0.00    -0.206 F 
ATOM     90  C   UNL A   1      38.646  33.748  39.069  1.00  0.00     0.059 A 
ATOM     91  C   UNL A   1      40.337  35.307  38.290  1.00  0.00     0.059 A 
ATOM     92  F   UNL A   1      41.466  34.888  36.279  1.00  0.00    -0.206 F 
ATOM     93  C   UNL A   1      39.378  34.927  39.227  1.00  0.00     0.060 A 
BRANCH  93  94
ATOM     94  S   UNL A   1      39.081  35.942  40.691  1.00  0.00     0.124 S 
ATOM     95  O   UNL A   1      40.388  35.908  41.340  1.00  0.00    -0.237 OA
ATOM     96  O   UNL A   1      38.694  37.223  40.110  1.00  0.00    -0.237 OA
ATOM     97  O   UNL A   1      38.015  35.229  41.388  1.00  0.00    -0.744 OA
ENDBRANCH  93  94
ENDBRANCH  61  86
ENDBRANCH  35  36
ENDBRANCH  28  30
ENDBRANCH  27  28
ENDBRANCH  26  27
ENDBRANCH  25  26
ENDBRANCH  24  25
ENDBRANCH   1  24
TORSDOF 22
ENDMDL
MODEL 2
REMARK VINA RESULT:     -10.0      1.351      2.173
REMARK SMILES CC1(CNS(=O)(=O)Cc2ccc(C(=O)OCCOCCOC(=O)c3ccc(-c4c5nc(c(-c6c(F)cc(S(=O)(=O)[O-])cc6F)c6ccc([nH]6)c(-c6c(F)cc(S(=O)(=O)[O-])cc6F)c6nc(c(-c7c(F)cc(S(=O)(=O)[O-])cc7F)c7ccc4[nH]7)C=C6)C=C5)cc3)cc2)COC1
REMARK SMILES IDX 17 1 16 2 15 3 13 4 14 5 12 6 9 7 10 8 91 9 11 10 90 11 8 12
REMARK SMILES IDX 5 13 6 14 7 15 4 16 3 18 2 19 1 20 92 21 94 22 93 23 18 24
REMARK SMILES IDX 19 25 20 26 21 27 22 28 23 29 24 30 25 31 89 32 26 33 88 34
REMARK SMILES IDX 27 35 28 36 29 37 82 38 30 39 87 40 81 41 83 42 31 43 86 44
REMARK SMILES IDX 80 45 79 46 32 48 66 49 45 50 65 51 46 52 49 53 64 54 84 55
REMARK SMILES IDX 47 56 48 57 63 59 85 60 50 61 33 62 34 63 43 64 35 65 36 66
REMARK SMILES IDX 42 67 44 68 37 69 38 70 39 71 40 72 41 73 67 74 68 75 77 76
REMARK SMILES IDX 69 77 70 78 76 79 78 80 71 81 72 82 73 83 74 84 75 85 51 86
REMARK SMILES IDX 52 87 61 88 53 89 54 90 60 91 62 92 55 93 56 94 57 95 58 96
REMARK SMILES IDX 59 97
REMARK H PARENT 4 17 83 47 49 58
REMARK Flexibility Score: inf
ROOT
ATOM      1  C   UNL A   1      44.114  19.323  25.000  1.00  0.00     0.202 C 
ENDROOT
BRANCH   1   2
ATOM      2  C   UNL A   1      42.938  18.867  25.868  1.00  0.00     0.261 C 
BRANCH   2   3
ATOM      3  O   UNL A   1      41.724  19.529  25.486  1.00  0.00    -0.460 OA
BRANCH   3   4
ATOM      4  C   UNL A   1      40.905  19.875  26.508  1.00  0.00     0.338 C 
ATOM      5  O   UNL A   1      41.155  19.801  27.702  1.00  0.00    -0.246 OA
BRANCH   4   6
ATOM      6  C   UNL A   1      39.667  20.499  25.983  1.00  0.00     0.060 A 
ATOM      7  C   UNL A   1      37.319  21.774  25.095  1.00  0.00    -0.032 A 
ATOM      8  C   UNL A   1      38.301  22.496  25.782  1.00  0.00     0.006 A 
ATOM      9  C   UNL A   1      37.573  20.431  24.790  1.00  0.00     0.006 A 
ATOM     10  C   UNL A   1      39.467  21.864  26.220  1.00  0.00     0.016 A 
ATOM     11  C   UNL A   1      38.723  19.786  25.244  1.00  0.00     0.016 A 
BRANCH   7  12
ATOM     12  C   UNL A   1      36.032  22.441  24.685  1.00  0.00     0.189 C 
BRANCH  12  13
ATOM     13  S   UNL A   1      34.609  21.773  25.579  1.00  0.00     0.215 S 
ATOM     14  O   UNL A   1      35.047  21.371  26.894  1.00  0.00    -0.212 OA
ATOM     15  O   UNL A   1      33.891  20.840  24.731  1.00  0.00    -0.212 OA
BRANCH  13  16
ATOM     16  N   UNL A   1      33.575  23.094  25.792  1.00  0.00    -0.214 NA
ATOM     17  H   UNL A   1      32.825  22.797  26.416  1.00  0.00     0.141 HD
BRANCH  16  18
ATOM     18  C   UNL A   1      32.945  23.672  24.587  1.00  0.00     0.110 C 
BRANCH  18  19
ATOM     19  C   UNL A   1      31.435  23.886  24.745  1.00  0.00     0.028 C 
ATOM     20  C   UNL A   1      30.635  23.878  23.450  1.00  0.00     0.018 C 
ATOM     21  C   UNL A   1      31.137  25.113  25.631  1.00  0.00     0.170 C 
ATOM     22  C   UNL A   1      30.800  23.105  25.912  1.00  0.00     0.170 C 
ATOM     23  O   UNL A   1      30.937  24.258  26.785  1.00  0.00    -0.380 OA
ENDBRANCH  18  19
ENDBRANCH  16  18
ENDBRANCH  13  16
ENDBRANCH  12  13
ENDBRANCH   7  12
ENDBRANCH   4   6
ENDBRANCH   3   4
ENDBRANCH   2   3
ENDBRANCH   1   2
BRANCH   1  24
ATOM     24  O   UNL A   1      44.010  20.634  24.443  1.00  0.00    -0.374 OA
BRANCH  24  25
ATOM     25  C   UNL A   1      44.058  21.728  25.361  1.00  0.00     0.202 C 
BRANCH  25  26
ATOM     26  C   UNL A   1      42.974  22.800  25.195  1.00  0.00     0.261 C 
BRANCH  26  27
ATOM     27  O   UNL A   1      42.855  23.626  26.369  1.00  0.00    -0.460 OA
BRANCH  27  28
ATOM     28  C   UNL A   1      43.483  24.822  26.286  1.00  0.00     0.338 C 
ATOM     29  O   UNL A   1      44.333  25.153  25.473  1.00  0.00    -0.246 OA
BRANCH  28  30
ATOM     30  C   UNL A   1      42.865  25.778  27.224  1.00  0.00     0.060 A 
ATOM     31  C   UNL A   1      43.359  27.089  27.231  1.00  0.00     0.016 A 
ATOM     32  C   UNL A   1      41.870  25.389  28.123  1.00  0.00     0.016 A 
ATOM     33  C   UNL A   1      42.897  28.004  28.176  1.00  0.00     0.010 A 
ATOM     34  C   UNL A   1      41.413  26.307  29.075  1.00  0.00     0.010 A 
ATOM     35  C   UNL A   1      41.951  27.605  29.129  1.00  0.00    -0.014 A 
BRANCH  35  36
ATOM     36  C   UNL A   1      41.639  28.498  30.272  1.00  0.00     0.031 A 
ATOM     37  C   UNL A   1      42.487  28.416  31.511  1.00  0.00     0.074 A 
ATOM     38  C   UNL A   1      40.628  29.382  30.200  1.00  0.00     0.049 A 
ATOM     39  N   UNL A   1      42.370  29.062  32.642  1.00  0.00    -0.248 NA
ATOM     40  C   UNL A   1      43.617  27.474  31.470  1.00  0.00     0.031 C 
ATOM     41  C   UNL A   1      39.764  29.583  29.038  1.00  0.00     0.029 A 
ATOM     42  N   UNL A   1      40.155  30.272  31.130  1.00  0.00    -0.354 N 
ATOM     43  C   UNL A   1      43.403  28.601  33.450  1.00  0.00     0.074 A 
ATOM     44  C   UNL A   1      44.117  27.595  32.691  1.00  0.00     0.031 C 
ATOM     45  C   UNL A   1      38.859  30.533  29.329  1.00  0.00     0.029 A 
ATOM     46  C   UNL A   1      39.058  30.982  30.706  1.00  0.00     0.049 A 
ATOM     47  H   UNL A   1      40.563  30.392  32.019  1.00  0.00     0.167 HD
ATOM     48  C   UNL A   1      43.733  28.986  34.707  1.00  0.00     0.037 A 
ATOM     49  C   UNL A   1      38.292  31.875  31.361  1.00  0.00     0.037 A 
ATOM     50  C   UNL A   1      43.018  29.987  35.455  1.00  0.00     0.049 A 
ATOM     51  C   UNL A   1      38.633  32.240  32.782  1.00  0.00     0.074 A 
ATOM     52  C   UNL A   1      43.280  30.460  36.728  1.00  0.00     0.029 A 
ATOM     53  N   UNL A   1      41.893  30.661  35.002  1.00  0.00    -0.354 N 
ATOM     54  N   UNL A   1      39.622  31.810  33.529  1.00  0.00    -0.248 NA
ATOM     55  C   UNL A   1      37.756  33.214  33.448  1.00  0.00     0.031 C 
ATOM     56  C   UNL A   1      42.284  31.385  37.065  1.00  0.00     0.029 A 
ATOM     57  C   UNL A   1      41.433  31.527  35.980  1.00  0.00     0.049 A 
ATOM     58  H   UNL A   1      41.481  30.540  34.116  1.00  0.00     0.167 HD
ATOM     59  C   UNL A   1      39.505  32.482  34.742  1.00  0.00     0.074 A 
ATOM     60  C   UNL A   1      38.351  33.350  34.627  1.00  0.00     0.031 C 
ATOM     61  C   UNL A   1      40.285  32.391  35.849  1.00  0.00     0.037 A 
BRANCH  48  62
ATOM     62  C   UNL A   1      44.902  28.296  35.356  1.00  0.00     0.058 A 
ATOM     63  C   UNL A   1      44.747  27.112  36.095  1.00  0.00     0.135 A 
ATOM     64  C   UNL A   1      46.197  28.826  35.233  1.00  0.00     0.135 A 
ATOM     65  F   UNL A   1      43.529  26.571  36.259  1.00  0.00    -0.206 F 
ATOM     66  C   UNL A   1      45.828  26.500  36.723  1.00  0.00     0.059 A 
ATOM     67  C   UNL A   1      47.297  28.215  35.828  1.00  0.00     0.059 A 
ATOM     68  F   UNL A   1      46.403  29.956  34.538  1.00  0.00    -0.206 F 
ATOM     69  C   UNL A   1      47.098  27.063  36.589  1.00  0.00     0.060 A 
BRANCH  69  70
ATOM     70  S   UNL A   1      48.486  26.274  37.430  1.00  0.00     0.124 S 
ATOM     71  O   UNL A   1      48.946  27.349  38.303  1.00  0.00    -0.237 OA
ATOM     72  O   UNL A   1      47.848  25.143  38.097  1.00  0.00    -0.237 OA
ATOM     73  O   UNL A   1      49.391  25.924  36.338  1.00  0.00    -0.744 OA
ENDBRANCH  69  70
ENDBRANCH  48  62
BRANCH  49  74
ATOM     74  C   UNL A   1      37.124  32.488  30.675  1.00  0.00     0.058 A 
ATOM     75  C   UNL A   1      37.277  33.608  29.846  1.00  0.00     0.135 A 
ATOM     76  C   UNL A   1      35.834  31.949  30.816  1.00  0.00     0.135 A 
ATOM     77  F   UNL A   1      38.487  34.165  29.689  1.00  0.00    -0.206 F 
ATOM     78  C   UNL A   1      36.194  34.175  29.181  1.00  0.00     0.059 A 
ATOM     79  C   UNL A   1      34.740  32.485  30.142  1.00  0.00     0.059 A 
ATOM     80  F   UNL A   1      35.636  30.872  31.590  1.00  0.00    -0.206 F 
ATOM     81  C   UNL A   1      34.930  33.602  29.330  1.00  0.00     0.060 A 
BRANCH  81  82
ATOM     82  S   UNL A   1      33.547  34.302  28.406  1.00  0.00     0.124 S 
ATOM     83  O   UNL A   1      33.061  33.137  27.676  1.00  0.00    -0.237 OA
ATOM     84  O   UNL A   1      32.683  34.794  29.474  1.00  0.00    -0.237 OA
ATOM     85  O   UNL A   1      34.177  35.338  27.593  1.00  0.00    -0.744 OA
ENDBRANCH  81  82
ENDBRANCH  49  74
BRANCH  61  86
ATOM     86  C   UNL A   1      39.945  33.280  37.015  1.00  0.00     0.058 A 
ATOM     87  C   UNL A   1      38.942  32.941  37.937  1.00  0.00     0.135 A 
ATOM     88  C   UNL A   1      40.676  34.457  37.245  1.00  0.00     0.135 A 
ATOM     89  F   UNL A   1      38.209  31.830  37.761  1.00  0.00    -0.206 F 
ATOM     90  C   UNL A   1      38.661  33.749  39.035  1.00  0.00     0.059 A 
ATOM     91  C   UNL A   1      40.432  35.265  38.351  1.00  0.00     0.059 A 
ATOM     92  F   UNL A   1      41.653  34.822  36.401  1.00  0.00    -0.206 F 
ATOM     93  C   UNL A   1      39.414  34.909  39.235  1.00  0.00     0.060 A 
BRANCH  93  94
ATOM     94  S   UNL A   1      39.068  35.927  40.685  1.00  0.00     0.124 S 
ATOM     95  O   UNL A   1      40.363  35.928  41.358  1.00  0.00    -0.237 OA
ATOM     96  O   UNL A   1      38.663  37.195  40.088  1.00  0.00    -0.237 OA
ATOM     97  O   UNL A   1      38.005  35.194  41.369  1.00  0.00    -0.744 OA
ENDBRANCH  93  94
ENDBRANCH  61  86
ENDBRANCH  35  36
ENDBRANCH  28  30
ENDBRANCH  27  28
ENDBRANCH  26  27
ENDBRANCH  25  26
ENDBRANCH  24  25
ENDBRANCH   1  24
TORSDOF 22
ENDMDL
MODEL 3
REMARK VINA RESULT:      -9.8      6.220     12.024
REMARK SMILES CC1(CNS(=O)(=O)Cc2ccc(C(=O)OCCOCCOC(=O)c3ccc(-c4c5nc(c(-c6c(F)cc(S(=O)(=O)[O-])cc6F)c6ccc([nH]6)c(-c6c(F)cc(S(=O)(=O)[O-])cc6F)c6nc(c(-c7c(F)cc(S(=O)(=O)[O-])cc7F)c7ccc4[nH]7)C=C6)C=C5)cc3)cc2)COC1
REMARK SMILES IDX 17 1 16 2 15 3 13 4 14 5 12 6 9 7 10 8 91 9 11 10 90 11 8 12
REMARK SMILES IDX 5 13 6 14 7 15 4 16 3 18 2 19 1 20 92 21 94 22 93 23 18 24
REMARK SMILES IDX 19 25 20 26 21 27 22 28 23 29 24 30 25 31 89 32 26 33 88 34
REMARK SMILES IDX 27 35 28 36 29 37 82 38 30 39 87 40 81 41 83 42 31 43 86 44
REMARK SMILES IDX 80 45 79 46 32 48 66 49 45 50 65 51 46 52 49 53 64 54 84 55
REMARK SMILES IDX 47 56 48 57 63 59 85 60 50 61 33 62 34 63 43 64 35 65 36 66
REMARK SMILES IDX 42 67 44 68 37 69 38 70 39 71 40 72 41 73 67 74 68 75 77 76
REMARK SMILES IDX 69 77 70 78 76 79 78 80 71 81 72 82 73 83 74 84 75 85 51 86
REMARK SMILES IDX 52 87 61 88 53 89 54 90 60 91 62 92 55 93 56 94 57 95 58 96
REMARK SMILES IDX 59 97
REMARK H PARENT 4 17 83 47 49 58
REMARK Flexibility Score: inf
ROOT
ATOM      1  C   UNL A   1      34.788  30.915  27.671  1.00  0.00     0.202 C 
ENDROOT
BRANCH   1   2
ATOM      2  C   UNL A   1      33.307  31.246  27.466  1.00  0.00     0.261 C 
BRANCH   2   3
ATOM      3  O   UNL A   1      32.536  30.057  27.245  1.00  0.00    -0.460 OA
BRANCH   3   4
ATOM      4  C   UNL A   1      32.044  29.909  25.992  1.00  0.00     0.338 C 
ATOM      5  O   UNL A   1      31.321  30.692  25.393  1.00  0.00    -0.246 OA
BRANCH   4   6
ATOM      6  C   UNL A   1      32.613  28.696  25.357  1.00  0.00     0.060 A 
ATOM      7  C   UNL A   1      33.610  26.415  24.042  1.00  0.00    -0.032 A 
ATOM      8  C   UNL A   1      33.170  27.522  23.306  1.00  0.00     0.006 A 
ATOM      9  C   UNL A   1      33.619  26.506  25.439  1.00  0.00     0.006 A 
ATOM     10  C   UNL A   1      32.678  28.654  23.959  1.00  0.00     0.016 A 
ATOM     11  C   UNL A   1      33.108  27.623  26.099  1.00  0.00     0.016 A 
BRANCH   7  12
ATOM     12  C   UNL A   1      34.074  25.168  23.335  1.00  0.00     0.189 C 
BRANCH  12  13
ATOM     13  S   UNL A   1      32.705  24.040  22.983  1.00  0.00     0.215 S 
ATOM     14  O   UNL A   1      33.154  23.072  22.010  1.00  0.00    -0.212 OA
ATOM     15  O   UNL A   1      31.491  24.799  22.751  1.00  0.00    -0.212 OA
BRANCH  13  16
ATOM     16  N   UNL A   1      32.457  23.199  24.428  1.00  0.00    -0.214 NA
ATOM     17  H   UNL A   1      31.768  23.721  24.971  1.00  0.00     0.141 HD
BRANCH  16  18
ATOM     18  C   UNL A   1      33.628  22.975  25.300  1.00  0.00     0.110 C 
BRANCH  18  19
ATOM     19  C   UNL A   1      33.691  21.551  25.866  1.00  0.00     0.028 C 
ATOM     20  C   UNL A   1      34.002  21.452  27.352  1.00  0.00     0.018 C 
ATOM     21  C   UNL A   1      34.592  20.648  24.999  1.00  0.00     0.170 C 
ATOM     22  C   UNL A   1      32.571  20.618  25.367  1.00  0.00     0.170 C 
ATOM     23  O   UNL A   1      33.432  20.112  24.313  1.00  0.00    -0.380 OA
ENDBRANCH  18  19
ENDBRANCH  16  18
ENDBRANCH  13  16
ENDBRANCH  12  13
ENDBRANCH   7  12
ENDBRANCH   4   6
ENDBRANCH   3   4
ENDBRANCH   2   3
ENDBRANCH   1   2
BRANCH   1  24
ATOM     24  O   UNL A   1      35.615  31.992  28.113  1.00  0.00    -0.374 OA
BRANCH  24  25
ATOM     25  C   UNL A   1      35.175  32.710  29.266  1.00  0.00     0.202 C 
BRANCH  25  26
ATOM     26  C   UNL A   1      35.152  31.929  30.585  1.00  0.00     0.261 C 
BRANCH  26  27
ATOM     27  O   UNL A   1      36.481  31.669  31.075  1.00  0.00    -0.460 OA
BRANCH  27  28
ATOM     28  C   UNL A   1      36.889  30.384  30.953  1.00  0.00     0.338 C 
ATOM     29  O   UNL A   1      36.196  29.380  31.039  1.00  0.00    -0.246 OA
BRANCH  28  30
ATOM     30  C   UNL A   1      38.295  30.344  30.511  1.00  0.00     0.060 A 
ATOM     31  C   UNL A   1      38.551  30.540  29.148  1.00  0.00     0.016 A 
ATOM     32  C   UNL A   1      39.338  30.058  31.395  1.00  0.00     0.016 A 
ATOM     33  C   UNL A   1      39.846  30.396  28.652  1.00  0.00     0.010 A 
ATOM     34  C   UNL A   1      40.635  29.908  30.895  1.00  0.00     0.010 A 
ATOM     35  C   UNL A   1      40.888  30.039  29.517  1.00  0.00    -0.014 A 
BRANCH  35  36
ATOM     36  C   UNL A   1      42.208  29.656  28.959  1.00  0.00     0.031 A 
ATOM     37  C   UNL A   1      42.427  28.233  28.522  1.00  0.00     0.074 A 
ATOM     38  C   UNL A   1      43.189  30.565  28.823  1.00  0.00     0.049 A 
ATOM     39  N   UNL A   1      43.507  27.666  28.052  1.00  0.00    -0.248 NA
ATOM     40  C   UNL A   1      41.273  27.328  28.638  1.00  0.00     0.031 C 
ATOM     41  C   UNL A   1      43.081  31.981  29.171  1.00  0.00     0.029 A 
ATOM     42  N   UNL A   1      44.474  30.428  28.361  1.00  0.00    -0.354 N 
ATOM     43  C   UNL A   1      43.168  26.338  27.822  1.00  0.00     0.074 A 
ATOM     44  C   UNL A   1      41.790  26.176  28.237  1.00  0.00     0.031 C 
ATOM     45  C   UNL A   1      44.257  32.582  28.917  1.00  0.00     0.029 A 
ATOM     46  C   UNL A   1      45.208  31.587  28.421  1.00  0.00     0.049 A 
ATOM     47  H   UNL A   1      44.835  29.578  28.019  1.00  0.00     0.167 HD
ATOM     48  C   UNL A   1      43.931  25.345  27.305  1.00  0.00     0.037 A 
ATOM     49  C   UNL A   1      46.503  31.814  28.130  1.00  0.00     0.037 A 
ATOM     50  C   UNL A   1      45.301  25.513  26.895  1.00  0.00     0.049 A 
ATOM     51  C   UNL A   1      47.356  30.681  27.620  1.00  0.00     0.074 A 
ATOM     52  C   UNL A   1      46.156  24.576  26.345  1.00  0.00     0.029 A 
ATOM     53  N   UNL A   1      46.019  26.696  27.001  1.00  0.00    -0.354 N 
ATOM     54  N   UNL A   1      47.019  29.434  27.392  1.00  0.00    -0.248 NA
ATOM     55  C   UNL A   1      48.763  30.987  27.326  1.00  0.00     0.031 C 
ATOM     56  C   UNL A   1      47.407  25.178  26.164  1.00  0.00     0.029 A 
ATOM     57  C   UNL A   1      47.315  26.506  26.550  1.00  0.00     0.049 A 
ATOM     58  H   UNL A   1      45.660  27.546  27.346  1.00  0.00     0.167 HD
ATOM     59  C   UNL A   1      48.163  28.813  26.899  1.00  0.00     0.074 A 
ATOM     60  C   UNL A   1      49.199  29.824  26.860  1.00  0.00     0.031 C 
ATOM     61  C   UNL A   1      48.337  27.524  26.511  1.00  0.00     0.037 A 
BRANCH  48  62
ATOM     62  C   UNL A   1      43.304  23.982  27.185  1.00  0.00     0.058 A 
ATOM     63  C   UNL A   1      43.133  23.144  28.298  1.00  0.00     0.135 A 
ATOM     64  C   UNL A   1      42.863  23.511  25.937  1.00  0.00     0.135 A 
ATOM     65  F   UNL A   1      43.551  23.537  29.512  1.00  0.00    -0.206 F 
ATOM     66  C   UNL A   1      42.585  21.870  28.173  1.00  0.00     0.059 A 
ATOM     67  C   UNL A   1      42.286  22.253  25.793  1.00  0.00     0.059 A 
ATOM     68  F   UNL A   1      43.002  24.270  24.839  1.00  0.00    -0.206 F 
ATOM     69  C   UNL A   1      42.171  21.432  26.915  1.00  0.00     0.060 A 
BRANCH  69  70
ATOM     70  S   UNL A   1      41.486  19.769  26.762  1.00  0.00     0.124 S 
ATOM     71  O   UNL A   1      41.803  19.451  25.373  1.00  0.00    -0.237 OA
ATOM     72  O   UNL A   1      42.236  19.026  27.769  1.00  0.00    -0.237 OA
ATOM     73  O   UNL A   1      40.067  19.957  27.054  1.00  0.00    -0.744 OA
ENDBRANCH  69  70
ENDBRANCH  48  62
BRANCH  49  74
ATOM     74  C   UNL A   1      47.072  33.175  28.312  1.00  0.00     0.058 A 
ATOM     75  C   UNL A   1      47.615  33.574  29.542  1.00  0.00     0.135 A 
ATOM     76  C   UNL A   1      47.107  34.096  27.252  1.00  0.00     0.135 A 
ATOM     77  F   UNL A   1      47.594  32.733  30.588  1.00  0.00    -0.206 F 
ATOM     78  C   UNL A   1      48.171  34.838  29.718  1.00  0.00     0.059 A 
ATOM     79  C   UNL A   1      47.679  35.357  27.397  1.00  0.00     0.059 A 
ATOM     80  F   UNL A   1      46.610  33.760  26.052  1.00  0.00    -0.206 F 
ATOM     81  C   UNL A   1      48.204  35.720  28.636  1.00  0.00     0.060 A 
BRANCH  81  82
ATOM     82  S   UNL A   1      48.992  37.329  28.855  1.00  0.00     0.124 S 
ATOM     83  O   UNL A   1      47.862  38.235  28.693  1.00  0.00    -0.237 OA
ATOM     84  O   UNL A   1      49.538  37.220  30.205  1.00  0.00    -0.237 OA
ATOM     85  O   UNL A   1      49.988  37.362  27.787  1.00  0.00    -0.744 OA
ENDBRANCH  81  82
ENDBRANCH  49  74
BRANCH  61  86
ATOM     86  C   UNL A   1      49.686  27.136  25.971  1.00  0.00     0.058 A 
ATOM     87  C   UNL A   1      50.692  26.613  26.799  1.00  0.00     0.135 A 
ATOM     88  C   UNL A   1      49.954  27.235  24.596  1.00  0.00     0.135 A 
ATOM     89  F   UNL A   1      50.491  26.503  28.121  1.00  0.00    -0.206 F 
ATOM     90  C   UNL A   1      51.924  26.219  26.284  1.00  0.00     0.059 A 
ATOM     91  C   UNL A   1      51.168  26.820  24.056  1.00  0.00     0.059 A 
ATOM     92  F   UNL A   1      49.024  27.718  23.759  1.00  0.00    -0.206 F 
ATOM     93  C   UNL A   1      52.152  26.324  24.910  1.00  0.00     0.060 A 
BRANCH  93  94
ATOM     94  S   UNL A   1      53.739  25.771  24.250  1.00  0.00     0.124 S 
ATOM     95  O   UNL A   1      54.665  26.685  24.911  1.00  0.00    -0.237 OA
ATOM     96  O   UNL A   1      53.795  24.382  24.691  1.00  0.00    -0.237 OA
ATOM     97  O   UNL A   1      53.592  25.960  22.809  1.00  0.00    -0.744 OA
ENDBRANCH  93  94
ENDBRANCH  61  86
ENDBRANCH  35  36
ENDBRANCH  28  30
ENDBRANCH  27  28
ENDBRANCH  26  27
ENDBRANCH  25  26
ENDBRANCH  24  25
ENDBRANCH   1  24
TORSDOF 22
ENDMDL
