MODEL 1
REMARK VINA RESULT:     -11.3      0.000      0.000
REMARK SMILES CCc1n[nH]c(C(=O)N[C@@]2(C(=O)OCCOCCOC(=O)c3ccc(-c4c5nc(c(-c6c(F)cc(S(=O)(=O)[O-])cc6F)c6ccc([nH]6)c(-c6c(F)cc(S(=O)(=O)[O-])cc6F)c6nc(c(-c7c(F)cc(S(=O)(=O)[O-])cc7F)c7ccc4[nH]7)C=C6)C=C5)cc3)CCCC[C@H]2C)n1
REMARK SMILES IDX 16 1 15 2 14 3 13 4 11 5 12 6 10 7 88 8 92 9 89 10 91 11
REMARK SMILES IDX 93 12 90 13 9 14 7 15 8 16 6 18 3 19 4 20 94 21 5 22 2 24
REMARK SMILES IDX 1 25 17 26 18 27 19 28 20 29 21 30 22 31 23 32 87 33 24 34
REMARK SMILES IDX 86 35 25 36 26 37 27 38 80 39 28 40 85 41 79 42 81 43 29 44
REMARK SMILES IDX 84 45 78 46 77 47 30 49 64 50 43 51 63 52 44 53 47 54 62 55
REMARK SMILES IDX 82 56 45 57 46 58 61 60 83 61 48 62 31 63 32 64 41 65 33 66
REMARK SMILES IDX 34 67 40 68 42 69 35 70 36 71 37 72 38 73 39 74 65 75 66 76
REMARK SMILES IDX 75 77 67 78 68 79 74 80 76 81 69 82 70 83 71 84 72 85 73 86
REMARK SMILES IDX 49 87 50 88 59 89 51 90 52 91 58 92 60 93 53 94 54 95 55 96
REMARK SMILES IDX 56 97 57 98
REMARK H PARENT 9 17 5 23 81 48 47 59
REMARK Flexibility Score: inf
ROOT
ATOM      1  O   UNL A   1      39.136  21.644  26.497  1.00  0.00    -0.374 OA
ENDROOT
BRANCH   1   2
ATOM      2  C   UNL A   1      38.218  21.489  25.420  1.00  0.00     0.202 C 
BRANCH   2   3
ATOM      3  C   UNL A   1      36.711  21.669  25.664  1.00  0.00     0.261 C 
BRANCH   3   4
ATOM      4  O   UNL A   1      36.129  22.939  25.319  1.00  0.00    -0.461 OA
BRANCH   4   5
ATOM      5  C   UNL A   1      34.834  23.055  25.721  1.00  0.00     0.332 C 
ATOM      6  O   UNL A   1      34.473  22.824  26.876  1.00  0.00    -0.249 OA
BRANCH   5   7
ATOM      7  C   UNL A   1      33.857  23.542  24.607  1.00  0.00     0.141 C 
ATOM      8  C   UNL A   1      34.073  22.837  23.244  1.00  0.00     0.041 C 
ATOM      9  C   UNL A   1      34.034  25.074  24.288  1.00  0.00     0.023 C 
ATOM     10  C   UNL A   1      33.006  23.224  22.224  1.00  0.00     0.003 C 
ATOM     11  C   UNL A   1      33.029  25.551  23.209  1.00  0.00     0.006 C 
ATOM     12  C   UNL A   1      33.965  26.014  25.497  1.00  0.00     0.011 C 
ATOM     13  C   UNL A   1      33.065  24.713  21.933  1.00  0.00     0.000 C 
BRANCH   7  14
ATOM     14  N   UNL A   1      32.492  23.306  25.174  1.00  0.00    -0.333 N 
ATOM     15  C   UNL A   1      31.828  22.135  25.493  1.00  0.00     0.289 C 
ATOM     16  O   UNL A   1      30.721  22.258  26.026  1.00  0.00    -0.266 OA
ATOM     17  H   UNL A   1      31.976  24.126  25.350  1.00  0.00     0.165 HD
BRANCH  15  18
ATOM     18  C   UNL A   1      32.376  20.828  25.198  1.00  0.00     0.214 A 
ATOM     19  C   UNL A   1      32.824  18.923  24.379  1.00  0.00     0.151 A 
ATOM     20  N   UNL A   1      33.289  18.823  25.631  1.00  0.00    -0.158 NA
ATOM     21  N   UNL A   1      32.324  20.155  24.068  1.00  0.00    -0.207 NA
ATOM     22  N   UNL A   1      33.037  20.058  26.110  1.00  0.00    -0.255 N 
ATOM     23  H   UNL A   1      33.299  20.367  27.007  1.00  0.00     0.192 HD
BRANCH  19  24
ATOM     24  C   UNL A   1      32.742  17.768  23.441  1.00  0.00     0.076 C 
ATOM     25  C   UNL A   1      34.089  17.129  23.120  1.00  0.00     0.012 C 
ENDBRANCH  19  24
ENDBRANCH  15  18
ENDBRANCH   7  14
ENDBRANCH   5   7
ENDBRANCH   4   5
ENDBRANCH   3   4
ENDBRANCH   2   3
ENDBRANCH   1   2
BRANCH   1  26
ATOM     26  C   UNL A   1      40.530  21.665  26.211  1.00  0.00     0.202 C 
BRANCH  26  27
ATOM     27  C   UNL A   1      41.291  22.973  26.444  1.00  0.00     0.261 C 
BRANCH  27  28
ATOM     28  O   UNL A   1      40.432  24.121  26.395  1.00  0.00    -0.460 OA
BRANCH  28  29
ATOM     29  C   UNL A   1      41.088  25.293  26.225  1.00  0.00     0.338 C 
ATOM     30  O   UNL A   1      41.439  25.794  25.156  1.00  0.00    -0.246 OA
BRANCH  29  31
ATOM     31  C   UNL A   1      41.189  26.024  27.493  1.00  0.00     0.060 A 
ATOM     32  C   UNL A   1      40.134  25.890  28.404  1.00  0.00     0.016 A 
ATOM     33  C   UNL A   1      42.228  26.921  27.734  1.00  0.00     0.016 A 
ATOM     34  C   UNL A   1      40.086  26.693  29.540  1.00  0.00     0.010 A 
ATOM     35  C   UNL A   1      42.174  27.739  28.867  1.00  0.00     0.010 A 
ATOM     36  C   UNL A   1      41.083  27.654  29.753  1.00  0.00    -0.014 A 
BRANCH  36  37
ATOM     37  C   UNL A   1      40.905  28.661  30.824  1.00  0.00     0.031 A 
ATOM     38  C   UNL A   1      41.773  28.588  32.050  1.00  0.00     0.074 A 
ATOM     39  C   UNL A   1      39.994  29.642  30.694  1.00  0.00     0.049 A 
ATOM     40  N   UNL A   1      41.759  29.339  33.120  1.00  0.00    -0.248 NA
ATOM     41  C   UNL A   1      42.794  27.528  32.070  1.00  0.00     0.031 C 
ATOM     42  C   UNL A   1      39.126  29.836  29.535  1.00  0.00     0.029 A 
ATOM     43  N   UNL A   1      39.642  30.652  31.554  1.00  0.00    -0.354 N 
ATOM     44  C   UNL A   1      42.759  28.839  33.947  1.00  0.00     0.074 A 
ATOM     45  C   UNL A   1      43.348  27.708  33.261  1.00  0.00     0.031 C 
ATOM     46  C   UNL A   1      38.322  30.888  29.764  1.00  0.00     0.029 A 
ATOM     47  C   UNL A   1      38.598  31.421  31.098  1.00  0.00     0.049 A 
ATOM     48  H   UNL A   1      40.094  30.810  32.414  1.00  0.00     0.167 HD
ATOM     49  C   UNL A   1      43.152  29.287  35.162  1.00  0.00     0.037 A 
ATOM     50  C   UNL A   1      37.923  32.417  31.703  1.00  0.00     0.037 A 
ATOM     51  C   UNL A   1      42.562  30.414  35.836  1.00  0.00     0.049 A 
ATOM     52  C   UNL A   1      38.325  32.850  33.087  1.00  0.00     0.074 A 
ATOM     53  C   UNL A   1      42.920  30.976  37.049  1.00  0.00     0.029 A 
ATOM     54  N   UNL A   1      41.479  31.139  35.362  1.00  0.00    -0.354 N 
ATOM     55  N   UNL A   1      39.300  32.397  33.839  1.00  0.00    -0.248 NA
ATOM     56  C   UNL A   1      37.535  33.922  33.707  1.00  0.00     0.031 C 
ATOM     57  C   UNL A   1      42.019  32.008  37.332  1.00  0.00     0.029 A 
ATOM     58  C   UNL A   1      41.127  32.119  36.277  1.00  0.00     0.049 A 
ATOM     59  H   UNL A   1      41.027  30.983  34.501  1.00  0.00     0.167 HD
ATOM     60  C   UNL A   1      39.245  33.132  35.018  1.00  0.00     0.074 A 
ATOM     61  C   UNL A   1      38.152  34.072  34.873  1.00  0.00     0.031 C 
ATOM     62  C   UNL A   1      40.026  33.037  36.123  1.00  0.00     0.037 A 
BRANCH  49  63
ATOM     63  C   UNL A   1      44.250  28.533  35.859  1.00  0.00     0.058 A 
ATOM     64  C   UNL A   1      45.602  28.857  35.677  1.00  0.00     0.135 A 
ATOM     65  C   UNL A   1      43.940  27.486  36.743  1.00  0.00     0.135 A 
ATOM     66  F   UNL A   1      45.954  29.839  34.832  1.00  0.00    -0.206 F 
ATOM     67  C   UNL A   1      46.613  28.152  36.324  1.00  0.00     0.059 A 
ATOM     68  C   UNL A   1      44.932  26.782  37.418  1.00  0.00     0.059 A 
ATOM     69  F   UNL A   1      42.661  27.134  36.951  1.00  0.00    -0.206 F 
ATOM     70  C   UNL A   1      46.267  27.113  37.191  1.00  0.00     0.060 A 
BRANCH  70  71
ATOM     71  S   UNL A   1      47.588  26.201  38.018  1.00  0.00     0.124 S 
ATOM     72  O   UNL A   1      48.590  27.245  38.202  1.00  0.00    -0.237 OA
ATOM     73  O   UNL A   1      46.930  25.733  39.235  1.00  0.00    -0.237 OA
ATOM     74  O   UNL A   1      47.935  25.159  37.057  1.00  0.00    -0.744 OA
ENDBRANCH  70  71
ENDBRANCH  49  63
BRANCH  50  75
ATOM     75  C   UNL A   1      36.767  33.044  31.009  1.00  0.00     0.058 A 
ATOM     76  C   UNL A   1      35.449  32.764  31.392  1.00  0.00     0.135 A 
ATOM     77  C   UNL A   1      36.966  33.962  29.965  1.00  0.00     0.135 A 
ATOM     78  F   UNL A   1      35.208  31.884  32.376  1.00  0.00    -0.206 F 
ATOM     79  C   UNL A   1      34.365  33.373  30.767  1.00  0.00     0.059 A 
ATOM     80  C   UNL A   1      35.900  34.599  29.339  1.00  0.00     0.059 A 
ATOM     81  F   UNL A   1      38.210  34.269  29.567  1.00  0.00    -0.206 F 
ATOM     82  C   UNL A   1      34.602  34.296  29.745  1.00  0.00     0.060 A 
BRANCH  82  83
ATOM     83  S   UNL A   1      33.193  35.140  28.993  1.00  0.00     0.124 S 
ATOM     84  O   UNL A   1      32.344  35.385  30.153  1.00  0.00    -0.237 OA
ATOM     85  O   UNL A   1      33.822  36.315  28.400  1.00  0.00    -0.237 OA
ATOM     86  O   UNL A   1      32.689  34.159  28.036  1.00  0.00    -0.744 OA
ENDBRANCH  82  83
ENDBRANCH  50  75
BRANCH  62  87
ATOM     87  C   UNL A   1      39.728  33.962  37.268  1.00  0.00     0.058 A 
ATOM     88  C   UNL A   1      38.954  33.544  38.361  1.00  0.00     0.135 A 
ATOM     89  C   UNL A   1      40.281  35.253  37.310  1.00  0.00     0.135 A 
ATOM     90  F   UNL A   1      38.394  32.323  38.364  1.00  0.00    -0.206 F 
ATOM     91  C   UNL A   1      38.732  34.374  39.454  1.00  0.00     0.059 A 
ATOM     92  C   UNL A   1      40.091  36.092  38.404  1.00  0.00     0.059 A 
ATOM     93  F   UNL A   1      41.036  35.698  36.294  1.00  0.00    -0.206 F 
ATOM     94  C   UNL A   1      39.309  35.645  39.469  1.00  0.00     0.060 A 
BRANCH  94  95
ATOM     95  S   UNL A   1      39.059  36.693  40.919  1.00  0.00     0.124 S 
ATOM     96  O   UNL A   1      38.053  35.937  41.658  1.00  0.00    -0.237 OA
ATOM     97  O   UNL A   1      40.391  36.726  41.515  1.00  0.00    -0.237 OA
ATOM     98  O   UNL A   1      38.602  37.957  40.350  1.00  0.00    -0.744 OA
ENDBRANCH  94  95
ENDBRANCH  62  87
ENDBRANCH  36  37
ENDBRANCH  29  31
ENDBRANCH  28  29
ENDBRANCH  27  28
ENDBRANCH  26  27
ENDBRANCH   1  26
TORSDOF 20
ENDMDL
MODEL 2
REMARK VINA RESULT:     -11.1      0.552      8.179
REMARK SMILES CCc1n[nH]c(C(=O)N[C@@]2(C(=O)OCCOCCOC(=O)c3ccc(-c4c5nc(c(-c6c(F)cc(S(=O)(=O)[O-])cc6F)c6ccc([nH]6)c(-c6c(F)cc(S(=O)(=O)[O-])cc6F)c6nc(c(-c7c(F)cc(S(=O)(=O)[O-])cc7F)c7ccc4[nH]7)C=C6)C=C5)cc3)CCCC[C@H]2C)n1
REMARK SMILES IDX 16 1 15 2 14 3 13 4 11 5 12 6 10 7 88 8 92 9 89 10 91 11
REMARK SMILES IDX 93 12 90 13 9 14 7 15 8 16 6 18 3 19 4 20 94 21 5 22 2 24
REMARK SMILES IDX 1 25 17 26 18 27 19 28 20 29 21 30 22 31 23 32 87 33 24 34
REMARK SMILES IDX 86 35 25 36 26 37 27 38 80 39 28 40 85 41 79 42 81 43 29 44
REMARK SMILES IDX 84 45 78 46 77 47 30 49 64 50 43 51 63 52 44 53 47 54 62 55
REMARK SMILES IDX 82 56 45 57 46 58 61 60 83 61 48 62 31 63 32 64 41 65 33 66
REMARK SMILES IDX 34 67 40 68 42 69 35 70 36 71 37 72 38 73 39 74 65 75 66 76
REMARK SMILES IDX 75 77 67 78 68 79 74 80 76 81 69 82 70 83 71 84 72 85 73 86
REMARK SMILES IDX 49 87 50 88 59 89 51 90 52 91 58 92 60 93 53 94 54 95 55 96
REMARK SMILES IDX 56 97 57 98
REMARK H PARENT 9 17 5 23 81 48 47 59
REMARK Flexibility Score: inf
ROOT
ATOM      1  O   UNL A   1      39.325  21.935  26.682  1.00  0.00    -0.374 OA
ENDROOT
BRANCH   1   2
ATOM      2  C   UNL A   1      38.321  21.653  25.713  1.00  0.00     0.202 C 
BRANCH   2   3
ATOM      3  C   UNL A   1      37.128  22.607  25.543  1.00  0.00     0.261 C 
BRANCH   3   4
ATOM      4  O   UNL A   1      35.859  22.028  25.189  1.00  0.00    -0.461 OA
BRANCH   4   5
ATOM      5  C   UNL A   1      34.802  22.710  25.709  1.00  0.00     0.332 C 
ATOM      6  O   UNL A   1      34.635  22.856  26.921  1.00  0.00    -0.249 OA
BRANCH   5   7
ATOM      7  C   UNL A   1      33.845  23.321  24.640  1.00  0.00     0.141 C 
ATOM      8  C   UNL A   1      34.064  22.751  23.216  1.00  0.00     0.041 C 
ATOM      9  C   UNL A   1      34.050  24.873  24.476  1.00  0.00     0.023 C 
ATOM     10  C   UNL A   1      33.014  23.254  22.229  1.00  0.00     0.003 C 
ATOM     11  C   UNL A   1      33.064  25.472  23.440  1.00  0.00     0.006 C 
ATOM     12  C   UNL A   1      33.983  25.690  25.772  1.00  0.00     0.011 C 
ATOM     13  C   UNL A   1      33.100  24.764  22.088  1.00  0.00     0.000 C 
BRANCH   7  14
ATOM     14  N   UNL A   1      32.470  23.053  25.168  1.00  0.00    -0.333 N 
ATOM     15  C   UNL A   1      31.805  21.866  25.417  1.00  0.00     0.289 C 
ATOM     16  O   UNL A   1      30.688  21.958  25.934  1.00  0.00    -0.266 OA
ATOM     17  H   UNL A   1      31.948  23.861  25.374  1.00  0.00     0.165 HD
BRANCH  15  18
ATOM     18  C   UNL A   1      32.364  20.577  25.070  1.00  0.00     0.214 A 
ATOM     19  C   UNL A   1      32.869  18.736  24.143  1.00  0.00     0.151 A 
ATOM     20  N   UNL A   1      33.207  18.525  25.422  1.00  0.00    -0.158 NA
ATOM     21  N   UNL A   1      32.415  19.998  23.888  1.00  0.00    -0.207 NA
ATOM     22  N   UNL A   1      32.924  19.722  25.974  1.00  0.00    -0.255 N 
ATOM     23  H   UNL A   1      33.100  19.952  26.915  1.00  0.00     0.192 HD
BRANCH  19  24
ATOM     24  C   UNL A   1      32.866  17.663  23.109  1.00  0.00     0.076 C 
ATOM     25  C   UNL A   1      34.081  16.744  23.161  1.00  0.00     0.012 C 
ENDBRANCH  19  24
ENDBRANCH  15  18
ENDBRANCH   7  14
ENDBRANCH   5   7
ENDBRANCH   4   5
ENDBRANCH   3   4
ENDBRANCH   2   3
ENDBRANCH   1   2
BRANCH   1  26
ATOM     26  C   UNL A   1      40.680  22.031  26.258  1.00  0.00     0.202 C 
BRANCH  26  27
ATOM     27  C   UNL A   1      41.362  23.399  26.338  1.00  0.00     0.261 C 
BRANCH  27  28
ATOM     28  O   UNL A   1      40.418  24.477  26.420  1.00  0.00    -0.460 OA
BRANCH  28  29
ATOM     29  C   UNL A   1      40.976  25.707  26.328  1.00  0.00     0.338 C 
ATOM     30  O   UNL A   1      41.235  26.324  25.295  1.00  0.00    -0.246 OA
BRANCH  29  31
ATOM     31  C   UNL A   1      41.087  26.330  27.652  1.00  0.00     0.060 A 
ATOM     32  C   UNL A   1      40.054  26.095  28.567  1.00  0.00     0.016 A 
ATOM     33  C   UNL A   1      42.112  27.227  27.948  1.00  0.00     0.016 A 
ATOM     34  C   UNL A   1      40.012  26.799  29.768  1.00  0.00     0.010 A 
ATOM     35  C   UNL A   1      42.063  27.946  29.147  1.00  0.00     0.010 A 
ATOM     36  C   UNL A   1      40.992  27.761  30.043  1.00  0.00    -0.014 A 
BRANCH  36  37
ATOM     37  C   UNL A   1      40.814  28.670  31.199  1.00  0.00     0.031 A 
ATOM     38  C   UNL A   1      39.763  29.744  31.130  1.00  0.00     0.074 A 
ATOM     39  C   UNL A   1      41.567  28.526  32.304  1.00  0.00     0.049 A 
ATOM     40  N   UNL A   1      39.467  30.669  32.005  1.00  0.00    -0.248 NA
ATOM     41  C   UNL A   1      38.936  29.778  29.913  1.00  0.00     0.031 C 
ATOM     42  C   UNL A   1      42.587  27.498  32.498  1.00  0.00     0.029 A 
ATOM     43  N   UNL A   1      41.595  29.256  33.465  1.00  0.00    -0.354 N 
ATOM     44  C   UNL A   1      38.426  31.401  31.445  1.00  0.00     0.074 A 
ATOM     45  C   UNL A   1      38.156  30.825  30.145  1.00  0.00     0.031 C 
ATOM     46  C   UNL A   1      43.160  27.676  33.700  1.00  0.00     0.029 A 
ATOM     47  C   UNL A   1      42.569  28.848  34.345  1.00  0.00     0.049 A 
ATOM     48  H   UNL A   1      40.977  29.999  33.650  1.00  0.00     0.167 HD
ATOM     49  C   UNL A   1      37.757  32.454  31.970  1.00  0.00     0.037 A 
ATOM     50  C   UNL A   1      42.959  29.380  35.519  1.00  0.00     0.037 A 
ATOM     51  C   UNL A   1      38.031  33.020  33.265  1.00  0.00     0.049 A 
ATOM     52  C   UNL A   1      42.252  30.598  36.050  1.00  0.00     0.074 A 
ATOM     53  C   UNL A   1      37.377  34.057  33.907  1.00  0.00     0.029 A 
ATOM     54  N   UNL A   1      39.052  32.608  34.107  1.00  0.00    -0.354 N 
ATOM     55  N   UNL A   1      41.242  31.255  35.530  1.00  0.00    -0.248 NA
ATOM     56  C   UNL A   1      42.738  31.152  37.321  1.00  0.00     0.031 C 
ATOM     57  C   UNL A   1      38.037  34.305  35.115  1.00  0.00     0.029 A 
ATOM     58  C   UNL A   1      39.075  33.396  35.246  1.00  0.00     0.049 A 
ATOM     59  H   UNL A   1      39.670  31.863  33.923  1.00  0.00     0.167 HD
ATOM     60  C   UNL A   1      40.968  32.295  36.412  1.00  0.00     0.074 A 
ATOM     61  C   UNL A   1      41.907  32.169  37.508  1.00  0.00     0.031 C 
ATOM     62  C   UNL A   1      40.027  33.267  36.322  1.00  0.00     0.037 A 
BRANCH  49  63
ATOM     63  C   UNL A   1      36.684  33.086  31.127  1.00  0.00     0.058 A 
ATOM     64  C   UNL A   1      36.989  33.936  30.054  1.00  0.00     0.135 A 
ATOM     65  C   UNL A   1      35.330  32.817  31.385  1.00  0.00     0.135 A 
ATOM     66  F   UNL A   1      38.267  34.240  29.773  1.00  0.00    -0.206 F 
ATOM     67  C   UNL A   1      35.989  34.519  29.281  1.00  0.00     0.059 A 
ATOM     68  C   UNL A   1      34.314  33.369  30.612  1.00  0.00     0.059 A 
ATOM     69  F   UNL A   1      34.983  32.012  32.403  1.00  0.00    -0.206 F 
ATOM     70  C   UNL A   1      34.654  34.232  29.570  1.00  0.00     0.060 A 
BRANCH  70  71
ATOM     71  S   UNL A   1      33.366  35.001  28.565  1.00  0.00     0.124 S 
ATOM     72  O   UNL A   1      34.154  35.886  27.712  1.00  0.00    -0.237 OA
ATOM     73  O   UNL A   1      32.762  33.852  27.898  1.00  0.00    -0.237 OA
ATOM     74  O   UNL A   1      32.519  35.668  29.549  1.00  0.00    -0.744 OA
ENDBRANCH  70  71
ENDBRANCH  49  63
BRANCH  50  75
ATOM     75  C   UNL A   1      44.107  28.781  36.250  1.00  0.00     0.058 A 
ATOM     76  C   UNL A   1      45.398  29.311  36.136  1.00  0.00     0.135 A 
ATOM     77  C   UNL A   1      43.921  27.679  37.101  1.00  0.00     0.135 A 
ATOM     78  F   UNL A   1      45.627  30.355  35.326  1.00  0.00    -0.206 F 
ATOM     79  C   UNL A   1      46.470  28.773  36.844  1.00  0.00     0.059 A 
ATOM     80  C   UNL A   1      44.971  27.138  37.834  1.00  0.00     0.059 A 
ATOM     81  F   UNL A   1      42.701  27.141  37.249  1.00  0.00    -0.206 F 
ATOM     82  C   UNL A   1      46.244  27.689  37.696  1.00  0.00     0.060 A 
BRANCH  82  83
ATOM     83  S   UNL A   1      47.623  27.048  38.669  1.00  0.00     0.124 S 
ATOM     84  O   UNL A   1      47.525  27.850  39.883  1.00  0.00    -0.237 OA
ATOM     85  O   UNL A   1      47.273  25.637  38.804  1.00  0.00    -0.237 OA
ATOM     86  O   UNL A   1      48.783  27.319  37.824  1.00  0.00    -0.744 OA
ENDBRANCH  82  83
ENDBRANCH  50  75
BRANCH  62  87
ATOM     87  C   UNL A   1      39.965  34.280  37.429  1.00  0.00     0.058 A 
ATOM     88  C   UNL A   1      40.680  35.485  37.356  1.00  0.00     0.135 A 
ATOM     89  C   UNL A   1      39.127  34.080  38.539  1.00  0.00     0.135 A 
ATOM     90  F   UNL A   1      41.503  35.720  36.321  1.00  0.00    -0.206 F 
ATOM     91  C   UNL A   1      40.573  36.455  38.347  1.00  0.00     0.059 A 
ATOM     92  C   UNL A   1      38.987  35.047  39.530  1.00  0.00     0.059 A 
ATOM     93  F   UNL A   1      38.415  32.949  38.652  1.00  0.00    -0.206 F 
ATOM     94  C   UNL A   1      39.719  36.229  39.428  1.00  0.00     0.060 A 
BRANCH  94  95
ATOM     95  S   UNL A   1      39.547  37.520  40.679  1.00  0.00     0.124 S 
ATOM     96  O   UNL A   1      38.464  38.325  40.124  1.00  0.00    -0.237 OA
ATOM     97  O   UNL A   1      39.217  36.754  41.876  1.00  0.00    -0.237 OA
ATOM     98  O   UNL A   1      40.860  38.158  40.692  1.00  0.00    -0.744 OA
ENDBRANCH  94  95
ENDBRANCH  62  87
ENDBRANCH  36  37
ENDBRANCH  29  31
ENDBRANCH  28  29
ENDBRANCH  27  28
ENDBRANCH  26  27
ENDBRANCH   1  26
TORSDOF 20
ENDMDL
MODEL 3
REMARK VINA RESULT:     -10.7      6.109     10.838
REMARK SMILES CCc1n[nH]c(C(=O)N[C@@]2(C(=O)OCCOCCOC(=O)c3ccc(-c4c5nc(c(-c6c(F)cc(S(=O)(=O)[O-])cc6F)c6ccc([nH]6)c(-c6c(F)cc(S(=O)(=O)[O-])cc6F)c6nc(c(-c7c(F)cc(S(=O)(=O)[O-])cc7F)c7ccc4[nH]7)C=C6)C=C5)cc3)CCCC[C@H]2C)n1
REMARK SMILES IDX 16 1 15 2 14 3 13 4 11 5 12 6 10 7 88 8 92 9 89 10 91 11
REMARK SMILES IDX 93 12 90 13 9 14 7 15 8 16 6 18 3 19 4 20 94 21 5 22 2 24
REMARK SMILES IDX 1 25 17 26 18 27 19 28 20 29 21 30 22 31 23 32 87 33 24 34
REMARK SMILES IDX 86 35 25 36 26 37 27 38 80 39 28 40 85 41 79 42 81 43 29 44
REMARK SMILES IDX 84 45 78 46 77 47 30 49 64 50 43 51 63 52 44 53 47 54 62 55
REMARK SMILES IDX 82 56 45 57 46 58 61 60 83 61 48 62 31 63 32 64 41 65 33 66
REMARK SMILES IDX 34 67 40 68 42 69 35 70 36 71 37 72 38 73 39 74 65 75 66 76
REMARK SMILES IDX 75 77 67 78 68 79 74 80 76 81 69 82 70 83 71 84 72 85 73 86
REMARK SMILES IDX 49 87 50 88 59 89 51 90 52 91 58 92 60 93 53 94 54 95 55 96
REMARK SMILES IDX 56 97 57 98
REMARK H PARENT 9 17 5 23 81 48 47 59
REMARK Flexibility Score: inf
ROOT
ATOM      1  O   UNL A   1      37.830  19.860  24.962  1.00  0.00    -0.374 OA
ENDROOT
BRANCH   1   2
ATOM      2  C   UNL A   1      36.687  20.704  24.877  1.00  0.00     0.202 C 
BRANCH   2   3
ATOM      3  C   UNL A   1      36.475  21.817  25.915  1.00  0.00     0.261 C 
BRANCH   3   4
ATOM      4  O   UNL A   1      35.981  23.084  25.441  1.00  0.00    -0.461 OA
BRANCH   4   5
ATOM      5  C   UNL A   1      34.714  23.348  25.861  1.00  0.00     0.332 C 
ATOM      6  O   UNL A   1      34.361  23.217  27.034  1.00  0.00    -0.249 OA
BRANCH   5   7
ATOM      7  C   UNL A   1      33.761  23.868  24.741  1.00  0.00     0.141 C 
ATOM      8  C   UNL A   1      34.001  23.196  23.365  1.00  0.00     0.041 C 
ATOM      9  C   UNL A   1      33.952  25.406  24.464  1.00  0.00     0.023 C 
ATOM     10  C   UNL A   1      32.955  23.614  22.335  1.00  0.00     0.003 C 
ATOM     11  C   UNL A   1      32.970  25.915  23.377  1.00  0.00     0.006 C 
ATOM     12  C   UNL A   1      33.864  26.316  25.695  1.00  0.00     0.011 C 
ATOM     13  C   UNL A   1      33.028  25.109  22.082  1.00  0.00     0.000 C 
BRANCH   7  14
ATOM     14  N   UNL A   1      32.384  23.625  25.275  1.00  0.00    -0.333 N 
ATOM     15  C   UNL A   1      31.710  22.450  25.556  1.00  0.00     0.289 C 
ATOM     16  O   UNL A   1      30.593  22.566  26.070  1.00  0.00    -0.266 OA
ATOM     17  H   UNL A   1      31.868  24.443  25.458  1.00  0.00     0.165 HD
BRANCH  15  18
ATOM     18  C   UNL A   1      32.260  21.148  25.245  1.00  0.00     0.214 A 
ATOM     19  C   UNL A   1      32.685  19.237  24.427  1.00  0.00     0.151 A 
ATOM     20  N   UNL A   1      33.234  19.165  25.647  1.00  0.00    -0.158 NA
ATOM     21  N   UNL A   1      32.144  20.455  24.131  1.00  0.00    -0.207 NA
ATOM     22  N   UNL A   1      32.994  20.403  26.122  1.00  0.00    -0.255 N 
ATOM     23  H   UNL A   1      33.309  20.731  26.995  1.00  0.00     0.192 HD
BRANCH  19  24
ATOM     24  C   UNL A   1      32.561  18.066  23.514  1.00  0.00     0.076 C 
ATOM     25  C   UNL A   1      32.520  18.431  22.035  1.00  0.00     0.012 C 
ENDBRANCH  19  24
ENDBRANCH  15  18
ENDBRANCH   7  14
ENDBRANCH   5   7
ENDBRANCH   4   5
ENDBRANCH   3   4
ENDBRANCH   2   3
ENDBRANCH   1   2
BRANCH   1  26
ATOM     26  C   UNL A   1      39.071  20.425  25.368  1.00  0.00     0.202 C 
BRANCH  26  27
ATOM     27  C   UNL A   1      40.010  19.563  26.215  1.00  0.00     0.261 C 
BRANCH  27  28
ATOM     28  O   UNL A   1      41.158  19.119  25.478  1.00  0.00    -0.460 OA
BRANCH  28  29
ATOM     29  C   UNL A   1      42.336  19.328  26.113  1.00  0.00     0.338 C 
ATOM     30  O   UNL A   1      43.240  18.509  26.281  1.00  0.00    -0.246 OA
BRANCH  29  31
ATOM     31  C   UNL A   1      42.504  20.747  26.445  1.00  0.00     0.060 A 
ATOM     32  C   UNL A   1      42.685  21.644  25.385  1.00  0.00     0.016 A 
ATOM     33  C   UNL A   1      42.613  21.176  27.767  1.00  0.00     0.016 A 
ATOM     34  C   UNL A   1      43.028  22.968  25.641  1.00  0.00     0.010 A 
ATOM     35  C   UNL A   1      42.972  22.503  28.026  1.00  0.00     0.010 A 
ATOM     36  C   UNL A   1      43.218  23.392  26.963  1.00  0.00    -0.014 A 
BRANCH  36  37
ATOM     37  C   UNL A   1      43.812  24.725  27.221  1.00  0.00     0.031 A 
ATOM     38  C   UNL A   1      42.920  25.849  27.673  1.00  0.00     0.074 A 
ATOM     39  C   UNL A   1      45.134  24.923  27.074  1.00  0.00     0.049 A 
ATOM     40  N   UNL A   1      43.221  27.097  27.915  1.00  0.00    -0.248 NA
ATOM     41  C   UNL A   1      41.501  25.519  27.881  1.00  0.00     0.031 C 
ATOM     42  C   UNL A   1      46.099  23.900  26.680  1.00  0.00     0.029 A 
ATOM     43  N   UNL A   1      45.888  26.059  27.228  1.00  0.00    -0.354 N 
ATOM     44  C   UNL A   1      42.031  27.707  28.294  1.00  0.00     0.074 A 
ATOM     45  C   UNL A   1      40.999  26.695  28.232  1.00  0.00     0.031 C 
ATOM     46  C   UNL A   1      47.319  24.459  26.601  1.00  0.00     0.029 A 
ATOM     47  C   UNL A   1      47.212  25.885  26.908  1.00  0.00     0.049 A 
ATOM     48  H   UNL A   1      45.516  26.915  27.540  1.00  0.00     0.167 HD
ATOM     49  C   UNL A   1      41.822  28.993  28.665  1.00  0.00     0.037 A 
ATOM     50  C   UNL A   1      48.216  26.782  26.837  1.00  0.00     0.037 A 
ATOM     51  C   UNL A   1      42.855  29.992  28.727  1.00  0.00     0.049 A 
ATOM     52  C   UNL A   1      47.945  28.222  27.180  1.00  0.00     0.074 A 
ATOM     53  C   UNL A   1      42.754  31.311  29.137  1.00  0.00     0.029 A 
ATOM     54  N   UNL A   1      44.175  29.790  28.353  1.00  0.00    -0.354 N 
ATOM     55  N   UNL A   1      46.825  28.776  27.578  1.00  0.00    -0.248 NA
ATOM     56  C   UNL A   1      49.070  29.160  27.058  1.00  0.00     0.031 C 
ATOM     57  C   UNL A   1      44.002  31.918  28.959  1.00  0.00     0.029 A 
ATOM     58  C   UNL A   1      44.891  30.968  28.481  1.00  0.00     0.049 A 
ATOM     59  H   UNL A   1      44.549  28.933  28.042  1.00  0.00     0.167 HD
ATOM     60  C   UNL A   1      47.110  30.125  27.760  1.00  0.00     0.074 A 
ATOM     61  C   UNL A   1      48.514  30.301  27.446  1.00  0.00     0.031 C 
ATOM     62  C   UNL A   1      46.285  31.129  28.149  1.00  0.00     0.037 A 
BRANCH  49  63
ATOM     63  C   UNL A   1      40.414  29.399  28.999  1.00  0.00     0.058 A 
ATOM     64  C   UNL A   1      39.990  29.585  30.323  1.00  0.00     0.135 A 
ATOM     65  C   UNL A   1      39.481  29.629  27.975  1.00  0.00     0.135 A 
ATOM     66  F   UNL A   1      40.837  29.364  31.342  1.00  0.00    -0.206 F 
ATOM     67  C   UNL A   1      38.683  29.959  30.623  1.00  0.00     0.059 A 
ATOM     68  C   UNL A   1      38.176  30.026  28.249  1.00  0.00     0.059 A 
ATOM     69  F   UNL A   1      39.834  29.463  26.690  1.00  0.00    -0.206 F 
ATOM     70  C   UNL A   1      37.782  30.173  29.578  1.00  0.00     0.060 A 
BRANCH  70  71
ATOM     71  S   UNL A   1      36.088  30.650  29.981  1.00  0.00     0.124 S 
ATOM     72  O   UNL A   1      35.344  30.022  28.894  1.00  0.00    -0.237 OA
ATOM     73  O   UNL A   1      35.901  30.056  31.302  1.00  0.00    -0.237 OA
ATOM     74  O   UNL A   1      36.129  32.108  29.954  1.00  0.00    -0.744 OA
ENDBRANCH  70  71
ENDBRANCH  49  63
BRANCH  50  75
ATOM     75  C   UNL A   1      49.561  26.341  26.383  1.00  0.00     0.058 A 
ATOM     76  C   UNL A   1      49.964  26.488  25.050  1.00  0.00     0.135 A 
ATOM     77  C   UNL A   1      50.481  25.790  27.290  1.00  0.00     0.135 A 
ATOM     78  F   UNL A   1      49.116  26.999  24.144  1.00  0.00    -0.206 F 
ATOM     79  C   UNL A   1      51.234  26.106  24.628  1.00  0.00     0.059 A 
ATOM     80  C   UNL A   1      51.762  25.421  26.897  1.00  0.00     0.059 A 
ATOM     81  F   UNL A   1      50.144  25.636  28.580  1.00  0.00    -0.206 F 
ATOM     82  C   UNL A   1      52.129  25.580  25.562  1.00  0.00     0.060 A 
BRANCH  82  83
ATOM     83  S   UNL A   1      53.801  25.161  25.023  1.00  0.00     0.124 S 
ATOM     84  O   UNL A   1      53.745  23.704  24.996  1.00  0.00    -0.237 OA
ATOM     85  O   UNL A   1      53.879  25.822  23.724  1.00  0.00    -0.237 OA
ATOM     86  O   UNL A   1      54.644  25.743  26.064  1.00  0.00    -0.744 OA
ENDBRANCH  82  83
ENDBRANCH  50  75
BRANCH  62  87
ATOM     87  C   UNL A   1      46.869  32.510  28.252  1.00  0.00     0.058 A 
ATOM     88  C   UNL A   1      46.757  33.429  27.198  1.00  0.00     0.135 A 
ATOM     89  C   UNL A   1      47.480  32.944  29.440  1.00  0.00     0.135 A 
ATOM     90  F   UNL A   1      46.190  33.059  26.038  1.00  0.00    -0.206 F 
ATOM     91  C   UNL A   1      47.236  34.729  27.313  1.00  0.00     0.059 A 
ATOM     92  C   UNL A   1      47.946  34.247  29.586  1.00  0.00     0.059 A 
ATOM     93  F   UNL A   1      47.605  32.106  30.481  1.00  0.00    -0.206 F 
ATOM     94  C   UNL A   1      47.824  35.131  28.514  1.00  0.00     0.060 A 
BRANCH  94  95
ATOM     95  S   UNL A   1      48.392  36.839  28.671  1.00  0.00     0.124 S 
ATOM     96  O   UNL A   1      47.505  37.530  27.742  1.00  0.00    -0.237 OA
ATOM     97  O   UNL A   1      48.168  37.114  30.086  1.00  0.00    -0.237 OA
ATOM     98  O   UNL A   1      49.794  36.768  28.266  1.00  0.00    -0.744 OA
ENDBRANCH  94  95
ENDBRANCH  62  87
ENDBRANCH  36  37
ENDBRANCH  29  31
ENDBRANCH  28  29
ENDBRANCH  27  28
ENDBRANCH  26  27
ENDBRANCH   1  26
TORSDOF 20
ENDMDL
