MODEL 1
REMARK VINA RESULT:     -10.8      0.000      0.000
REMARK SMILES O=C(OCCOCCOC(=O)c1cc(Br)ccc1OCc1ccccc1F)c1ccc(-c2c3nc(c(-c4c(F)cc(S(=O)(=O)[O-])cc4F)c4ccc([nH]4)c(-c4c(F)cc(S(=O)(=O)[O-])cc4F)c4nc(c(-c5c(F)cc(S(=O)(=O)[O-])cc5F)c5ccc2[nH]5)C=C4)C=C3)cc1
REMARK SMILES IDX 6 1 5 2 4 3 3 4 2 5 1 6 28 7 29 8 93 9 30 10 92 11 31 12
REMARK SMILES IDX 32 13 33 14 86 15 34 16 91 17 85 18 87 19 35 20 90 21 84 22
REMARK SMILES IDX 83 23 36 25 70 26 49 27 69 28 50 29 53 30 68 31 88 32 51 33
REMARK SMILES IDX 52 34 67 36 89 37 54 38 37 39 38 40 47 41 39 42 40 43 46 44
REMARK SMILES IDX 48 45 41 46 42 47 43 48 44 49 45 50 71 51 72 52 81 53 73 54
REMARK SMILES IDX 74 55 80 56 82 57 75 58 76 59 77 60 78 61 79 62 55 63 56 64
REMARK SMILES IDX 65 65 57 66 58 67 64 68 66 69 59 70 60 71 61 72 62 73 63 74
REMARK SMILES IDX 7 75 8 76 9 77 10 78 11 79 12 80 13 81 18 82 14 83 17 84
REMARK SMILES IDX 15 85 16 86 19 87 20 88 21 89 22 90 26 91 23 92 25 93 27 94
REMARK SMILES IDX 24 95
REMARK H PARENT 87 24 53 35
REMARK Flexibility Score: inf
ROOT
ATOM      1  O   UNL A   1      33.945  27.970  24.164  1.00  0.00    -0.374 OA
ENDROOT
BRANCH   1   2
ATOM      2  C   UNL A   1      33.420  28.819  25.183  1.00  0.00     0.202 C 
BRANCH   2   3
ATOM      3  C   UNL A   1      33.910  28.477  26.592  1.00  0.00     0.261 C 
BRANCH   3   4
ATOM      4  O   UNL A   1      33.611  29.534  27.510  1.00  0.00    -0.460 OA
BRANCH   4   5
ATOM      5  C   UNL A   1      34.504  30.409  28.036  1.00  0.00     0.338 C 
ATOM      6  O   UNL A   1      34.117  31.537  28.340  1.00  0.00    -0.246 OA
BRANCH   5   7
ATOM      7  C   UNL A   1      35.921  30.047  28.336  1.00  0.00     0.060 A 
ATOM      8  C   UNL A   1      36.372  29.501  29.543  1.00  0.00     0.016 A 
ATOM      9  C   UNL A   1      36.838  30.180  27.285  1.00  0.00     0.016 A 
ATOM     10  C   UNL A   1      37.701  29.139  29.726  1.00  0.00     0.010 A 
ATOM     11  C   UNL A   1      38.168  29.783  27.447  1.00  0.00     0.010 A 
ATOM     12  C   UNL A   1      38.600  29.263  28.674  1.00  0.00    -0.014 A 
BRANCH  12  13
ATOM     13  C   UNL A   1      40.009  28.892  28.873  1.00  0.00     0.031 A 
ATOM     14  C   UNL A   1      40.942  29.915  29.431  1.00  0.00     0.074 A 
ATOM     15  C   UNL A   1      40.422  27.648  28.576  1.00  0.00     0.049 A 
ATOM     16  N   UNL A   1      42.243  29.906  29.476  1.00  0.00    -0.248 NA
ATOM     17  C   UNL A   1      40.318  31.113  30.018  1.00  0.00     0.031 C 
ATOM     18  C   UNL A   1      39.552  26.549  28.153  1.00  0.00     0.029 A 
ATOM     19  N   UNL A   1      41.676  27.099  28.585  1.00  0.00    -0.354 N 
ATOM     20  C   UNL A   1      42.602  31.122  30.040  1.00  0.00     0.074 A 
ATOM     21  C   UNL A   1      41.382  31.831  30.351  1.00  0.00     0.031 C 
ATOM     22  C   UNL A   1      40.298  25.454  27.944  1.00  0.00     0.029 A 
ATOM     23  C   UNL A   1      41.704  25.799  28.137  1.00  0.00     0.049 A 
ATOM     24  H   UNL A   1      42.478  27.585  28.882  1.00  0.00     0.167 HD
ATOM     25  C   UNL A   1      43.850  31.602  30.243  1.00  0.00     0.037 A 
ATOM     26  C   UNL A   1      42.756  25.005  27.859  1.00  0.00     0.037 A 
ATOM     27  C   UNL A   1      45.036  30.858  29.916  1.00  0.00     0.049 A 
ATOM     28  C   UNL A   1      44.136  25.575  28.024  1.00  0.00     0.074 A 
ATOM     29  C   UNL A   1      46.357  31.251  30.008  1.00  0.00     0.029 A 
ATOM     30  N   UNL A   1      45.032  29.555  29.432  1.00  0.00    -0.354 N 
ATOM     31  N   UNL A   1      44.483  26.765  28.460  1.00  0.00    -0.248 NA
ATOM     32  C   UNL A   1      45.266  24.724  27.632  1.00  0.00     0.031 C 
ATOM     33  C   UNL A   1      47.150  30.193  29.549  1.00  0.00     0.029 A 
ATOM     34  C   UNL A   1      46.326  29.128  29.208  1.00  0.00     0.049 A 
ATOM     35  H   UNL A   1      44.224  29.015  29.274  1.00  0.00     0.167 HD
ATOM     36  C   UNL A   1      45.868  26.811  28.392  1.00  0.00     0.074 A 
ATOM     37  C   UNL A   1      46.299  25.520  27.886  1.00  0.00     0.031 C 
ATOM     38  C   UNL A   1      46.708  27.827  28.710  1.00  0.00     0.037 A 
BRANCH  25  39
ATOM     39  C   UNL A   1      43.964  33.011  30.746  1.00  0.00     0.058 A 
ATOM     40  C   UNL A   1      44.092  33.254  32.123  1.00  0.00     0.135 A 
ATOM     41  C   UNL A   1      44.012  34.113  29.878  1.00  0.00     0.135 A 
ATOM     42  F   UNL A   1      44.070  32.236  32.995  1.00  0.00    -0.206 F 
ATOM     43  C   UNL A   1      44.279  34.539  32.621  1.00  0.00     0.059 A 
ATOM     44  C   UNL A   1      44.219  35.406  30.353  1.00  0.00     0.059 A 
ATOM     45  F   UNL A   1      43.930  33.930  28.550  1.00  0.00    -0.206 F 
ATOM     46  C   UNL A   1      44.351  35.610  31.727  1.00  0.00     0.060 A 
BRANCH  46  47
ATOM     47  S   UNL A   1      44.718  37.255  32.377  1.00  0.00     0.124 S 
ATOM     48  O   UNL A   1      44.238  37.150  33.749  1.00  0.00    -0.237 OA
ATOM     49  O   UNL A   1      46.167  37.339  32.212  1.00  0.00    -0.237 OA
ATOM     50  O   UNL A   1      43.949  38.138  31.504  1.00  0.00    -0.744 OA
ENDBRANCH  46  47
ENDBRANCH  25  39
BRANCH  26  51
ATOM     51  C   UNL A   1      42.514  23.626  27.358  1.00  0.00     0.058 A 
ATOM     52  C   UNL A   1      42.248  22.566  28.241  1.00  0.00     0.135 A 
ATOM     53  C   UNL A   1      42.653  23.318  25.997  1.00  0.00     0.135 A 
ATOM     54  F   UNL A   1      42.108  22.804  29.554  1.00  0.00    -0.206 F 
ATOM     55  C   UNL A   1      42.184  21.247  27.804  1.00  0.00     0.059 A 
ATOM     56  C   UNL A   1      42.572  22.007  25.531  1.00  0.00     0.059 A 
ATOM     57  F   UNL A   1      42.891  24.297  25.110  1.00  0.00    -0.206 F 
ATOM     58  C   UNL A   1      42.365  20.976  26.447  1.00  0.00     0.060 A 
BRANCH  58  59
ATOM     59  S   UNL A   1      42.355  19.251  25.907  1.00  0.00     0.124 S 
ATOM     60  O   UNL A   1      40.929  19.020  25.700  1.00  0.00    -0.237 OA
ATOM     61  O   UNL A   1      43.173  19.303  24.700  1.00  0.00    -0.237 OA
ATOM     62  O   UNL A   1      42.949  18.541  27.035  1.00  0.00    -0.744 OA
ENDBRANCH  58  59
ENDBRANCH  26  51
BRANCH  38  63
ATOM     63  C   UNL A   1      48.178  27.595  28.536  1.00  0.00     0.058 A 
ATOM     64  C   UNL A   1      48.958  27.177  29.625  1.00  0.00     0.135 A 
ATOM     65  C   UNL A   1      48.829  27.949  27.346  1.00  0.00     0.135 A 
ATOM     66  F   UNL A   1      48.374  26.831  30.783  1.00  0.00    -0.206 F 
ATOM     67  C   UNL A   1      50.345  27.164  29.553  1.00  0.00     0.059 A 
ATOM     68  C   UNL A   1      50.216  27.928  27.248  1.00  0.00     0.059 A 
ATOM     69  F   UNL A   1      48.118  28.344  26.278  1.00  0.00    -0.206 F 
ATOM     70  C   UNL A   1      50.965  27.562  28.367  1.00  0.00     0.060 A 
BRANCH  70  71
ATOM     71  S   UNL A   1      52.768  27.614  28.319  1.00  0.00     0.124 S 
ATOM     72  O   UNL A   1      53.014  28.123  26.974  1.00  0.00    -0.237 OA
ATOM     73  O   UNL A   1      53.080  28.530  29.411  1.00  0.00    -0.237 OA
ATOM     74  O   UNL A   1      53.152  26.225  28.546  1.00  0.00    -0.744 OA
ENDBRANCH  70  71
ENDBRANCH  38  63
ENDBRANCH  12  13
ENDBRANCH   5   7
ENDBRANCH   4   5
ENDBRANCH   3   4
ENDBRANCH   2   3
ENDBRANCH   1   2
BRANCH   1  75
ATOM     75  C   UNL A   1      34.306  28.634  22.952  1.00  0.00     0.202 C 
BRANCH  75  76
ATOM     76  C   UNL A   1      33.616  27.950  21.776  1.00  0.00     0.261 C 
BRANCH  76  77
ATOM     77  O   UNL A   1      33.331  26.588  22.145  1.00  0.00    -0.460 OA
BRANCH  77  78
ATOM     78  C   UNL A   1      32.071  26.173  21.868  1.00  0.00     0.342 C 
ATOM     79  O   UNL A   1      31.555  26.023  20.779  1.00  0.00    -0.246 OA
BRANCH  78  80
ATOM     80  C   UNL A   1      31.363  25.995  23.144  1.00  0.00     0.103 A 
ATOM     81  C   UNL A   1      31.528  24.778  23.813  1.00  0.00     0.035 A 
ATOM     82  C   UNL A   1      30.557  27.007  23.684  1.00  0.00     0.134 A 
ATOM     83  C   UNL A   1      30.862  24.571  25.015  1.00  0.00     0.019 A 
ATOM     84  C   UNL A   1      29.886  26.782  24.887  1.00  0.00     0.048 A 
ATOM     85  Br  UNL A   1      31.040  22.913  25.904  1.00  0.00    -0.051 Br
ATOM     86  C   UNL A   1      30.044  25.564  25.555  1.00  0.00     0.019 A 
BRANCH  82  87
ATOM     87  O   UNL A   1      30.268  28.115  22.944  1.00  0.00    -0.488 OA
BRANCH  87  88
ATOM     88  C   UNL A   1      28.887  28.477  22.847  1.00  0.00     0.268 C 
BRANCH  88  89
ATOM     89  C   UNL A   1      28.781  29.928  22.480  1.00  0.00     0.025 A 
ATOM     90  C   UNL A   1      28.163  30.315  21.284  1.00  0.00     0.010 A 
ATOM     91  C   UNL A   1      29.201  30.920  23.373  1.00  0.00     0.129 A 
ATOM     92  C   UNL A   1      27.959  31.668  21.003  1.00  0.00     0.001 A 
ATOM     93  C   UNL A   1      29.008  32.270  23.093  1.00  0.00     0.039 A 
ATOM     94  F   UNL A   1      29.792  30.575  24.528  1.00  0.00    -0.207 F 
ATOM     95  C   UNL A   1      28.377  32.644  21.908  1.00  0.00     0.003 A 
ENDBRANCH  88  89
ENDBRANCH  87  88
ENDBRANCH  82  87
ENDBRANCH  78  80
ENDBRANCH  77  78
ENDBRANCH  76  77
ENDBRANCH  75  76
ENDBRANCH   1  75
TORSDOF 20
ENDMDL
MODEL 2
REMARK VINA RESULT:     -10.8      4.064      9.738
REMARK SMILES O=C(OCCOCCOC(=O)c1cc(Br)ccc1OCc1ccccc1F)c1ccc(-c2c3nc(c(-c4c(F)cc(S(=O)(=O)[O-])cc4F)c4ccc([nH]4)c(-c4c(F)cc(S(=O)(=O)[O-])cc4F)c4nc(c(-c5c(F)cc(S(=O)(=O)[O-])cc5F)c5ccc2[nH]5)C=C4)C=C3)cc1
REMARK SMILES IDX 6 1 5 2 4 3 3 4 2 5 1 6 28 7 29 8 93 9 30 10 92 11 31 12
REMARK SMILES IDX 32 13 33 14 86 15 34 16 91 17 85 18 87 19 35 20 90 21 84 22
REMARK SMILES IDX 83 23 36 25 70 26 49 27 69 28 50 29 53 30 68 31 88 32 51 33
REMARK SMILES IDX 52 34 67 36 89 37 54 38 37 39 38 40 47 41 39 42 40 43 46 44
REMARK SMILES IDX 48 45 41 46 42 47 43 48 44 49 45 50 71 51 72 52 81 53 73 54
REMARK SMILES IDX 74 55 80 56 82 57 75 58 76 59 77 60 78 61 79 62 55 63 56 64
REMARK SMILES IDX 65 65 57 66 58 67 64 68 66 69 59 70 60 71 61 72 62 73 63 74
REMARK SMILES IDX 7 75 8 76 9 77 10 78 11 79 12 80 13 81 18 82 14 83 17 84
REMARK SMILES IDX 15 85 16 86 19 87 20 88 21 89 22 90 26 91 23 92 25 93 27 94
REMARK SMILES IDX 24 95
REMARK H PARENT 87 24 53 35
REMARK Flexibility Score: inf
ROOT
ATOM      1  O   UNL A   1      34.822  22.266  25.046  1.00  0.00    -0.374 OA
ENDROOT
BRANCH   1   2
ATOM      2  C   UNL A   1      35.865  21.304  25.205  1.00  0.00     0.202 C 
BRANCH   2   3
ATOM      3  C   UNL A   1      37.178  21.691  24.521  1.00  0.00     0.261 C 
BRANCH   3   4
ATOM      4  O   UNL A   1      37.753  22.851  25.132  1.00  0.00    -0.460 OA
BRANCH   4   5
ATOM      5  C   UNL A   1      38.920  22.894  25.821  1.00  0.00     0.338 C 
ATOM      6  O   UNL A   1      39.682  21.931  25.753  1.00  0.00    -0.246 OA
BRANCH   5   7
ATOM      7  C   UNL A   1      39.363  24.088  26.602  1.00  0.00     0.060 A 
ATOM      8  C   UNL A   1      40.074  25.172  26.076  1.00  0.00     0.016 A 
ATOM      9  C   UNL A   1      38.941  24.156  27.937  1.00  0.00     0.016 A 
ATOM     10  C   UNL A   1      40.404  26.273  26.857  1.00  0.00     0.010 A 
ATOM     11  C   UNL A   1      39.234  25.276  28.718  1.00  0.00     0.010 A 
ATOM     12  C   UNL A   1      39.971  26.336  28.176  1.00  0.00    -0.014 A 
BRANCH  12  13
ATOM     13  C   UNL A   1      40.332  27.497  29.005  1.00  0.00     0.031 A 
ATOM     14  C   UNL A   1      41.618  27.459  29.760  1.00  0.00     0.074 A 
ATOM     15  C   UNL A   1      39.518  28.566  29.049  1.00  0.00     0.049 A 
ATOM     16  N   UNL A   1      42.034  28.236  30.718  1.00  0.00    -0.248 NA
ATOM     17  C   UNL A   1      42.565  26.396  29.380  1.00  0.00     0.031 C 
ATOM     18  C   UNL A   1      38.310  28.741  28.241  1.00  0.00     0.029 A 
ATOM     19  N   UNL A   1      39.585  29.706  29.804  1.00  0.00    -0.354 N 
ATOM     20  C   UNL A   1      43.265  27.724  31.102  1.00  0.00     0.074 A 
ATOM     21  C   UNL A   1      43.544  26.589  30.252  1.00  0.00     0.031 C 
ATOM     22  C   UNL A   1      37.749  29.922  28.541  1.00  0.00     0.029 A 
ATOM     23  C   UNL A   1      38.510  30.545  29.620  1.00  0.00     0.049 A 
ATOM     24  H   UNL A   1      40.328  29.907  30.416  1.00  0.00     0.167 HD
ATOM     25  C   UNL A   1      44.065  28.157  32.103  1.00  0.00     0.037 A 
ATOM     26  C   UNL A   1      38.158  31.656  30.294  1.00  0.00     0.037 A 
ATOM     27  C   UNL A   1      43.744  29.293  32.923  1.00  0.00     0.049 A 
ATOM     28  C   UNL A   1      39.019  32.087  31.448  1.00  0.00     0.074 A 
ATOM     29  C   UNL A   1      44.429  29.797  34.010  1.00  0.00     0.029 A 
ATOM     30  N   UNL A   1      42.630  30.102  32.734  1.00  0.00    -0.354 N 
ATOM     31  N   UNL A   1      40.133  31.544  31.884  1.00  0.00    -0.248 NA
ATOM     32  C   UNL A   1      38.570  33.248  32.225  1.00  0.00     0.031 C 
ATOM     33  C   UNL A   1      43.712  30.896  34.497  1.00  0.00     0.029 A 
ATOM     34  C   UNL A   1      42.599  31.099  33.690  1.00  0.00     0.049 A 
ATOM     35  H   UNL A   1      41.961  29.984  32.021  1.00  0.00     0.167 HD
ATOM     36  C   UNL A   1      40.519  32.292  32.987  1.00  0.00     0.074 A 
ATOM     37  C   UNL A   1      39.525  33.338  33.145  1.00  0.00     0.031 C 
ATOM     38  C   UNL A   1      41.590  32.126  33.802  1.00  0.00     0.037 A 
BRANCH  25  39
ATOM     39  C   UNL A   1      45.286  27.338  32.402  1.00  0.00     0.058 A 
ATOM     40  C   UNL A   1      46.534  27.732  31.893  1.00  0.00     0.135 A 
ATOM     41  C   UNL A   1      45.244  26.209  33.235  1.00  0.00     0.135 A 
ATOM     42  F   UNL A   1      46.634  28.813  31.107  1.00  0.00    -0.206 F 
ATOM     43  C   UNL A   1      47.700  27.044  32.213  1.00  0.00     0.059 A 
ATOM     44  C   UNL A   1      46.401  25.518  33.584  1.00  0.00     0.059 A 
ATOM     45  F   UNL A   1      44.080  25.813  33.775  1.00  0.00    -0.206 F 
ATOM     46  C   UNL A   1      47.626  25.943  33.068  1.00  0.00     0.060 A 
BRANCH  46  47
ATOM     47  S   UNL A   1      49.161  25.136  33.573  1.00  0.00     0.124 S 
ATOM     48  O   UNL A   1      48.666  23.928  34.222  1.00  0.00    -0.237 OA
ATOM     49  O   UNL A   1      49.845  24.940  32.298  1.00  0.00    -0.237 OA
ATOM     50  O   UNL A   1      49.781  26.119  34.457  1.00  0.00    -0.744 OA
ENDBRANCH  46  47
ENDBRANCH  25  39
BRANCH  26  51
ATOM     51  C   UNL A   1      36.917  32.378  29.908  1.00  0.00     0.058 A 
ATOM     52  C   UNL A   1      36.955  33.465  29.018  1.00  0.00     0.135 A 
ATOM     53  C   UNL A   1      35.686  32.069  30.504  1.00  0.00     0.135 A 
ATOM     54  F   UNL A   1      38.107  33.806  28.422  1.00  0.00    -0.206 F 
ATOM     55  C   UNL A   1      35.833  34.252  28.777  1.00  0.00     0.059 A 
ATOM     56  C   UNL A   1      34.544  32.829  30.262  1.00  0.00     0.059 A 
ATOM     57  F   UNL A   1      35.595  31.030  31.348  1.00  0.00    -0.206 F 
ATOM     58  C   UNL A   1      34.636  33.936  29.418  1.00  0.00     0.060 A 
BRANCH  58  59
ATOM     59  S   UNL A   1      33.208  35.013  29.153  1.00  0.00     0.124 S 
ATOM     60  O   UNL A   1      32.603  35.025  30.479  1.00  0.00    -0.237 OA
ATOM     61  O   UNL A   1      33.839  36.259  28.730  1.00  0.00    -0.237 OA
ATOM     62  O   UNL A   1      32.447  34.316  28.121  1.00  0.00    -0.744 OA
ENDBRANCH  58  59
ENDBRANCH  26  51
BRANCH  38  63
ATOM     63  C   UNL A   1      41.762  33.096  34.932  1.00  0.00     0.058 A 
ATOM     64  C   UNL A   1      41.007  32.950  36.105  1.00  0.00     0.135 A 
ATOM     65  C   UNL A   1      42.541  34.251  34.780  1.00  0.00     0.135 A 
ATOM     66  F   UNL A   1      40.245  31.860  36.289  1.00  0.00    -0.206 F 
ATOM     67  C   UNL A   1      40.982  33.946  37.073  1.00  0.00     0.059 A 
ATOM     68  C   UNL A   1      42.544  35.253  35.744  1.00  0.00     0.059 A 
ATOM     69  F   UNL A   1      43.286  34.423  33.676  1.00  0.00    -0.206 F 
ATOM     70  C   UNL A   1      41.737  35.103  36.873  1.00  0.00     0.060 A 
BRANCH  70  71
ATOM     71  S   UNL A   1      41.631  36.419  38.103  1.00  0.00     0.124 S 
ATOM     72  O   UNL A   1      42.733  37.288  37.704  1.00  0.00    -0.237 OA
ATOM     73  O   UNL A   1      40.290  36.948  37.875  1.00  0.00    -0.237 OA
ATOM     74  O   UNL A   1      41.811  35.714  39.368  1.00  0.00    -0.744 OA
ENDBRANCH  70  71
ENDBRANCH  38  63
ENDBRANCH  12  13
ENDBRANCH   5   7
ENDBRANCH   4   5
ENDBRANCH   3   4
ENDBRANCH   2   3
ENDBRANCH   1   2
BRANCH   1  75
ATOM     75  C   UNL A   1      34.286  22.781  26.266  1.00  0.00     0.202 C 
BRANCH  75  76
ATOM     76  C   UNL A   1      34.458  24.296  26.294  1.00  0.00     0.261 C 
BRANCH  76  77
ATOM     77  O   UNL A   1      33.353  24.892  25.591  1.00  0.00    -0.460 OA
BRANCH  77  78
ATOM     78  C   UNL A   1      32.383  25.409  26.384  1.00  0.00     0.342 C 
ATOM     79  O   UNL A   1      31.672  24.822  27.175  1.00  0.00    -0.246 OA
BRANCH  78  80
ATOM     80  C   UNL A   1      32.264  26.841  26.078  1.00  0.00     0.103 A 
ATOM     81  C   UNL A   1      33.168  27.714  26.690  1.00  0.00     0.035 A 
ATOM     82  C   UNL A   1      31.286  27.324  25.197  1.00  0.00     0.134 A 
ATOM     83  C   UNL A   1      33.074  29.077  26.433  1.00  0.00     0.019 A 
ATOM     84  C   UNL A   1      31.196  28.696  24.955  1.00  0.00     0.048 A 
ATOM     85  Br  UNL A   1      34.261  30.270  27.291  1.00  0.00    -0.051 Br
ATOM     86  C   UNL A   1      32.095  29.572  25.570  1.00  0.00     0.019 A 
BRANCH  82  87
ATOM     87  O   UNL A   1      30.307  26.490  24.742  1.00  0.00    -0.488 OA
BRANCH  87  88
ATOM     88  C   UNL A   1      30.155  26.398  23.322  1.00  0.00     0.268 C 
BRANCH  88  89
ATOM     89  C   UNL A   1      31.158  25.422  22.781  1.00  0.00     0.025 A 
ATOM     90  C   UNL A   1      32.152  25.846  21.889  1.00  0.00     0.010 A 
ATOM     91  C   UNL A   1      31.183  24.100  23.239  1.00  0.00     0.129 A 
ATOM     92  C   UNL A   1      33.155  24.964  21.483  1.00  0.00     0.001 A 
ATOM     93  C   UNL A   1      32.175  23.214  22.829  1.00  0.00     0.039 A 
ATOM     94  F   UNL A   1      30.244  23.671  24.097  1.00  0.00    -0.207 F 
ATOM     95  C   UNL A   1      33.169  23.651  21.954  1.00  0.00     0.003 A 
ENDBRANCH  88  89
ENDBRANCH  87  88
ENDBRANCH  82  87
ENDBRANCH  78  80
ENDBRANCH  77  78
ENDBRANCH  76  77
ENDBRANCH  75  76
ENDBRANCH   1  75
TORSDOF 20
ENDMDL
MODEL 3
REMARK VINA RESULT:     -10.7      3.022      4.940
REMARK SMILES O=C(OCCOCCOC(=O)c1cc(Br)ccc1OCc1ccccc1F)c1ccc(-c2c3nc(c(-c4c(F)cc(S(=O)(=O)[O-])cc4F)c4ccc([nH]4)c(-c4c(F)cc(S(=O)(=O)[O-])cc4F)c4nc(c(-c5c(F)cc(S(=O)(=O)[O-])cc5F)c5ccc2[nH]5)C=C4)C=C3)cc1
REMARK SMILES IDX 6 1 5 2 4 3 3 4 2 5 1 6 28 7 29 8 93 9 30 10 92 11 31 12
REMARK SMILES IDX 32 13 33 14 86 15 34 16 91 17 85 18 87 19 35 20 90 21 84 22
REMARK SMILES IDX 83 23 36 25 70 26 49 27 69 28 50 29 53 30 68 31 88 32 51 33
REMARK SMILES IDX 52 34 67 36 89 37 54 38 37 39 38 40 47 41 39 42 40 43 46 44
REMARK SMILES IDX 48 45 41 46 42 47 43 48 44 49 45 50 71 51 72 52 81 53 73 54
REMARK SMILES IDX 74 55 80 56 82 57 75 58 76 59 77 60 78 61 79 62 55 63 56 64
REMARK SMILES IDX 65 65 57 66 58 67 64 68 66 69 59 70 60 71 61 72 62 73 63 74
REMARK SMILES IDX 7 75 8 76 9 77 10 78 11 79 12 80 13 81 18 82 14 83 17 84
REMARK SMILES IDX 15 85 16 86 19 87 20 88 21 89 22 90 26 91 23 92 25 93 27 94
REMARK SMILES IDX 24 95
REMARK H PARENT 87 24 53 35
REMARK Flexibility Score: inf
ROOT
ATOM      1  O   UNL A   1      32.424  27.769  25.981  1.00  0.00    -0.374 OA
ENDROOT
BRANCH   1   2
ATOM      2  C   UNL A   1      31.707  29.001  26.065  1.00  0.00     0.202 C 
BRANCH   2   3
ATOM      3  C   UNL A   1      32.344  30.028  27.003  1.00  0.00     0.261 C 
BRANCH   3   4
ATOM      4  O   UNL A   1      33.652  29.612  27.409  1.00  0.00    -0.460 OA
BRANCH   4   5
ATOM      5  C   UNL A   1      34.604  30.401  27.966  1.00  0.00     0.338 C 
ATOM      6  O   UNL A   1      34.277  31.506  28.397  1.00  0.00    -0.246 OA
BRANCH   5   7
ATOM      7  C   UNL A   1      36.020  29.965  28.152  1.00  0.00     0.060 A 
ATOM      8  C   UNL A   1      37.034  30.102  27.198  1.00  0.00     0.016 A 
ATOM      9  C   UNL A   1      36.363  29.474  29.419  1.00  0.00     0.016 A 
ATOM     10  C   UNL A   1      38.343  29.720  27.468  1.00  0.00     0.010 A 
ATOM     11  C   UNL A   1      37.683  29.123  29.712  1.00  0.00     0.010 A 
ATOM     12  C   UNL A   1      38.675  29.245  28.731  1.00  0.00    -0.014 A 
BRANCH  12  13
ATOM     13  C   UNL A   1      40.058  28.829  29.010  1.00  0.00     0.031 A 
ATOM     14  C   UNL A   1      40.981  29.810  29.652  1.00  0.00     0.074 A 
ATOM     15  C   UNL A   1      40.454  27.580  28.709  1.00  0.00     0.049 A 
ATOM     16  N   UNL A   1      42.276  29.762  29.779  1.00  0.00    -0.248 NA
ATOM     17  C   UNL A   1      40.354  31.012  30.228  1.00  0.00     0.031 C 
ATOM     18  C   UNL A   1      39.583  26.517  28.203  1.00  0.00     0.029 A 
ATOM     19  N   UNL A   1      41.690  26.994  28.783  1.00  0.00    -0.354 N 
ATOM     20  C   UNL A   1      42.632  30.953  30.396  1.00  0.00     0.074 A 
ATOM     21  C   UNL A   1      41.413  31.690  30.646  1.00  0.00     0.031 C 
ATOM     22  C   UNL A   1      40.311  25.407  28.015  1.00  0.00     0.029 A 
ATOM     23  C   UNL A   1      41.711  25.705  28.305  1.00  0.00     0.049 A 
ATOM     24  H   UNL A   1      42.484  27.450  29.143  1.00  0.00     0.167 HD
ATOM     25  C   UNL A   1      43.877  31.392  30.689  1.00  0.00     0.037 A 
ATOM     26  C   UNL A   1      42.755  24.887  28.075  1.00  0.00     0.037 A 
ATOM     27  C   UNL A   1      45.060  30.622  30.420  1.00  0.00     0.049 A 
ATOM     28  C   UNL A   1      44.138  25.413  28.342  1.00  0.00     0.074 A 
ATOM     29  C   UNL A   1      46.382  30.973  30.605  1.00  0.00     0.029 A 
ATOM     30  N   UNL A   1      45.051  29.331  29.904  1.00  0.00    -0.354 N 
ATOM     31  N   UNL A   1      44.488  26.582  28.828  1.00  0.00    -0.248 NA
ATOM     32  C   UNL A   1      45.266  24.539  28.000  1.00  0.00     0.031 C 
ATOM     33  C   UNL A   1      47.174  29.904  30.171  1.00  0.00     0.029 A 
ATOM     34  C   UNL A   1      46.344  28.872  29.752  1.00  0.00     0.049 A 
ATOM     35  H   UNL A   1      44.240  28.818  29.681  1.00  0.00     0.167 HD
ATOM     36  C   UNL A   1      45.876  26.589  28.850  1.00  0.00     0.074 A 
ATOM     37  C   UNL A   1      46.303  25.299  28.339  1.00  0.00     0.031 C 
ATOM     38  C   UNL A   1      46.721  27.572  29.246  1.00  0.00     0.037 A 
BRANCH  25  39
ATOM     39  C   UNL A   1      43.997  32.785  31.234  1.00  0.00     0.058 A 
ATOM     40  C   UNL A   1      44.076  33.876  30.354  1.00  0.00     0.135 A 
ATOM     41  C   UNL A   1      43.969  33.054  32.611  1.00  0.00     0.135 A 
ATOM     42  F   UNL A   1      44.088  33.676  29.028  1.00  0.00    -0.206 F 
ATOM     43  C   UNL A   1      44.107  35.186  30.819  1.00  0.00     0.059 A 
ATOM     44  C   UNL A   1      43.979  34.359  33.098  1.00  0.00     0.059 A 
ATOM     45  F   UNL A   1      43.858  32.048  33.493  1.00  0.00    -0.206 F 
ATOM     46  C   UNL A   1      44.049  35.420  32.194  1.00  0.00     0.060 A 
BRANCH  46  47
ATOM     47  S   UNL A   1      43.966  37.127  32.779  1.00  0.00     0.124 S 
ATOM     48  O   UNL A   1      42.816  37.082  33.673  1.00  0.00    -0.237 OA
ATOM     49  O   UNL A   1      45.267  37.300  33.420  1.00  0.00    -0.237 OA
ATOM     50  O   UNL A   1      43.782  37.893  31.549  1.00  0.00    -0.744 OA
ENDBRANCH  46  47
ENDBRANCH  25  39
BRANCH  26  51
ATOM     51  C   UNL A   1      42.509  23.528  27.524  1.00  0.00     0.058 A 
ATOM     52  C   UNL A   1      42.290  22.429  28.371  1.00  0.00     0.135 A 
ATOM     53  C   UNL A   1      42.595  23.281  26.146  1.00  0.00     0.135 A 
ATOM     54  F   UNL A   1      42.202  22.608  29.697  1.00  0.00    -0.206 F 
ATOM     55  C   UNL A   1      42.223  21.129  27.880  1.00  0.00     0.059 A 
ATOM     56  C   UNL A   1      42.509  21.991  25.628  1.00  0.00     0.059 A 
ATOM     57  F   UNL A   1      42.785  24.300  25.295  1.00  0.00    -0.206 F 
ATOM     58  C   UNL A   1      42.352  20.918  26.507  1.00  0.00     0.060 A 
BRANCH  58  59
ATOM     59  S   UNL A   1      42.338  19.218  25.893  1.00  0.00     0.124 S 
ATOM     60  O   UNL A   1      40.911  18.995  25.687  1.00  0.00    -0.237 OA
ATOM     61  O   UNL A   1      43.146  19.322  24.683  1.00  0.00    -0.237 OA
ATOM     62  O   UNL A   1      42.941  18.460  26.984  1.00  0.00    -0.744 OA
ENDBRANCH  58  59
ENDBRANCH  26  51
BRANCH  38  63
ATOM     63  C   UNL A   1      48.193  27.302  29.160  1.00  0.00     0.058 A 
ATOM     64  C   UNL A   1      48.893  26.852  30.290  1.00  0.00     0.135 A 
ATOM     65  C   UNL A   1      48.925  27.649  28.016  1.00  0.00     0.135 A 
ATOM     66  F   UNL A   1      48.229  26.512  31.406  1.00  0.00    -0.206 F 
ATOM     67  C   UNL A   1      50.281  26.802  30.303  1.00  0.00     0.059 A 
ATOM     68  C   UNL A   1      50.314  27.590  28.003  1.00  0.00     0.059 A 
ATOM     69  F   UNL A   1      48.292  28.073  26.911  1.00  0.00    -0.206 F 
ATOM     70  C   UNL A   1      50.983  27.194  29.162  1.00  0.00     0.060 A 
BRANCH  70  71
ATOM     71  S   UNL A   1      52.786  27.197  29.225  1.00  0.00     0.124 S 
ATOM     72  O   UNL A   1      53.051  26.163  30.220  1.00  0.00    -0.237 OA
ATOM     73  O   UNL A   1      53.143  26.862  27.850  1.00  0.00    -0.237 OA
ATOM     74  O   UNL A   1      53.108  28.561  29.633  1.00  0.00    -0.744 OA
ENDBRANCH  70  71
ENDBRANCH  38  63
ENDBRANCH  12  13
ENDBRANCH   5   7
ENDBRANCH   4   5
ENDBRANCH   3   4
ENDBRANCH   2   3
ENDBRANCH   1   2
BRANCH   1  75
ATOM     75  C   UNL A   1      31.876  26.698  26.750  1.00  0.00     0.202 C 
BRANCH  75  76
ATOM     76  C   UNL A   1      31.418  25.585  25.813  1.00  0.00     0.261 C 
BRANCH  76  77
ATOM     77  O   UNL A   1      32.533  24.711  25.566  1.00  0.00    -0.460 OA
BRANCH  77  78
ATOM     78  C   UNL A   1      32.474  23.516  26.204  1.00  0.00     0.342 C 
ATOM     79  O   UNL A   1      31.606  23.108  26.949  1.00  0.00    -0.246 OA
BRANCH  78  80
ATOM     80  C   UNL A   1      33.712  22.782  25.906  1.00  0.00     0.103 A 
ATOM     81  C   UNL A   1      34.921  23.473  26.026  1.00  0.00     0.035 A 
ATOM     82  C   UNL A   1      33.691  21.433  25.523  1.00  0.00     0.134 A 
ATOM     83  C   UNL A   1      36.110  22.813  25.737  1.00  0.00     0.019 A 
ATOM     84  C   UNL A   1      34.891  20.785  25.227  1.00  0.00     0.048 A 
ATOM     85  Br  UNL A   1      37.747  23.750  25.850  1.00  0.00    -0.051 Br
ATOM     86  C   UNL A   1      36.102  21.475  25.339  1.00  0.00     0.019 A 
BRANCH  82  87
ATOM     87  O   UNL A   1      32.504  20.822  25.245  1.00  0.00    -0.488 OA
BRANCH  87  88
ATOM     88  C   UNL A   1      32.455  20.036  24.049  1.00  0.00     0.268 C 
BRANCH  88  89
ATOM     89  C   UNL A   1      32.783  18.611  24.383  1.00  0.00     0.025 A 
ATOM     90  C   UNL A   1      32.640  18.136  25.693  1.00  0.00     0.010 A 
ATOM     91  C   UNL A   1      33.133  17.706  23.374  1.00  0.00     0.129 A 
ATOM     92  C   UNL A   1      32.830  16.782  25.976  1.00  0.00     0.001 A 
ATOM     93  C   UNL A   1      33.332  16.357  23.652  1.00  0.00     0.039 A 
ATOM     94  F   UNL A   1      33.272  18.135  22.110  1.00  0.00    -0.207 F 
ATOM     95  C   UNL A   1      33.172  15.893  24.957  1.00  0.00     0.003 A 
ENDBRANCH  88  89
ENDBRANCH  87  88
ENDBRANCH  82  87
ENDBRANCH  78  80
ENDBRANCH  77  78
ENDBRANCH  76  77
ENDBRANCH  75  76
ENDBRANCH   1  75
TORSDOF 20
ENDMDL
