MODEL 1
REMARK VINA RESULT:     -10.9      0.000      0.000
REMARK SMILES Cc1nn(C(C)C)c(C)c1S(=O)(=O)Nc1cccc(C(=O)OCCOCCOC(=O)c2ccc(-c3c4nc(c(-c5c(F)cc(S(=O)(=O)[O-])cc5F)c5ccc([nH]5)c(-c5c(F)cc(S(=O)(=O)[O-])cc5F)c5nc(c(-c6c(F)cc(S(=O)(=O)[O-])cc6F)c6ccc3[nH]6)C=C5)C=C4)cc2)c1C
REMARK SMILES IDX 24 1 23 2 22 3 20 4 21 5 19 6 15 7 16 8 97 9 17 10 98 11
REMARK SMILES IDX 18 12 14 13 11 15 12 16 13 17 10 18 1 19 2 20 3 21 4 22 8 23
REMARK SMILES IDX 9 24 5 25 6 26 7 27 25 28 26 29 27 30 28 31 29 32 30 33
REMARK SMILES IDX 31 34 32 35 96 36 33 37 95 38 34 39 35 40 36 41 89 42 37 43
REMARK SMILES IDX 94 44 88 45 90 46 38 47 93 48 87 49 86 50 39 52 73 53 52 54
REMARK SMILES IDX 72 55 53 56 56 57 71 58 91 59 54 60 55 61 70 63 92 64 57 65
REMARK SMILES IDX 40 66 41 67 50 68 42 69 43 70 49 71 51 72 44 73 45 74 46 75
REMARK SMILES IDX 47 76 48 77 74 78 75 79 84 80 76 81 77 82 83 83 85 84 78 85
REMARK SMILES IDX 79 86 80 87 81 88 82 89 58 90 59 91 68 92 60 93 61 94 67 95
REMARK SMILES IDX 69 96 62 97 63 98 64 99 65 100 66 101
REMARK H PARENT 14 14 90 51 56 62
REMARK Flexibility Score: inf
ROOT
ATOM      1  C   UNL A   1      44.802  29.727  26.924  1.00  0.00     0.202 C 
ENDROOT
BRANCH   1   2
ATOM      2  C   UNL A   1      43.627  28.977  27.491  1.00  0.00     0.261 C 
BRANCH   2   3
ATOM      3  O   UNL A   1      42.388  29.326  26.859  1.00  0.00    -0.460 OA
BRANCH   3   4
ATOM      4  C   UNL A   1      41.979  28.489  25.874  1.00  0.00     0.338 C 
ATOM      5  O   UNL A   1      42.192  28.612  24.696  1.00  0.00    -0.246 OA
BRANCH   4   6
ATOM      6  C   UNL A   1      41.218  27.377  26.503  1.00  0.00     0.065 A 
ATOM      7  C   UNL A   1      40.561  25.080  26.634  1.00  0.00     0.053 A 
ATOM      8  C   UNL A   1      39.582  25.396  27.583  1.00  0.00     0.027 A 
ATOM      9  C   UNL A   1      41.464  26.040  26.144  1.00  0.00    -0.012 A 
ATOM     10  C   UNL A   1      39.423  26.705  28.010  1.00  0.00     0.003 A 
ATOM     11  C   UNL A   1      42.590  25.630  25.222  1.00  0.00     0.047 C 
ATOM     12  C   UNL A   1      40.211  27.695  27.442  1.00  0.00     0.016 A 
BRANCH   7  13
ATOM     13  N   UNL A   1      40.602  23.759  26.144  1.00  0.00    -0.279 N 
ATOM     14  H   UNL A   1      40.236  23.574  25.248  1.00  0.00     0.180 HD
BRANCH  13  15
ATOM     15  S   UNL A   1      41.248  22.494  27.025  1.00  0.00     0.265 S 
ATOM     16  O   UNL A   1      40.083  21.843  27.600  1.00  0.00    -0.201 OA
ATOM     17  O   UNL A   1      42.235  23.099  27.895  1.00  0.00    -0.201 OA
BRANCH  15  18
ATOM     18  C   UNL A   1      42.100  21.173  26.309  1.00  0.00     0.131 A 
ATOM     19  C   UNL A   1      40.439  19.126  25.892  1.00  0.00     0.070 C 
ATOM     20  C   UNL A   1      41.723  19.858  25.929  1.00  0.00     0.080 A 
ATOM     21  N   UNL A   1      42.777  19.169  25.466  1.00  0.00    -0.176 NA
ATOM     22  N   UNL A   1      43.745  20.079  25.322  1.00  0.00    -0.266 N 
ATOM     23  C   UNL A   1      43.384  21.316  25.777  1.00  0.00     0.056 A 
ATOM     24  C   UNL A   1      44.243  22.519  25.616  1.00  0.00     0.068 C 
BRANCH  22  25
ATOM     25  C   UNL A   1      44.995  19.676  24.679  1.00  0.00     0.101 C 
ATOM     26  C   UNL A   1      45.707  18.601  25.497  1.00  0.00     0.033 C 
ATOM     27  C   UNL A   1      44.764  19.222  23.237  1.00  0.00     0.033 C 
ENDBRANCH  22  25
ENDBRANCH  15  18
ENDBRANCH  13  15
ENDBRANCH   7  13
ENDBRANCH   4   6
ENDBRANCH   3   4
ENDBRANCH   2   3
ENDBRANCH   1   2
BRANCH   1  28
ATOM     28  O   UNL A   1      45.820  28.757  26.667  1.00  0.00    -0.374 OA
BRANCH  28  29
ATOM     29  C   UNL A   1      45.858  28.231  25.355  1.00  0.00     0.202 C 
BRANCH  29  30
ATOM     30  C   UNL A   1      46.108  26.718  25.288  1.00  0.00     0.261 C 
BRANCH  30  31
ATOM     31  O   UNL A   1      45.747  26.075  26.529  1.00  0.00    -0.460 OA
BRANCH  31  32
ATOM     32  C   UNL A   1      46.772  25.501  27.227  1.00  0.00     0.338 C 
ATOM     33  O   UNL A   1      47.892  25.343  26.776  1.00  0.00    -0.246 OA
BRANCH  32  34
ATOM     34  C   UNL A   1      46.325  25.148  28.606  1.00  0.00     0.060 A 
ATOM     35  C   UNL A   1      45.065  24.574  28.854  1.00  0.00     0.016 A 
ATOM     36  C   UNL A   1      47.113  25.563  29.673  1.00  0.00     0.016 A 
ATOM     37  C   UNL A   1      44.543  24.534  30.162  1.00  0.00     0.010 A 
ATOM     38  C   UNL A   1      46.557  25.623  30.930  1.00  0.00     0.010 A 
ATOM     39  C   UNL A   1      45.270  25.118  31.195  1.00  0.00    -0.014 A 
BRANCH  39  40
ATOM     40  C   UNL A   1      44.849  25.338  32.586  1.00  0.00     0.031 A 
ATOM     41  C   UNL A   1      44.224  26.655  32.895  1.00  0.00     0.074 A 
ATOM     42  C   UNL A   1      44.624  24.280  33.408  1.00  0.00     0.049 A 
ATOM     43  N   UNL A   1      43.702  26.964  34.027  1.00  0.00    -0.248 NA
ATOM     44  C   UNL A   1      44.105  27.742  31.923  1.00  0.00     0.031 C 
ATOM     45  C   UNL A   1      43.601  24.163  34.452  1.00  0.00     0.029 A 
ATOM     46  N   UNL A   1      45.247  23.026  33.462  1.00  0.00    -0.354 N 
ATOM     47  C   UNL A   1      42.927  28.089  33.861  1.00  0.00     0.074 A 
ATOM     48  C   UNL A   1      43.241  28.559  32.535  1.00  0.00     0.031 C 
ATOM     49  C   UNL A   1      43.843  23.079  35.209  1.00  0.00     0.029 A 
ATOM     50  C   UNL A   1      45.116  22.539  34.774  1.00  0.00     0.049 A 
ATOM     51  H   UNL A   1      45.695  22.569  32.714  1.00  0.00     0.167 HD
ATOM     52  C   UNL A   1      42.041  28.406  34.849  1.00  0.00     0.037 A 
ATOM     53  C   UNL A   1      46.219  22.306  35.535  1.00  0.00     0.037 A 
ATOM     54  C   UNL A   1      42.198  27.475  35.974  1.00  0.00     0.049 A 
ATOM     55  C   UNL A   1      46.203  23.263  36.696  1.00  0.00     0.074 A 
ATOM     56  C   UNL A   1      41.502  26.350  36.385  1.00  0.00     0.029 A 
ATOM     57  N   UNL A   1      43.421  27.442  36.641  1.00  0.00    -0.354 N 
ATOM     58  N   UNL A   1      45.527  24.381  36.663  1.00  0.00    -0.248 NA
ATOM     59  C   UNL A   1      46.796  23.016  38.005  1.00  0.00     0.031 C 
ATOM     60  C   UNL A   1      42.353  25.602  37.249  1.00  0.00     0.029 A 
ATOM     61  C   UNL A   1      43.559  26.277  37.372  1.00  0.00     0.049 A 
ATOM     62  H   UNL A   1      44.097  28.154  36.597  1.00  0.00     0.167 HD
ATOM     63  C   UNL A   1      45.494  24.940  37.900  1.00  0.00     0.074 A 
ATOM     64  C   UNL A   1      46.346  24.079  38.702  1.00  0.00     0.031 C 
ATOM     65  C   UNL A   1      44.752  26.049  38.179  1.00  0.00     0.037 A 
BRANCH  52  66
ATOM     66  C   UNL A   1      40.925  29.428  34.760  1.00  0.00     0.058 A 
ATOM     67  C   UNL A   1      40.860  30.500  35.683  1.00  0.00     0.135 A 
ATOM     68  C   UNL A   1      39.896  29.431  33.796  1.00  0.00     0.135 A 
ATOM     69  F   UNL A   1      41.776  30.651  36.650  1.00  0.00    -0.206 F 
ATOM     70  C   UNL A   1      39.853  31.469  35.665  1.00  0.00     0.059 A 
ATOM     71  C   UNL A   1      38.851  30.364  33.786  1.00  0.00     0.059 A 
ATOM     72  F   UNL A   1      39.885  28.564  32.778  1.00  0.00    -0.206 F 
ATOM     73  C   UNL A   1      38.844  31.390  34.719  1.00  0.00     0.060 A 
BRANCH  73  74
ATOM     74  S   UNL A   1      37.561  32.656  34.705  1.00  0.00     0.124 S 
ATOM     75  O   UNL A   1      38.319  33.860  34.380  1.00  0.00    -0.237 OA
ATOM     76  O   UNL A   1      36.665  32.169  33.662  1.00  0.00    -0.237 OA
ATOM     77  O   UNL A   1      37.022  32.612  36.061  1.00  0.00    -0.744 OA
ENDBRANCH  73  74
ENDBRANCH  52  66
BRANCH  53  78
ATOM     78  C   UNL A   1      47.343  21.762  34.705  1.00  0.00     0.058 A 
ATOM     79  C   UNL A   1      48.499  22.577  34.630  1.00  0.00     0.135 A 
ATOM     80  C   UNL A   1      47.544  20.379  34.559  1.00  0.00     0.135 A 
ATOM     81  F   UNL A   1      48.382  23.910  34.760  1.00  0.00    -0.206 F 
ATOM     82  C   UNL A   1      49.791  22.046  34.605  1.00  0.00     0.059 A 
ATOM     83  C   UNL A   1      48.835  19.824  34.538  1.00  0.00     0.059 A 
ATOM     84  F   UNL A   1      46.499  19.538  34.616  1.00  0.00    -0.206 F 
ATOM     85  C   UNL A   1      49.951  20.663  34.625  1.00  0.00     0.060 A 
BRANCH  85  86
ATOM     86  S   UNL A   1      51.598  19.983  35.009  1.00  0.00     0.124 S 
ATOM     87  O   UNL A   1      52.145  20.996  35.902  1.00  0.00    -0.237 OA
ATOM     88  O   UNL A   1      51.287  18.699  35.637  1.00  0.00    -0.237 OA
ATOM     89  O   UNL A   1      52.225  19.880  33.698  1.00  0.00    -0.744 OA
ENDBRANCH  85  86
ENDBRANCH  53  78
BRANCH  65  90
ATOM     90  C   UNL A   1      45.071  27.001  39.294  1.00  0.00     0.058 A 
ATOM     91  C   UNL A   1      44.798  26.707  40.641  1.00  0.00     0.135 A 
ATOM     92  C   UNL A   1      45.857  28.154  39.059  1.00  0.00     0.135 A 
ATOM     93  F   UNL A   1      44.169  25.579  41.003  1.00  0.00    -0.206 F 
ATOM     94  C   UNL A   1      45.203  27.538  41.676  1.00  0.00     0.059 A 
ATOM     95  C   UNL A   1      46.336  28.957  40.085  1.00  0.00     0.059 A 
ATOM     96  F   UNL A   1      46.210  28.528  37.820  1.00  0.00    -0.206 F 
ATOM     97  C   UNL A   1      45.970  28.662  41.388  1.00  0.00     0.060 A 
BRANCH  97  98
ATOM     98  S   UNL A   1      46.499  29.721  42.738  1.00  0.00     0.124 S 
ATOM     99  O   UNL A   1      45.693  30.913  42.494  1.00  0.00    -0.237 OA
ATOM    100  O   UNL A   1      46.134  28.942  43.917  1.00  0.00    -0.237 OA
ATOM    101  O   UNL A   1      47.933  29.868  42.510  1.00  0.00    -0.744 OA
ENDBRANCH  97  98
ENDBRANCH  65  90
ENDBRANCH  39  40
ENDBRANCH  32  34
ENDBRANCH  31  32
ENDBRANCH  30  31
ENDBRANCH  29  30
ENDBRANCH  28  29
ENDBRANCH   1  28
TORSDOF 21
ENDMDL
MODEL 2
REMARK VINA RESULT:     -10.6      2.988      4.716
REMARK SMILES Cc1nn(C(C)C)c(C)c1S(=O)(=O)Nc1cccc(C(=O)OCCOCCOC(=O)c2ccc(-c3c4nc(c(-c5c(F)cc(S(=O)(=O)[O-])cc5F)c5ccc([nH]5)c(-c5c(F)cc(S(=O)(=O)[O-])cc5F)c5nc(c(-c6c(F)cc(S(=O)(=O)[O-])cc6F)c6ccc3[nH]6)C=C5)C=C4)cc2)c1C
REMARK SMILES IDX 24 1 23 2 22 3 20 4 21 5 19 6 15 7 16 8 97 9 17 10 98 11
REMARK SMILES IDX 18 12 14 13 11 15 12 16 13 17 10 18 1 19 2 20 3 21 4 22 8 23
REMARK SMILES IDX 9 24 5 25 6 26 7 27 25 28 26 29 27 30 28 31 29 32 30 33
REMARK SMILES IDX 31 34 32 35 96 36 33 37 95 38 34 39 35 40 36 41 89 42 37 43
REMARK SMILES IDX 94 44 88 45 90 46 38 47 93 48 87 49 86 50 39 52 73 53 52 54
REMARK SMILES IDX 72 55 53 56 56 57 71 58 91 59 54 60 55 61 70 63 92 64 57 65
REMARK SMILES IDX 40 66 41 67 50 68 42 69 43 70 49 71 51 72 44 73 45 74 46 75
REMARK SMILES IDX 47 76 48 77 74 78 75 79 84 80 76 81 77 82 83 83 85 84 78 85
REMARK SMILES IDX 79 86 80 87 81 88 82 89 58 90 59 91 68 92 60 93 61 94 67 95
REMARK SMILES IDX 69 96 62 97 63 98 64 99 65 100 66 101
REMARK H PARENT 14 14 90 51 56 62
REMARK Flexibility Score: inf
ROOT
ATOM      1  C   UNL A   1      43.953  22.182  26.147  1.00  0.00     0.202 C 
ENDROOT
BRANCH   1   2
ATOM      2  C   UNL A   1      43.465  20.811  25.760  1.00  0.00     0.261 C 
BRANCH   2   3
ATOM      3  O   UNL A   1      42.049  20.767  25.539  1.00  0.00    -0.460 OA
BRANCH   3   4
ATOM      4  C   UNL A   1      41.287  20.675  26.657  1.00  0.00     0.338 C 
ATOM      5  O   UNL A   1      41.493  19.965  27.607  1.00  0.00    -0.246 OA
BRANCH   4   6
ATOM      6  C   UNL A   1      40.145  21.615  26.512  1.00  0.00     0.065 A 
ATOM      7  C   UNL A   1      38.056  22.263  25.539  1.00  0.00     0.053 A 
ATOM      8  C   UNL A   1      38.161  23.532  26.118  1.00  0.00     0.027 A 
ATOM      9  C   UNL A   1      38.991  21.244  25.799  1.00  0.00    -0.012 A 
ATOM     10  C   UNL A   1      39.252  23.849  26.911  1.00  0.00     0.003 A 
ATOM     11  C   UNL A   1      38.770  19.849  25.261  1.00  0.00     0.047 C 
ATOM     12  C   UNL A   1      40.258  22.907  27.073  1.00  0.00     0.016 A 
BRANCH   7  13
ATOM     13  N   UNL A   1      36.992  22.031  24.645  1.00  0.00    -0.279 N 
ATOM     14  H   UNL A   1      37.133  22.201  23.685  1.00  0.00     0.180 HD
BRANCH  13  15
ATOM     15  S   UNL A   1      35.498  21.480  25.152  1.00  0.00     0.265 S 
ATOM     16  O   UNL A   1      35.516  21.704  26.588  1.00  0.00    -0.201 OA
ATOM     17  O   UNL A   1      35.393  20.131  24.637  1.00  0.00    -0.201 OA
BRANCH  15  18
ATOM     18  C   UNL A   1      34.003  22.207  24.678  1.00  0.00     0.131 A 
ATOM     19  C   UNL A   1      32.146  20.327  24.303  1.00  0.00     0.070 C 
ATOM     20  C   UNL A   1      32.733  21.684  24.318  1.00  0.00     0.080 A 
ATOM     21  N   UNL A   1      31.892  22.666  23.959  1.00  0.00    -0.176 NA
ATOM     22  N   UNL A   1      32.514  23.796  24.308  1.00  0.00    -0.266 N 
ATOM     23  C   UNL A   1      33.777  23.581  24.785  1.00  0.00     0.056 A 
ATOM     24  C   UNL A   1      34.623  24.666  25.349  1.00  0.00     0.068 C 
BRANCH  22  25
ATOM     25  C   UNL A   1      31.789  25.059  24.193  1.00  0.00     0.101 C 
ATOM     26  C   UNL A   1      31.323  25.292  22.757  1.00  0.00     0.033 C 
ATOM     27  C   UNL A   1      30.621  25.128  25.179  1.00  0.00     0.033 C 
ENDBRANCH  22  25
ENDBRANCH  15  18
ENDBRANCH  13  15
ENDBRANCH   7  13
ENDBRANCH   4   6
ENDBRANCH   3   4
ENDBRANCH   2   3
ENDBRANCH   1   2
BRANCH   1  28
ATOM     28  O   UNL A   1      43.938  22.972  24.956  1.00  0.00    -0.374 OA
BRANCH  28  29
ATOM     29  C   UNL A   1      44.423  24.294  25.084  1.00  0.00     0.202 C 
BRANCH  29  30
ATOM     30  C   UNL A   1      45.954  24.410  25.064  1.00  0.00     0.261 C 
BRANCH  30  31
ATOM     31  O   UNL A   1      46.496  24.375  26.401  1.00  0.00    -0.460 OA
BRANCH  31  32
ATOM     32  C   UNL A   1      46.332  25.511  27.144  1.00  0.00     0.338 C 
ATOM     33  O   UNL A   1      46.482  26.636  26.702  1.00  0.00    -0.246 OA
BRANCH  32  34
ATOM     34  C   UNL A   1      45.912  25.166  28.532  1.00  0.00     0.060 A 
ATOM     35  C   UNL A   1      44.646  24.617  28.810  1.00  0.00     0.016 A 
ATOM     36  C   UNL A   1      46.733  25.562  29.581  1.00  0.00     0.016 A 
ATOM     37  C   UNL A   1      44.155  24.586  30.130  1.00  0.00     0.010 A 
ATOM     38  C   UNL A   1      46.209  25.632  30.851  1.00  0.00     0.010 A 
ATOM     39  C   UNL A   1      44.918  25.154  31.146  1.00  0.00    -0.014 A 
BRANCH  39  40
ATOM     40  C   UNL A   1      44.535  25.380  32.547  1.00  0.00     0.031 A 
ATOM     41  C   UNL A   1      43.940  26.707  32.872  1.00  0.00     0.074 A 
ATOM     42  C   UNL A   1      44.313  24.325  33.374  1.00  0.00     0.049 A 
ATOM     43  N   UNL A   1      43.452  27.024  34.016  1.00  0.00    -0.248 NA
ATOM     44  C   UNL A   1      43.816  27.797  31.902  1.00  0.00     0.031 C 
ATOM     45  C   UNL A   1      43.313  24.225  34.442  1.00  0.00     0.029 A 
ATOM     46  N   UNL A   1      44.914  23.061  33.413  1.00  0.00    -0.354 N 
ATOM     47  C   UNL A   1      42.692  28.162  33.869  1.00  0.00     0.074 A 
ATOM     48  C   UNL A   1      42.982  28.628  32.536  1.00  0.00     0.031 C 
ATOM     49  C   UNL A   1      43.555  23.137  35.193  1.00  0.00     0.029 A 
ATOM     50  C   UNL A   1      44.807  22.576  34.728  1.00  0.00     0.049 A 
ATOM     51  H   UNL A   1      45.336  22.596  32.654  1.00  0.00     0.167 HD
ATOM     52  C   UNL A   1      41.836  28.494  34.878  1.00  0.00     0.037 A 
ATOM     53  C   UNL A   1      45.925  22.323  35.462  1.00  0.00     0.037 A 
ATOM     54  C   UNL A   1      42.005  27.560  35.999  1.00  0.00     0.049 A 
ATOM     55  C   UNL A   1      45.953  23.280  36.622  1.00  0.00     0.074 A 
ATOM     56  C   UNL A   1      41.300  26.446  36.427  1.00  0.00     0.029 A 
ATOM     57  N   UNL A   1      43.242  27.506  36.636  1.00  0.00    -0.354 N 
ATOM     58  N   UNL A   1      45.296  24.409  36.606  1.00  0.00    -0.248 NA
ATOM     59  C   UNL A   1      46.574  23.022  37.916  1.00  0.00     0.031 C 
ATOM     60  C   UNL A   1      42.159  25.684  37.270  1.00  0.00     0.029 A 
ATOM     61  C   UNL A   1      43.378  26.338  37.363  1.00  0.00     0.049 A 
ATOM     62  H   UNL A   1      43.930  28.206  36.575  1.00  0.00     0.167 HD
ATOM     63  C   UNL A   1      45.303  24.968  37.844  1.00  0.00     0.074 A 
ATOM     64  C   UNL A   1      46.160  24.092  38.624  1.00  0.00     0.031 C 
ATOM     65  C   UNL A   1      44.587  26.090  38.141  1.00  0.00     0.037 A 
BRANCH  52  66
ATOM     66  C   UNL A   1      40.736  29.535  34.817  1.00  0.00     0.058 A 
ATOM     67  C   UNL A   1      40.744  30.639  35.703  1.00  0.00     0.135 A 
ATOM     68  C   UNL A   1      39.653  29.526  33.913  1.00  0.00     0.135 A 
ATOM     69  F   UNL A   1      41.716  30.805  36.610  1.00  0.00    -0.206 F 
ATOM     70  C   UNL A   1      39.756  31.627  35.708  1.00  0.00     0.059 A 
ATOM     71  C   UNL A   1      38.627  30.479  33.930  1.00  0.00     0.059 A 
ATOM     72  F   UNL A   1      39.568  28.624  32.929  1.00  0.00    -0.206 F 
ATOM     73  C   UNL A   1      38.693  31.536  34.825  1.00  0.00     0.060 A 
BRANCH  73  74
ATOM     74  S   UNL A   1      37.434  32.827  34.839  1.00  0.00     0.124 S 
ATOM     75  O   UNL A   1      36.449  32.307  33.894  1.00  0.00    -0.237 OA
ATOM     76  O   UNL A   1      37.026  32.838  36.239  1.00  0.00    -0.237 OA
ATOM     77  O   UNL A   1      38.155  34.014  34.389  1.00  0.00    -0.744 OA
ENDBRANCH  73  74
ENDBRANCH  52  66
BRANCH  53  78
ATOM     78  C   UNL A   1      47.018  21.761  34.604  1.00  0.00     0.058 A 
ATOM     79  C   UNL A   1      48.125  22.617  34.382  1.00  0.00     0.135 A 
ATOM     80  C   UNL A   1      47.279  20.380  34.560  1.00  0.00     0.135 A 
ATOM     81  F   UNL A   1      47.948  23.949  34.408  1.00  0.00    -0.206 F 
ATOM     82  C   UNL A   1      49.437  22.145  34.312  1.00  0.00     0.059 A 
ATOM     83  C   UNL A   1      48.593  19.885  34.497  1.00  0.00     0.059 A 
ATOM     84  F   UNL A   1      46.285  19.502  34.759  1.00  0.00    -0.206 F 
ATOM     85  C   UNL A   1      49.668  20.777  34.437  1.00  0.00     0.060 A 
BRANCH  85  86
ATOM     86  S   UNL A   1      51.369  20.208  34.761  1.00  0.00     0.124 S 
ATOM     87  O   UNL A   1      51.818  21.153  35.775  1.00  0.00    -0.237 OA
ATOM     88  O   UNL A   1      51.174  18.836  35.230  1.00  0.00    -0.237 OA
ATOM     89  O   UNL A   1      52.008  20.317  33.456  1.00  0.00    -0.744 OA
ENDBRANCH  85  86
ENDBRANCH  53  78
BRANCH  65  90
ATOM     90  C   UNL A   1      44.950  27.035  39.248  1.00  0.00     0.058 A 
ATOM     91  C   UNL A   1      44.750  26.725  40.604  1.00  0.00     0.135 A 
ATOM     92  C   UNL A   1      45.707  28.201  38.985  1.00  0.00     0.135 A 
ATOM     93  F   UNL A   1      44.155  25.585  40.986  1.00  0.00    -0.206 F 
ATOM     94  C   UNL A   1      45.195  27.552  41.625  1.00  0.00     0.059 A 
ATOM     95  C   UNL A   1      46.227  29.001  39.993  1.00  0.00     0.059 A 
ATOM     96  F   UNL A   1      45.992  28.592  37.733  1.00  0.00    -0.206 F 
ATOM     97  C   UNL A   1      45.932  28.689  41.311  1.00  0.00     0.060 A 
BRANCH  97  98
ATOM     98  S   UNL A   1      46.514  29.742  42.642  1.00  0.00     0.124 S 
ATOM     99  O   UNL A   1      47.601  28.934  43.187  1.00  0.00    -0.237 OA
ATOM    100  O   UNL A   1      46.920  30.954  41.936  1.00  0.00    -0.237 OA
ATOM    101  O   UNL A   1      45.341  29.886  43.497  1.00  0.00    -0.744 OA
ENDBRANCH  97  98
ENDBRANCH  65  90
ENDBRANCH  39  40
ENDBRANCH  32  34
ENDBRANCH  31  32
ENDBRANCH  30  31
ENDBRANCH  29  30
ENDBRANCH  28  29
ENDBRANCH   1  28
TORSDOF 21
ENDMDL
MODEL 3
REMARK VINA RESULT:     -10.5      1.739      4.150
REMARK SMILES Cc1nn(C(C)C)c(C)c1S(=O)(=O)Nc1cccc(C(=O)OCCOCCOC(=O)c2ccc(-c3c4nc(c(-c5c(F)cc(S(=O)(=O)[O-])cc5F)c5ccc([nH]5)c(-c5c(F)cc(S(=O)(=O)[O-])cc5F)c5nc(c(-c6c(F)cc(S(=O)(=O)[O-])cc6F)c6ccc3[nH]6)C=C5)C=C4)cc2)c1C
REMARK SMILES IDX 24 1 23 2 22 3 20 4 21 5 19 6 15 7 16 8 97 9 17 10 98 11
REMARK SMILES IDX 18 12 14 13 11 15 12 16 13 17 10 18 1 19 2 20 3 21 4 22 8 23
REMARK SMILES IDX 9 24 5 25 6 26 7 27 25 28 26 29 27 30 28 31 29 32 30 33
REMARK SMILES IDX 31 34 32 35 96 36 33 37 95 38 34 39 35 40 36 41 89 42 37 43
REMARK SMILES IDX 94 44 88 45 90 46 38 47 93 48 87 49 86 50 39 52 73 53 52 54
REMARK SMILES IDX 72 55 53 56 56 57 71 58 91 59 54 60 55 61 70 63 92 64 57 65
REMARK SMILES IDX 40 66 41 67 50 68 42 69 43 70 49 71 51 72 44 73 45 74 46 75
REMARK SMILES IDX 47 76 48 77 74 78 75 79 84 80 76 81 77 82 83 83 85 84 78 85
REMARK SMILES IDX 79 86 80 87 81 88 82 89 58 90 59 91 68 92 60 93 61 94 67 95
REMARK SMILES IDX 69 96 62 97 63 98 64 99 65 100 66 101
REMARK H PARENT 14 14 90 51 56 62
REMARK Flexibility Score: inf
ROOT
ATOM      1  C   UNL A   1      44.155  20.876  25.404  1.00  0.00     0.202 C 
ENDROOT
BRANCH   1   2
ATOM      2  C   UNL A   1      42.953  20.114  25.895  1.00  0.00     0.261 C 
BRANCH   2   3
ATOM      3  O   UNL A   1      41.726  20.832  25.710  1.00  0.00    -0.460 OA
BRANCH   3   4
ATOM      4  C   UNL A   1      40.875  20.818  26.766  1.00  0.00     0.338 C 
ATOM      5  O   UNL A   1      40.784  19.955  27.600  1.00  0.00    -0.246 OA
BRANCH   4   6
ATOM      6  C   UNL A   1      40.069  22.065  26.722  1.00  0.00     0.065 A 
ATOM      7  C   UNL A   1      39.584  24.291  27.456  1.00  0.00     0.053 A 
ATOM      8  C   UNL A   1      38.372  24.276  26.758  1.00  0.00     0.027 A 
ATOM      9  C   UNL A   1      40.504  23.231  27.378  1.00  0.00    -0.012 A 
ATOM     10  C   UNL A   1      38.004  23.160  26.025  1.00  0.00     0.003 A 
ATOM     11  C   UNL A   1      41.859  23.343  28.040  1.00  0.00     0.047 C 
ATOM     12  C   UNL A   1      38.831  22.046  26.041  1.00  0.00     0.016 A 
BRANCH   7  13
ATOM     13  N   UNL A   1      39.855  25.400  28.284  1.00  0.00    -0.279 N 
ATOM     14  H   UNL A   1      39.818  25.282  29.261  1.00  0.00     0.180 HD
BRANCH  13  15
ATOM     15  S   UNL A   1      40.236  26.907  27.669  1.00  0.00     0.265 S 
ATOM     16  O   UNL A   1      39.144  27.751  28.123  1.00  0.00    -0.201 OA
ATOM     17  O   UNL A   1      40.443  26.700  26.251  1.00  0.00    -0.201 OA
BRANCH  15  18
ATOM     18  C   UNL A   1      41.631  27.806  28.150  1.00  0.00     0.131 A 
ATOM     19  C   UNL A   1      41.081  29.265  30.317  1.00  0.00     0.070 C 
ATOM     20  C   UNL A   1      41.876  28.750  29.182  1.00  0.00     0.080 A 
ATOM     21  N   UNL A   1      43.127  29.230  29.108  1.00  0.00    -0.176 NA
ATOM     22  N   UNL A   1      43.743  28.447  28.217  1.00  0.00    -0.266 N 
ATOM     23  C   UNL A   1      42.901  27.543  27.633  1.00  0.00     0.056 A 
ATOM     24  C   UNL A   1      43.373  26.485  26.701  1.00  0.00     0.068 C 
BRANCH  22  25
ATOM     25  C   UNL A   1      45.182  28.608  28.020  1.00  0.00     0.101 C 
ATOM     26  C   UNL A   1      45.472  29.450  26.779  1.00  0.00     0.033 C 
ATOM     27  C   UNL A   1      45.858  29.191  29.262  1.00  0.00     0.033 C 
ENDBRANCH  22  25
ENDBRANCH  15  18
ENDBRANCH  13  15
ENDBRANCH   7  13
ENDBRANCH   4   6
ENDBRANCH   3   4
ENDBRANCH   2   3
ENDBRANCH   1   2
BRANCH   1  28
ATOM     28  O   UNL A   1      43.658  21.939  24.588  1.00  0.00    -0.374 OA
BRANCH  28  29
ATOM     29  C   UNL A   1      44.302  23.189  24.740  1.00  0.00     0.202 C 
BRANCH  29  30
ATOM     30  C   UNL A   1      45.558  23.149  25.621  1.00  0.00     0.261 C 
BRANCH  30  31
ATOM     31  O   UNL A   1      45.328  23.807  26.885  1.00  0.00    -0.460 OA
BRANCH  31  32
ATOM     32  C   UNL A   1      46.445  24.202  27.567  1.00  0.00     0.338 C 
ATOM     33  O   UNL A   1      47.581  24.034  27.160  1.00  0.00    -0.246 OA
BRANCH  32  34
ATOM     34  C   UNL A   1      46.062  24.892  28.832  1.00  0.00     0.060 A 
ATOM     35  C   UNL A   1      46.991  25.632  29.585  1.00  0.00     0.016 A 
ATOM     36  C   UNL A   1      44.797  24.645  29.354  1.00  0.00     0.016 A 
ATOM     37  C   UNL A   1      46.697  26.010  30.911  1.00  0.00     0.010 A 
ATOM     38  C   UNL A   1      44.556  24.918  30.680  1.00  0.00     0.010 A 
ATOM     39  C   UNL A   1      45.497  25.596  31.479  1.00  0.00    -0.014 A 
BRANCH  39  40
ATOM     40  C   UNL A   1      45.062  25.731  32.876  1.00  0.00     0.031 A 
ATOM     41  C   UNL A   1      44.454  27.034  33.265  1.00  0.00     0.074 A 
ATOM     42  C   UNL A   1      44.810  24.624  33.623  1.00  0.00     0.049 A 
ATOM     43  N   UNL A   1      43.923  27.276  34.409  1.00  0.00    -0.248 NA
ATOM     44  C   UNL A   1      44.366  28.185  32.366  1.00  0.00     0.031 C 
ATOM     45  C   UNL A   1      43.772  24.455  34.645  1.00  0.00     0.029 A 
ATOM     46  N   UNL A   1      45.411  23.359  33.601  1.00  0.00    -0.354 N 
ATOM     47  C   UNL A   1      43.169  28.422  34.309  1.00  0.00     0.074 A 
ATOM     48  C   UNL A   1      43.507  28.974  33.021  1.00  0.00     0.031 C 
ATOM     49  C   UNL A   1      43.986  23.320  35.331  1.00  0.00     0.029 A 
ATOM     50  C   UNL A   1      45.255  22.788  34.876  1.00  0.00     0.049 A 
ATOM     51  H   UNL A   1      45.862  22.945  32.829  1.00  0.00     0.167 HD
ATOM     52  C   UNL A   1      42.275  28.688  35.305  1.00  0.00     0.037 A 
ATOM     53  C   UNL A   1      46.345  22.486  35.633  1.00  0.00     0.037 A 
ATOM     54  C   UNL A   1      42.403  27.682  36.368  1.00  0.00     0.049 A 
ATOM     55  C   UNL A   1      46.329  23.365  36.855  1.00  0.00     0.074 A 
ATOM     56  C   UNL A   1      41.684  26.544  36.695  1.00  0.00     0.029 A 
ATOM     57  N   UNL A   1      43.616  27.584  37.046  1.00  0.00    -0.354 N 
ATOM     58  N   UNL A   1      45.672  24.494  36.888  1.00  0.00    -0.248 NA
ATOM     59  C   UNL A   1      46.902  23.021  38.151  1.00  0.00     0.031 C 
ATOM     60  C   UNL A   1      42.512  25.726  37.517  1.00  0.00     0.029 A 
ATOM     61  C   UNL A   1      43.726  26.371  37.699  1.00  0.00     0.049 A 
ATOM     62  H   UNL A   1      44.305  28.286  37.057  1.00  0.00     0.167 HD
ATOM     63  C   UNL A   1      45.632  24.969  38.159  1.00  0.00     0.074 A 
ATOM     64  C   UNL A   1      46.461  24.043  38.912  1.00  0.00     0.031 C 
ATOM     65  C   UNL A   1      44.905  26.070  38.503  1.00  0.00     0.037 A 
BRANCH  52  66
ATOM     66  C   UNL A   1      41.177  29.733  35.272  1.00  0.00     0.058 A 
ATOM     67  C   UNL A   1      41.210  30.836  36.159  1.00  0.00     0.135 A 
ATOM     68  C   UNL A   1      40.073  29.728  34.395  1.00  0.00     0.135 A 
ATOM     69  F   UNL A   1      42.205  30.998  37.042  1.00  0.00    -0.206 F 
ATOM     70  C   UNL A   1      40.226  31.827  36.189  1.00  0.00     0.059 A 
ATOM     71  C   UNL A   1      39.050  30.684  34.437  1.00  0.00     0.059 A 
ATOM     72  F   UNL A   1      39.960  28.827  33.412  1.00  0.00    -0.206 F 
ATOM     73  C   UNL A   1      39.141  31.740  35.331  1.00  0.00     0.060 A 
BRANCH  73  74
ATOM     74  S   UNL A   1      37.887  33.035  35.378  1.00  0.00     0.124 S 
ATOM     75  O   UNL A   1      37.718  33.249  36.812  1.00  0.00    -0.237 OA
ATOM     76  O   UNL A   1      38.538  34.116  34.646  1.00  0.00    -0.237 OA
ATOM     77  O   UNL A   1      36.742  32.427  34.705  1.00  0.00    -0.744 OA
ENDBRANCH  73  74
ENDBRANCH  52  66
BRANCH  53  78
ATOM     78  C   UNL A   1      47.471  21.980  34.782  1.00  0.00     0.058 A 
ATOM     79  C   UNL A   1      48.658  22.752  34.812  1.00  0.00     0.135 A 
ATOM     80  C   UNL A   1      47.624  20.610  34.508  1.00  0.00     0.135 A 
ATOM     81  F   UNL A   1      48.586  24.070  35.066  1.00  0.00    -0.206 F 
ATOM     82  C   UNL A   1      49.929  22.176  34.767  1.00  0.00     0.059 A 
ATOM     83  C   UNL A   1      48.895  20.010  34.466  1.00  0.00     0.059 A 
ATOM     84  F   UNL A   1      46.549  19.809  34.460  1.00  0.00    -0.206 F 
ATOM     85  C   UNL A   1      50.038  20.792  34.659  1.00  0.00     0.060 A 
BRANCH  85  86
ATOM     86  S   UNL A   1      51.647  20.015  35.015  1.00  0.00     0.124 S 
ATOM     87  O   UNL A   1      52.272  20.995  35.894  1.00  0.00    -0.237 OA
ATOM     88  O   UNL A   1      51.271  18.754  35.655  1.00  0.00    -0.237 OA
ATOM     89  O   UNL A   1      52.242  19.869  33.694  1.00  0.00    -0.744 OA
ENDBRANCH  85  86
ENDBRANCH  53  78
BRANCH  65  90
ATOM     90  C   UNL A   1      45.225  26.941  39.683  1.00  0.00     0.058 A 
ATOM     91  C   UNL A   1      45.908  28.163  39.557  1.00  0.00     0.135 A 
ATOM     92  C   UNL A   1      44.667  26.671  40.954  1.00  0.00     0.135 A 
ATOM     93  F   UNL A   1      46.376  28.592  38.376  1.00  0.00    -0.206 F 
ATOM     94  C   UNL A   1      46.096  29.018  40.634  1.00  0.00     0.059 A 
ATOM     95  C   UNL A   1      44.778  27.547  42.024  1.00  0.00     0.059 A 
ATOM     96  F   UNL A   1      43.968  25.551  41.196  1.00  0.00    -0.206 F 
ATOM     97  C   UNL A   1      45.529  28.702  41.864  1.00  0.00     0.060 A 
BRANCH  97  98
ATOM     98  S   UNL A   1      45.769  29.823  43.245  1.00  0.00     0.124 S 
ATOM     99  O   UNL A   1      45.049  29.124  44.304  1.00  0.00    -0.237 OA
ATOM    100  O   UNL A   1      47.222  29.855  43.382  1.00  0.00    -0.237 OA
ATOM    101  O   UNL A   1      45.161  31.066  42.780  1.00  0.00    -0.744 OA
ENDBRANCH  97  98
ENDBRANCH  65  90
ENDBRANCH  39  40
ENDBRANCH  32  34
ENDBRANCH  31  32
ENDBRANCH  30  31
ENDBRANCH  29  30
ENDBRANCH  28  29
ENDBRANCH   1  28
TORSDOF 21
ENDMDL
