MODEL 1
REMARK VINA RESULT:      -9.8      0.000      0.000
REMARK SMILES CC(C)N(CC1CC1)C(=O)N1CC[C@H](C(=O)OCCOCCOC(=O)c2ccc(-c3c4nc(c(-c5c(F)cc(S(=O)(=O)[O-])cc5F)c5ccc([nH]5)c(-c5c(F)cc(S(=O)(=O)[O-])cc5F)c5nc(c(-c6c(F)cc(S(=O)(=O)[O-])cc6F)c6ccc3[nH]6)C=C5)C=C4)cc2)[C@H]1C
REMARK SMILES IDX 19 1 18 2 17 3 15 4 16 5 14 6 11 7 12 8 92 9 13 10 93 11
REMARK SMILES IDX 9 12 10 13 4 14 2 15 1 16 3 17 5 18 6 19 7 20 8 21 20 22
REMARK SMILES IDX 21 23 22 24 23 25 24 26 25 27 26 28 27 29 91 30 28 31 90 32
REMARK SMILES IDX 29 33 30 34 31 35 84 36 32 37 89 38 83 39 85 40 33 41 88 42
REMARK SMILES IDX 82 43 81 44 34 46 68 47 47 48 67 49 48 50 51 51 66 52 86 53
REMARK SMILES IDX 49 54 50 55 65 57 87 58 52 59 35 60 36 61 45 62 37 63 38 64
REMARK SMILES IDX 44 65 46 66 39 67 40 68 41 69 42 70 43 71 69 72 70 73 79 74
REMARK SMILES IDX 71 75 72 76 78 77 80 78 73 79 74 80 75 81 76 82 77 83 53 84
REMARK SMILES IDX 54 85 63 86 55 87 56 88 62 89 64 90 57 91 58 92 59 93 60 94
REMARK SMILES IDX 61 95
REMARK H PARENT 85 45 51 56
REMARK Flexibility Score: inf
ROOT
ATOM      1  C   UNL A   1      34.613  29.145  26.904  1.00  0.00     0.202 C 
ENDROOT
BRANCH   1   2
ATOM      2  C   UNL A   1      33.623  29.022  25.742  1.00  0.00     0.261 C 
BRANCH   2   3
ATOM      3  O   UNL A   1      33.904  27.896  24.898  1.00  0.00    -0.463 OA
BRANCH   3   4
ATOM      4  C   UNL A   1      33.360  27.965  23.650  1.00  0.00     0.311 C 
ATOM      5  O   UNL A   1      33.975  28.249  22.634  1.00  0.00    -0.252 OA
BRANCH   4   6
ATOM      6  C   UNL A   1      31.901  27.556  23.704  1.00  0.00     0.123 C 
ATOM      7  N   UNL A   1      31.959  25.255  23.126  1.00  0.00    -0.321 N 
ATOM      8  C   UNL A   1      31.732  26.023  21.893  1.00  0.00     0.122 C 
ATOM      9  C   UNL A   1      31.736  26.137  24.287  1.00  0.00     0.098 C 
ATOM     10  C   UNL A   1      31.303  27.422  22.312  1.00  0.00     0.039 C 
ATOM     11  C   UNL A   1      30.318  26.051  24.886  1.00  0.00     0.032 C 
BRANCH   7  12
ATOM     12  C   UNL A   1      32.954  24.278  23.035  1.00  0.00     0.320 C 
ATOM     13  O   UNL A   1      33.650  24.220  22.015  1.00  0.00    -0.248 OA
BRANCH  12  14
ATOM     14  N   UNL A   1      33.091  23.304  24.018  1.00  0.00    -0.322 N 
BRANCH  14  15
ATOM     15  C   UNL A   1      32.014  22.289  24.148  1.00  0.00     0.080 C 
ATOM     16  C   UNL A   1      32.420  20.904  23.619  1.00  0.00     0.031 C 
ATOM     17  C   UNL A   1      31.427  22.207  25.558  1.00  0.00     0.031 C 
ENDBRANCH  14  15
BRANCH  14  18
ATOM     18  C   UNL A   1      34.027  23.336  25.129  1.00  0.00     0.125 C 
BRANCH  18  19
ATOM     19  C   UNL A   1      35.410  22.866  24.761  1.00  0.00     0.009 C 
ATOM     20  C   UNL A   1      36.627  23.759  24.694  1.00  0.00     0.006 C 
ATOM     21  C   UNL A   1      36.472  22.796  25.835  1.00  0.00     0.006 C 
ENDBRANCH  18  19
ENDBRANCH  14  18
ENDBRANCH  12  14
ENDBRANCH   7  12
ENDBRANCH   4   6
ENDBRANCH   3   4
ENDBRANCH   2   3
ENDBRANCH   1   2
BRANCH   1  22
ATOM     22  O   UNL A   1      34.270  30.044  27.956  1.00  0.00    -0.374 OA
BRANCH  22  23
ATOM     23  C   UNL A   1      34.529  31.433  27.760  1.00  0.00     0.202 C 
BRANCH  23  24
ATOM     24  C   UNL A   1      34.898  32.252  29.003  1.00  0.00     0.261 C 
BRANCH  24  25
ATOM     25  O   UNL A   1      36.318  32.247  29.247  1.00  0.00    -0.460 OA
BRANCH  25  26
ATOM     26  C   UNL A   1      36.720  31.428  30.246  1.00  0.00     0.338 C 
ATOM     27  O   UNL A   1      36.139  31.210  31.302  1.00  0.00    -0.246 OA
BRANCH  26  28
ATOM     28  C   UNL A   1      37.900  30.657  29.820  1.00  0.00     0.060 A 
ATOM     29  C   UNL A   1      38.860  30.343  30.791  1.00  0.00     0.016 A 
ATOM     30  C   UNL A   1      38.105  30.317  28.482  1.00  0.00     0.016 A 
ATOM     31  C   UNL A   1      40.052  29.725  30.420  1.00  0.00     0.010 A 
ATOM     32  C   UNL A   1      39.306  29.706  28.110  1.00  0.00     0.010 A 
ATOM     33  C   UNL A   1      40.298  29.438  29.071  1.00  0.00    -0.014 A 
BRANCH  33  34
ATOM     34  C   UNL A   1      41.647  28.988  28.652  1.00  0.00     0.031 A 
ATOM     35  C   UNL A   1      42.770  29.988  28.613  1.00  0.00     0.074 A 
ATOM     36  C   UNL A   1      41.873  27.703  28.331  1.00  0.00     0.049 A 
ATOM     37  N   UNL A   1      44.015  29.824  28.253  1.00  0.00    -0.248 NA
ATOM     38  C   UNL A   1      42.440  31.357  29.038  1.00  0.00     0.031 C 
ATOM     39  C   UNL A   1      40.875  26.635  28.374  1.00  0.00     0.029 A 
ATOM     40  N   UNL A   1      43.018  27.080  27.905  1.00  0.00    -0.354 N 
ATOM     41  C   UNL A   1      44.620  31.067  28.400  1.00  0.00     0.074 A 
ATOM     42  C   UNL A   1      43.593  31.983  28.852  1.00  0.00     0.031 C 
ATOM     43  C   UNL A   1      41.452  25.486  27.985  1.00  0.00     0.029 A 
ATOM     44  C   UNL A   1      42.848  25.742  27.636  1.00  0.00     0.049 A 
ATOM     45  H   UNL A   1      43.879  27.545  27.801  1.00  0.00     0.167 HD
ATOM     46  C   UNL A   1      45.913  31.412  28.188  1.00  0.00     0.037 A 
ATOM     47  C   UNL A   1      43.717  24.836  27.148  1.00  0.00     0.037 A 
ATOM     48  C   UNL A   1      46.925  30.497  27.728  1.00  0.00     0.049 A 
ATOM     49  C   UNL A   1      45.130  25.256  26.842  1.00  0.00     0.074 A 
ATOM     50  C   UNL A   1      48.267  30.742  27.493  1.00  0.00     0.029 A 
ATOM     51  N   UNL A   1      46.705  29.161  27.422  1.00  0.00    -0.354 N 
ATOM     52  N   UNL A   1      45.693  26.431  27.001  1.00  0.00    -0.248 NA
ATOM     53  C   UNL A   1      46.024  24.229  26.290  1.00  0.00     0.031 C 
ATOM     54  C   UNL A   1      48.846  29.567  26.997  1.00  0.00     0.029 A 
ATOM     55  C   UNL A   1      47.877  28.576  26.974  1.00  0.00     0.049 A 
ATOM     56  H   UNL A   1      45.841  28.697  27.511  1.00  0.00     0.167 HD
ATOM     57  C   UNL A   1      47.015  26.278  26.595  1.00  0.00     0.074 A 
ATOM     58  C   UNL A   1      47.167  24.896  26.187  1.00  0.00     0.031 C 
ATOM     59  C   UNL A   1      48.013  27.197  26.568  1.00  0.00     0.037 A 
BRANCH  46  60
ATOM     60  C   UNL A   1      46.285  32.852  28.414  1.00  0.00     0.058 A 
ATOM     61  C   UNL A   1      46.721  33.316  29.666  1.00  0.00     0.135 A 
ATOM     62  C   UNL A   1      46.186  33.785  27.369  1.00  0.00     0.135 A 
ATOM     63  F   UNL A   1      46.819  32.471  30.704  1.00  0.00    -0.206 F 
ATOM     64  C   UNL A   1      47.000  34.662  29.885  1.00  0.00     0.059 A 
ATOM     65  C   UNL A   1      46.487  35.130  27.559  1.00  0.00     0.059 A 
ATOM     66  F   UNL A   1      45.776  33.396  26.152  1.00  0.00    -0.206 F 
ATOM     67  C   UNL A   1      46.870  35.563  28.828  1.00  0.00     0.060 A 
BRANCH  67  68
ATOM     68  S   UNL A   1      47.191  37.313  29.137  1.00  0.00     0.124 S 
ATOM     69  O   UNL A   1      48.127  37.243  30.254  1.00  0.00    -0.237 OA
ATOM     70  O   UNL A   1      47.752  37.759  27.866  1.00  0.00    -0.237 OA
ATOM     71  O   UNL A   1      45.871  37.848  29.457  1.00  0.00    -0.744 OA
ENDBRANCH  67  68
ENDBRANCH  46  60
BRANCH  47  72
ATOM     72  C   UNL A   1      43.270  23.435  26.930  1.00  0.00     0.058 A 
ATOM     73  C   UNL A   1      42.973  22.965  25.644  1.00  0.00     0.135 A 
ATOM     74  C   UNL A   1      43.171  22.529  27.999  1.00  0.00     0.135 A 
ATOM     75  F   UNL A   1      43.041  23.798  24.594  1.00  0.00    -0.206 F 
ATOM     76  C   UNL A   1      42.596  21.645  25.420  1.00  0.00     0.059 A 
ATOM     77  C   UNL A   1      42.819  21.198  27.797  1.00  0.00     0.059 A 
ATOM     78  F   UNL A   1      43.454  22.928  29.248  1.00  0.00    -0.206 F 
ATOM     79  C   UNL A   1      42.532  20.766  26.503  1.00  0.00     0.060 A 
BRANCH  79  80
ATOM     80  S   UNL A   1      42.124  19.034  26.189  1.00  0.00     0.124 S 
ATOM     81  O   UNL A   1      43.056  18.702  25.118  1.00  0.00    -0.237 OA
ATOM     82  O   UNL A   1      42.393  18.419  27.485  1.00  0.00    -0.237 OA
ATOM     83  O   UNL A   1      40.715  19.086  25.809  1.00  0.00    -0.744 OA
ENDBRANCH  79  80
ENDBRANCH  47  72
BRANCH  59  84
ATOM     84  C   UNL A   1      49.369  26.734  26.110  1.00  0.00     0.058 A 
ATOM     85  C   UNL A   1      49.796  26.894  24.781  1.00  0.00     0.135 A 
ATOM     86  C   UNL A   1      50.275  26.171  27.025  1.00  0.00     0.135 A 
ATOM     87  F   UNL A   1      48.968  27.420  23.865  1.00  0.00    -0.206 F 
ATOM     88  C   UNL A   1      51.063  26.492  24.372  1.00  0.00     0.059 A 
ATOM     89  C   UNL A   1      51.556  25.786  26.642  1.00  0.00     0.059 A 
ATOM     90  F   UNL A   1      49.922  26.005  28.309  1.00  0.00    -0.206 F 
ATOM     91  C   UNL A   1      51.938  25.940  25.311  1.00  0.00     0.060 A 
BRANCH  91  92
ATOM     92  S   UNL A   1      53.592  25.455  24.774  1.00  0.00     0.124 S 
ATOM     93  O   UNL A   1      53.645  26.025  23.433  1.00  0.00    -0.237 OA
ATOM     94  O   UNL A   1      54.445  26.095  25.771  1.00  0.00    -0.237 OA
ATOM     95  O   UNL A   1      53.554  23.997  24.835  1.00  0.00    -0.744 OA
ENDBRANCH  91  92
ENDBRANCH  59  84
ENDBRANCH  33  34
ENDBRANCH  26  28
ENDBRANCH  25  26
ENDBRANCH  24  25
ENDBRANCH  23  24
ENDBRANCH  22  23
ENDBRANCH   1  22
TORSDOF 22
ENDMDL
MODEL 2
REMARK VINA RESULT:      -9.7      2.802      3.866
REMARK SMILES CC(C)N(CC1CC1)C(=O)N1CC[C@H](C(=O)OCCOCCOC(=O)c2ccc(-c3c4nc(c(-c5c(F)cc(S(=O)(=O)[O-])cc5F)c5ccc([nH]5)c(-c5c(F)cc(S(=O)(=O)[O-])cc5F)c5nc(c(-c6c(F)cc(S(=O)(=O)[O-])cc6F)c6ccc3[nH]6)C=C5)C=C4)cc2)[C@H]1C
REMARK SMILES IDX 19 1 18 2 17 3 15 4 16 5 14 6 11 7 12 8 92 9 13 10 93 11
REMARK SMILES IDX 9 12 10 13 4 14 2 15 1 16 3 17 5 18 6 19 7 20 8 21 20 22
REMARK SMILES IDX 21 23 22 24 23 25 24 26 25 27 26 28 27 29 91 30 28 31 90 32
REMARK SMILES IDX 29 33 30 34 31 35 84 36 32 37 89 38 83 39 85 40 33 41 88 42
REMARK SMILES IDX 82 43 81 44 34 46 68 47 47 48 67 49 48 50 51 51 66 52 86 53
REMARK SMILES IDX 49 54 50 55 65 57 87 58 52 59 35 60 36 61 45 62 37 63 38 64
REMARK SMILES IDX 44 65 46 66 39 67 40 68 41 69 42 70 43 71 69 72 70 73 79 74
REMARK SMILES IDX 71 75 72 76 78 77 80 78 73 79 74 80 75 81 76 82 77 83 53 84
REMARK SMILES IDX 54 85 63 86 55 87 56 88 62 89 64 90 57 91 58 92 59 93 60 94
REMARK SMILES IDX 61 95
REMARK H PARENT 85 45 51 56
REMARK Flexibility Score: inf
ROOT
ATOM      1  C   UNL A   1      33.220  29.130  23.718  1.00  0.00     0.202 C 
ENDROOT
BRANCH   1   2
ATOM      2  C   UNL A   1      33.094  28.120  22.574  1.00  0.00     0.261 C 
BRANCH   2   3
ATOM      3  O   UNL A   1      31.735  27.728  22.336  1.00  0.00    -0.463 OA
BRANCH   3   4
ATOM      4  C   UNL A   1      31.546  26.388  22.164  1.00  0.00     0.311 C 
ATOM      5  O   UNL A   1      31.843  25.764  21.157  1.00  0.00    -0.252 OA
BRANCH   4   6
ATOM      6  C   UNL A   1      30.989  25.782  23.436  1.00  0.00     0.123 C 
ATOM      7  N   UNL A   1      32.773  24.428  24.220  1.00  0.00    -0.321 N 
ATOM      8  C   UNL A   1      31.896  23.584  23.395  1.00  0.00     0.122 C 
ATOM      9  C   UNL A   1      32.069  25.686  24.533  1.00  0.00     0.098 C 
ATOM     10  C   UNL A   1      30.580  24.331  23.236  1.00  0.00     0.039 C 
ATOM     11  C   UNL A   1      31.342  25.685  25.893  1.00  0.00     0.032 C 
BRANCH   7  12
ATOM     12  C   UNL A   1      34.137  24.317  23.933  1.00  0.00     0.320 C 
ATOM     13  O   UNL A   1      34.514  24.409  22.760  1.00  0.00    -0.248 OA
BRANCH  12  14
ATOM     14  N   UNL A   1      35.051  23.989  24.927  1.00  0.00    -0.322 N 
BRANCH  14  15
ATOM     15  C   UNL A   1      36.421  23.590  24.510  1.00  0.00     0.080 C 
ATOM     16  C   UNL A   1      37.468  23.766  25.622  1.00  0.00     0.031 C 
ATOM     17  C   UNL A   1      36.482  22.194  23.890  1.00  0.00     0.031 C 
ENDBRANCH  14  15
BRANCH  14  18
ATOM     18  C   UNL A   1      34.739  23.709  26.318  1.00  0.00     0.125 C 
BRANCH  18  19
ATOM     19  C   UNL A   1      33.700  22.633  26.494  1.00  0.00     0.009 C 
ATOM     20  C   UNL A   1      33.943  21.161  26.254  1.00  0.00     0.006 C 
ATOM     21  C   UNL A   1      33.822  21.676  27.658  1.00  0.00     0.006 C 
ENDBRANCH  18  19
ENDBRANCH  14  18
ENDBRANCH  12  14
ENDBRANCH   7  12
ENDBRANCH   4   6
ENDBRANCH   3   4
ENDBRANCH   2   3
ENDBRANCH   1   2
BRANCH   1  22
ATOM     22  O   UNL A   1      32.038  29.418  24.461  1.00  0.00    -0.374 OA
BRANCH  22  23
ATOM     23  C   UNL A   1      32.187  29.866  25.808  1.00  0.00     0.202 C 
BRANCH  23  24
ATOM     24  C   UNL A   1      33.439  29.400  26.560  1.00  0.00     0.261 C 
BRANCH  24  25
ATOM     25  O   UNL A   1      33.482  29.920  27.903  1.00  0.00    -0.460 OA
BRANCH  25  26
ATOM     26  C   UNL A   1      34.439  30.853  28.120  1.00  0.00     0.338 C 
ATOM     27  O   UNL A   1      34.271  32.047  28.337  1.00  0.00    -0.246 OA
BRANCH  26  28
ATOM     28  C   UNL A   1      35.754  30.204  28.252  1.00  0.00     0.060 A 
ATOM     29  C   UNL A   1      36.117  29.717  29.514  1.00  0.00     0.016 A 
ATOM     30  C   UNL A   1      36.649  30.143  27.182  1.00  0.00     0.016 A 
ATOM     31  C   UNL A   1      37.397  29.207  29.724  1.00  0.00     0.010 A 
ATOM     32  C   UNL A   1      37.935  29.640  27.397  1.00  0.00     0.010 A 
ATOM     33  C   UNL A   1      38.325  29.201  28.675  1.00  0.00    -0.014 A 
BRANCH  33  34
ATOM     34  C   UNL A   1      39.743  28.868  28.953  1.00  0.00     0.031 A 
ATOM     35  C   UNL A   1      40.620  29.901  29.607  1.00  0.00     0.074 A 
ATOM     36  C   UNL A   1      40.236  27.656  28.647  1.00  0.00     0.049 A 
ATOM     37  N   UNL A   1      41.888  29.836  29.916  1.00  0.00    -0.248 NA
ATOM     38  C   UNL A   1      39.977  31.176  29.958  1.00  0.00     0.031 C 
ATOM     39  C   UNL A   1      39.471  26.561  28.053  1.00  0.00     0.029 A 
ATOM     40  N   UNL A   1      41.500  27.145  28.795  1.00  0.00    -0.354 N 
ATOM     41  C   UNL A   1      42.201  31.063  30.492  1.00  0.00     0.074 A 
ATOM     42  C   UNL A   1      40.994  31.862  30.459  1.00  0.00     0.031 C 
ATOM     43  C   UNL A   1      40.285  25.505  27.883  1.00  0.00     0.029 A 
ATOM     44  C   UNL A   1      41.632  25.860  28.326  1.00  0.00     0.049 A 
ATOM     45  H   UNL A   1      42.242  27.651  29.199  1.00  0.00     0.167 HD
ATOM     46  C   UNL A   1      43.381  31.480  31.009  1.00  0.00     0.037 A 
ATOM     47  C   UNL A   1      42.720  25.070  28.249  1.00  0.00     0.037 A 
ATOM     48  C   UNL A   1      44.579  30.682  31.028  1.00  0.00     0.049 A 
ATOM     49  C   UNL A   1      44.043  25.581  28.756  1.00  0.00     0.074 A 
ATOM     50  C   UNL A   1      45.824  31.006  31.539  1.00  0.00     0.029 A 
ATOM     51  N   UNL A   1      44.687  29.402  30.501  1.00  0.00    -0.354 N 
ATOM     52  N   UNL A   1      44.321  26.736  29.314  1.00  0.00    -0.248 NA
ATOM     53  C   UNL A   1      45.198  24.683  28.623  1.00  0.00     0.031 C 
ATOM     54  C   UNL A   1      46.696  29.943  31.277  1.00  0.00     0.029 A 
ATOM     55  C   UNL A   1      45.982  28.934  30.649  1.00  0.00     0.049 A 
ATOM     56  H   UNL A   1      43.950  28.901  30.083  1.00  0.00     0.167 HD
ATOM     57  C   UNL A   1      45.677  26.693  29.623  1.00  0.00     0.074 A 
ATOM     58  C   UNL A   1      46.161  25.396  29.194  1.00  0.00     0.031 C 
ATOM     59  C   UNL A   1      46.449  27.639  30.214  1.00  0.00     0.037 A 
BRANCH  46  60
ATOM     60  C   UNL A   1      43.433  32.881  31.557  1.00  0.00     0.058 A 
ATOM     61  C   UNL A   1      43.772  33.980  30.751  1.00  0.00     0.135 A 
ATOM     62  C   UNL A   1      43.158  33.125  32.912  1.00  0.00     0.135 A 
ATOM     63  F   UNL A   1      44.059  33.802  29.452  1.00  0.00    -0.206 F 
ATOM     64  C   UNL A   1      43.882  35.262  31.279  1.00  0.00     0.059 A 
ATOM     65  C   UNL A   1      43.235  34.404  33.456  1.00  0.00     0.059 A 
ATOM     66  F   UNL A   1      42.828  32.111  33.729  1.00  0.00    -0.206 F 
ATOM     67  C   UNL A   1      43.621  35.462  32.636  1.00  0.00     0.060 A 
BRANCH  67  68
ATOM     68  S   UNL A   1      43.813  37.123  33.319  1.00  0.00     0.124 S 
ATOM     69  O   UNL A   1      43.805  37.937  32.108  1.00  0.00    -0.237 OA
ATOM     70  O   UNL A   1      42.637  37.248  34.174  1.00  0.00    -0.237 OA
ATOM     71  O   UNL A   1      45.091  37.055  34.022  1.00  0.00    -0.744 OA
ENDBRANCH  67  68
ENDBRANCH  46  60
BRANCH  47  72
ATOM     72  C   UNL A   1      42.596  23.704  27.675  1.00  0.00     0.058 A 
ATOM     73  C   UNL A   1      42.694  23.492  26.293  1.00  0.00     0.135 A 
ATOM     74  C   UNL A   1      42.418  22.583  28.500  1.00  0.00     0.135 A 
ATOM     75  F   UNL A   1      42.851  24.535  25.464  1.00  0.00    -0.206 F 
ATOM     76  C   UNL A   1      42.623  22.215  25.746  1.00  0.00     0.059 A 
ATOM     77  C   UNL A   1      42.367  21.294  27.978  1.00  0.00     0.059 A 
ATOM     78  F   UNL A   1      42.327  22.733  29.831  1.00  0.00    -0.206 F 
ATOM     79  C   UNL A   1      42.469  21.121  26.599  1.00  0.00     0.060 A 
BRANCH  79  80
ATOM     80  S   UNL A   1      42.464  19.461  25.885  1.00  0.00     0.124 S 
ATOM     81  O   UNL A   1      43.339  19.634  24.732  1.00  0.00    -0.237 OA
ATOM     82  O   UNL A   1      42.999  18.657  26.980  1.00  0.00    -0.237 OA
ATOM     83  O   UNL A   1      41.054  19.233  25.581  1.00  0.00    -0.744 OA
ENDBRANCH  79  80
ENDBRANCH  47  72
BRANCH  59  84
ATOM     84  C   UNL A   1      47.894  27.300  30.462  1.00  0.00     0.058 A 
ATOM     85  C   UNL A   1      48.290  26.493  31.541  1.00  0.00     0.135 A 
ATOM     86  C   UNL A   1      48.891  27.745  29.577  1.00  0.00     0.135 A 
ATOM     87  F   UNL A   1      47.379  26.047  32.420  1.00  0.00    -0.206 F 
ATOM     88  C   UNL A   1      49.624  26.158  31.746  1.00  0.00     0.059 A 
ATOM     89  C   UNL A   1      50.228  27.400  29.749  1.00  0.00     0.059 A 
ATOM     90  F   UNL A   1      48.566  28.510  28.523  1.00  0.00    -0.206 F 
ATOM     91  C   UNL A   1      50.587  26.614  30.842  1.00  0.00     0.060 A 
BRANCH  91  92
ATOM     92  S   UNL A   1      52.311  26.143  31.101  1.00  0.00     0.124 S 
ATOM     93  O   UNL A   1      52.826  27.300  31.826  1.00  0.00    -0.237 OA
ATOM     94  O   UNL A   1      52.186  24.913  31.875  1.00  0.00    -0.237 OA
ATOM     95  O   UNL A   1      52.823  25.973  29.744  1.00  0.00    -0.744 OA
ENDBRANCH  91  92
ENDBRANCH  59  84
ENDBRANCH  33  34
ENDBRANCH  26  28
ENDBRANCH  25  26
ENDBRANCH  24  25
ENDBRANCH  23  24
ENDBRANCH  22  23
ENDBRANCH   1  22
TORSDOF 22
ENDMDL
MODEL 3
REMARK VINA RESULT:      -9.6      6.436     11.657
REMARK SMILES CC(C)N(CC1CC1)C(=O)N1CC[C@H](C(=O)OCCOCCOC(=O)c2ccc(-c3c4nc(c(-c5c(F)cc(S(=O)(=O)[O-])cc5F)c5ccc([nH]5)c(-c5c(F)cc(S(=O)(=O)[O-])cc5F)c5nc(c(-c6c(F)cc(S(=O)(=O)[O-])cc6F)c6ccc3[nH]6)C=C5)C=C4)cc2)[C@H]1C
REMARK SMILES IDX 19 1 18 2 17 3 15 4 16 5 14 6 11 7 12 8 92 9 13 10 93 11
REMARK SMILES IDX 9 12 10 13 4 14 2 15 1 16 3 17 5 18 6 19 7 20 8 21 20 22
REMARK SMILES IDX 21 23 22 24 23 25 24 26 25 27 26 28 27 29 91 30 28 31 90 32
REMARK SMILES IDX 29 33 30 34 31 35 84 36 32 37 89 38 83 39 85 40 33 41 88 42
REMARK SMILES IDX 82 43 81 44 34 46 68 47 47 48 67 49 48 50 51 51 66 52 86 53
REMARK SMILES IDX 49 54 50 55 65 57 87 58 52 59 35 60 36 61 45 62 37 63 38 64
REMARK SMILES IDX 44 65 46 66 39 67 40 68 41 69 42 70 43 71 69 72 70 73 79 74
REMARK SMILES IDX 71 75 72 76 78 77 80 78 73 79 74 80 75 81 76 82 77 83 53 84
REMARK SMILES IDX 54 85 63 86 55 87 56 88 62 89 64 90 57 91 58 92 59 93 60 94
REMARK SMILES IDX 61 95
REMARK H PARENT 85 45 51 56
REMARK Flexibility Score: inf
ROOT
ATOM      1  C   UNL A   1      38.566  22.862  26.142  1.00  0.00     0.202 C 
ENDROOT
BRANCH   1   2
ATOM      2  C   UNL A   1      37.635  22.102  25.191  1.00  0.00     0.261 C 
BRANCH   2   3
ATOM      3  O   UNL A   1      36.392  21.745  25.811  1.00  0.00    -0.463 OA
BRANCH   3   4
ATOM      4  C   UNL A   1      35.369  22.620  25.593  1.00  0.00     0.311 C 
ATOM      5  O   UNL A   1      35.293  23.739  26.076  1.00  0.00    -0.252 OA
BRANCH   4   6
ATOM      6  C   UNL A   1      34.389  22.027  24.600  1.00  0.00     0.123 C 
ATOM      7  N   UNL A   1      32.314  22.977  25.250  1.00  0.00    -0.321 N 
ATOM      8  C   UNL A   1      32.452  21.684  25.936  1.00  0.00     0.122 C 
ATOM      9  C   UNL A   1      33.324  23.059  24.177  1.00  0.00     0.098 C 
ATOM     10  C   UNL A   1      33.558  20.918  25.224  1.00  0.00     0.039 C 
ATOM     11  C   UNL A   1      32.807  22.640  22.786  1.00  0.00     0.032 C 
BRANCH   7  12
ATOM     12  C   UNL A   1      31.920  24.039  26.069  1.00  0.00     0.320 C 
ATOM     13  O   UNL A   1      31.522  23.800  27.213  1.00  0.00    -0.248 OA
BRANCH  12  14
ATOM     14  N   UNL A   1      31.860  25.338  25.576  1.00  0.00    -0.322 N 
BRANCH  14  15
ATOM     15  C   UNL A   1      32.456  26.424  26.397  1.00  0.00     0.080 C 
ATOM     16  C   UNL A   1      33.810  26.915  25.861  1.00  0.00     0.031 C 
ATOM     17  C   UNL A   1      31.494  27.584  26.655  1.00  0.00     0.031 C 
ENDBRANCH  14  15
BRANCH  14  18
ATOM     18  C   UNL A   1      31.022  25.799  24.483  1.00  0.00     0.125 C 
BRANCH  18  19
ATOM     19  C   UNL A   1      31.802  26.368  23.327  1.00  0.00     0.009 C 
ATOM     20  C   UNL A   1      31.581  25.995  21.879  1.00  0.00     0.006 C 
ATOM     21  C   UNL A   1      31.121  27.332  22.383  1.00  0.00     0.006 C 
ENDBRANCH  18  19
ENDBRANCH  14  18
ENDBRANCH  12  14
ENDBRANCH   7  12
ENDBRANCH   4   6
ENDBRANCH   3   4
ENDBRANCH   2   3
ENDBRANCH   1   2
BRANCH   1  22
ATOM     22  O   UNL A   1      39.560  22.100  26.822  1.00  0.00    -0.374 OA
BRANCH  22  23
ATOM     23  C   UNL A   1      40.715  21.697  26.087  1.00  0.00     0.202 C 
BRANCH  23  24
ATOM     24  C   UNL A   1      41.948  22.603  26.182  1.00  0.00     0.261 C 
BRANCH  24  25
ATOM     25  O   UNL A   1      41.748  23.687  27.108  1.00  0.00    -0.460 OA
BRANCH  25  26
ATOM     26  C   UNL A   1      41.911  24.923  26.580  1.00  0.00     0.338 C 
ATOM     27  O   UNL A   1      42.198  25.200  25.423  1.00  0.00    -0.246 OA
BRANCH  26  28
ATOM     28  C   UNL A   1      41.507  25.946  27.560  1.00  0.00     0.060 A 
ATOM     29  C   UNL A   1      42.320  27.079  27.693  1.00  0.00     0.016 A 
ATOM     30  C   UNL A   1      40.400  25.764  28.390  1.00  0.00     0.016 A 
ATOM     31  C   UNL A   1      42.054  28.015  28.690  1.00  0.00     0.010 A 
ATOM     32  C   UNL A   1      40.140  26.700  29.396  1.00  0.00     0.010 A 
ATOM     33  C   UNL A   1      40.985  27.811  29.571  1.00  0.00    -0.014 A 
BRANCH  33  34
ATOM     34  C   UNL A   1      40.839  28.684  30.761  1.00  0.00     0.031 A 
ATOM     35  C   UNL A   1      39.782  29.755  30.755  1.00  0.00     0.074 A 
ATOM     36  C   UNL A   1      41.622  28.511  31.839  1.00  0.00     0.049 A 
ATOM     37  N   UNL A   1      39.498  30.645  31.668  1.00  0.00    -0.248 NA
ATOM     38  C   UNL A   1      38.935  29.829  29.555  1.00  0.00     0.031 C 
ATOM     39  C   UNL A   1      42.649  27.480  31.978  1.00  0.00     0.029 A 
ATOM     40  N   UNL A   1      41.674  29.203  33.022  1.00  0.00    -0.354 N 
ATOM     41  C   UNL A   1      38.443  31.391  31.155  1.00  0.00     0.074 A 
ATOM     42  C   UNL A   1      38.161  30.868  29.834  1.00  0.00     0.031 C 
ATOM     43  C   UNL A   1      43.234  27.609  33.181  1.00  0.00     0.029 A 
ATOM     44  C   UNL A   1      42.646  28.750  33.882  1.00  0.00     0.049 A 
ATOM     45  H   UNL A   1      41.073  29.953  33.235  1.00  0.00     0.167 HD
ATOM     46  C   UNL A   1      37.766  32.412  31.734  1.00  0.00     0.037 A 
ATOM     47  C   UNL A   1      43.027  29.214  35.087  1.00  0.00     0.037 A 
ATOM     48  C   UNL A   1      38.060  32.933  33.043  1.00  0.00     0.049 A 
ATOM     49  C   UNL A   1      42.314  30.400  35.681  1.00  0.00     0.074 A 
ATOM     50  C   UNL A   1      37.426  33.956  33.727  1.00  0.00     0.029 A 
ATOM     51  N   UNL A   1      39.082  32.478  33.865  1.00  0.00    -0.354 N 
ATOM     52  N   UNL A   1      41.308  31.087  35.193  1.00  0.00    -0.248 NA
ATOM     53  C   UNL A   1      42.789  30.875  36.987  1.00  0.00     0.031 C 
ATOM     54  C   UNL A   1      38.096  34.153  34.940  1.00  0.00     0.029 A 
ATOM     55  C   UNL A   1      39.115  33.217  35.036  1.00  0.00     0.049 A 
ATOM     56  H   UNL A   1      39.694  31.738  33.648  1.00  0.00     0.167 HD
ATOM     57  C   UNL A   1      41.011  32.058  36.144  1.00  0.00     0.074 A 
ATOM     58  C   UNL A   1      41.942  31.867  37.238  1.00  0.00     0.031 C 
ATOM     59  C   UNL A   1      40.051  33.016  36.117  1.00  0.00     0.037 A 
BRANCH  46  60
ATOM     60  C   UNL A   1      36.669  33.052  30.927  1.00  0.00     0.058 A 
ATOM     61  C   UNL A   1      36.945  33.927  29.864  1.00  0.00     0.135 A 
ATOM     62  C   UNL A   1      35.321  32.801  31.234  1.00  0.00     0.135 A 
ATOM     63  F   UNL A   1      38.215  34.214  29.537  1.00  0.00    -0.206 F 
ATOM     64  C   UNL A   1      35.926  34.567  29.165  1.00  0.00     0.059 A 
ATOM     65  C   UNL A   1      34.286  33.408  30.530  1.00  0.00     0.059 A 
ATOM     66  F   UNL A   1      35.000  31.973  32.240  1.00  0.00    -0.206 F 
ATOM     67  C   UNL A   1      34.599  34.308  29.512  1.00  0.00     0.060 A 
BRANCH  67  68
ATOM     68  S   UNL A   1      33.287  35.179  28.629  1.00  0.00     0.124 S 
ATOM     69  O   UNL A   1      32.544  35.780  29.733  1.00  0.00    -0.237 OA
ATOM     70  O   UNL A   1      34.036  36.109  27.790  1.00  0.00    -0.237 OA
ATOM     71  O   UNL A   1      32.594  34.113  27.913  1.00  0.00    -0.744 OA
ENDBRANCH  67  68
ENDBRANCH  46  60
BRANCH  47  72
ATOM     72  C   UNL A   1      44.134  28.542  35.816  1.00  0.00     0.058 A 
ATOM     73  C   UNL A   1      45.458  28.978  35.676  1.00  0.00     0.135 A 
ATOM     74  C   UNL A   1      43.884  27.477  36.697  1.00  0.00     0.135 A 
ATOM     75  F   UNL A   1      45.747  29.984  34.836  1.00  0.00    -0.206 F 
ATOM     76  C   UNL A   1      46.499  28.387  36.386  1.00  0.00     0.059 A 
ATOM     77  C   UNL A   1      44.904  26.885  37.434  1.00  0.00     0.059 A 
ATOM     78  F   UNL A   1      42.631  27.028  36.872  1.00  0.00    -0.206 F 
ATOM     79  C   UNL A   1      46.209  27.347  37.271  1.00  0.00     0.060 A 
BRANCH  79  80
ATOM     80  S   UNL A   1      47.556  26.644  38.249  1.00  0.00     0.124 S 
ATOM     81  O   UNL A   1      46.930  25.444  38.791  1.00  0.00    -0.237 OA
ATOM     82  O   UNL A   1      48.586  26.429  37.237  1.00  0.00    -0.237 OA
ATOM     83  O   UNL A   1      47.850  27.697  39.217  1.00  0.00    -0.744 OA
ENDBRANCH  79  80
ENDBRANCH  47  72
BRANCH  59  84
ATOM     84  C   UNL A   1      39.936  33.916  37.317  1.00  0.00     0.058 A 
ATOM     85  C   UNL A   1      40.592  35.156  37.378  1.00  0.00     0.135 A 
ATOM     86  C   UNL A   1      39.114  33.556  38.399  1.00  0.00     0.135 A 
ATOM     87  F   UNL A   1      41.394  35.545  36.375  1.00  0.00    -0.206 F 
ATOM     88  C   UNL A   1      40.456  35.997  38.478  1.00  0.00     0.059 A 
ATOM     89  C   UNL A   1      38.944  34.393  39.497  1.00  0.00     0.059 A 
ATOM     90  F   UNL A   1      38.456  32.387  38.387  1.00  0.00    -0.206 F 
ATOM     91  C   UNL A   1      39.627  35.607  39.533  1.00  0.00     0.060 A 
BRANCH  91  92
ATOM     92  S   UNL A   1      39.431  36.723  40.939  1.00  0.00     0.124 S 
ATOM     93  O   UNL A   1      38.602  37.777  40.365  1.00  0.00    -0.237 OA
ATOM     94  O   UNL A   1      38.778  35.869  41.927  1.00  0.00    -0.237 OA
ATOM     95  O   UNL A   1      40.802  37.107  41.261  1.00  0.00    -0.744 OA
ENDBRANCH  91  92
ENDBRANCH  59  84
ENDBRANCH  33  34
ENDBRANCH  26  28
ENDBRANCH  25  26
ENDBRANCH  24  25
ENDBRANCH  23  24
ENDBRANCH  22  23
ENDBRANCH   1  22
TORSDOF 22
ENDMDL
