MODEL 1
REMARK VINA RESULT:      -9.1      0.000      0.000
REMARK SMILES CC[C@](C)([NH3+])C(=O)NC[C@](C)(O)C(=O)OCCOCCOC(=O)c1ccc(-c2c3nc(c(-c4c(F)cc(S(=O)(=O)[O-])cc4F)c4ccc([nH]4)c(-c4c(F)cc(S(=O)(=O)[O-])cc4F)c4nc(c(-c5c(F)cc(S(=O)(=O)[O-])cc5F)c5ccc2[nH]5)C=C4)C=C3)cc1
REMARK SMILES IDX 17 1 16 2 15 3 13 4 14 5 10 6 11 7 9 8 8 9 6 10 7 11 3 13
REMARK SMILES IDX 4 14 2 15 1 16 5 17 12 21 18 23 19 24 20 25 21 26 22 27
REMARK SMILES IDX 23 28 24 29 25 30 89 31 26 32 88 33 27 34 28 35 29 36 82 37
REMARK SMILES IDX 30 38 87 39 81 40 83 41 31 42 86 43 80 44 79 45 32 47 66 48
REMARK SMILES IDX 45 49 65 50 46 51 49 52 64 53 84 54 47 55 48 56 63 58 85 59
REMARK SMILES IDX 50 60 33 61 34 62 43 63 35 64 36 65 42 66 44 67 37 68 38 69
REMARK SMILES IDX 39 70 40 71 41 72 67 73 68 74 77 75 69 76 70 77 76 78 78 79
REMARK SMILES IDX 71 80 72 81 73 82 74 83 75 84 51 85 52 86 61 87 53 88 54 89
REMARK SMILES IDX 60 90 62 91 55 92 56 93 57 94 58 95 59 96
REMARK H PARENT 8 12 5 18 5 19 5 20 12 22 83 46 49 57
REMARK Flexibility Score: inf
ROOT
ATOM      1  C   UNL A   1      34.221  34.986  31.954  1.00  0.00     0.202 C 
ENDROOT
BRANCH   1   2
ATOM      2  C   UNL A   1      33.650  35.331  30.577  1.00  0.00     0.261 C 
BRANCH   2   3
ATOM      3  O   UNL A   1      33.251  34.161  29.857  1.00  0.00    -0.461 OA
BRANCH   3   4
ATOM      4  C   UNL A   1      33.966  33.887  28.731  1.00  0.00     0.339 C 
ATOM      5  O   UNL A   1      34.132  34.644  27.778  1.00  0.00    -0.249 OA
BRANCH   4   6
ATOM      6  C   UNL A   1      34.590  32.482  28.798  1.00  0.00     0.176 C 
ATOM      7  C   UNL A   1      36.002  32.559  28.197  1.00  0.00     0.057 C 
BRANCH   6   8
ATOM      8  C   UNL A   1      33.700  31.572  27.932  1.00  0.00     0.163 C 
BRANCH   8   9
ATOM      9  N   UNL A   1      34.351  30.363  27.457  1.00  0.00    -0.347 N 
ATOM     10  C   UNL A   1      33.888  29.187  26.950  1.00  0.00     0.281 C 
ATOM     11  O   UNL A   1      34.782  28.386  26.647  1.00  0.00    -0.268 OA
ATOM     12  H   UNL A   1      35.333  30.402  27.515  1.00  0.00     0.163 HD
BRANCH  10  13
ATOM     13  C   UNL A   1      32.375  28.842  26.715  1.00  0.00     0.170 C 
ATOM     14  C   UNL A   1      32.339  27.473  25.981  1.00  0.00     0.090 C 
BRANCH  13  15
ATOM     15  C   UNL A   1      31.625  29.841  25.800  1.00  0.00     0.075 C 
ATOM     16  C   UNL A   1      31.154  29.375  24.432  1.00  0.00     0.011 C 
ENDBRANCH  13  15
BRANCH  13  17
ATOM     17  N   UNL A   1      31.678  28.598  27.992  1.00  0.00    -0.345 N 
ATOM     18  H   UNL A   1      32.357  28.339  28.707  1.00  0.00     0.345 HD
ATOM     19  H   UNL A   1      31.004  27.842  27.873  1.00  0.00     0.345 HD
ATOM     20  H   UNL A   1      31.190  29.447  28.280  1.00  0.00     0.345 HD
ENDBRANCH  13  17
ENDBRANCH  10  13
ENDBRANCH   8   9
ENDBRANCH   6   8
BRANCH   6  21
ATOM     21  O   UNL A   1      34.774  31.958  30.117  1.00  0.00    -0.377 OA
ATOM     22  H   UNL A   1      34.618  31.000  30.108  1.00  0.00     0.212 HD
ENDBRANCH   6  21
ENDBRANCH   4   6
ENDBRANCH   3   4
ENDBRANCH   2   3
ENDBRANCH   1   2
BRANCH   1  23
ATOM     23  O   UNL A   1      35.422  34.219  32.007  1.00  0.00    -0.374 OA
BRANCH  23  24
ATOM     24  C   UNL A   1      35.660  33.408  33.156  1.00  0.00     0.202 C 
BRANCH  24  25
ATOM     25  C   UNL A   1      36.929  32.548  33.210  1.00  0.00     0.261 C 
BRANCH  25  26
ATOM     26  O   UNL A   1      37.367  32.067  31.930  1.00  0.00    -0.460 OA
BRANCH  26  27
ATOM     27  C   UNL A   1      37.244  30.730  31.752  1.00  0.00     0.338 C 
ATOM     28  O   UNL A   1      36.276  30.031  32.031  1.00  0.00    -0.246 OA
BRANCH  27  29
ATOM     29  C   UNL A   1      38.404  30.210  31.015  1.00  0.00     0.060 A 
ATOM     30  C   UNL A   1      39.500  29.742  31.751  1.00  0.00     0.016 A 
ATOM     31  C   UNL A   1      38.453  30.269  29.621  1.00  0.00     0.016 A 
ATOM     32  C   UNL A   1      40.661  29.341  31.093  1.00  0.00     0.010 A 
ATOM     33  C   UNL A   1      39.623  29.881  28.965  1.00  0.00     0.010 A 
ATOM     34  C   UNL A   1      40.739  29.434  29.696  1.00  0.00    -0.014 A 
BRANCH  34  35
ATOM     35  C   UNL A   1      42.013  29.138  29.002  1.00  0.00     0.031 A 
ATOM     36  C   UNL A   1      42.274  27.746  28.501  1.00  0.00     0.074 A 
ATOM     37  C   UNL A   1      42.930  30.108  28.834  1.00  0.00     0.049 A 
ATOM     38  N   UNL A   1      43.355  27.252  27.957  1.00  0.00    -0.248 NA
ATOM     39  C   UNL A   1      41.169  26.781  28.631  1.00  0.00     0.031 C 
ATOM     40  C   UNL A   1      42.767  31.501  29.247  1.00  0.00     0.029 A 
ATOM     41  N   UNL A   1      44.189  30.062  28.291  1.00  0.00    -0.354 N 
ATOM     42  C   UNL A   1      43.069  25.918  27.688  1.00  0.00     0.074 A 
ATOM     43  C   UNL A   1      41.717  25.676  28.145  1.00  0.00     0.031 C 
ATOM     44  C   UNL A   1      43.894  32.174  28.964  1.00  0.00     0.029 A 
ATOM     45  C   UNL A   1      44.870  31.251  28.388  1.00  0.00     0.049 A 
ATOM     46  H   UNL A   1      44.566  29.255  27.872  1.00  0.00     0.167 HD
ATOM     47  C   UNL A   1      43.864  24.986  27.111  1.00  0.00     0.037 A 
ATOM     48  C   UNL A   1      46.149  31.549  28.085  1.00  0.00     0.037 A 
ATOM     49  C   UNL A   1      45.210  25.241  26.665  1.00  0.00     0.049 A 
ATOM     50  C   UNL A   1      47.042  30.473  27.526  1.00  0.00     0.074 A 
ATOM     51  C   UNL A   1      46.086  24.374  26.036  1.00  0.00     0.029 A 
ATOM     52  N   UNL A   1      45.879  26.446  26.814  1.00  0.00    -0.354 N 
ATOM     53  N   UNL A   1      46.752  29.224  27.246  1.00  0.00    -0.248 NA
ATOM     54  C   UNL A   1      48.438  30.841  27.252  1.00  0.00     0.031 C 
ATOM     55  C   UNL A   1      47.303  25.038  25.855  1.00  0.00     0.029 A 
ATOM     56  C   UNL A   1      47.171  26.335  26.326  1.00  0.00     0.049 A 
ATOM     57  H   UNL A   1      45.494  27.261  27.209  1.00  0.00     0.167 HD
ATOM     58  C   UNL A   1      47.925  28.660  26.755  1.00  0.00     0.074 A 
ATOM     59  C   UNL A   1      48.923  29.710  26.757  1.00  0.00     0.031 C 
ATOM     60  C   UNL A   1      48.156  27.389  26.344  1.00  0.00     0.037 A 
BRANCH  47  61
ATOM     61  C   UNL A   1      43.313  23.596  26.957  1.00  0.00     0.058 A 
ATOM     62  C   UNL A   1      43.191  22.723  28.049  1.00  0.00     0.135 A 
ATOM     63  C   UNL A   1      42.859  23.147  25.706  1.00  0.00     0.135 A 
ATOM     64  F   UNL A   1      43.624  23.095  29.264  1.00  0.00    -0.206 F 
ATOM     65  C   UNL A   1      42.658  21.446  27.903  1.00  0.00     0.059 A 
ATOM     66  C   UNL A   1      42.301  21.882  25.541  1.00  0.00     0.059 A 
ATOM     67  F   UNL A   1      42.954  23.940  24.628  1.00  0.00    -0.206 F 
ATOM     68  C   UNL A   1      42.216  21.034  26.644  1.00  0.00     0.060 A 
BRANCH  68  69
ATOM     69  S   UNL A   1      41.517  19.378  26.473  1.00  0.00     0.124 S 
ATOM     70  O   UNL A   1      41.693  18.847  27.821  1.00  0.00    -0.237 OA
ATOM     71  O   UNL A   1      40.141  19.659  26.077  1.00  0.00    -0.237 OA
ATOM     72  O   UNL A   1      42.348  18.761  25.444  1.00  0.00    -0.744 OA
ENDBRANCH  68  69
ENDBRANCH  47  61
BRANCH  48  73
ATOM     73  C   UNL A   1      46.671  32.919  28.343  1.00  0.00     0.058 A 
ATOM     74  C   UNL A   1      47.260  33.250  29.571  1.00  0.00     0.135 A 
ATOM     75  C   UNL A   1      46.596  33.920  27.361  1.00  0.00     0.135 A 
ATOM     76  F   UNL A   1      47.341  32.332  30.545  1.00  0.00    -0.206 F 
ATOM     77  C   UNL A   1      47.751  34.528  29.821  1.00  0.00     0.059 A 
ATOM     78  C   UNL A   1      47.104  35.197  27.578  1.00  0.00     0.059 A 
ATOM     79  F   UNL A   1      46.043  33.652  26.168  1.00  0.00    -0.206 F 
ATOM     80  C   UNL A   1      47.672  35.495  28.817  1.00  0.00     0.060 A 
BRANCH  80  81
ATOM     81  S   UNL A   1      48.353  37.136  29.137  1.00  0.00     0.124 S 
ATOM     82  O   UNL A   1      47.635  37.948  28.161  1.00  0.00    -0.237 OA
ATOM     83  O   UNL A   1      47.993  37.352  30.535  1.00  0.00    -0.237 OA
ATOM     84  O   UNL A   1      49.781  36.964  28.886  1.00  0.00    -0.744 OA
ENDBRANCH  80  81
ENDBRANCH  48  73
BRANCH  60  85
ATOM     85  C   UNL A   1      49.541  27.057  25.859  1.00  0.00     0.058 A 
ATOM     86  C   UNL A   1      50.517  26.548  26.729  1.00  0.00     0.135 A 
ATOM     87  C   UNL A   1      49.875  27.187  24.502  1.00  0.00     0.135 A 
ATOM     88  F   UNL A   1      50.252  26.413  28.038  1.00  0.00    -0.206 F 
ATOM     89  C   UNL A   1      51.782  26.191  26.273  1.00  0.00     0.059 A 
ATOM     90  C   UNL A   1      51.126  26.812  24.018  1.00  0.00     0.059 A 
ATOM     91  F   UNL A   1      48.975  27.661  23.626  1.00  0.00    -0.206 F 
ATOM     92  C   UNL A   1      52.075  26.322  24.914  1.00  0.00     0.060 A 
BRANCH  92  93
ATOM     93  S   UNL A   1      53.703  25.809  24.328  1.00  0.00     0.124 S 
ATOM     94  O   UNL A   1      53.560  25.964  22.884  1.00  0.00    -0.237 OA
ATOM     95  O   UNL A   1      54.589  26.767  24.983  1.00  0.00    -0.237 OA
ATOM     96  O   UNL A   1      53.819  24.433  24.802  1.00  0.00    -0.744 OA
ENDBRANCH  92  93
ENDBRANCH  60  85
ENDBRANCH  34  35
ENDBRANCH  27  29
ENDBRANCH  26  27
ENDBRANCH  25  26
ENDBRANCH  24  25
ENDBRANCH  23  24
ENDBRANCH   1  23
TORSDOF 23
ENDMDL
MODEL 2
REMARK VINA RESULT:      -9.1      6.266     13.075
REMARK SMILES CC[C@](C)([NH3+])C(=O)NC[C@](C)(O)C(=O)OCCOCCOC(=O)c1ccc(-c2c3nc(c(-c4c(F)cc(S(=O)(=O)[O-])cc4F)c4ccc([nH]4)c(-c4c(F)cc(S(=O)(=O)[O-])cc4F)c4nc(c(-c5c(F)cc(S(=O)(=O)[O-])cc5F)c5ccc2[nH]5)C=C4)C=C3)cc1
REMARK SMILES IDX 17 1 16 2 15 3 13 4 14 5 10 6 11 7 9 8 8 9 6 10 7 11 3 13
REMARK SMILES IDX 4 14 2 15 1 16 5 17 12 21 18 23 19 24 20 25 21 26 22 27
REMARK SMILES IDX 23 28 24 29 25 30 89 31 26 32 88 33 27 34 28 35 29 36 82 37
REMARK SMILES IDX 30 38 87 39 81 40 83 41 31 42 86 43 80 44 79 45 32 47 66 48
REMARK SMILES IDX 45 49 65 50 46 51 49 52 64 53 84 54 47 55 48 56 63 58 85 59
REMARK SMILES IDX 50 60 33 61 34 62 43 63 35 64 36 65 42 66 44 67 37 68 38 69
REMARK SMILES IDX 39 70 40 71 41 72 67 73 68 74 77 75 69 76 70 77 76 78 78 79
REMARK SMILES IDX 71 80 72 81 73 82 74 83 75 84 51 85 52 86 61 87 53 88 54 89
REMARK SMILES IDX 60 90 62 91 55 92 56 93 57 94 58 95 59 96
REMARK H PARENT 8 12 5 18 5 19 5 20 12 22 83 46 49 57
REMARK Flexibility Score: inf
ROOT
ATOM      1  C   UNL A   1      44.518  20.298  25.209  1.00  0.00     0.202 C 
ENDROOT
BRANCH   1   2
ATOM      2  C   UNL A   1      43.411  19.259  25.404  1.00  0.00     0.261 C 
BRANCH   2   3
ATOM      3  O   UNL A   1      42.539  19.607  26.483  1.00  0.00    -0.461 OA
BRANCH   3   4
ATOM      4  C   UNL A   1      41.252  19.885  26.136  1.00  0.00     0.339 C 
ATOM      5  O   UNL A   1      40.419  19.075  25.737  1.00  0.00    -0.249 OA
BRANCH   4   6
ATOM      6  C   UNL A   1      40.934  21.377  26.334  1.00  0.00     0.176 C 
ATOM      7  C   UNL A   1      41.364  21.771  27.756  1.00  0.00     0.057 C 
BRANCH   6   8
ATOM      8  C   UNL A   1      39.407  21.517  26.190  1.00  0.00     0.163 C 
BRANCH   8   9
ATOM      9  N   UNL A   1      38.884  22.828  26.534  1.00  0.00    -0.347 N 
ATOM     10  C   UNL A   1      37.763  23.513  26.174  1.00  0.00     0.281 C 
ATOM     11  O   UNL A   1      37.669  24.630  26.699  1.00  0.00    -0.268 OA
ATOM     12  H   UNL A   1      39.461  23.325  27.157  1.00  0.00     0.163 HD
BRANCH  10  13
ATOM     13  C   UNL A   1      36.645  22.970  25.216  1.00  0.00     0.170 C 
ATOM     14  C   UNL A   1      35.546  24.065  25.148  1.00  0.00     0.090 C 
BRANCH  13  15
ATOM     15  C   UNL A   1      35.941  21.685  25.717  1.00  0.00     0.075 C 
ATOM     16  C   UNL A   1      34.658  21.814  26.523  1.00  0.00     0.011 C 
ENDBRANCH  13  15
BRANCH  13  17
ATOM     17  N   UNL A   1      37.139  22.851  23.831  1.00  0.00    -0.345 N 
ATOM     18  H   UNL A   1      36.758  23.610  23.267  1.00  0.00     0.345 HD
ATOM     19  H   UNL A   1      36.843  21.956  23.440  1.00  0.00     0.345 HD
ATOM     20  H   UNL A   1      38.157  22.903  23.828  1.00  0.00     0.345 HD
ENDBRANCH  13  17
ENDBRANCH  10  13
ENDBRANCH   8   9
ENDBRANCH   6   8
BRANCH   6  21
ATOM     21  O   UNL A   1      41.640  22.272  25.469  1.00  0.00    -0.377 OA
ATOM     22  H   UNL A   1      42.082  21.764  24.771  1.00  0.00     0.212 HD
ENDBRANCH   6  21
ENDBRANCH   4   6
ENDBRANCH   3   4
ENDBRANCH   2   3
ENDBRANCH   1   2
BRANCH   1  23
ATOM     23  O   UNL A   1      44.391  21.546  25.888  1.00  0.00    -0.374 OA
BRANCH  23  24
ATOM     24  C   UNL A   1      44.977  22.704  25.296  1.00  0.00     0.202 C 
BRANCH  24  25
ATOM     25  C   UNL A   1      44.843  24.054  26.011  1.00  0.00     0.261 C 
BRANCH  25  26
ATOM     26  O   UNL A   1      43.532  24.313  26.537  1.00  0.00    -0.460 OA
BRANCH  26  27
ATOM     27  C   UNL A   1      42.931  25.424  26.048  1.00  0.00     0.338 C 
ATOM     28  O   UNL A   1      42.693  25.683  24.874  1.00  0.00    -0.246 OA
BRANCH  27  29
ATOM     29  C   UNL A   1      42.440  26.259  27.153  1.00  0.00     0.060 A 
ATOM     30  C   UNL A   1      43.048  27.504  27.362  1.00  0.00     0.016 A 
ATOM     31  C   UNL A   1      41.461  25.787  28.029  1.00  0.00     0.016 A 
ATOM     32  C   UNL A   1      42.686  28.279  28.462  1.00  0.00     0.010 A 
ATOM     33  C   UNL A   1      41.111  26.559  29.139  1.00  0.00     0.010 A 
ATOM     34  C   UNL A   1      41.734  27.798  29.372  1.00  0.00    -0.014 A 
BRANCH  34  35
ATOM     35  C   UNL A   1      41.444  28.554  30.613  1.00  0.00     0.031 A 
ATOM     36  C   UNL A   1      40.310  29.539  30.628  1.00  0.00     0.074 A 
ATOM     37  C   UNL A   1      42.200  28.366  31.709  1.00  0.00     0.049 A 
ATOM     38  N   UNL A   1      39.948  30.370  31.570  1.00  0.00    -0.248 NA
ATOM     39  C   UNL A   1      39.471  29.596  29.419  1.00  0.00     0.031 C 
ATOM     40  C   UNL A   1      43.302  27.410  31.817  1.00  0.00     0.029 A 
ATOM     41  N   UNL A   1      42.169  28.985  32.932  1.00  0.00    -0.354 N 
ATOM     42  C   UNL A   1      38.848  31.056  31.069  1.00  0.00     0.074 A 
ATOM     43  C   UNL A   1      38.611  30.556  29.731  1.00  0.00     0.031 C 
ATOM     44  C   UNL A   1      43.858  27.524  33.035  1.00  0.00     0.029 A 
ATOM     45  C   UNL A   1      43.178  28.585  33.774  1.00  0.00     0.049 A 
ATOM     46  H   UNL A   1      41.488  29.651  33.182  1.00  0.00     0.167 HD
ATOM     47  C   UNL A   1      38.105  32.013  31.674  1.00  0.00     0.037 A 
ATOM     48  C   UNL A   1      43.537  29.052  34.986  1.00  0.00     0.037 A 
ATOM     49  C   UNL A   1      38.355  32.503  33.006  1.00  0.00     0.049 A 
ATOM     50  C   UNL A   1      42.750  30.179  35.603  1.00  0.00     0.074 A 
ATOM     51  C   UNL A   1      37.639  33.446  33.723  1.00  0.00     0.029 A 
ATOM     52  N   UNL A   1      39.408  32.103  33.813  1.00  0.00    -0.354 N 
ATOM     53  N   UNL A   1      41.692  30.799  35.135  1.00  0.00    -0.248 NA
ATOM     54  C   UNL A   1      43.210  30.677  36.907  1.00  0.00     0.031 C 
ATOM     55  C   UNL A   1      38.292  33.655  34.942  1.00  0.00     0.029 A 
ATOM     56  C   UNL A   1      39.387  32.808  35.006  1.00  0.00     0.049 A 
ATOM     57  H   UNL A   1      40.074  31.418  33.574  1.00  0.00     0.167 HD
ATOM     58  C   UNL A   1      41.355  31.753  36.088  1.00  0.00     0.074 A 
ATOM     59  C   UNL A   1      42.309  31.615  37.170  1.00  0.00     0.031 C 
ATOM     60  C   UNL A   1      40.350  32.663  36.070  1.00  0.00     0.037 A 
BRANCH  47  61
ATOM     61  C   UNL A   1      36.972  32.617  30.893  1.00  0.00     0.058 A 
ATOM     62  C   UNL A   1      35.640  32.223  31.097  1.00  0.00     0.135 A 
ATOM     63  C   UNL A   1      37.217  33.637  29.959  1.00  0.00     0.135 A 
ATOM     64  F   UNL A   1      35.351  31.242  31.967  1.00  0.00    -0.206 F 
ATOM     65  C   UNL A   1      34.593  32.803  30.388  1.00  0.00     0.059 A 
ATOM     66  C   UNL A   1      36.183  34.247  29.254  1.00  0.00     0.059 A 
ATOM     67  F   UNL A   1      38.471  34.050  29.723  1.00  0.00    -0.206 F 
ATOM     68  C   UNL A   1      34.874  33.815  29.468  1.00  0.00     0.060 A 
BRANCH  68  69
ATOM     69  S   UNL A   1      33.504  34.566  28.563  1.00  0.00     0.124 S 
ATOM     70  O   UNL A   1      32.600  34.926  29.650  1.00  0.00    -0.237 OA
ATOM     71  O   UNL A   1      34.153  35.682  27.883  1.00  0.00    -0.237 OA
ATOM     72  O   UNL A   1      33.039  33.490  27.692  1.00  0.00    -0.744 OA
ENDBRANCH  68  69
ENDBRANCH  47  61
BRANCH  48  73
ATOM     73  C   UNL A   1      44.725  28.481  35.678  1.00  0.00     0.058 A 
ATOM     74  C   UNL A   1      44.593  27.430  36.596  1.00  0.00     0.135 A 
ATOM     75  C   UNL A   1      46.015  28.973  35.427  1.00  0.00     0.135 A 
ATOM     76  F   UNL A   1      43.379  26.937  36.881  1.00  0.00    -0.206 F 
ATOM     77  C   UNL A   1      45.698  26.890  37.248  1.00  0.00     0.059 A 
ATOM     78  C   UNL A   1      47.138  28.432  36.046  1.00  0.00     0.059 A 
ATOM     79  F   UNL A   1      46.195  29.978  34.555  1.00  0.00    -0.206 F 
ATOM     80  C   UNL A   1      46.968  27.396  36.963  1.00  0.00     0.060 A 
BRANCH  80  81
ATOM     81  S   UNL A   1      48.399  26.656  37.780  1.00  0.00     0.124 S 
ATOM     82  O   UNL A   1      48.055  25.239  37.750  1.00  0.00    -0.237 OA
ATOM     83  O   UNL A   1      49.496  27.065  36.908  1.00  0.00    -0.237 OA
ATOM     84  O   UNL A   1      48.393  27.279  39.100  1.00  0.00    -0.744 OA
ENDBRANCH  80  81
ENDBRANCH  48  73
BRANCH  60  85
ATOM     85  C   UNL A   1      40.225  33.584  37.253  1.00  0.00     0.058 A 
ATOM     86  C   UNL A   1      39.389  33.273  38.336  1.00  0.00     0.135 A 
ATOM     87  C   UNL A   1      40.998  34.754  37.334  1.00  0.00     0.135 A 
ATOM     88  F   UNL A   1      38.622  32.172  38.304  1.00  0.00    -0.206 F 
ATOM     89  C   UNL A   1      39.312  34.097  39.454  1.00  0.00     0.059 A 
ATOM     90  C   UNL A   1      40.957  35.579  38.455  1.00  0.00     0.059 A 
ATOM     91  F   UNL A   1      41.821  35.092  36.329  1.00  0.00    -0.206 F 
ATOM     92  C   UNL A   1      40.105  35.246  39.506  1.00  0.00     0.060 A 
BRANCH  92  93
ATOM     93  S   UNL A   1      40.032  36.279  40.985  1.00  0.00     0.124 S 
ATOM     94  O   UNL A   1      40.796  35.483  41.940  1.00  0.00    -0.237 OA
ATOM     95  O   UNL A   1      40.670  37.514  40.536  1.00  0.00    -0.237 OA
ATOM     96  O   UNL A   1      38.601  36.385  41.257  1.00  0.00    -0.744 OA
ENDBRANCH  92  93
ENDBRANCH  60  85
ENDBRANCH  34  35
ENDBRANCH  27  29
ENDBRANCH  26  27
ENDBRANCH  25  26
ENDBRANCH  24  25
ENDBRANCH  23  24
ENDBRANCH   1  23
TORSDOF 23
ENDMDL
MODEL 3
REMARK VINA RESULT:      -9.0      6.330     12.973
REMARK SMILES CC[C@](C)([NH3+])C(=O)NC[C@](C)(O)C(=O)OCCOCCOC(=O)c1ccc(-c2c3nc(c(-c4c(F)cc(S(=O)(=O)[O-])cc4F)c4ccc([nH]4)c(-c4c(F)cc(S(=O)(=O)[O-])cc4F)c4nc(c(-c5c(F)cc(S(=O)(=O)[O-])cc5F)c5ccc2[nH]5)C=C4)C=C3)cc1
REMARK SMILES IDX 17 1 16 2 15 3 13 4 14 5 10 6 11 7 9 8 8 9 6 10 7 11 3 13
REMARK SMILES IDX 4 14 2 15 1 16 5 17 12 21 18 23 19 24 20 25 21 26 22 27
REMARK SMILES IDX 23 28 24 29 25 30 89 31 26 32 88 33 27 34 28 35 29 36 82 37
REMARK SMILES IDX 30 38 87 39 81 40 83 41 31 42 86 43 80 44 79 45 32 47 66 48
REMARK SMILES IDX 45 49 65 50 46 51 49 52 64 53 84 54 47 55 48 56 63 58 85 59
REMARK SMILES IDX 50 60 33 61 34 62 43 63 35 64 36 65 42 66 44 67 37 68 38 69
REMARK SMILES IDX 39 70 40 71 41 72 67 73 68 74 77 75 69 76 70 77 76 78 78 79
REMARK SMILES IDX 71 80 72 81 73 82 74 83 75 84 51 85 52 86 61 87 53 88 54 89
REMARK SMILES IDX 60 90 62 91 55 92 56 93 57 94 58 95 59 96
REMARK H PARENT 8 12 5 18 5 19 5 20 12 22 83 46 49 57
REMARK Flexibility Score: inf
ROOT
ATOM      1  C   UNL A   1      44.025  20.016  25.340  1.00  0.00     0.202 C 
ENDROOT
BRANCH   1   2
ATOM      2  C   UNL A   1      43.017  18.960  25.802  1.00  0.00     0.261 C 
BRANCH   2   3
ATOM      3  O   UNL A   1      42.046  19.507  26.698  1.00  0.00    -0.461 OA
BRANCH   3   4
ATOM      4  C   UNL A   1      40.832  19.793  26.150  1.00  0.00     0.339 C 
ATOM      5  O   UNL A   1      40.048  18.981  25.667  1.00  0.00    -0.249 OA
BRANCH   4   6
ATOM      6  C   UNL A   1      40.528  21.299  26.232  1.00  0.00     0.176 C 
ATOM      7  C   UNL A   1      40.682  21.738  27.697  1.00  0.00     0.057 C 
BRANCH   6   8
ATOM      8  C   UNL A   1      39.064  21.469  25.786  1.00  0.00     0.163 C 
BRANCH   8   9
ATOM      9  N   UNL A   1      38.456  22.731  26.170  1.00  0.00    -0.347 N 
ATOM     10  C   UNL A   1      37.344  23.400  25.756  1.00  0.00     0.281 C 
ATOM     11  O   UNL A   1      37.155  24.471  26.347  1.00  0.00    -0.268 OA
ATOM     12  H   UNL A   1      38.953  23.202  26.877  1.00  0.00     0.163 HD
BRANCH  10  13
ATOM     13  C   UNL A   1      36.340  22.888  24.663  1.00  0.00     0.170 C 
ATOM     14  C   UNL A   1      35.226  23.963  24.544  1.00  0.00     0.090 C 
BRANCH  13  15
ATOM     15  C   UNL A   1      35.624  21.563  25.022  1.00  0.00     0.075 C 
ATOM     16  C   UNL A   1      34.784  21.498  26.288  1.00  0.00     0.011 C 
ENDBRANCH  13  15
BRANCH  13  17
ATOM     17  N   UNL A   1      36.972  22.856  23.331  1.00  0.00    -0.345 N 
ATOM     18  H   UNL A   1      37.605  22.059  23.273  1.00  0.00     0.345 HD
ATOM     19  H   UNL A   1      37.497  23.718  23.182  1.00  0.00     0.345 HD
ATOM     20  H   UNL A   1      36.251  22.769  22.615  1.00  0.00     0.345 HD
ENDBRANCH  13  17
ENDBRANCH  10  13
ENDBRANCH   8   9
ENDBRANCH   6   8
BRANCH   6  21
ATOM     21  O   UNL A   1      41.416  22.143  25.494  1.00  0.00    -0.377 OA
ATOM     22  H   UNL A   1      40.921  22.894  25.130  1.00  0.00     0.212 HD
ENDBRANCH   6  21
ENDBRANCH   4   6
ENDBRANCH   3   4
ENDBRANCH   2   3
ENDBRANCH   1   2
BRANCH   1  23
ATOM     23  O   UNL A   1      44.139  21.213  26.108  1.00  0.00    -0.374 OA
BRANCH  23  24
ATOM     24  C   UNL A   1      44.793  22.336  25.521  1.00  0.00     0.202 C 
BRANCH  24  25
ATOM     25  C   UNL A   1      44.739  23.689  26.242  1.00  0.00     0.261 C 
BRANCH  25  26
ATOM     26  O   UNL A   1      43.491  23.952  26.903  1.00  0.00    -0.460 OA
BRANCH  26  27
ATOM     27  C   UNL A   1      42.727  24.904  26.317  1.00  0.00     0.338 C 
ATOM     28  O   UNL A   1      42.301  24.910  25.167  1.00  0.00    -0.246 OA
BRANCH  27  29
ATOM     29  C   UNL A   1      42.322  25.908  27.312  1.00  0.00     0.060 A 
ATOM     30  C   UNL A   1      42.990  27.139  27.319  1.00  0.00     0.016 A 
ATOM     31  C   UNL A   1      41.364  25.609  28.283  1.00  0.00     0.016 A 
ATOM     32  C   UNL A   1      42.711  28.076  28.311  1.00  0.00     0.010 A 
ATOM     33  C   UNL A   1      41.098  26.545  29.286  1.00  0.00     0.010 A 
ATOM     34  C   UNL A   1      41.783  27.773  29.317  1.00  0.00    -0.014 A 
BRANCH  34  35
ATOM     35  C   UNL A   1      41.582  28.708  30.448  1.00  0.00     0.031 A 
ATOM     36  C   UNL A   1      42.448  28.584  31.670  1.00  0.00     0.074 A 
ATOM     37  C   UNL A   1      40.623  29.648  30.383  1.00  0.00     0.049 A 
ATOM     38  N   UNL A   1      42.377  29.231  32.804  1.00  0.00    -0.248 NA
ATOM     39  C   UNL A   1      43.541  27.600  31.605  1.00  0.00     0.031 C 
ATOM     40  C   UNL A   1      39.749  29.882  29.234  1.00  0.00     0.029 A 
ATOM     41  N   UNL A   1      40.210  30.568  31.313  1.00  0.00    -0.354 N 
ATOM     42  C   UNL A   1      43.405  28.728  33.592  1.00  0.00     0.074 A 
ATOM     43  C   UNL A   1      44.076  27.709  32.813  1.00  0.00     0.031 C 
ATOM     44  C   UNL A   1      38.886  30.866  29.536  1.00  0.00     0.029 A 
ATOM     45  C   UNL A   1      39.121  31.303  30.910  1.00  0.00     0.049 A 
ATOM     46  H   UNL A   1      40.652  30.691  32.184  1.00  0.00     0.167 HD
ATOM     47  C   UNL A   1      43.754  29.088  34.850  1.00  0.00     0.037 A 
ATOM     48  C   UNL A   1      38.373  32.195  31.590  1.00  0.00     0.037 A 
ATOM     49  C   UNL A   1      43.074  30.101  35.615  1.00  0.00     0.049 A 
ATOM     50  C   UNL A   1      38.727  32.515  33.018  1.00  0.00     0.074 A 
ATOM     51  C   UNL A   1      43.372  30.565  36.885  1.00  0.00     0.029 A 
ATOM     52  N   UNL A   1      41.952  30.796  35.190  1.00  0.00    -0.354 N 
ATOM     53  N   UNL A   1      39.720  32.058  33.744  1.00  0.00    -0.248 NA
ATOM     54  C   UNL A   1      37.854  33.463  33.725  1.00  0.00     0.031 C 
ATOM     55  C   UNL A   1      42.398  31.501  37.248  1.00  0.00     0.029 A 
ATOM     56  C   UNL A   1      41.520  31.657  36.187  1.00  0.00     0.049 A 
ATOM     57  H   UNL A   1      41.525  30.694  34.309  1.00  0.00     0.167 HD
ATOM     58  C   UNL A   1      39.597  32.668  34.987  1.00  0.00     0.074 A 
ATOM     59  C   UNL A   1      38.445  33.543  34.909  1.00  0.00     0.031 C 
ATOM     60  C   UNL A   1      40.365  32.516  36.095  1.00  0.00     0.037 A 
BRANCH  47  61
ATOM     61  C   UNL A   1      44.903  28.362  35.492  1.00  0.00     0.058 A 
ATOM     62  C   UNL A   1      46.221  28.833  35.398  1.00  0.00     0.135 A 
ATOM     63  C   UNL A   1      44.675  27.201  36.250  1.00  0.00     0.135 A 
ATOM     64  F   UNL A   1      46.498  29.929  34.673  1.00  0.00    -0.206 F 
ATOM     65  C   UNL A   1      47.277  28.168  36.015  1.00  0.00     0.059 A 
ATOM     66  C   UNL A   1      45.713  26.533  36.894  1.00  0.00     0.059 A 
ATOM     67  F   UNL A   1      43.434  26.705  36.370  1.00  0.00    -0.206 F 
ATOM     68  C   UNL A   1      47.013  27.018  36.761  1.00  0.00     0.060 A 
BRANCH  68  69
ATOM     69  S   UNL A   1      48.392  26.173  37.564  1.00  0.00     0.124 S 
ATOM     70  O   UNL A   1      49.441  27.185  37.481  1.00  0.00    -0.237 OA
ATOM     71  O   UNL A   1      47.865  25.915  38.900  1.00  0.00    -0.237 OA
ATOM     72  O   UNL A   1      48.597  24.989  36.735  1.00  0.00    -0.744 OA
ENDBRANCH  68  69
ENDBRANCH  47  61
BRANCH  48  73
ATOM     73  C   UNL A   1      37.189  32.818  30.937  1.00  0.00     0.058 A 
ATOM     74  C   UNL A   1      37.339  33.831  29.979  1.00  0.00     0.135 A 
ATOM     75  C   UNL A   1      35.886  32.406  31.255  1.00  0.00     0.135 A 
ATOM     76  F   UNL A   1      38.564  34.269  29.653  1.00  0.00    -0.206 F 
ATOM     77  C   UNL A   1      36.238  34.420  29.364  1.00  0.00     0.059 A 
ATOM     78  C   UNL A   1      34.770  32.960  30.635  1.00  0.00     0.059 A 
ATOM     79  F   UNL A   1      35.689  31.439  32.165  1.00  0.00    -0.206 F 
ATOM     80  C   UNL A   1      34.957  33.974  29.696  1.00  0.00     0.060 A 
BRANCH  80  81
ATOM     81  S   UNL A   1      33.538  34.714  28.858  1.00  0.00     0.124 S 
ATOM     82  O   UNL A   1      32.586  34.847  29.954  1.00  0.00    -0.237 OA
ATOM     83  O   UNL A   1      34.099  35.960  28.346  1.00  0.00    -0.237 OA
ATOM     84  O   UNL A   1      33.195  33.726  27.840  1.00  0.00    -0.744 OA
ENDBRANCH  80  81
ENDBRANCH  48  73
BRANCH  60  85
ATOM     85  C   UNL A   1      39.989  33.311  37.315  1.00  0.00     0.058 A 
ATOM     86  C   UNL A   1      40.680  34.480  37.668  1.00  0.00     0.135 A 
ATOM     87  C   UNL A   1      38.887  32.937  38.102  1.00  0.00     0.135 A 
ATOM     88  F   UNL A   1      41.746  34.876  36.955  1.00  0.00    -0.206 F 
ATOM     89  C   UNL A   1      40.301  35.245  38.765  1.00  0.00     0.059 A 
ATOM     90  C   UNL A   1      38.474  33.702  39.189  1.00  0.00     0.059 A 
ATOM     91  F   UNL A   1      38.186  31.832  37.802  1.00  0.00    -0.206 F 
ATOM     92  C   UNL A   1      39.192  34.850  39.517  1.00  0.00     0.060 A 
BRANCH  92  93
ATOM     93  S   UNL A   1      38.681  35.880  40.909  1.00  0.00     0.124 S 
ATOM     94  O   UNL A   1      38.421  37.156  40.253  1.00  0.00    -0.237 OA
ATOM     95  O   UNL A   1      37.506  35.172  41.408  1.00  0.00    -0.237 OA
ATOM     96  O   UNL A   1      39.842  35.855  41.796  1.00  0.00    -0.744 OA
ENDBRANCH  92  93
ENDBRANCH  60  85
ENDBRANCH  34  35
ENDBRANCH  27  29
ENDBRANCH  26  27
ENDBRANCH  25  26
ENDBRANCH  24  25
ENDBRANCH  23  24
ENDBRANCH   1  23
TORSDOF 23
ENDMDL
