MODEL 1
REMARK VINA RESULT:     -10.6      0.000      0.000
REMARK SMILES CCc1sc(NC(=O)[C@H]2CC(C)=C(C)C[C@H]2C(=O)OCCOCCOC(=O)c2ccc(-c3c4nc(c(-c5c(F)cc(S(=O)(=O)[O-])cc5F)c5ccc([nH]5)c(-c5c(F)cc(S(=O)(=O)[O-])cc5F)c5nc(c(-c6c(F)cc(S(=O)(=O)[O-])cc6F)c6ccc3[nH]6)C=C5)C=C4)cc2)nc1-c1ccccc1
REMARK SMILES IDX 22 1 21 2 20 3 19 4 17 5 18 6 16 7 9 8 10 9 11 10 15 11
REMARK SMILES IDX 12 12 13 13 14 14 7 15 6 16 8 18 5 19 3 20 4 21 95 22 94 23
REMARK SMILES IDX 2 24 1 25 96 26 97 27 101 28 98 29 100 30 99 31 23 32 24 33
REMARK SMILES IDX 25 34 26 35 27 36 28 37 29 38 93 39 30 40 92 41 31 42 32 43
REMARK SMILES IDX 33 44 86 45 34 46 91 47 85 48 87 49 35 50 90 51 84 52 83 53
REMARK SMILES IDX 36 55 70 56 49 57 69 58 50 59 53 60 68 61 88 62 51 63 52 64
REMARK SMILES IDX 67 66 89 67 54 68 37 69 38 70 47 71 39 72 40 73 46 74 48 75
REMARK SMILES IDX 41 76 42 77 43 78 44 79 45 80 71 81 72 82 81 83 73 84 74 85
REMARK SMILES IDX 80 86 82 87 75 88 76 89 77 90 78 91 79 92 55 93 56 94 65 95
REMARK SMILES IDX 57 96 58 97 64 98 66 99 59 100 60 101 61 102 62 103 63 104
REMARK H PARENT 6 17 87 54 53 65
REMARK Flexibility Score: inf
ROOT
ATOM      1  O   UNL A   1      34.759  32.685  27.608  1.00  0.00    -0.374 OA
ENDROOT
BRANCH   1   2
ATOM      2  C   UNL A   1      33.835  31.811  28.264  1.00  0.00     0.202 C 
BRANCH   2   3
ATOM      3  C   UNL A   1      33.065  30.886  27.303  1.00  0.00     0.261 C 
BRANCH   3   4
ATOM      4  O   UNL A   1      33.925  30.030  26.508  1.00  0.00    -0.463 OA
BRANCH   4   5
ATOM      5  C   UNL A   1      33.616  28.725  26.342  1.00  0.00     0.310 C 
ATOM      6  O   UNL A   1      34.389  27.798  26.545  1.00  0.00    -0.252 OA
BRANCH   5   7
ATOM      7  C   UNL A   1      32.201  28.520  25.787  1.00  0.00     0.116 C 
ATOM      8  C   UNL A   1      32.007  28.654  24.266  1.00  0.00     0.097 C 
ATOM      9  C   UNL A   1      30.784  27.965  23.649  1.00  0.00     0.045 C 
ATOM     10  C   UNL A   1      30.189  26.802  24.400  1.00  0.00    -0.074 C 
ATOM     11  C   UNL A   1      31.524  27.322  26.469  1.00  0.00     0.046 C 
ATOM     12  C   UNL A   1      29.248  25.962  23.563  1.00  0.00     0.039 C 
ATOM     13  C   UNL A   1      30.516  26.525  25.678  1.00  0.00    -0.073 C 
ATOM     14  C   UNL A   1      29.908  25.377  26.448  1.00  0.00     0.039 C 
BRANCH   8  15
ATOM     15  C   UNL A   1      33.227  28.583  23.351  1.00  0.00     0.230 C 
ATOM     16  N   UNL A   1      33.672  27.462  22.730  1.00  0.00    -0.302 N 
ATOM     17  H   UNL A   1      34.296  27.584  21.979  1.00  0.00     0.172 HD
ATOM     18  O   UNL A   1      33.865  29.627  23.142  1.00  0.00    -0.274 OA
BRANCH  16  19
ATOM     19  C   UNL A   1      33.335  26.184  23.050  1.00  0.00     0.190 A 
ATOM     20  C   UNL A   1      32.925  23.811  22.925  1.00  0.00     0.034 A 
ATOM     21  S   UNL A   1      33.039  25.106  21.786  1.00  0.00    -0.101 S 
ATOM     22  C   UNL A   1      33.338  24.287  24.165  1.00  0.00     0.087 A 
ATOM     23  N   UNL A   1      33.630  25.634  24.192  1.00  0.00    -0.220 NA
BRANCH  20  24
ATOM     24  C   UNL A   1      32.617  22.446  22.391  1.00  0.00     0.046 C 
ATOM     25  C   UNL A   1      31.929  21.526  23.379  1.00  0.00     0.010 C 
ENDBRANCH  20  24
BRANCH  22  26
ATOM     26  C   UNL A   1      33.845  23.467  25.250  1.00  0.00     0.001 A 
ATOM     27  C   UNL A   1      33.034  23.400  26.369  1.00  0.00     0.010 A 
ATOM     28  C   UNL A   1      34.962  22.637  25.205  1.00  0.00     0.010 A 
ATOM     29  C   UNL A   1      33.348  22.597  27.462  1.00  0.00     0.001 A 
ATOM     30  C   UNL A   1      35.261  21.798  26.297  1.00  0.00     0.001 A 
ATOM     31  C   UNL A   1      34.460  21.789  27.432  1.00  0.00     0.000 A 
ENDBRANCH  22  26
ENDBRANCH  16  19
ENDBRANCH   8  15
ENDBRANCH   5   7
ENDBRANCH   4   5
ENDBRANCH   3   4
ENDBRANCH   2   3
ENDBRANCH   1   2
BRANCH   1  32
ATOM     32  C   UNL A   1      34.750  34.021  28.102  1.00  0.00     0.202 C 
BRANCH  32  33
ATOM     33  C   UNL A   1      33.418  34.463  28.733  1.00  0.00     0.261 C 
BRANCH  33  34
ATOM     34  O   UNL A   1      33.509  35.674  29.533  1.00  0.00    -0.460 OA
BRANCH  34  35
ATOM     35  C   UNL A   1      33.185  35.521  30.846  1.00  0.00     0.338 C 
ATOM     36  O   UNL A   1      32.161  35.954  31.374  1.00  0.00    -0.246 OA
BRANCH  35  37
ATOM     37  C   UNL A   1      34.167  34.715  31.635  1.00  0.00     0.060 A 
ATOM     38  C   UNL A   1      35.445  35.261  31.795  1.00  0.00     0.016 A 
ATOM     39  C   UNL A   1      33.931  33.423  32.130  1.00  0.00     0.016 A 
ATOM     40  C   UNL A   1      36.456  34.544  32.456  1.00  0.00     0.010 A 
ATOM     41  C   UNL A   1      34.953  32.705  32.811  1.00  0.00     0.010 A 
ATOM     42  C   UNL A   1      36.225  33.267  33.012  1.00  0.00    -0.014 A 
BRANCH  42  43
ATOM     43  C   UNL A   1      37.404  32.542  33.618  1.00  0.00     0.031 A 
ATOM     44  C   UNL A   1      38.169  31.647  32.700  1.00  0.00     0.074 A 
ATOM     45  C   UNL A   1      37.877  32.712  34.878  1.00  0.00     0.049 A 
ATOM     46  N   UNL A   1      39.265  30.980  32.932  1.00  0.00    -0.248 NA
ATOM     47  C   UNL A   1      37.555  31.392  31.389  1.00  0.00     0.031 C 
ATOM     48  C   UNL A   1      37.158  33.334  35.972  1.00  0.00     0.029 A 
ATOM     49  N   UNL A   1      39.115  32.469  35.447  1.00  0.00    -0.354 N 
ATOM     50  C   UNL A   1      39.433  30.162  31.826  1.00  0.00     0.074 A 
ATOM     51  C   UNL A   1      38.330  30.426  30.927  1.00  0.00     0.031 C 
ATOM     52  C   UNL A   1      38.010  33.705  36.940  1.00  0.00     0.029 A 
ATOM     53  C   UNL A   1      39.312  33.121  36.660  1.00  0.00     0.049 A 
ATOM     54  H   UNL A   1      39.795  31.890  35.031  1.00  0.00     0.167 HD
ATOM     55  C   UNL A   1      40.402  29.245  31.610  1.00  0.00     0.037 A 
ATOM     56  C   UNL A   1      40.385  33.192  37.486  1.00  0.00     0.037 A 
ATOM     57  C   UNL A   1      41.457  28.972  32.548  1.00  0.00     0.049 A 
ATOM     58  C   UNL A   1      41.503  32.229  37.190  1.00  0.00     0.074 A 
ATOM     59  C   UNL A   1      42.480  28.049  32.453  1.00  0.00     0.029 A 
ATOM     60  N   UNL A   1      41.619  29.625  33.768  1.00  0.00    -0.354 N 
ATOM     61  N   UNL A   1      41.631  31.427  36.158  1.00  0.00    -0.248 NA
ATOM     62  C   UNL A   1      42.549  32.072  38.209  1.00  0.00     0.031 C 
ATOM     63  C   UNL A   1      43.245  28.125  33.623  1.00  0.00     0.029 A 
ATOM     64  C   UNL A   1      42.735  29.136  34.426  1.00  0.00     0.049 A 
ATOM     65  H   UNL A   1      41.026  30.332  34.112  1.00  0.00     0.167 HD
ATOM     66  C   UNL A   1      42.739  30.639  36.420  1.00  0.00     0.074 A 
ATOM     67  C   UNL A   1      43.280  31.092  37.690  1.00  0.00     0.031 C 
ATOM     68  C   UNL A   1      43.244  29.614  35.690  1.00  0.00     0.037 A 
BRANCH  55  69
ATOM     69  C   UNL A   1      40.272  28.450  30.342  1.00  0.00     0.058 A 
ATOM     70  C   UNL A   1      39.411  27.342  30.256  1.00  0.00     0.135 A 
ATOM     71  C   UNL A   1      41.117  28.709  29.251  1.00  0.00     0.135 A 
ATOM     72  F   UNL A   1      38.611  27.026  31.288  1.00  0.00    -0.206 F 
ATOM     73  C   UNL A   1      39.446  26.478  29.169  1.00  0.00     0.059 A 
ATOM     74  C   UNL A   1      41.138  27.880  28.134  1.00  0.00     0.059 A 
ATOM     75  F   UNL A   1      41.969  29.745  29.284  1.00  0.00    -0.206 F 
ATOM     76  C   UNL A   1      40.323  26.748  28.118  1.00  0.00     0.060 A 
BRANCH  76  77
ATOM     77  S   UNL A   1      40.399  25.585  26.740  1.00  0.00     0.124 S 
ATOM     78  O   UNL A   1      40.833  26.453  25.650  1.00  0.00    -0.237 OA
ATOM     79  O   UNL A   1      41.384  24.614  27.207  1.00  0.00    -0.237 OA
ATOM     80  O   UNL A   1      39.031  25.088  26.642  1.00  0.00    -0.744 OA
ENDBRANCH  76  77
ENDBRANCH  55  69
BRANCH  56  81
ATOM     81  C   UNL A   1      40.416  34.060  38.717  1.00  0.00     0.058 A 
ATOM     82  C   UNL A   1      41.105  35.290  38.743  1.00  0.00     0.135 A 
ATOM     83  C   UNL A   1      39.752  33.696  39.901  1.00  0.00     0.135 A 
ATOM     84  F   UNL A   1      41.818  35.682  37.676  1.00  0.00    -0.206 F 
ATOM     85  C   UNL A   1      41.090  36.132  39.863  1.00  0.00     0.059 A 
ATOM     86  C   UNL A   1      39.686  34.536  41.012  1.00  0.00     0.059 A 
ATOM     87  F   UNL A   1      39.123  32.514  39.981  1.00  0.00    -0.206 F 
ATOM     88  C   UNL A   1      40.353  35.756  40.985  1.00  0.00     0.060 A 
BRANCH  88  89
ATOM     89  S   UNL A   1      40.213  36.900  42.384  1.00  0.00     0.124 S 
ATOM     90  O   UNL A   1      41.611  37.206  42.662  1.00  0.00    -0.237 OA
ATOM     91  O   UNL A   1      39.421  37.986  41.816  1.00  0.00    -0.237 OA
ATOM     92  O   UNL A   1      39.528  36.103  43.398  1.00  0.00    -0.744 OA
ENDBRANCH  88  89
ENDBRANCH  56  81
BRANCH  68  93
ATOM     93  C   UNL A   1      44.490  28.969  36.221  1.00  0.00     0.058 A 
ATOM     94  C   UNL A   1      45.761  29.532  36.040  1.00  0.00     0.135 A 
ATOM     95  C   UNL A   1      44.387  27.777  36.952  1.00  0.00     0.135 A 
ATOM     96  F   UNL A   1      45.908  30.664  35.334  1.00  0.00    -0.206 F 
ATOM     97  C   UNL A   1      46.898  28.919  36.556  1.00  0.00     0.059 A 
ATOM     98  C   UNL A   1      45.505  27.162  37.496  1.00  0.00     0.059 A 
ATOM     99  F   UNL A   1      43.188  27.206  37.150  1.00  0.00    -0.206 F 
ATOM    100  C   UNL A   1      46.758  27.735  37.283  1.00  0.00     0.060 A 
BRANCH 100 101
ATOM    101  S   UNL A   1      48.233  26.957  37.971  1.00  0.00     0.124 S 
ATOM    102  O   UNL A   1      49.016  28.121  38.373  1.00  0.00    -0.237 OA
ATOM    103  O   UNL A   1      47.683  26.154  39.059  1.00  0.00    -0.237 OA
ATOM    104  O   UNL A   1      48.770  26.195  36.848  1.00  0.00    -0.744 OA
ENDBRANCH 100 101
ENDBRANCH  68  93
ENDBRANCH  42  43
ENDBRANCH  35  37
ENDBRANCH  34  35
ENDBRANCH  33  34
ENDBRANCH  32  33
ENDBRANCH   1  32
TORSDOF 21
ENDMDL
MODEL 2
REMARK VINA RESULT:     -10.5      7.040     12.543
REMARK SMILES CCc1sc(NC(=O)[C@H]2CC(C)=C(C)C[C@H]2C(=O)OCCOCCOC(=O)c2ccc(-c3c4nc(c(-c5c(F)cc(S(=O)(=O)[O-])cc5F)c5ccc([nH]5)c(-c5c(F)cc(S(=O)(=O)[O-])cc5F)c5nc(c(-c6c(F)cc(S(=O)(=O)[O-])cc6F)c6ccc3[nH]6)C=C5)C=C4)cc2)nc1-c1ccccc1
REMARK SMILES IDX 22 1 21 2 20 3 19 4 17 5 18 6 16 7 9 8 10 9 11 10 15 11
REMARK SMILES IDX 12 12 13 13 14 14 7 15 6 16 8 18 5 19 3 20 4 21 95 22 94 23
REMARK SMILES IDX 2 24 1 25 96 26 97 27 101 28 98 29 100 30 99 31 23 32 24 33
REMARK SMILES IDX 25 34 26 35 27 36 28 37 29 38 93 39 30 40 92 41 31 42 32 43
REMARK SMILES IDX 33 44 86 45 34 46 91 47 85 48 87 49 35 50 90 51 84 52 83 53
REMARK SMILES IDX 36 55 70 56 49 57 69 58 50 59 53 60 68 61 88 62 51 63 52 64
REMARK SMILES IDX 67 66 89 67 54 68 37 69 38 70 47 71 39 72 40 73 46 74 48 75
REMARK SMILES IDX 41 76 42 77 43 78 44 79 45 80 71 81 72 82 81 83 73 84 74 85
REMARK SMILES IDX 80 86 82 87 75 88 76 89 77 90 78 91 79 92 55 93 56 94 65 95
REMARK SMILES IDX 57 96 58 97 64 98 66 99 59 100 60 101 61 102 62 103 63 104
REMARK H PARENT 6 17 87 54 53 65
REMARK Flexibility Score: inf
ROOT
ATOM      1  O   UNL A   1      39.516  20.091  26.273  1.00  0.00    -0.374 OA
ENDROOT
BRANCH   1   2
ATOM      2  C   UNL A   1      38.881  20.122  24.991  1.00  0.00     0.202 C 
BRANCH   2   3
ATOM      3  C   UNL A   1      37.447  20.684  25.023  1.00  0.00     0.261 C 
BRANCH   3   4
ATOM      4  O   UNL A   1      37.312  21.888  25.821  1.00  0.00    -0.463 OA
BRANCH   4   5
ATOM      5  C   UNL A   1      36.374  22.807  25.507  1.00  0.00     0.310 C 
ATOM      6  O   UNL A   1      36.323  23.936  25.979  1.00  0.00    -0.252 OA
BRANCH   5   7
ATOM      7  C   UNL A   1      35.311  22.261  24.545  1.00  0.00     0.116 C 
ATOM      8  C   UNL A   1      34.138  21.473  25.154  1.00  0.00     0.097 C 
ATOM      9  C   UNL A   1      32.849  21.380  24.328  1.00  0.00     0.045 C 
ATOM     10  C   UNL A   1      32.602  22.455  23.302  1.00  0.00    -0.074 C 
ATOM     11  C   UNL A   1      34.962  23.311  23.478  1.00  0.00     0.046 C 
ATOM     12  C   UNL A   1      31.171  22.501  22.810  1.00  0.00     0.039 C 
ATOM     13  C   UNL A   1      33.563  23.315  22.911  1.00  0.00    -0.073 C 
ATOM     14  C   UNL A   1      33.334  24.381  21.866  1.00  0.00     0.039 C 
BRANCH   8  15
ATOM     15  C   UNL A   1      33.853  21.597  26.648  1.00  0.00     0.230 C 
ATOM     16  N   UNL A   1      32.948  22.441  27.202  1.00  0.00    -0.302 N 
ATOM     17  H   UNL A   1      32.671  22.255  28.128  1.00  0.00     0.172 HD
ATOM     18  O   UNL A   1      34.484  20.866  27.428  1.00  0.00    -0.274 OA
BRANCH  16  19
ATOM     19  C   UNL A   1      32.388  23.522  26.596  1.00  0.00     0.190 A 
ATOM     20  C   UNL A   1      30.806  25.187  25.862  1.00  0.00     0.034 A 
ATOM     21  S   UNL A   1      30.706  23.573  26.471  1.00  0.00    -0.101 S 
ATOM     22  C   UNL A   1      32.118  25.625  26.009  1.00  0.00     0.087 A 
ATOM     23  N   UNL A   1      32.988  24.673  26.494  1.00  0.00    -0.220 NA
BRANCH  20  24
ATOM     24  C   UNL A   1      29.523  25.866  25.491  1.00  0.00     0.046 C 
ATOM     25  C   UNL A   1      29.472  26.372  24.063  1.00  0.00     0.010 C 
ENDBRANCH  20  24
BRANCH  22  26
ATOM     26  C   UNL A   1      32.533  27.014  26.081  1.00  0.00     0.001 A 
ATOM     27  C   UNL A   1      31.836  27.793  26.986  1.00  0.00     0.010 A 
ATOM     28  C   UNL A   1      33.644  27.577  25.458  1.00  0.00     0.010 A 
ATOM     29  C   UNL A   1      32.164  29.126  27.223  1.00  0.00     0.001 A 
ATOM     30  C   UNL A   1      33.998  28.915  25.723  1.00  0.00     0.001 A 
ATOM     31  C   UNL A   1      33.248  29.694  26.596  1.00  0.00     0.000 A 
ENDBRANCH  22  26
ENDBRANCH  16  19
ENDBRANCH   8  15
ENDBRANCH   5   7
ENDBRANCH   4   5
ENDBRANCH   3   4
ENDBRANCH   2   3
ENDBRANCH   1   2
BRANCH   1  32
ATOM     32  C   UNL A   1      40.855  20.577  26.272  1.00  0.00     0.202 C 
BRANCH  32  33
ATOM     33  C   UNL A   1      41.936  19.482  26.291  1.00  0.00     0.261 C 
BRANCH  33  34
ATOM     34  O   UNL A   1      42.643  19.317  25.030  1.00  0.00    -0.460 OA
BRANCH  34  35
ATOM     35  C   UNL A   1      43.983  19.544  25.090  1.00  0.00     0.338 C 
ATOM     36  O   UNL A   1      44.847  18.667  25.084  1.00  0.00    -0.246 OA
BRANCH  35  37
ATOM     37  C   UNL A   1      44.365  20.990  25.114  1.00  0.00     0.060 A 
ATOM     38  C   UNL A   1      45.248  21.391  26.123  1.00  0.00     0.016 A 
ATOM     39  C   UNL A   1      43.828  21.976  24.272  1.00  0.00     0.016 A 
ATOM     40  C   UNL A   1      45.605  22.741  26.273  1.00  0.00     0.010 A 
ATOM     41  C   UNL A   1      44.202  23.341  24.417  1.00  0.00     0.010 A 
ATOM     42  C   UNL A   1      45.122  23.742  25.402  1.00  0.00    -0.014 A 
BRANCH  42  43
ATOM     43  C   UNL A   1      45.491  25.175  25.706  1.00  0.00     0.031 A 
ATOM     44  C   UNL A   1      44.493  25.960  26.491  1.00  0.00     0.074 A 
ATOM     45  C   UNL A   1      46.678  25.767  25.417  1.00  0.00     0.049 A 
ATOM     46  N   UNL A   1      44.590  27.171  26.962  1.00  0.00    -0.248 NA
ATOM     47  C   UNL A   1      43.178  25.330  26.673  1.00  0.00     0.031 C 
ATOM     48  C   UNL A   1      47.660  25.270  24.474  1.00  0.00     0.029 A 
ATOM     49  N   UNL A   1      47.321  26.869  25.952  1.00  0.00    -0.354 N 
ATOM     50  C   UNL A   1      43.324  27.484  27.427  1.00  0.00     0.074 A 
ATOM     51  C   UNL A   1      42.483  26.330  27.187  1.00  0.00     0.031 C 
ATOM     52  C   UNL A   1      48.855  25.835  24.704  1.00  0.00     0.029 A 
ATOM     53  C   UNL A   1      48.677  26.930  25.645  1.00  0.00     0.049 A 
ATOM     54  H   UNL A   1      46.862  27.547  26.500  1.00  0.00     0.167 HD
ATOM     55  C   UNL A   1      42.900  28.648  27.967  1.00  0.00     0.037 A 
ATOM     56  C   UNL A   1      49.651  27.795  26.019  1.00  0.00     0.037 A 
ATOM     57  C   UNL A   1      43.751  29.793  28.147  1.00  0.00     0.049 A 
ATOM     58  C   UNL A   1      49.183  29.053  26.700  1.00  0.00     0.074 A 
ATOM     59  C   UNL A   1      43.430  31.036  28.658  1.00  0.00     0.029 A 
ATOM     60  N   UNL A   1      45.101  29.835  27.810  1.00  0.00    -0.354 N 
ATOM     61  N   UNL A   1      47.969  29.355  27.100  1.00  0.00    -0.248 NA
ATOM     62  C   UNL A   1      50.161  30.137  26.867  1.00  0.00     0.031 C 
ATOM     63  C   UNL A   1      44.578  31.836  28.608  1.00  0.00     0.029 A 
ATOM     64  C   UNL A   1      45.632  31.077  28.119  1.00  0.00     0.049 A 
ATOM     65  H   UNL A   1      45.606  29.090  27.411  1.00  0.00     0.167 HD
ATOM     66  C   UNL A   1      48.022  30.673  27.522  1.00  0.00     0.074 A 
ATOM     67  C   UNL A   1      49.402  31.101  27.375  1.00  0.00     0.031 C 
ATOM     68  C   UNL A   1      47.014  31.465  27.961  1.00  0.00     0.037 A 
BRANCH  55  69
ATOM     69  C   UNL A   1      41.438  28.712  28.306  1.00  0.00     0.058 A 
ATOM     70  C   UNL A   1      40.476  29.065  27.343  1.00  0.00     0.135 A 
ATOM     71  C   UNL A   1      41.008  28.558  29.634  1.00  0.00     0.135 A 
ATOM     72  F   UNL A   1      40.841  29.266  26.066  1.00  0.00    -0.206 F 
ATOM     73  C   UNL A   1      39.160  29.337  27.696  1.00  0.00     0.059 A 
ATOM     74  C   UNL A   1      39.686  28.784  30.003  1.00  0.00     0.059 A 
ATOM     75  F   UNL A   1      41.885  28.234  30.597  1.00  0.00    -0.206 F 
ATOM     76  C   UNL A   1      38.778  29.206  29.032  1.00  0.00     0.060 A 
BRANCH  76  77
ATOM     77  S   UNL A   1      37.080  29.619  29.484  1.00  0.00     0.124 S 
ATOM     78  O   UNL A   1      36.339  29.091  28.344  1.00  0.00    -0.237 OA
ATOM     79  O   UNL A   1      36.909  28.897  30.741  1.00  0.00    -0.237 OA
ATOM     80  O   UNL A   1      37.106  31.074  29.599  1.00  0.00    -0.744 OA
ENDBRANCH  76  77
ENDBRANCH  55  69
BRANCH  56  81
ATOM     81  C   UNL A   1      51.100  27.607  25.651  1.00  0.00     0.058 A 
ATOM     82  C   UNL A   1      52.025  27.027  26.543  1.00  0.00     0.135 A 
ATOM     83  C   UNL A   1      51.604  27.989  24.396  1.00  0.00     0.135 A 
ATOM     84  F   UNL A   1      51.640  26.693  27.784  1.00  0.00    -0.206 F 
ATOM     85  C   UNL A   1      53.360  26.794  26.189  1.00  0.00     0.059 A 
ATOM     86  C   UNL A   1      52.917  27.727  24.004  1.00  0.00     0.059 A 
ATOM     87  F   UNL A   1      50.805  28.602  23.510  1.00  0.00    -0.206 F 
ATOM     88  C   UNL A   1      53.790  27.123  24.904  1.00  0.00     0.060 A 
BRANCH  88  89
ATOM     89  S   UNL A   1      55.474  26.697  24.390  1.00  0.00     0.124 S 
ATOM     90  O   UNL A   1      55.364  26.744  22.936  1.00  0.00    -0.237 OA
ATOM     91  O   UNL A   1      56.263  27.759  25.005  1.00  0.00    -0.237 OA
ATOM     92  O   UNL A   1      55.673  25.370  24.965  1.00  0.00    -0.744 OA
ENDBRANCH  88  89
ENDBRANCH  56  81
BRANCH  68  93
ATOM     93  C   UNL A   1      47.393  32.853  28.385  1.00  0.00     0.058 A 
ATOM     94  C   UNL A   1      47.842  33.145  29.681  1.00  0.00     0.135 A 
ATOM     95  C   UNL A   1      47.329  33.898  27.451  1.00  0.00     0.135 A 
ATOM     96  F   UNL A   1      47.905  32.179  30.611  1.00  0.00    -0.206 F 
ATOM     97  C   UNL A   1      48.201  34.438  30.043  1.00  0.00     0.059 A 
ATOM     98  C   UNL A   1      47.706  35.191  27.784  1.00  0.00     0.059 A 
ATOM     99  F   UNL A   1      46.906  33.660  26.199  1.00  0.00    -0.206 F 
ATOM    100  C   UNL A   1      48.130  35.454  29.086  1.00  0.00     0.060 A 
BRANCH 100 101
ATOM    101  S   UNL A   1      48.620  37.125  29.554  1.00  0.00     0.124 S 
ATOM    102  O   UNL A   1      49.657  36.859  30.545  1.00  0.00    -0.237 OA
ATOM    103  O   UNL A   1      49.081  37.681  28.285  1.00  0.00    -0.237 OA
ATOM    104  O   UNL A   1      47.387  37.707  30.074  1.00  0.00    -0.744 OA
ENDBRANCH 100 101
ENDBRANCH  68  93
ENDBRANCH  42  43
ENDBRANCH  35  37
ENDBRANCH  34  35
ENDBRANCH  33  34
ENDBRANCH  32  33
ENDBRANCH   1  32
TORSDOF 21
ENDMDL
MODEL 3
REMARK VINA RESULT:     -10.3      4.845     12.049
REMARK SMILES CCc1sc(NC(=O)[C@H]2CC(C)=C(C)C[C@H]2C(=O)OCCOCCOC(=O)c2ccc(-c3c4nc(c(-c5c(F)cc(S(=O)(=O)[O-])cc5F)c5ccc([nH]5)c(-c5c(F)cc(S(=O)(=O)[O-])cc5F)c5nc(c(-c6c(F)cc(S(=O)(=O)[O-])cc6F)c6ccc3[nH]6)C=C5)C=C4)cc2)nc1-c1ccccc1
REMARK SMILES IDX 22 1 21 2 20 3 19 4 17 5 18 6 16 7 9 8 10 9 11 10 15 11
REMARK SMILES IDX 12 12 13 13 14 14 7 15 6 16 8 18 5 19 3 20 4 21 95 22 94 23
REMARK SMILES IDX 2 24 1 25 96 26 97 27 101 28 98 29 100 30 99 31 23 32 24 33
REMARK SMILES IDX 25 34 26 35 27 36 28 37 29 38 93 39 30 40 92 41 31 42 32 43
REMARK SMILES IDX 33 44 86 45 34 46 91 47 85 48 87 49 35 50 90 51 84 52 83 53
REMARK SMILES IDX 36 55 70 56 49 57 69 58 50 59 53 60 68 61 88 62 51 63 52 64
REMARK SMILES IDX 67 66 89 67 54 68 37 69 38 70 47 71 39 72 40 73 46 74 48 75
REMARK SMILES IDX 41 76 42 77 43 78 44 79 45 80 71 81 72 82 81 83 73 84 74 85
REMARK SMILES IDX 80 86 82 87 75 88 76 89 77 90 78 91 79 92 55 93 56 94 65 95
REMARK SMILES IDX 57 96 58 97 64 98 66 99 59 100 60 101 61 102 62 103 63 104
REMARK H PARENT 6 17 87 54 53 65
REMARK Flexibility Score: inf
ROOT
ATOM      1  O   UNL A   1      45.482  22.648  26.607  1.00  0.00    -0.374 OA
ENDROOT
BRANCH   1   2
ATOM      2  C   UNL A   1      45.651  22.529  25.191  1.00  0.00     0.202 C 
BRANCH   2   3
ATOM      3  C   UNL A   1      46.368  23.731  24.548  1.00  0.00     0.261 C 
BRANCH   3   4
ATOM      4  O   UNL A   1      46.999  24.613  25.510  1.00  0.00    -0.463 OA
BRANCH   4   5
ATOM      5  C   UNL A   1      47.093  25.936  25.257  1.00  0.00     0.310 C 
ATOM      6  O   UNL A   1      46.347  26.554  24.507  1.00  0.00    -0.252 OA
BRANCH   5   7
ATOM      7  C   UNL A   1      48.298  26.587  25.950  1.00  0.00     0.116 C 
ATOM      8  C   UNL A   1      48.150  26.953  27.437  1.00  0.00     0.097 C 
ATOM      9  C   UNL A   1      49.438  27.101  28.256  1.00  0.00     0.045 C 
ATOM     10  C   UNL A   1      50.663  26.378  27.761  1.00  0.00    -0.074 C 
ATOM     11  C   UNL A   1      49.600  25.886  25.534  1.00  0.00     0.046 C 
ATOM     12  C   UNL A   1      51.760  26.269  28.800  1.00  0.00     0.039 C 
ATOM     13  C   UNL A   1      50.737  25.844  26.526  1.00  0.00    -0.073 C 
ATOM     14  C   UNL A   1      51.969  25.139  26.010  1.00  0.00     0.039 C 
BRANCH   8  15
ATOM     15  C   UNL A   1      47.022  26.322  28.251  1.00  0.00     0.230 C 
ATOM     16  N   UNL A   1      45.855  26.934  28.570  1.00  0.00    -0.302 N 
ATOM     17  H   UNL A   1      45.115  26.357  28.868  1.00  0.00     0.172 HD
ATOM     18  O   UNL A   1      47.168  25.156  28.648  1.00  0.00    -0.274 OA
BRANCH  16  19
ATOM     19  C   UNL A   1      45.613  28.270  28.517  1.00  0.00     0.190 A 
ATOM     20  C   UNL A   1      44.910  30.456  27.778  1.00  0.00     0.034 A 
ATOM     21  S   UNL A   1      45.290  28.955  27.009  1.00  0.00    -0.101 S 
ATOM     22  C   UNL A   1      44.859  30.238  29.151  1.00  0.00     0.087 A 
ATOM     23  N   UNL A   1      45.201  28.961  29.541  1.00  0.00    -0.220 NA
BRANCH  20  24
ATOM     24  C   UNL A   1      44.532  31.607  26.898  1.00  0.00     0.046 C 
ATOM     25  C   UNL A   1      45.709  32.373  26.327  1.00  0.00     0.010 C 
ENDBRANCH  20  24
BRANCH  22  26
ATOM     26  C   UNL A   1      44.132  31.060  30.102  1.00  0.00     0.001 A 
ATOM     27  C   UNL A   1      42.853  31.418  29.717  1.00  0.00     0.010 A 
ATOM     28  C   UNL A   1      44.535  31.376  31.397  1.00  0.00     0.010 A 
ATOM     29  C   UNL A   1      42.005  32.143  30.551  1.00  0.00     0.001 A 
ATOM     30  C   UNL A   1      43.664  32.079  32.253  1.00  0.00     0.001 A 
ATOM     31  C   UNL A   1      42.403  32.475  31.825  1.00  0.00     0.000 A 
ENDBRANCH  22  26
ENDBRANCH  16  19
ENDBRANCH   8  15
ENDBRANCH   5   7
ENDBRANCH   4   5
ENDBRANCH   3   4
ENDBRANCH   2   3
ENDBRANCH   1   2
BRANCH   1  32
ATOM     32  C   UNL A   1      44.160  22.992  27.009  1.00  0.00     0.202 C 
BRANCH  32  33
ATOM     33  C   UNL A   1      43.102  22.890  25.896  1.00  0.00     0.261 C 
BRANCH  33  34
ATOM     34  O   UNL A   1      41.948  23.755  26.087  1.00  0.00    -0.460 OA
BRANCH  34  35
ATOM     35  C   UNL A   1      42.210  25.088  26.006  1.00  0.00     0.338 C 
ATOM     36  O   UNL A   1      42.809  25.633  25.079  1.00  0.00    -0.246 OA
BRANCH  35  37
ATOM     37  C   UNL A   1      41.660  25.895  27.138  1.00  0.00     0.060 A 
ATOM     38  C   UNL A   1      42.251  27.143  27.368  1.00  0.00     0.016 A 
ATOM     39  C   UNL A   1      40.677  25.453  28.036  1.00  0.00     0.016 A 
ATOM     40  C   UNL A   1      41.854  27.939  28.454  1.00  0.00     0.010 A 
ATOM     41  C   UNL A   1      40.265  26.268  29.128  1.00  0.00     0.010 A 
ATOM     42  C   UNL A   1      40.827  27.539  29.336  1.00  0.00    -0.014 A 
BRANCH  42  43
ATOM     43  C   UNL A   1      40.539  28.426  30.526  1.00  0.00     0.031 A 
ATOM     44  C   UNL A   1      41.594  28.472  31.581  1.00  0.00     0.074 A 
ATOM     45  C   UNL A   1      39.467  29.245  30.664  1.00  0.00     0.049 A 
ATOM     46  N   UNL A   1      41.647  29.210  32.655  1.00  0.00    -0.248 NA
ATOM     47  C   UNL A   1      42.673  27.482  31.458  1.00  0.00     0.031 C 
ATOM     48  C   UNL A   1      38.244  29.171  29.890  1.00  0.00     0.029 A 
ATOM     49  N   UNL A   1      39.253  30.373  31.437  1.00  0.00    -0.354 N 
ATOM     50  C   UNL A   1      42.720  28.720  33.381  1.00  0.00     0.074 A 
ATOM     51  C   UNL A   1      43.290  27.630  32.618  1.00  0.00     0.031 C 
ATOM     52  C   UNL A   1      37.566  30.326  29.977  1.00  0.00     0.029 A 
ATOM     53  C   UNL A   1      38.170  31.141  31.020  1.00  0.00     0.049 A 
ATOM     54  H   UNL A   1      39.816  30.611  32.210  1.00  0.00     0.167 HD
ATOM     55  C   UNL A   1      43.157  29.124  34.594  1.00  0.00     0.037 A 
ATOM     56  C   UNL A   1      37.676  32.323  31.461  1.00  0.00     0.037 A 
ATOM     57  C   UNL A   1      42.536  30.179  35.349  1.00  0.00     0.049 A 
ATOM     58  C   UNL A   1      38.228  32.816  32.771  1.00  0.00     0.074 A 
ATOM     59  C   UNL A   1      42.872  30.660  36.599  1.00  0.00     0.029 A 
ATOM     60  N   UNL A   1      41.437  30.918  34.917  1.00  0.00    -0.354 N 
ATOM     61  N   UNL A   1      39.222  32.318  33.471  1.00  0.00    -0.248 NA
ATOM     62  C   UNL A   1      37.532  33.933  33.423  1.00  0.00     0.031 C 
ATOM     63  C   UNL A   1      41.962  31.669  36.935  1.00  0.00     0.029 A 
ATOM     64  C   UNL A   1      41.093  31.861  35.870  1.00  0.00     0.049 A 
ATOM     65  H   UNL A   1      40.973  30.788  34.058  1.00  0.00     0.167 HD
ATOM     66  C   UNL A   1      39.243  33.024  34.662  1.00  0.00     0.074 A 
ATOM     67  C   UNL A   1      38.192  34.022  34.572  1.00  0.00     0.031 C 
ATOM     68  C   UNL A   1      40.040  32.842  35.744  1.00  0.00     0.037 A 
BRANCH  55  69
ATOM     69  C   UNL A   1      44.305  28.341  35.165  1.00  0.00     0.058 A 
ATOM     70  C   UNL A   1      44.093  27.225  35.993  1.00  0.00     0.135 A 
ATOM     71  C   UNL A   1      45.625  28.790  34.997  1.00  0.00     0.135 A 
ATOM     72  F   UNL A   1      42.846  26.779  36.220  1.00  0.00    -0.206 F 
ATOM     73  C   UNL A   1      45.136  26.633  36.695  1.00  0.00     0.059 A 
ATOM     74  C   UNL A   1      46.690  28.185  35.658  1.00  0.00     0.059 A 
ATOM     75  F   UNL A   1      45.885  29.858  34.227  1.00  0.00    -0.206 F 
ATOM     76  C   UNL A   1      46.430  27.128  36.530  1.00  0.00     0.060 A 
BRANCH  76  77
ATOM     77  S   UNL A   1      47.764  26.386  37.492  1.00  0.00     0.124 S 
ATOM     78  O   UNL A   1      47.295  25.011  37.627  1.00  0.00    -0.237 OA
ATOM     79  O   UNL A   1      48.919  26.579  36.621  1.00  0.00    -0.237 OA
ATOM     80  O   UNL A   1      47.770  27.172  38.722  1.00  0.00    -0.744 OA
ENDBRANCH  76  77
ENDBRANCH  55  69
BRANCH  56  81
ATOM     81  C   UNL A   1      36.539  33.041  30.781  1.00  0.00     0.058 A 
ATOM     82  C   UNL A   1      35.212  32.947  31.250  1.00  0.00     0.135 A 
ATOM     83  C   UNL A   1      36.741  33.850  29.650  1.00  0.00     0.135 A 
ATOM     84  F   UNL A   1      34.923  32.145  32.286  1.00  0.00    -0.206 F 
ATOM     85  C   UNL A   1      34.159  33.657  30.660  1.00  0.00     0.059 A 
ATOM     86  C   UNL A   1      35.717  34.601  29.072  1.00  0.00     0.059 A 
ATOM     87  F   UNL A   1      37.962  33.946  29.103  1.00  0.00    -0.206 F 
ATOM     88  C   UNL A   1      34.427  34.504  29.586  1.00  0.00     0.060 A 
BRANCH  88  89
ATOM     89  S   UNL A   1      33.099  35.533  28.907  1.00  0.00     0.124 S 
ATOM     90  O   UNL A   1      32.434  36.002  30.117  1.00  0.00    -0.237 OA
ATOM     91  O   UNL A   1      33.842  36.539  28.154  1.00  0.00    -0.237 OA
ATOM     92  O   UNL A   1      32.335  34.593  28.091  1.00  0.00    -0.744 OA
ENDBRANCH  88  89
ENDBRANCH  56  81
BRANCH  68  93
ATOM     93  C   UNL A   1      39.847  33.798  36.882  1.00  0.00     0.058 A 
ATOM     94  C   UNL A   1      40.437  35.070  36.901  1.00  0.00     0.135 A 
ATOM     95  C   UNL A   1      39.024  33.430  37.957  1.00  0.00     0.135 A 
ATOM     96  F   UNL A   1      41.244  35.459  35.901  1.00  0.00    -0.206 F 
ATOM     97  C   UNL A   1      40.229  35.943  37.963  1.00  0.00     0.059 A 
ATOM     98  C   UNL A   1      38.784  34.294  39.015  1.00  0.00     0.059 A 
ATOM     99  F   UNL A   1      38.439  32.222  37.976  1.00  0.00    -0.206 F 
ATOM    100  C   UNL A   1      39.400  35.545  39.015  1.00  0.00     0.060 A 
BRANCH 100 101
ATOM    101  S   UNL A   1      39.114  36.690  40.378  1.00  0.00     0.124 S 
ATOM    102  O   UNL A   1      38.185  35.930  41.207  1.00  0.00    -0.237 OA
ATOM    103  O   UNL A   1      40.456  36.866  40.925  1.00  0.00    -0.237 OA
ATOM    104  O   UNL A   1      38.554  37.867  39.721  1.00  0.00    -0.744 OA
ENDBRANCH 100 101
ENDBRANCH  68  93
ENDBRANCH  42  43
ENDBRANCH  35  37
ENDBRANCH  34  35
ENDBRANCH  33  34
ENDBRANCH  32  33
ENDBRANCH   1  32
TORSDOF 21
ENDMDL
