MODEL 1
REMARK VINA RESULT:     -11.0      0.000      0.000
REMARK SMILES CS(=O)(=O)c1ccc(/C=C(/C(=O)OCCOCCOC(=O)c2ccc(-c3c4nc(c(-c5c(F)cc(S(=O)(=O)[O-])cc5F)c5ccc([nH]5)c(-c5c(F)cc(S(=O)(=O)[O-])cc5F)c5nc(c(-c6c(F)cc(S(=O)(=O)[O-])cc6F)c6ccc3[nH]6)C=C5)C=C4)cc2)c2cccc(Br)c2)cc1
REMARK SMILES IDX 17 1 16 2 15 3 14 4 13 5 11 6 12 7 10 8 9 9 8 10 5 11 6 12
REMARK SMILES IDX 96 13 7 14 95 15 2 16 1 17 3 18 4 19 88 20 89 21 94 22 90 23
REMARK SMILES IDX 92 24 91 25 93 26 18 27 19 28 20 29 21 30 22 31 23 32 87 33
REMARK SMILES IDX 24 34 86 35 25 36 26 37 27 38 80 39 28 40 85 41 79 42 81 43
REMARK SMILES IDX 29 44 84 45 78 46 77 47 30 49 64 50 43 51 63 52 44 53 47 54
REMARK SMILES IDX 62 55 82 56 45 57 46 58 61 60 83 61 48 62 31 63 32 64 41 65
REMARK SMILES IDX 33 66 34 67 40 68 42 69 35 70 36 71 37 72 38 73 39 74 65 75
REMARK SMILES IDX 66 76 75 77 67 78 68 79 74 80 76 81 69 82 70 83 71 84 72 85
REMARK SMILES IDX 73 86 49 87 50 88 59 89 51 90 52 91 58 92 60 93 53 94 54 95
REMARK SMILES IDX 55 96 56 97 57 98
REMARK H PARENT 81 48 47 59
REMARK Flexibility Score: inf
ROOT
ATOM      1  C   UNL A   1      31.785  30.149  25.419  1.00  0.00     0.202 C 
ENDROOT
BRANCH   1   2
ATOM      2  O   UNL A   1      31.958  29.050  24.531  1.00  0.00    -0.374 OA
BRANCH   2   3
ATOM      3  C   UNL A   1      30.997  27.994  24.590  1.00  0.00     0.202 C 
BRANCH   3   4
ATOM      4  C   UNL A   1      31.428  26.685  25.260  1.00  0.00     0.261 C 
BRANCH   4   5
ATOM      5  O   UNL A   1      32.838  26.443  25.103  1.00  0.00    -0.460 OA
BRANCH   5   6
ATOM      6  C   UNL A   1      33.173  25.764  23.976  1.00  0.00     0.338 C 
ATOM      7  O   UNL A   1      33.431  26.268  22.892  1.00  0.00    -0.246 OA
BRANCH   6   8
ATOM      8  C   UNL A   1      33.328  24.293  24.224  1.00  0.00     0.067 C 
ATOM      9  C   UNL A   1      32.244  23.489  24.334  1.00  0.00     0.024 C 
BRANCH   9  10
ATOM     10  C   UNL A   1      32.214  22.004  24.307  1.00  0.00    -0.025 A 
ATOM     11  C   UNL A   1      32.695  19.251  23.989  1.00  0.00     0.067 A 
ATOM     12  C   UNL A   1      32.754  19.828  25.257  1.00  0.00     0.021 A 
ATOM     13  C   UNL A   1      32.264  20.005  22.899  1.00  0.00     0.021 A 
ATOM     14  C   UNL A   1      32.471  21.187  25.416  1.00  0.00     0.009 A 
ATOM     15  C   UNL A   1      32.028  21.377  23.064  1.00  0.00     0.009 A 
BRANCH  11  16
ATOM     16  S   UNL A   1      33.279  17.583  23.834  1.00  0.00     0.175 S 
ATOM     17  C   UNL A   1      34.939  17.538  24.441  1.00  0.00     0.163 C 
ATOM     18  O   UNL A   1      33.322  17.285  22.416  1.00  0.00    -0.224 OA
ATOM     19  O   UNL A   1      32.471  16.784  24.739  1.00  0.00    -0.224 OA
ENDBRANCH  11  16
ENDBRANCH   9  10
BRANCH   8  20
ATOM     20  C   UNL A   1      34.721  23.798  24.256  1.00  0.00    -0.010 A 
ATOM     21  C   UNL A   1      35.228  23.105  23.143  1.00  0.00     0.009 A 
ATOM     22  C   UNL A   1      35.555  24.050  25.349  1.00  0.00     0.024 A 
ATOM     23  C   UNL A   1      36.557  22.687  23.112  1.00  0.00     0.002 A 
ATOM     24  C   UNL A   1      36.887  23.640  25.304  1.00  0.00     0.018 A 
ATOM     25  C   UNL A   1      37.391  22.962  24.192  1.00  0.00     0.016 A 
ATOM     26  Br  UNL A   1      38.035  24.039  26.751  1.00  0.00    -0.051 Br
ENDBRANCH   8  20
ENDBRANCH   6   8
ENDBRANCH   5   6
ENDBRANCH   4   5
ENDBRANCH   3   4
ENDBRANCH   2   3
ENDBRANCH   1   2
BRANCH   1  27
ATOM     27  C   UNL A   1      32.463  30.090  26.793  1.00  0.00     0.261 C 
BRANCH  27  28
ATOM     28  O   UNL A   1      33.894  30.067  26.715  1.00  0.00    -0.460 OA
BRANCH  28  29
ATOM     29  C   UNL A   1      34.510  30.893  27.593  1.00  0.00     0.338 C 
ATOM     30  O   UNL A   1      34.063  31.927  28.073  1.00  0.00    -0.246 OA
BRANCH  29  31
ATOM     31  C   UNL A   1      35.763  30.276  28.059  1.00  0.00     0.060 A 
ATOM     32  C   UNL A   1      35.775  29.731  29.349  1.00  0.00     0.016 A 
ATOM     33  C   UNL A   1      36.916  30.275  27.272  1.00  0.00     0.016 A 
ATOM     34  C   UNL A   1      36.957  29.221  29.877  1.00  0.00     0.010 A 
ATOM     35  C   UNL A   1      38.105  29.772  27.808  1.00  0.00     0.010 A 
ATOM     36  C   UNL A   1      38.137  29.275  29.124  1.00  0.00    -0.014 A 
BRANCH  36  37
ATOM     37  C   UNL A   1      39.431  28.955  29.767  1.00  0.00     0.031 A 
ATOM     38  C   UNL A   1      39.848  29.736  30.983  1.00  0.00     0.074 A 
ATOM     39  C   UNL A   1      40.209  27.968  29.291  1.00  0.00     0.049 A 
ATOM     40  N   UNL A   1      40.950  29.657  31.682  1.00  0.00    -0.248 NA
ATOM     41  C   UNL A   1      38.892  30.742  31.474  1.00  0.00     0.031 C 
ATOM     42  C   UNL A   1      39.885  27.114  28.149  1.00  0.00     0.029 A 
ATOM     43  N   UNL A   1      41.436  27.520  29.709  1.00  0.00    -0.354 N 
ATOM     44  C   UNL A   1      40.825  30.605  32.691  1.00  0.00     0.074 A 
ATOM     45  C   UNL A   1      39.555  31.271  32.491  1.00  0.00     0.031 C 
ATOM     46  C   UNL A   1      40.893  26.247  27.953  1.00  0.00     0.029 A 
ATOM     47  C   UNL A   1      41.946  26.508  28.932  1.00  0.00     0.049 A 
ATOM     48  H   UNL A   1      41.907  27.889  30.492  1.00  0.00     0.167 HD
ATOM     49  C   UNL A   1      41.686  30.887  33.698  1.00  0.00     0.037 A 
ATOM     50  C   UNL A   1      43.137  25.880  28.995  1.00  0.00     0.037 A 
ATOM     51  C   UNL A   1      42.949  30.223  33.883  1.00  0.00     0.049 A 
ATOM     52  C   UNL A   1      44.116  26.266  30.075  1.00  0.00     0.074 A 
ATOM     53  C   UNL A   1      43.894  30.428  34.872  1.00  0.00     0.029 A 
ATOM     54  N   UNL A   1      43.450  29.230  33.052  1.00  0.00    -0.354 N 
ATOM     55  N   UNL A   1      43.982  27.154  31.030  1.00  0.00    -0.248 NA
ATOM     56  C   UNL A   1      45.405  25.561  30.084  1.00  0.00     0.031 C 
ATOM     57  C   UNL A   1      44.987  29.595  34.611  1.00  0.00     0.029 A 
ATOM     58  C   UNL A   1      44.702  28.830  33.490  1.00  0.00     0.049 A 
ATOM     59  H   UNL A   1      42.985  28.864  32.265  1.00  0.00     0.167 HD
ATOM     60  C   UNL A   1      45.157  27.096  31.773  1.00  0.00     0.074 A 
ATOM     61  C   UNL A   1      45.986  26.080  31.158  1.00  0.00     0.031 C 
ATOM     62  C   UNL A   1      45.514  27.814  32.869  1.00  0.00     0.037 A 
BRANCH  49  63
ATOM     63  C   UNL A   1      41.296  31.982  34.653  1.00  0.00     0.058 A 
ATOM     64  C   UNL A   1      40.566  31.720  35.823  1.00  0.00     0.135 A 
ATOM     65  C   UNL A   1      41.659  33.313  34.395  1.00  0.00     0.135 A 
ATOM     66  F   UNL A   1      40.176  30.467  36.111  1.00  0.00    -0.206 F 
ATOM     67  C   UNL A   1      40.177  32.742  36.683  1.00  0.00     0.059 A 
ATOM     68  C   UNL A   1      41.306  34.349  35.255  1.00  0.00     0.059 A 
ATOM     69  F   UNL A   1      42.357  33.622  33.290  1.00  0.00    -0.206 F 
ATOM     70  C   UNL A   1      40.547  34.054  36.387  1.00  0.00     0.060 A 
BRANCH  70  71
ATOM     71  S   UNL A   1      40.015  35.374  37.499  1.00  0.00     0.124 S 
ATOM     72  O   UNL A   1      38.740  34.851  37.980  1.00  0.00    -0.237 OA
ATOM     73  O   UNL A   1      41.095  35.412  38.479  1.00  0.00    -0.237 OA
ATOM     74  O   UNL A   1      39.925  36.539  36.625  1.00  0.00    -0.744 OA
ENDBRANCH  70  71
ENDBRANCH  49  63
BRANCH  50  75
ATOM     75  C   UNL A   1      43.467  24.821  28.006  1.00  0.00     0.058 A 
ATOM     76  C   UNL A   1      44.196  25.117  26.845  1.00  0.00     0.135 A 
ATOM     77  C   UNL A   1      43.079  23.487  28.211  1.00  0.00     0.135 A 
ATOM     78  F   UNL A   1      44.579  26.379  26.598  1.00  0.00    -0.206 F 
ATOM     79  C   UNL A   1      44.524  24.132  25.920  1.00  0.00     0.059 A 
ATOM     80  C   UNL A   1      43.416  22.480  27.314  1.00  0.00     0.059 A 
ATOM     81  F   UNL A   1      42.388  23.150  29.312  1.00  0.00    -0.206 F 
ATOM     82  C   UNL A   1      44.136  22.814  26.167  1.00  0.00     0.060 A 
BRANCH  82  83
ATOM     83  S   UNL A   1      44.626  21.532  24.993  1.00  0.00     0.124 S 
ATOM     84  O   UNL A   1      45.977  21.221  25.442  1.00  0.00    -0.237 OA
ATOM     85  O   UNL A   1      43.619  20.502  25.232  1.00  0.00    -0.237 OA
ATOM     86  O   UNL A   1      44.527  22.204  23.701  1.00  0.00    -0.744 OA
ENDBRANCH  82  83
ENDBRANCH  50  75
BRANCH  62  87
ATOM     87  C   UNL A   1      46.844  27.504  33.499  1.00  0.00     0.058 A 
ATOM     88  C   UNL A   1      48.009  28.207  33.154  1.00  0.00     0.135 A 
ATOM     89  C   UNL A   1      46.941  26.531  34.508  1.00  0.00     0.135 A 
ATOM     90  F   UNL A   1      47.974  29.141  32.190  1.00  0.00    -0.206 F 
ATOM     91  C   UNL A   1      49.227  27.942  33.772  1.00  0.00     0.059 A 
ATOM     92  C   UNL A   1      48.142  26.270  35.160  1.00  0.00     0.059 A 
ATOM     93  F   UNL A   1      45.855  25.837  34.884  1.00  0.00    -0.206 F 
ATOM     94  C   UNL A   1      49.282  26.975  34.778  1.00  0.00     0.060 A 
BRANCH  94  95
ATOM     95  S   UNL A   1      50.860  26.672  35.601  1.00  0.00     0.124 S 
ATOM     96  O   UNL A   1      51.666  27.785  35.111  1.00  0.00    -0.237 OA
ATOM     97  O   UNL A   1      50.493  26.727  37.012  1.00  0.00    -0.237 OA
ATOM     98  O   UNL A   1      51.251  25.352  35.113  1.00  0.00    -0.744 OA
ENDBRANCH  94  95
ENDBRANCH  62  87
ENDBRANCH  36  37
ENDBRANCH  29  31
ENDBRANCH  28  29
ENDBRANCH  27  28
ENDBRANCH   1  27
TORSDOF 20
ENDMDL
MODEL 2
REMARK VINA RESULT:     -10.9      0.610      8.072
REMARK SMILES CS(=O)(=O)c1ccc(/C=C(/C(=O)OCCOCCOC(=O)c2ccc(-c3c4nc(c(-c5c(F)cc(S(=O)(=O)[O-])cc5F)c5ccc([nH]5)c(-c5c(F)cc(S(=O)(=O)[O-])cc5F)c5nc(c(-c6c(F)cc(S(=O)(=O)[O-])cc6F)c6ccc3[nH]6)C=C5)C=C4)cc2)c2cccc(Br)c2)cc1
REMARK SMILES IDX 17 1 16 2 15 3 14 4 13 5 11 6 12 7 10 8 9 9 8 10 5 11 6 12
REMARK SMILES IDX 96 13 7 14 95 15 2 16 1 17 3 18 4 19 88 20 89 21 94 22 90 23
REMARK SMILES IDX 92 24 91 25 93 26 18 27 19 28 20 29 21 30 22 31 23 32 87 33
REMARK SMILES IDX 24 34 86 35 25 36 26 37 27 38 80 39 28 40 85 41 79 42 81 43
REMARK SMILES IDX 29 44 84 45 78 46 77 47 30 49 64 50 43 51 63 52 44 53 47 54
REMARK SMILES IDX 62 55 82 56 45 57 46 58 61 60 83 61 48 62 31 63 32 64 41 65
REMARK SMILES IDX 33 66 34 67 40 68 42 69 35 70 36 71 37 72 38 73 39 74 65 75
REMARK SMILES IDX 66 76 75 77 67 78 68 79 74 80 76 81 69 82 70 83 71 84 72 85
REMARK SMILES IDX 73 86 49 87 50 88 59 89 51 90 52 91 58 92 60 93 53 94 54 95
REMARK SMILES IDX 55 96 56 97 57 98
REMARK H PARENT 81 48 47 59
REMARK Flexibility Score: inf
ROOT
ATOM      1  C   UNL A   1      31.696  29.696  25.912  1.00  0.00     0.202 C 
ENDROOT
BRANCH   1   2
ATOM      2  O   UNL A   1      31.750  28.917  24.722  1.00  0.00    -0.374 OA
BRANCH   2   3
ATOM      3  C   UNL A   1      30.795  27.865  24.574  1.00  0.00     0.202 C 
BRANCH   3   4
ATOM      4  C   UNL A   1      31.141  26.506  25.193  1.00  0.00     0.261 C 
BRANCH   4   5
ATOM      5  O   UNL A   1      32.564  26.303  25.275  1.00  0.00    -0.460 OA
BRANCH   5   6
ATOM      6  C   UNL A   1      33.110  25.691  24.193  1.00  0.00     0.338 C 
ATOM      7  O   UNL A   1      33.488  26.251  23.173  1.00  0.00    -0.246 OA
BRANCH   6   8
ATOM      8  C   UNL A   1      33.334  24.226  24.422  1.00  0.00     0.067 C 
ATOM      9  C   UNL A   1      32.289  23.377  24.566  1.00  0.00     0.024 C 
BRANCH   9  10
ATOM     10  C   UNL A   1      32.319  21.892  24.527  1.00  0.00    -0.025 A 
ATOM     11  C   UNL A   1      32.902  19.164  24.173  1.00  0.00     0.067 A 
ATOM     12  C   UNL A   1      32.972  19.733  25.444  1.00  0.00     0.021 A 
ATOM     13  C   UNL A   1      32.411  19.907  23.101  1.00  0.00     0.021 A 
ATOM     14  C   UNL A   1      32.638  21.078  25.622  1.00  0.00     0.009 A 
ATOM     15  C   UNL A   1      32.125  21.267  23.284  1.00  0.00     0.009 A 
BRANCH  11  16
ATOM     16  S   UNL A   1      33.550  17.522  23.989  1.00  0.00     0.175 S 
ATOM     17  C   UNL A   1      32.777  16.501  25.208  1.00  0.00     0.163 C 
ATOM     18  O   UNL A   1      34.963  17.592  24.307  1.00  0.00    -0.224 OA
ATOM     19  O   UNL A   1      33.101  17.052  22.690  1.00  0.00    -0.224 OA
ENDBRANCH  11  16
ENDBRANCH   9  10
BRANCH   8  20
ATOM     20  C   UNL A   1      34.746  23.788  24.397  1.00  0.00    -0.010 A 
ATOM     21  C   UNL A   1      35.228  23.088  23.277  1.00  0.00     0.009 A 
ATOM     22  C   UNL A   1      35.621  24.100  25.442  1.00  0.00     0.024 A 
ATOM     23  C   UNL A   1      36.570  22.723  23.191  1.00  0.00     0.002 A 
ATOM     24  C   UNL A   1      36.965  23.743  25.341  1.00  0.00     0.018 A 
ATOM     25  C   UNL A   1      37.443  23.059  24.222  1.00  0.00     0.016 A 
ATOM     26  Br  UNL A   1      38.163  24.225  26.722  1.00  0.00    -0.051 Br
ENDBRANCH   8  20
ENDBRANCH   6   8
ENDBRANCH   5   6
ENDBRANCH   4   5
ENDBRANCH   3   4
ENDBRANCH   2   3
ENDBRANCH   1   2
BRANCH   1  27
ATOM     27  C   UNL A   1      32.678  29.369  27.043  1.00  0.00     0.261 C 
BRANCH  27  28
ATOM     28  O   UNL A   1      34.039  29.676  26.713  1.00  0.00    -0.460 OA
BRANCH  28  29
ATOM     29  C   UNL A   1      34.596  30.631  27.494  1.00  0.00     0.338 C 
ATOM     30  O   UNL A   1      34.090  31.692  27.839  1.00  0.00    -0.246 OA
BRANCH  29  31
ATOM     31  C   UNL A   1      35.867  30.138  28.050  1.00  0.00     0.060 A 
ATOM     32  C   UNL A   1      35.841  29.593  29.341  1.00  0.00     0.016 A 
ATOM     33  C   UNL A   1      37.068  30.251  27.346  1.00  0.00     0.016 A 
ATOM     34  C   UNL A   1      37.027  29.200  29.953  1.00  0.00     0.010 A 
ATOM     35  C   UNL A   1      38.258  29.865  27.967  1.00  0.00     0.010 A 
ATOM     36  C   UNL A   1      38.245  29.371  29.285  1.00  0.00    -0.014 A 
BRANCH  36  37
ATOM     37  C   UNL A   1      39.516  29.177  30.020  1.00  0.00     0.031 A 
ATOM     38  C   UNL A   1      40.468  28.112  29.551  1.00  0.00     0.074 A 
ATOM     39  C   UNL A   1      39.827  29.955  31.071  1.00  0.00     0.049 A 
ATOM     40  N   UNL A   1      41.612  27.739  30.062  1.00  0.00    -0.248 NA
ATOM     41  C   UNL A   1      40.073  27.366  28.345  1.00  0.00     0.031 C 
ATOM     42  C   UNL A   1      39.003  31.049  31.584  1.00  0.00     0.029 A 
ATOM     43  N   UNL A   1      40.921  29.940  31.898  1.00  0.00    -0.354 N 
ATOM     44  C   UNL A   1      42.073  26.712  29.245  1.00  0.00     0.074 A 
ATOM     45  C   UNL A   1      41.067  26.498  28.227  1.00  0.00     0.031 C 
ATOM     46  C   UNL A   1      39.620  31.598  32.644  1.00  0.00     0.029 A 
ATOM     47  C   UNL A   1      40.861  30.872  32.905  1.00  0.00     0.049 A 
ATOM     48  H   UNL A   1      41.677  29.320  31.781  1.00  0.00     0.167 HD
ATOM     49  C   UNL A   1      43.234  26.020  29.331  1.00  0.00     0.037 A 
ATOM     50  C   UNL A   1      41.706  31.098  33.932  1.00  0.00     0.037 A 
ATOM     51  C   UNL A   1      44.224  26.237  30.353  1.00  0.00     0.049 A 
ATOM     52  C   UNL A   1      42.952  30.261  34.056  1.00  0.00     0.074 A 
ATOM     53  C   UNL A   1      45.437  25.595  30.528  1.00  0.00     0.029 A 
ATOM     54  N   UNL A   1      44.111  27.163  31.380  1.00  0.00    -0.354 N 
ATOM     55  N   UNL A   1      43.384  29.302  33.271  1.00  0.00    -0.248 NA
ATOM     56  C   UNL A   1      43.827  30.538  35.204  1.00  0.00     0.031 C 
ATOM     57  C   UNL A   1      46.033  26.097  31.689  1.00  0.00     0.029 A 
ATOM     58  C   UNL A   1      45.219  27.092  32.208  1.00  0.00     0.049 A 
ATOM     59  H   UNL A   1      43.353  27.779  31.504  1.00  0.00     0.167 HD
ATOM     60  C   UNL A   1      44.594  28.881  33.813  1.00  0.00     0.074 A 
ATOM     61  C   UNL A   1      44.827  29.694  34.989  1.00  0.00     0.031 C 
ATOM     62  C   UNL A   1      45.438  27.913  33.374  1.00  0.00     0.037 A 
BRANCH  49  63
ATOM     63  C   UNL A   1      43.473  24.943  28.308  1.00  0.00     0.058 A 
ATOM     64  C   UNL A   1      44.131  25.205  27.096  1.00  0.00     0.135 A 
ATOM     65  C   UNL A   1      43.037  23.629  28.544  1.00  0.00     0.135 A 
ATOM     66  F   UNL A   1      44.552  26.448  26.810  1.00  0.00    -0.206 F 
ATOM     67  C   UNL A   1      44.315  24.213  26.138  1.00  0.00     0.059 A 
ATOM     68  C   UNL A   1      43.236  22.614  27.612  1.00  0.00     0.059 A 
ATOM     69  F   UNL A   1      42.402  23.322  29.685  1.00  0.00    -0.206 F 
ATOM     70  C   UNL A   1      43.859  22.921  26.404  1.00  0.00     0.060 A 
BRANCH  70  71
ATOM     71  S   UNL A   1      44.083  21.649  25.142  1.00  0.00     0.124 S 
ATOM     72  O   UNL A   1      45.451  21.213  25.410  1.00  0.00    -0.237 OA
ATOM     73  O   UNL A   1      43.035  20.690  25.474  1.00  0.00    -0.237 OA
ATOM     74  O   UNL A   1      43.891  22.374  23.890  1.00  0.00    -0.744 OA
ENDBRANCH  70  71
ENDBRANCH  49  63
BRANCH  50  75
ATOM     75  C   UNL A   1      41.398  32.165  34.920  1.00  0.00     0.058 A 
ATOM     76  C   UNL A   1      41.933  33.453  34.782  1.00  0.00     0.135 A 
ATOM     77  C   UNL A   1      40.545  31.924  36.009  1.00  0.00     0.135 A 
ATOM     78  F   UNL A   1      42.763  33.730  33.765  1.00  0.00    -0.206 F 
ATOM     79  C   UNL A   1      41.640  34.465  35.692  1.00  0.00     0.059 A 
ATOM     80  C   UNL A   1      40.216  32.925  36.917  1.00  0.00     0.059 A 
ATOM     81  F   UNL A   1      39.998  30.709  36.179  1.00  0.00    -0.206 F 
ATOM     82  C   UNL A   1      40.774  34.193  36.752  1.00  0.00     0.060 A 
BRANCH  82  83
ATOM     83  S   UNL A   1      40.347  35.530  37.887  1.00  0.00     0.124 S 
ATOM     84  O   UNL A   1      40.002  36.603  36.963  1.00  0.00    -0.237 OA
ATOM     85  O   UNL A   1      39.236  34.949  38.636  1.00  0.00    -0.237 OA
ATOM     86  O   UNL A   1      41.574  35.725  38.653  1.00  0.00    -0.744 OA
ENDBRANCH  82  83
ENDBRANCH  50  75
BRANCH  62  87
ATOM     87  C   UNL A   1      46.714  27.701  34.144  1.00  0.00     0.058 A 
ATOM     88  C   UNL A   1      47.880  28.427  33.858  1.00  0.00     0.135 A 
ATOM     89  C   UNL A   1      46.749  26.802  35.222  1.00  0.00     0.135 A 
ATOM     90  F   UNL A   1      47.903  29.294  32.832  1.00  0.00    -0.206 F 
ATOM     91  C   UNL A   1      49.043  28.255  34.602  1.00  0.00     0.059 A 
ATOM     92  C   UNL A   1      47.892  26.635  35.998  1.00  0.00     0.059 A 
ATOM     93  F   UNL A   1      45.657  26.090  35.545  1.00  0.00    -0.206 F 
ATOM     94  C   UNL A   1      49.038  27.360  35.674  1.00  0.00     0.060 A 
BRANCH  94  95
ATOM     95  S   UNL A   1      50.541  27.178  36.657  1.00  0.00     0.124 S 
ATOM     96  O   UNL A   1      50.306  28.135  37.733  1.00  0.00    -0.237 OA
ATOM     97  O   UNL A   1      50.495  25.770  37.039  1.00  0.00    -0.237 OA
ATOM     98  O   UNL A   1      51.605  27.532  35.721  1.00  0.00    -0.744 OA
ENDBRANCH  94  95
ENDBRANCH  62  87
ENDBRANCH  36  37
ENDBRANCH  29  31
ENDBRANCH  28  29
ENDBRANCH  27  28
ENDBRANCH   1  27
TORSDOF 20
ENDMDL
MODEL 3
REMARK VINA RESULT:     -10.8      3.537      9.136
REMARK SMILES CS(=O)(=O)c1ccc(/C=C(/C(=O)OCCOCCOC(=O)c2ccc(-c3c4nc(c(-c5c(F)cc(S(=O)(=O)[O-])cc5F)c5ccc([nH]5)c(-c5c(F)cc(S(=O)(=O)[O-])cc5F)c5nc(c(-c6c(F)cc(S(=O)(=O)[O-])cc6F)c6ccc3[nH]6)C=C5)C=C4)cc2)c2cccc(Br)c2)cc1
REMARK SMILES IDX 17 1 16 2 15 3 14 4 13 5 11 6 12 7 10 8 9 9 8 10 5 11 6 12
REMARK SMILES IDX 96 13 7 14 95 15 2 16 1 17 3 18 4 19 88 20 89 21 94 22 90 23
REMARK SMILES IDX 92 24 91 25 93 26 18 27 19 28 20 29 21 30 22 31 23 32 87 33
REMARK SMILES IDX 24 34 86 35 25 36 26 37 27 38 80 39 28 40 85 41 79 42 81 43
REMARK SMILES IDX 29 44 84 45 78 46 77 47 30 49 64 50 43 51 63 52 44 53 47 54
REMARK SMILES IDX 62 55 82 56 45 57 46 58 61 60 83 61 48 62 31 63 32 64 41 65
REMARK SMILES IDX 33 66 34 67 40 68 42 69 35 70 36 71 37 72 38 73 39 74 65 75
REMARK SMILES IDX 66 76 75 77 67 78 68 79 74 80 76 81 69 82 70 83 71 84 72 85
REMARK SMILES IDX 73 86 49 87 50 88 59 89 51 90 52 91 58 92 60 93 53 94 54 95
REMARK SMILES IDX 55 96 56 97 57 98
REMARK H PARENT 81 48 47 59
REMARK Flexibility Score: inf
ROOT
ATOM      1  C   UNL A   1      42.724  22.775  25.888  1.00  0.00     0.202 C 
ENDROOT
BRANCH   1   2
ATOM      2  O   UNL A   1      41.541  22.096  25.483  1.00  0.00    -0.374 OA
BRANCH   2   3
ATOM      3  C   UNL A   1      40.436  22.094  26.388  1.00  0.00     0.202 C 
BRANCH   3   4
ATOM      4  C   UNL A   1      39.252  21.179  26.056  1.00  0.00     0.261 C 
BRANCH   4   5
ATOM      5  O   UNL A   1      38.195  21.894  25.390  1.00  0.00    -0.460 OA
BRANCH   5   6
ATOM      6  C   UNL A   1      37.126  21.130  25.047  1.00  0.00     0.338 C 
ATOM      7  O   UNL A   1      37.176  19.974  24.648  1.00  0.00    -0.246 OA
BRANCH   6   8
ATOM      8  C   UNL A   1      35.823  21.815  25.332  1.00  0.00     0.067 C 
ATOM      9  C   UNL A   1      35.791  23.004  25.980  1.00  0.00     0.024 C 
BRANCH   9  10
ATOM     10  C   UNL A   1      34.639  23.935  26.102  1.00  0.00    -0.025 A 
ATOM     11  C   UNL A   1      32.323  25.498  25.782  1.00  0.00     0.067 A 
ATOM     12  C   UNL A   1      32.321  24.420  26.666  1.00  0.00     0.021 A 
ATOM     13  C   UNL A   1      33.507  25.889  25.160  1.00  0.00     0.021 A 
ATOM     14  C   UNL A   1      33.487  23.674  26.855  1.00  0.00     0.009 A 
ATOM     15  C   UNL A   1      34.658  25.104  25.322  1.00  0.00     0.009 A 
BRANCH  11  16
ATOM     16  S   UNL A   1      30.757  26.255  25.430  1.00  0.00     0.175 S 
ATOM     17  C   UNL A   1      30.273  25.755  23.805  1.00  0.00     0.163 C 
ATOM     18  O   UNL A   1      30.983  27.687  25.400  1.00  0.00    -0.224 OA
ATOM     19  O   UNL A   1      29.806  25.671  26.359  1.00  0.00    -0.224 OA
ENDBRANCH  11  16
ENDBRANCH   9  10
BRANCH   8  20
ATOM     20  C   UNL A   1      34.621  21.145  24.792  1.00  0.00    -0.010 A 
ATOM     21  C   UNL A   1      33.832  21.813  23.840  1.00  0.00     0.009 A 
ATOM     22  C   UNL A   1      34.285  19.842  25.173  1.00  0.00     0.024 A 
ATOM     23  C   UNL A   1      32.733  21.182  23.260  1.00  0.00     0.002 A 
ATOM     24  C   UNL A   1      33.192  19.214  24.577  1.00  0.00     0.018 A 
ATOM     25  C   UNL A   1      32.417  19.876  23.623  1.00  0.00     0.016 A 
ATOM     26  Br  UNL A   1      32.777  17.429  25.040  1.00  0.00    -0.051 Br
ENDBRANCH   8  20
ENDBRANCH   6   8
ENDBRANCH   5   6
ENDBRANCH   4   5
ENDBRANCH   3   4
ENDBRANCH   2   3
ENDBRANCH   1   2
BRANCH   1  27
ATOM     27  C   UNL A   1      43.214  23.956  25.042  1.00  0.00     0.261 C 
BRANCH  27  28
ATOM     28  O   UNL A   1      43.321  25.177  25.786  1.00  0.00    -0.460 OA
BRANCH  28  29
ATOM     29  C   UNL A   1      42.146  25.828  25.954  1.00  0.00     0.338 C 
ATOM     30  O   UNL A   1      41.171  25.794  25.213  1.00  0.00    -0.246 OA
BRANCH  29  31
ATOM     31  C   UNL A   1      42.116  26.464  27.280  1.00  0.00     0.060 A 
ATOM     32  C   UNL A   1      41.060  26.126  28.137  1.00  0.00     0.016 A 
ATOM     33  C   UNL A   1      43.070  27.410  27.662  1.00  0.00     0.016 A 
ATOM     34  C   UNL A   1      40.928  26.767  29.365  1.00  0.00     0.010 A 
ATOM     35  C   UNL A   1      42.930  28.060  28.891  1.00  0.00     0.010 A 
ATOM     36  C   UNL A   1      41.840  27.765  29.731  1.00  0.00    -0.014 A 
BRANCH  36  37
ATOM     37  C   UNL A   1      41.565  28.607  30.918  1.00  0.00     0.031 A 
ATOM     38  C   UNL A   1      40.423  29.583  30.865  1.00  0.00     0.074 A 
ATOM     39  C   UNL A   1      42.307  28.484  32.032  1.00  0.00     0.049 A 
ATOM     40  N   UNL A   1      40.026  30.445  31.764  1.00  0.00    -0.248 NA
ATOM     41  C   UNL A   1      39.622  29.587  29.629  1.00  0.00     0.031 C 
ATOM     42  C   UNL A   1      43.408  27.539  32.214  1.00  0.00     0.029 A 
ATOM     43  N   UNL A   1      42.245  29.164  33.222  1.00  0.00    -0.354 N 
ATOM     44  C   UNL A   1      38.934  31.098  31.203  1.00  0.00     0.074 A 
ATOM     45  C   UNL A   1      38.755  30.557  29.873  1.00  0.00     0.031 C 
ATOM     46  C   UNL A   1      43.924  27.703  33.444  1.00  0.00     0.029 A 
ATOM     47  C   UNL A   1      43.213  28.786  34.121  1.00  0.00     0.049 A 
ATOM     48  H   UNL A   1      41.571  29.855  33.414  1.00  0.00     0.167 HD
ATOM     49  C   UNL A   1      38.148  32.054  31.753  1.00  0.00     0.037 A 
ATOM     50  C   UNL A   1      43.502  29.275  35.343  1.00  0.00     0.037 A 
ATOM     51  C   UNL A   1      38.341  32.590  33.075  1.00  0.00     0.049 A 
ATOM     52  C   UNL A   1      42.665  30.396  35.904  1.00  0.00     0.074 A 
ATOM     53  C   UNL A   1      37.598  33.556  33.730  1.00  0.00     0.029 A 
ATOM     54  N   UNL A   1      39.356  32.212  33.942  1.00  0.00    -0.354 N 
ATOM     55  N   UNL A   1      41.628  30.997  35.370  1.00  0.00    -0.248 NA
ATOM     56  C   UNL A   1      43.037  30.902  37.232  1.00  0.00     0.031 C 
ATOM     57  C   UNL A   1      38.195  33.797  34.972  1.00  0.00     0.029 A 
ATOM     58  C   UNL A   1      39.277  32.943  35.115  1.00  0.00     0.049 A 
ATOM     59  H   UNL A   1      40.035  31.525  33.750  1.00  0.00     0.167 HD
ATOM     60  C   UNL A   1      41.205  31.933  36.310  1.00  0.00     0.074 A 
ATOM     61  C   UNL A   1      42.096  31.812  37.445  1.00  0.00     0.031 C 
ATOM     62  C   UNL A   1      40.170  32.808  36.240  1.00  0.00     0.037 A 
BRANCH  49  63
ATOM     63  C   UNL A   1      37.030  32.599  30.907  1.00  0.00     0.058 A 
ATOM     64  C   UNL A   1      37.241  33.622  29.969  1.00  0.00     0.135 A 
ATOM     65  C   UNL A   1      35.727  32.091  31.035  1.00  0.00     0.135 A 
ATOM     66  F   UNL A   1      38.463  34.159  29.817  1.00  0.00    -0.206 F 
ATOM     67  C   UNL A   1      36.196  34.148  29.217  1.00  0.00     0.059 A 
ATOM     68  C   UNL A   1      34.671  32.581  30.272  1.00  0.00     0.059 A 
ATOM     69  F   UNL A   1      35.467  31.113  31.917  1.00  0.00    -0.206 F 
ATOM     70  C   UNL A   1      34.913  33.624  29.380  1.00  0.00     0.060 A 
BRANCH  70  71
ATOM     71  S   UNL A   1      33.561  34.331  28.414  1.00  0.00     0.124 S 
ATOM     72  O   UNL A   1      32.685  34.835  29.468  1.00  0.00    -0.237 OA
ATOM     73  O   UNL A   1      34.243  35.346  27.618  1.00  0.00    -0.237 OA
ATOM     74  O   UNL A   1      33.047  33.191  27.662  1.00  0.00    -0.744 OA
ENDBRANCH  70  71
ENDBRANCH  49  63
BRANCH  50  75
ATOM     75  C   UNL A   1      44.635  28.705  36.118  1.00  0.00     0.058 A 
ATOM     76  C   UNL A   1      45.927  29.241  36.012  1.00  0.00     0.135 A 
ATOM     77  C   UNL A   1      44.446  27.626  36.997  1.00  0.00     0.135 A 
ATOM     78  F   UNL A   1      46.161  30.264  35.177  1.00  0.00    -0.206 F 
ATOM     79  C   UNL A   1      46.992  28.726  36.744  1.00  0.00     0.059 A 
ATOM     80  C   UNL A   1      45.489  27.110  37.758  1.00  0.00     0.059 A 
ATOM     81  F   UNL A   1      43.226  27.083  37.142  1.00  0.00    -0.206 F 
ATOM     82  C   UNL A   1      46.762  27.664  37.620  1.00  0.00     0.060 A 
BRANCH  82  83
ATOM     83  S   UNL A   1      48.137  27.048  38.616  1.00  0.00     0.124 S 
ATOM     84  O   UNL A   1      48.429  25.779  37.962  1.00  0.00    -0.237 OA
ATOM     85  O   UNL A   1      49.132  28.102  38.442  1.00  0.00    -0.237 OA
ATOM     86  O   UNL A   1      47.564  26.953  39.955  1.00  0.00    -0.744 OA
ENDBRANCH  82  83
ENDBRANCH  50  75
BRANCH  62  87
ATOM     87  C   UNL A   1      39.916  33.681  37.438  1.00  0.00     0.058 A 
ATOM     88  C   UNL A   1      40.562  34.917  37.604  1.00  0.00     0.135 A 
ATOM     89  C   UNL A   1      38.968  33.303  38.403  1.00  0.00     0.135 A 
ATOM     90  F   UNL A   1      41.483  35.322  36.715  1.00  0.00    -0.206 F 
ATOM     91  C   UNL A   1      40.289  35.737  38.694  1.00  0.00     0.059 A 
ATOM     92  C   UNL A   1      38.659  34.120  39.485  1.00  0.00     0.059 A 
ATOM     93  F   UNL A   1      38.313  32.136  38.286  1.00  0.00    -0.206 F 
ATOM     94  C   UNL A   1      39.333  35.332  39.627  1.00  0.00     0.060 A 
BRANCH  94  95
ATOM     95  S   UNL A   1      38.960  36.426  41.014  1.00  0.00     0.124 S 
ATOM     96  O   UNL A   1      37.884  35.700  41.681  1.00  0.00    -0.237 OA
ATOM     97  O   UNL A   1      40.232  36.470  41.728  1.00  0.00    -0.237 OA
ATOM     98  O   UNL A   1      38.568  37.675  40.367  1.00  0.00    -0.744 OA
ENDBRANCH  94  95
ENDBRANCH  62  87
ENDBRANCH  36  37
ENDBRANCH  29  31
ENDBRANCH  28  29
ENDBRANCH  27  28
ENDBRANCH   1  27
TORSDOF 20
ENDMDL
