MODEL 1
REMARK VINA RESULT:     -11.2      0.000      0.000
REMARK SMILES Cc1ccc(C)c([C@@H](C)[C@](C)(O)C(=O)OCCOCCOC(=O)c2ccc(-c3c4nc(c(-c5c(F)cc(S(=O)(=O)[O-])cc5F)c5ccc([nH]5)c(-c5c(F)cc(S(=O)(=O)[O-])cc5F)c5nc(c(-c6c(F)cc(S(=O)(=O)[O-])cc6F)c6ccc3[nH]6)C=C5)C=C4)cc2)c1
REMARK SMILES IDX 19 1 18 2 17 3 16 4 15 5 13 6 14 7 10 8 11 9 8 10 9 11 7 12
REMARK SMILES IDX 1 13 2 14 3 15 90 16 4 17 5 18 6 19 12 20 20 22 21 23 22 24
REMARK SMILES IDX 23 25 24 26 25 27 89 28 26 29 88 30 27 31 28 32 29 33 82 34
REMARK SMILES IDX 30 35 87 36 81 37 83 38 31 39 86 40 80 41 79 42 32 44 66 45
REMARK SMILES IDX 45 46 65 47 46 48 49 49 64 50 84 51 47 52 48 53 63 55 85 56
REMARK SMILES IDX 50 57 33 58 34 59 43 60 35 61 36 62 42 63 44 64 37 65 38 66
REMARK SMILES IDX 39 67 40 68 41 69 67 70 68 71 77 72 69 73 70 74 76 75 78 76
REMARK SMILES IDX 71 77 72 78 73 79 74 80 75 81 51 82 52 83 61 84 53 85 54 86
REMARK SMILES IDX 60 87 62 88 55 89 56 90 57 91 58 92 59 93
REMARK H PARENT 12 21 83 43 49 54
REMARK Flexibility Score: inf
ROOT
ATOM      1  C   UNL A   1      36.016  20.953  24.929  1.00  0.00     0.202 C 
ENDROOT
BRANCH   1   2
ATOM      2  O   UNL A   1      35.013  20.058  25.382  1.00  0.00    -0.374 OA
BRANCH   2   3
ATOM      3  C   UNL A   1      33.956  19.726  24.510  1.00  0.00     0.202 C 
BRANCH   3   4
ATOM      4  C   UNL A   1      32.801  20.657  24.850  1.00  0.00     0.261 C 
BRANCH   4   5
ATOM      5  O   UNL A   1      33.259  21.922  25.384  1.00  0.00    -0.461 OA
BRANCH   5   6
ATOM      6  C   UNL A   1      32.780  23.040  24.779  1.00  0.00     0.338 C 
ATOM      7  O   UNL A   1      31.694  23.126  24.218  1.00  0.00    -0.249 OA
BRANCH   6   8
ATOM      8  C   UNL A   1      33.750  24.223  24.766  1.00  0.00     0.165 C 
ATOM      9  C   UNL A   1      34.568  24.135  26.116  1.00  0.00     0.055 C 
BRANCH   8  10
ATOM     10  C   UNL A   1      32.960  25.570  24.421  1.00  0.00     0.059 C 
ATOM     11  C   UNL A   1      33.405  26.245  23.107  1.00  0.00     0.016 C 
BRANCH  10  12
ATOM     12  C   UNL A   1      32.837  26.620  25.544  1.00  0.00    -0.039 A 
ATOM     13  C   UNL A   1      34.942  29.374  27.302  1.00  0.00     0.044 C 
ATOM     14  C   UNL A   1      33.829  28.463  26.891  1.00  0.00    -0.051 A 
ATOM     15  C   UNL A   1      32.628  28.634  27.539  1.00  0.00     0.004 A 
ATOM     16  C   UNL A   1      33.936  27.446  25.915  1.00  0.00     0.007 A 
ATOM     17  C   UNL A   1      31.560  27.847  27.159  1.00  0.00     0.004 A 
ATOM     18  C   UNL A   1      31.616  26.833  26.181  1.00  0.00    -0.048 A 
ATOM     19  C   UNL A   1      30.406  26.021  25.805  1.00  0.00     0.044 C 
ENDBRANCH  10  12
ENDBRANCH   8  10
BRANCH   8  20
ATOM     20  O   UNL A   1      34.719  24.008  23.720  1.00  0.00    -0.378 OA
ATOM     21  H   UNL A   1      35.542  24.469  23.942  1.00  0.00     0.212 HD
ENDBRANCH   8  20
ENDBRANCH   6   8
ENDBRANCH   5   6
ENDBRANCH   4   5
ENDBRANCH   3   4
ENDBRANCH   2   3
ENDBRANCH   1   2
BRANCH   1  22
ATOM     22  C   UNL A   1      37.354  20.290  25.173  1.00  0.00     0.261 C 
BRANCH  22  23
ATOM     23  O   UNL A   1      38.436  21.243  24.972  1.00  0.00    -0.460 OA
BRANCH  23  24
ATOM     24  C   UNL A   1      39.382  21.289  25.966  1.00  0.00     0.338 C 
ATOM     25  O   UNL A   1      39.990  20.307  26.362  1.00  0.00    -0.246 OA
BRANCH  24  26
ATOM     26  C   UNL A   1      39.488  22.679  26.566  1.00  0.00     0.060 A 
ATOM     27  C   UNL A   1      38.608  23.702  26.188  1.00  0.00     0.016 A 
ATOM     28  C   UNL A   1      40.585  23.025  27.355  1.00  0.00     0.016 A 
ATOM     29  C   UNL A   1      38.852  25.048  26.580  1.00  0.00     0.010 A 
ATOM     30  C   UNL A   1      40.879  24.370  27.636  1.00  0.00     0.010 A 
ATOM     31  C   UNL A   1      40.043  25.438  27.244  1.00  0.00    -0.014 A 
BRANCH  31  32
ATOM     32  C   UNL A   1      40.337  26.787  27.971  1.00  0.00     0.031 A 
ATOM     33  C   UNL A   1      41.612  27.135  27.345  1.00  0.00     0.074 A 
ATOM     34  C   UNL A   1      40.130  27.564  29.123  1.00  0.00     0.049 A 
ATOM     35  N   UNL A   1      42.738  26.771  27.875  1.00  0.00    -0.248 NA
ATOM     36  C   UNL A   1      41.710  27.497  25.925  1.00  0.00     0.031 C 
ATOM     37  C   UNL A   1      39.504  27.273  30.420  1.00  0.00     0.029 A 
ATOM     38  N   UNL A   1      39.917  28.981  29.127  1.00  0.00    -0.354 N 
ATOM     39  C   UNL A   1      43.640  27.423  27.081  1.00  0.00     0.074 A 
ATOM     40  C   UNL A   1      43.038  27.474  25.770  1.00  0.00     0.031 C 
ATOM     41  C   UNL A   1      38.636  28.224  30.817  1.00  0.00     0.029 A 
ATOM     42  C   UNL A   1      38.826  29.416  29.995  1.00  0.00     0.049 A 
ATOM     43  H   UNL A   1      40.458  29.607  28.592  1.00  0.00     0.167 HD
ATOM     44  C   UNL A   1      44.364  28.383  27.713  1.00  0.00     0.037 A 
ATOM     45  C   UNL A   1      38.639  30.568  30.723  1.00  0.00     0.037 A 
ATOM     46  C   UNL A   1      44.419  28.173  29.151  1.00  0.00     0.049 A 
ATOM     47  C   UNL A   1      39.932  30.966  31.315  1.00  0.00     0.074 A 
ATOM     48  C   UNL A   1      44.802  27.123  29.963  1.00  0.00     0.029 A 
ATOM     49  N   UNL A   1      43.614  28.988  29.913  1.00  0.00    -0.354 N 
ATOM     50  N   UNL A   1      40.499  30.347  32.312  1.00  0.00    -0.248 NA
ATOM     51  C   UNL A   1      40.820  31.757  30.474  1.00  0.00     0.031 C 
ATOM     52  C   UNL A   1      44.155  27.304  31.214  1.00  0.00     0.029 A 
ATOM     53  C   UNL A   1      43.446  28.501  31.189  1.00  0.00     0.049 A 
ATOM     54  H   UNL A   1      43.207  29.821  29.585  1.00  0.00     0.167 HD
ATOM     55  C   UNL A   1      41.811  30.223  31.894  1.00  0.00     0.074 A 
ATOM     56  C   UNL A   1      41.986  31.231  30.853  1.00  0.00     0.031 C 
ATOM     57  C   UNL A   1      42.512  29.082  32.143  1.00  0.00     0.037 A 
BRANCH  44  58
ATOM     58  C   UNL A   1      44.561  29.728  27.089  1.00  0.00     0.058 A 
ATOM     59  C   UNL A   1      45.852  30.113  26.726  1.00  0.00     0.135 A 
ATOM     60  C   UNL A   1      43.565  30.734  27.018  1.00  0.00     0.135 A 
ATOM     61  F   UNL A   1      46.873  29.250  26.847  1.00  0.00    -0.206 F 
ATOM     62  C   UNL A   1      46.130  31.400  26.280  1.00  0.00     0.059 A 
ATOM     63  C   UNL A   1      43.798  31.992  26.500  1.00  0.00     0.059 A 
ATOM     64  F   UNL A   1      42.346  30.586  27.543  1.00  0.00    -0.206 F 
ATOM     65  C   UNL A   1      45.090  32.322  26.148  1.00  0.00     0.060 A 
BRANCH  65  66
ATOM     66  S   UNL A   1      45.440  33.975  25.546  1.00  0.00     0.124 S 
ATOM     67  O   UNL A   1      44.697  34.790  26.498  1.00  0.00    -0.237 OA
ATOM     68  O   UNL A   1      46.894  34.023  25.648  1.00  0.00    -0.237 OA
ATOM     69  O   UNL A   1      44.914  33.952  24.183  1.00  0.00    -0.744 OA
ENDBRANCH  65  66
ENDBRANCH  44  58
BRANCH  45  70
ATOM     70  C   UNL A   1      37.374  31.353  30.901  1.00  0.00     0.058 A 
ATOM     71  C   UNL A   1      36.478  31.094  31.963  1.00  0.00     0.135 A 
ATOM     72  C   UNL A   1      37.110  32.513  30.154  1.00  0.00     0.135 A 
ATOM     73  F   UNL A   1      36.567  29.956  32.669  1.00  0.00    -0.206 F 
ATOM     74  C   UNL A   1      35.519  32.025  32.382  1.00  0.00     0.059 A 
ATOM     75  C   UNL A   1      36.159  33.459  30.552  1.00  0.00     0.059 A 
ATOM     76  F   UNL A   1      37.818  32.788  29.048  1.00  0.00    -0.206 F 
ATOM     77  C   UNL A   1      35.418  33.240  31.710  1.00  0.00     0.060 A 
BRANCH  77  78
ATOM     78  S   UNL A   1      34.487  34.600  32.471  1.00  0.00     0.124 S 
ATOM     79  O   UNL A   1      33.876  33.954  33.626  1.00  0.00    -0.237 OA
ATOM     80  O   UNL A   1      35.542  35.565  32.765  1.00  0.00    -0.237 OA
ATOM     81  O   UNL A   1      33.561  35.003  31.416  1.00  0.00    -0.744 OA
ENDBRANCH  77  78
ENDBRANCH  45  70
BRANCH  57  82
ATOM     82  C   UNL A   1      42.272  28.349  33.444  1.00  0.00     0.058 A 
ATOM     83  C   UNL A   1      41.168  27.544  33.766  1.00  0.00     0.135 A 
ATOM     84  C   UNL A   1      43.299  28.402  34.402  1.00  0.00     0.135 A 
ATOM     85  F   UNL A   1      40.120  27.433  32.951  1.00  0.00    -0.206 F 
ATOM     86  C   UNL A   1      41.105  26.799  34.945  1.00  0.00     0.059 A 
ATOM     87  C   UNL A   1      43.262  27.670  35.587  1.00  0.00     0.059 A 
ATOM     88  F   UNL A   1      44.387  29.158  34.176  1.00  0.00    -0.206 F 
ATOM     89  C   UNL A   1      42.157  26.865  35.850  1.00  0.00     0.060 A 
BRANCH  89  90
ATOM     90  S   UNL A   1      42.082  25.896  37.370  1.00  0.00     0.124 S 
ATOM     91  O   UNL A   1      43.005  26.640  38.243  1.00  0.00    -0.237 OA
ATOM     92  O   UNL A   1      40.661  26.011  37.735  1.00  0.00    -0.237 OA
ATOM     93  O   UNL A   1      42.516  24.587  36.975  1.00  0.00    -0.744 OA
ENDBRANCH  89  90
ENDBRANCH  57  82
ENDBRANCH  31  32
ENDBRANCH  24  26
ENDBRANCH  23  24
ENDBRANCH  22  23
ENDBRANCH   1  22
TORSDOF 20
ENDMDL
MODEL 2
REMARK VINA RESULT:     -11.0      1.595      2.478
REMARK SMILES Cc1ccc(C)c([C@@H](C)[C@](C)(O)C(=O)OCCOCCOC(=O)c2ccc(-c3c4nc(c(-c5c(F)cc(S(=O)(=O)[O-])cc5F)c5ccc([nH]5)c(-c5c(F)cc(S(=O)(=O)[O-])cc5F)c5nc(c(-c6c(F)cc(S(=O)(=O)[O-])cc6F)c6ccc3[nH]6)C=C5)C=C4)cc2)c1
REMARK SMILES IDX 19 1 18 2 17 3 16 4 15 5 13 6 14 7 10 8 11 9 8 10 9 11 7 12
REMARK SMILES IDX 1 13 2 14 3 15 90 16 4 17 5 18 6 19 12 20 20 22 21 23 22 24
REMARK SMILES IDX 23 25 24 26 25 27 89 28 26 29 88 30 27 31 28 32 29 33 82 34
REMARK SMILES IDX 30 35 87 36 81 37 83 38 31 39 86 40 80 41 79 42 32 44 66 45
REMARK SMILES IDX 45 46 65 47 46 48 49 49 64 50 84 51 47 52 48 53 63 55 85 56
REMARK SMILES IDX 50 57 33 58 34 59 43 60 35 61 36 62 42 63 44 64 37 65 38 66
REMARK SMILES IDX 39 67 40 68 41 69 67 70 68 71 77 72 69 73 70 74 76 75 78 76
REMARK SMILES IDX 71 77 72 78 73 79 74 80 75 81 51 82 52 83 61 84 53 85 54 86
REMARK SMILES IDX 60 87 62 88 55 89 56 90 57 91 58 92 59 93
REMARK H PARENT 12 21 83 43 49 54
REMARK Flexibility Score: inf
ROOT
ATOM      1  C   UNL A   1      35.718  21.870  24.746  1.00  0.00     0.202 C 
ENDROOT
BRANCH   1   2
ATOM      2  O   UNL A   1      35.609  22.702  23.601  1.00  0.00    -0.374 OA
BRANCH   2   3
ATOM      3  C   UNL A   1      34.819  23.867  23.682  1.00  0.00     0.202 C 
BRANCH   3   4
ATOM      4  C   UNL A   1      33.626  23.649  22.763  1.00  0.00     0.261 C 
BRANCH   4   5
ATOM      5  O   UNL A   1      32.644  24.705  22.884  1.00  0.00    -0.461 OA
BRANCH   5   6
ATOM      6  C   UNL A   1      32.739  25.721  21.987  1.00  0.00     0.338 C 
ATOM      7  O   UNL A   1      33.242  25.632  20.873  1.00  0.00    -0.249 OA
BRANCH   6   8
ATOM      8  C   UNL A   1      32.231  27.072  22.498  1.00  0.00     0.165 C 
ATOM      9  C   UNL A   1      33.441  28.079  22.351  1.00  0.00     0.055 C 
BRANCH   8  10
ATOM     10  C   UNL A   1      31.541  26.887  23.928  1.00  0.00     0.059 C 
ATOM     11  C   UNL A   1      30.002  26.782  23.878  1.00  0.00     0.016 C 
BRANCH  10  12
ATOM     12  C   UNL A   1      31.972  27.856  25.048  1.00  0.00    -0.039 A 
ATOM     13  C   UNL A   1      31.317  31.486  26.274  1.00  0.00     0.044 C 
ATOM     14  C   UNL A   1      31.814  30.080  26.154  1.00  0.00    -0.051 A 
ATOM     15  C   UNL A   1      32.663  29.646  27.146  1.00  0.00     0.004 A 
ATOM     16  C   UNL A   1      31.489  29.195  25.101  1.00  0.00     0.007 A 
ATOM     17  C   UNL A   1      33.108  28.340  27.102  1.00  0.00     0.004 A 
ATOM     18  C   UNL A   1      32.799  27.419  26.081  1.00  0.00    -0.048 A 
ATOM     19  C   UNL A   1      33.309  26.003  26.104  1.00  0.00     0.044 C 
ENDBRANCH  10  12
ENDBRANCH   8  10
BRANCH   8  20
ATOM     20  O   UNL A   1      31.223  27.554  21.587  1.00  0.00    -0.378 OA
ATOM     21  H   UNL A   1      30.369  27.151  21.807  1.00  0.00     0.212 HD
ENDBRANCH   8  20
ENDBRANCH   6   8
ENDBRANCH   5   6
ENDBRANCH   4   5
ENDBRANCH   3   4
ENDBRANCH   2   3
ENDBRANCH   1   2
BRANCH   1  22
ATOM     22  C   UNL A   1      37.188  21.580  24.953  1.00  0.00     0.261 C 
BRANCH  22  23
ATOM     23  O   UNL A   1      37.816  22.657  25.704  1.00  0.00    -0.460 OA
BRANCH  23  24
ATOM     24  C   UNL A   1      39.084  22.403  26.165  1.00  0.00     0.338 C 
ATOM     25  O   UNL A   1      39.605  21.299  26.123  1.00  0.00    -0.246 OA
BRANCH  24  26
ATOM     26  C   UNL A   1      39.694  23.629  26.817  1.00  0.00     0.060 A 
ATOM     27  C   UNL A   1      40.886  23.545  27.549  1.00  0.00     0.016 A 
ATOM     28  C   UNL A   1      38.982  24.827  26.873  1.00  0.00     0.016 A 
ATOM     29  C   UNL A   1      41.329  24.642  28.340  1.00  0.00     0.010 A 
ATOM     30  C   UNL A   1      39.366  25.859  27.748  1.00  0.00     0.010 A 
ATOM     31  C   UNL A   1      40.538  25.804  28.533  1.00  0.00    -0.014 A 
BRANCH  31  32
ATOM     32  C   UNL A   1      40.980  27.176  29.128  1.00  0.00     0.031 A 
ATOM     33  C   UNL A   1      42.122  27.467  28.263  1.00  0.00     0.074 A 
ATOM     34  C   UNL A   1      41.001  28.007  30.260  1.00  0.00     0.049 A 
ATOM     35  N   UNL A   1      43.322  27.101  28.592  1.00  0.00    -0.248 NA
ATOM     36  C   UNL A   1      41.960  27.764  26.833  1.00  0.00     0.031 C 
ATOM     37  C   UNL A   1      40.623  27.788  31.663  1.00  0.00     0.029 A 
ATOM     38  N   UNL A   1      40.813  29.428  30.237  1.00  0.00    -0.354 N 
ATOM     39  C   UNL A   1      44.070  27.697  27.615  1.00  0.00     0.074 A 
ATOM     40  C   UNL A   1      43.236  27.705  26.437  1.00  0.00     0.031 C 
ATOM     41  C   UNL A   1      39.856  28.775  32.169  1.00  0.00     0.029 A 
ATOM     42  C   UNL A   1      39.908  29.925  31.269  1.00  0.00     0.049 A 
ATOM     43  H   UNL A   1      41.254  30.016  29.583  1.00  0.00     0.167 HD
ATOM     44  C   UNL A   1      44.912  28.667  28.057  1.00  0.00     0.037 A 
ATOM     45  C   UNL A   1      39.875  31.112  31.964  1.00  0.00     0.037 A 
ATOM     46  C   UNL A   1      45.229  28.520  29.468  1.00  0.00     0.049 A 
ATOM     47  C   UNL A   1      41.261  31.506  32.288  1.00  0.00     0.074 A 
ATOM     48  C   UNL A   1      45.742  27.498  30.245  1.00  0.00     0.029 A 
ATOM     49  N   UNL A   1      44.591  29.385  30.326  1.00  0.00    -0.354 N 
ATOM     50  N   UNL A   1      41.995  30.919  33.191  1.00  0.00    -0.248 NA
ATOM     51  C   UNL A   1      41.989  32.239  31.261  1.00  0.00     0.031 C 
ATOM     52  C   UNL A   1      45.340  27.748  31.583  1.00  0.00     0.029 A 
ATOM     53  C   UNL A   1      44.656  28.959  31.633  1.00  0.00     0.049 A 
ATOM     54  H   UNL A   1      44.142  30.212  30.040  1.00  0.00     0.167 HD
ATOM     55  C   UNL A   1      43.204  30.746  32.545  1.00  0.00     0.074 A 
ATOM     56  C   UNL A   1      43.197  31.703  31.444  1.00  0.00     0.031 C 
ATOM     57  C   UNL A   1      43.923  29.602  32.715  1.00  0.00     0.037 A 
BRANCH  44  58
ATOM     58  C   UNL A   1      45.009  29.979  27.344  1.00  0.00     0.058 A 
ATOM     59  C   UNL A   1      46.244  30.364  26.820  1.00  0.00     0.135 A 
ATOM     60  C   UNL A   1      43.989  30.962  27.331  1.00  0.00     0.135 A 
ATOM     61  F   UNL A   1      47.291  29.526  26.874  1.00  0.00    -0.206 F 
ATOM     62  C   UNL A   1      46.442  31.630  26.279  1.00  0.00     0.059 A 
ATOM     63  C   UNL A   1      44.135  32.193  26.724  1.00  0.00     0.059 A 
ATOM     64  F   UNL A   1      42.838  30.823  27.995  1.00  0.00    -0.206 F 
ATOM     65  C   UNL A   1      45.373  32.525  26.215  1.00  0.00     0.060 A 
BRANCH  65  66
ATOM     66  S   UNL A   1      45.617  34.148  25.490  1.00  0.00     0.124 S 
ATOM     67  O   UNL A   1      47.072  34.218  25.428  1.00  0.00    -0.237 OA
ATOM     68  O   UNL A   1      44.921  34.008  24.215  1.00  0.00    -0.237 OA
ATOM     69  O   UNL A   1      44.978  35.043  26.451  1.00  0.00    -0.744 OA
ENDBRANCH  65  66
ENDBRANCH  44  58
BRANCH  45  70
ATOM     70  C   UNL A   1      38.677  31.932  32.335  1.00  0.00     0.058 A 
ATOM     71  C   UNL A   1      38.427  33.195  31.752  1.00  0.00     0.135 A 
ATOM     72  C   UNL A   1      37.635  31.410  33.121  1.00  0.00     0.135 A 
ATOM     73  F   UNL A   1      39.392  33.838  31.078  1.00  0.00    -0.206 F 
ATOM     74  C   UNL A   1      37.163  33.797  31.775  1.00  0.00     0.059 A 
ATOM     75  C   UNL A   1      36.363  31.991  33.159  1.00  0.00     0.059 A 
ATOM     76  F   UNL A   1      37.811  30.280  33.824  1.00  0.00    -0.206 F 
ATOM     77  C   UNL A   1      36.116  33.147  32.423  1.00  0.00     0.060 A 
BRANCH  77  78
ATOM     78  S   UNL A   1      34.411  33.693  32.124  1.00  0.00     0.124 S 
ATOM     79  O   UNL A   1      34.536  35.145  32.152  1.00  0.00    -0.237 OA
ATOM     80  O   UNL A   1      34.127  33.104  30.818  1.00  0.00    -0.237 OA
ATOM     81  O   UNL A   1      33.670  33.105  33.237  1.00  0.00    -0.744 OA
ENDBRANCH  77  78
ENDBRANCH  45  70
BRANCH  57  82
ATOM     82  C   UNL A   1      43.917  28.932  34.070  1.00  0.00     0.058 A 
ATOM     83  C   UNL A   1      43.260  27.742  34.420  1.00  0.00     0.135 A 
ATOM     84  C   UNL A   1      44.725  29.508  35.066  1.00  0.00     0.135 A 
ATOM     85  F   UNL A   1      42.447  27.116  33.571  1.00  0.00    -0.206 F 
ATOM     86  C   UNL A   1      43.429  27.133  35.665  1.00  0.00     0.059 A 
ATOM     87  C   UNL A   1      44.911  28.923  36.317  1.00  0.00     0.059 A 
ATOM     88  F   UNL A   1      45.381  30.654  34.817  1.00  0.00    -0.206 F 
ATOM     89  C   UNL A   1      44.257  27.728  36.607  1.00  0.00     0.060 A 
BRANCH  89  90
ATOM     90  S   UNL A   1      44.484  26.938  38.213  1.00  0.00     0.124 S 
ATOM     91  O   UNL A   1      43.163  26.327  38.435  1.00  0.00    -0.237 OA
ATOM     92  O   UNL A   1      45.566  25.980  37.933  1.00  0.00    -0.237 OA
ATOM     93  O   UNL A   1      44.826  28.019  39.093  1.00  0.00    -0.744 OA
ENDBRANCH  89  90
ENDBRANCH  57  82
ENDBRANCH  31  32
ENDBRANCH  24  26
ENDBRANCH  23  24
ENDBRANCH  22  23
ENDBRANCH   1  22
TORSDOF 20
ENDMDL
MODEL 3
REMARK VINA RESULT:     -10.9      2.823      9.345
REMARK SMILES Cc1ccc(C)c([C@@H](C)[C@](C)(O)C(=O)OCCOCCOC(=O)c2ccc(-c3c4nc(c(-c5c(F)cc(S(=O)(=O)[O-])cc5F)c5ccc([nH]5)c(-c5c(F)cc(S(=O)(=O)[O-])cc5F)c5nc(c(-c6c(F)cc(S(=O)(=O)[O-])cc6F)c6ccc3[nH]6)C=C5)C=C4)cc2)c1
REMARK SMILES IDX 19 1 18 2 17 3 16 4 15 5 13 6 14 7 10 8 11 9 8 10 9 11 7 12
REMARK SMILES IDX 1 13 2 14 3 15 90 16 4 17 5 18 6 19 12 20 20 22 21 23 22 24
REMARK SMILES IDX 23 25 24 26 25 27 89 28 26 29 88 30 27 31 28 32 29 33 82 34
REMARK SMILES IDX 30 35 87 36 81 37 83 38 31 39 86 40 80 41 79 42 32 44 66 45
REMARK SMILES IDX 45 46 65 47 46 48 49 49 64 50 84 51 47 52 48 53 63 55 85 56
REMARK SMILES IDX 50 57 33 58 34 59 43 60 35 61 36 62 42 63 44 64 37 65 38 66
REMARK SMILES IDX 39 67 40 68 41 69 67 70 68 71 77 72 69 73 70 74 76 75 78 76
REMARK SMILES IDX 71 77 72 78 73 79 74 80 75 81 51 82 52 83 61 84 53 85 54 86
REMARK SMILES IDX 60 87 62 88 55 89 56 90 57 91 58 92 59 93
REMARK H PARENT 12 21 83 43 49 54
REMARK Flexibility Score: inf
ROOT
ATOM      1  C   UNL A   1      32.547  27.972  27.231  1.00  0.00     0.202 C 
ENDROOT
BRANCH   1   2
ATOM      2  O   UNL A   1      31.281  27.430  26.890  1.00  0.00    -0.374 OA
BRANCH   2   3
ATOM      3  C   UNL A   1      30.959  27.264  25.527  1.00  0.00     0.202 C 
BRANCH   3   4
ATOM      4  C   UNL A   1      30.688  25.780  25.320  1.00  0.00     0.261 C 
BRANCH   4   5
ATOM      5  O   UNL A   1      31.724  24.952  25.898  1.00  0.00    -0.461 OA
BRANCH   5   6
ATOM      6  C   UNL A   1      31.311  23.816  26.518  1.00  0.00     0.338 C 
ATOM      7  O   UNL A   1      30.343  23.734  27.266  1.00  0.00    -0.249 OA
BRANCH   6   8
ATOM      8  C   UNL A   1      32.208  22.598  26.283  1.00  0.00     0.165 C 
ATOM      9  C   UNL A   1      32.983  22.357  27.640  1.00  0.00     0.055 C 
BRANCH   8  10
ATOM     10  C   UNL A   1      33.043  22.792  24.933  1.00  0.00     0.059 C 
ATOM     11  C   UNL A   1      32.459  22.044  23.716  1.00  0.00     0.016 C 
BRANCH  10  12
ATOM     12  C   UNL A   1      34.567  22.571  25.011  1.00  0.00    -0.039 A 
ATOM     13  C   UNL A   1      37.185  19.704  24.820  1.00  0.00     0.044 C 
ATOM     14  C   UNL A   1      36.533  21.046  24.929  1.00  0.00    -0.051 A 
ATOM     15  C   UNL A   1      37.375  22.127  25.053  1.00  0.00     0.004 A 
ATOM     16  C   UNL A   1      35.137  21.268  24.930  1.00  0.00     0.007 A 
ATOM     17  C   UNL A   1      36.818  23.388  25.107  1.00  0.00     0.004 A 
ATOM     18  C   UNL A   1      35.435  23.658  25.096  1.00  0.00    -0.048 A 
ATOM     19  C   UNL A   1      34.897  25.063  25.144  1.00  0.00     0.044 C 
ENDBRANCH  10  12
ENDBRANCH   8  10
BRANCH   8  20
ATOM     20  O   UNL A   1      31.369  21.438  26.113  1.00  0.00    -0.378 OA
ATOM     21  H   UNL A   1      31.916  20.678  25.864  1.00  0.00     0.212 HD
ENDBRANCH   8  20
ENDBRANCH   6   8
ENDBRANCH   5   6
ENDBRANCH   4   5
ENDBRANCH   3   4
ENDBRANCH   2   3
ENDBRANCH   1   2
BRANCH   1  22
ATOM     22  C   UNL A   1      32.625  29.352  26.615  1.00  0.00     0.261 C 
BRANCH  22  23
ATOM     23  O   UNL A   1      34.006  29.810  26.572  1.00  0.00    -0.460 OA
BRANCH  23  24
ATOM     24  C   UNL A   1      34.367  30.712  27.542  1.00  0.00     0.338 C 
ATOM     25  O   UNL A   1      33.674  31.666  27.862  1.00  0.00    -0.246 OA
BRANCH  24  26
ATOM     26  C   UNL A   1      35.760  30.431  28.072  1.00  0.00     0.060 A 
ATOM     27  C   UNL A   1      36.592  31.470  28.512  1.00  0.00     0.016 A 
ATOM     28  C   UNL A   1      36.320  29.160  27.947  1.00  0.00     0.016 A 
ATOM     29  C   UNL A   1      37.965  31.227  28.793  1.00  0.00     0.010 A 
ATOM     30  C   UNL A   1      37.700  28.957  28.114  1.00  0.00     0.010 A 
ATOM     31  C   UNL A   1      38.585  29.980  28.520  1.00  0.00    -0.014 A 
BRANCH  31  32
ATOM     32  C   UNL A   1      39.975  29.473  29.011  1.00  0.00     0.031 A 
ATOM     33  C   UNL A   1      39.821  29.674  30.451  1.00  0.00     0.074 A 
ATOM     34  C   UNL A   1      41.328  29.274  28.688  1.00  0.00     0.049 A 
ATOM     35  N   UNL A   1      40.187  30.783  31.015  1.00  0.00    -0.248 NA
ATOM     36  C   UNL A   1      38.879  28.881  31.252  1.00  0.00     0.031 C 
ATOM     37  C   UNL A   1      42.145  29.671  27.533  1.00  0.00     0.029 A 
ATOM     38  N   UNL A   1      42.105  28.137  29.084  1.00  0.00    -0.354 N 
ATOM     39  C   UNL A   1      40.020  30.488  32.339  1.00  0.00     0.074 A 
ATOM     40  C   UNL A   1      38.905  29.574  32.396  1.00  0.00     0.031 C 
ATOM     41  C   UNL A   1      42.898  28.666  27.043  1.00  0.00     0.029 A 
ATOM     42  C   UNL A   1      42.923  27.574  28.013  1.00  0.00     0.049 A 
ATOM     43  H   UNL A   1      42.090  27.767  29.996  1.00  0.00     0.167 HD
ATOM     44  C   UNL A   1      41.168  30.462  33.065  1.00  0.00     0.037 A 
ATOM     45  C   UNL A   1      44.145  26.941  28.029  1.00  0.00     0.037 A 
ATOM     46  C   UNL A   1      42.230  31.238  32.444  1.00  0.00     0.049 A 
ATOM     47  C   UNL A   1      45.013  27.620  29.012  1.00  0.00     0.074 A 
ATOM     48  C   UNL A   1      42.347  32.543  32.006  1.00  0.00     0.029 A 
ATOM     49  N   UNL A   1      43.211  30.518  31.803  1.00  0.00    -0.354 N 
ATOM     50  N   UNL A   1      45.548  28.794  28.824  1.00  0.00    -0.248 NA
ATOM     51  C   UNL A   1      44.885  27.198  30.400  1.00  0.00     0.031 C 
ATOM     52  C   UNL A   1      43.389  32.569  31.042  1.00  0.00     0.029 A 
ATOM     53  C   UNL A   1      43.957  31.302  30.953  1.00  0.00     0.049 A 
ATOM     54  H   UNL A   1      43.363  29.555  31.938  1.00  0.00     0.167 HD
ATOM     55  C   UNL A   1      45.300  29.442  30.020  1.00  0.00     0.074 A 
ATOM     56  C   UNL A   1      45.042  28.384  30.991  1.00  0.00     0.031 C 
ATOM     57  C   UNL A   1      44.947  30.757  30.034  1.00  0.00     0.037 A 
BRANCH  44  58
ATOM     58  C   UNL A   1      41.444  29.345  34.021  1.00  0.00     0.058 A 
ATOM     59  C   UNL A   1      41.765  28.089  33.505  1.00  0.00     0.135 A 
ATOM     60  C   UNL A   1      41.207  29.407  35.417  1.00  0.00     0.135 A 
ATOM     61  F   UNL A   1      41.918  27.922  32.182  1.00  0.00    -0.206 F 
ATOM     62  C   UNL A   1      41.886  26.974  34.327  1.00  0.00     0.059 A 
ATOM     63  C   UNL A   1      41.404  28.335  36.264  1.00  0.00     0.059 A 
ATOM     64  F   UNL A   1      40.674  30.474  36.016  1.00  0.00    -0.206 F 
ATOM     65  C   UNL A   1      41.728  27.115  35.706  1.00  0.00     0.060 A 
BRANCH  65  66
ATOM     66  S   UNL A   1      41.913  25.685  36.772  1.00  0.00     0.124 S 
ATOM     67  O   UNL A   1      43.288  25.844  37.229  1.00  0.00    -0.237 OA
ATOM     68  O   UNL A   1      40.870  25.921  37.765  1.00  0.00    -0.237 OA
ATOM     69  O   UNL A   1      41.669  24.562  35.871  1.00  0.00    -0.744 OA
ENDBRANCH  65  66
ENDBRANCH  44  58
BRANCH  45  70
ATOM     70  C   UNL A   1      44.575  25.745  27.235  1.00  0.00     0.058 A 
ATOM     71  C   UNL A   1      44.714  24.468  27.825  1.00  0.00     0.135 A 
ATOM     72  C   UNL A   1      44.666  25.778  25.833  1.00  0.00     0.135 A 
ATOM     73  F   UNL A   1      44.759  24.334  29.160  1.00  0.00    -0.206 F 
ATOM     74  C   UNL A   1      44.731  23.289  27.070  1.00  0.00     0.059 A 
ATOM     75  C   UNL A   1      44.682  24.614  25.056  1.00  0.00     0.059 A 
ATOM     76  F   UNL A   1      44.676  26.949  25.178  1.00  0.00    -0.206 F 
ATOM     77  C   UNL A   1      44.641  23.372  25.684  1.00  0.00     0.060 A 
BRANCH  77  78
ATOM     78  S   UNL A   1      44.256  21.878  24.727  1.00  0.00     0.124 S 
ATOM     79  O   UNL A   1      42.882  21.597  25.125  1.00  0.00    -0.237 OA
ATOM     80  O   UNL A   1      44.439  22.339  23.354  1.00  0.00    -0.237 OA
ATOM     81  O   UNL A   1      45.253  20.917  25.192  1.00  0.00    -0.744 OA
ENDBRANCH  77  78
ENDBRANCH  45  70
BRANCH  57  82
ATOM     82  C   UNL A   1      45.563  31.689  29.015  1.00  0.00     0.058 A 
ATOM     83  C   UNL A   1      44.926  32.265  27.905  1.00  0.00     0.135 A 
ATOM     84  C   UNL A   1      46.889  32.096  29.248  1.00  0.00     0.135 A 
ATOM     85  F   UNL A   1      43.679  31.940  27.567  1.00  0.00    -0.206 F 
ATOM     86  C   UNL A   1      45.547  33.221  27.100  1.00  0.00     0.059 A 
ATOM     87  C   UNL A   1      47.534  33.047  28.459  1.00  0.00     0.059 A 
ATOM     88  F   UNL A   1      47.575  31.584  30.284  1.00  0.00    -0.206 F 
ATOM     89  C   UNL A   1      46.850  33.609  27.385  1.00  0.00     0.060 A 
BRANCH  89  90
ATOM     90  S   UNL A   1      47.651  34.852  26.351  1.00  0.00     0.124 S 
ATOM     91  O   UNL A   1      47.068  34.563  25.030  1.00  0.00    -0.237 OA
ATOM     92  O   UNL A   1      47.190  36.106  26.967  1.00  0.00    -0.237 OA
ATOM     93  O   UNL A   1      49.052  34.574  26.487  1.00  0.00    -0.744 OA
ENDBRANCH  89  90
ENDBRANCH  57  82
ENDBRANCH  31  32
ENDBRANCH  24  26
ENDBRANCH  23  24
ENDBRANCH  22  23
ENDBRANCH   1  22
TORSDOF 20
ENDMDL
