MODEL 1
REMARK VINA RESULT:     -11.8      0.000      0.000
REMARK SMILES Cc1cccc(-n2c(C)cc(/C=N\c3ccc(O)c(C(=O)OCCOCCOC(=O)c4ccc(-c5c6nc(c(-c7c(F)cc(S(=O)(=O)[O-])cc7F)c7ccc([nH]7)c(-c7c(F)cc(S(=O)(=O)[O-])cc7F)c7nc(c(-c8c(F)cc(S(=O)(=O)[O-])cc8F)c8ccc5[nH]8)C=C7)C=C6)cc4)c3)c2C)c1
REMARK SMILES IDX 25 1 24 2 23 3 22 4 20 5 21 6 19 7 14 8 15 9 97 10 16 11
REMARK SMILES IDX 17 12 13 13 12 14 11 15 7 16 8 17 98 18 9 19 10 20 99 21
REMARK SMILES IDX 6 22 1 23 2 24 3 25 100 26 4 27 5 28 18 29 26 31 27 32 28 33
REMARK SMILES IDX 29 34 30 35 31 36 32 37 96 38 33 39 95 40 34 41 35 42 36 43
REMARK SMILES IDX 89 44 37 45 94 46 88 47 90 48 38 49 93 50 87 51 86 52 39 54
REMARK SMILES IDX 73 55 52 56 72 57 53 58 56 59 71 60 91 61 54 62 55 63 70 65
REMARK SMILES IDX 92 66 57 67 40 68 41 69 50 70 42 71 43 72 49 73 51 74 44 75
REMARK SMILES IDX 45 76 46 77 47 78 48 79 74 80 75 81 84 82 76 83 77 84 83 85
REMARK SMILES IDX 85 86 78 87 79 88 80 89 81 90 82 91 58 92 59 93 68 94 60 95
REMARK SMILES IDX 61 96 67 97 69 98 62 99 63 100 64 101 65 102 66 103
REMARK H PARENT 18 30 90 53 56 64
REMARK Flexibility Score: inf
ROOT
ATOM      1  O   UNL A   1      41.231  21.418  25.365  1.00  0.00    -0.374 OA
ENDROOT
BRANCH   1   2
ATOM      2  C   UNL A   1      40.097  21.033  26.081  1.00  0.00     0.202 C 
BRANCH   2   3
ATOM      3  C   UNL A   1      39.141  22.090  26.419  1.00  0.00     0.261 C 
BRANCH   3   4
ATOM      4  O   UNL A   1      38.115  22.161  25.460  1.00  0.00    -0.460 OA
BRANCH   4   5
ATOM      5  C   UNL A   1      37.431  23.291  25.681  1.00  0.00     0.342 C 
ATOM      6  O   UNL A   1      37.814  24.258  26.341  1.00  0.00    -0.246 OA
BRANCH   5   7
ATOM      7  C   UNL A   1      36.216  23.255  24.875  1.00  0.00     0.103 A 
ATOM      8  C   UNL A   1      33.905  22.667  25.014  1.00  0.00     0.064 A 
ATOM      9  C   UNL A   1      33.841  22.585  23.622  1.00  0.00     0.032 A 
ATOM     10  C   UNL A   1      35.048  23.151  25.623  1.00  0.00     0.048 A 
ATOM     11  C   UNL A   1      34.983  22.821  22.853  1.00  0.00     0.049 A 
ATOM     12  C   UNL A   1      36.190  23.091  23.485  1.00  0.00     0.130 A 
BRANCH   8  13
ATOM     13  N   UNL A   1      32.883  22.245  25.846  1.00  0.00    -0.256 NA
ATOM     14  C   UNL A   1      31.815  22.959  26.061  1.00  0.00     0.121 C 
BRANCH  14  15
ATOM     15  C   UNL A   1      31.409  24.329  25.713  1.00  0.00     0.014 A 
ATOM     16  N   UNL A   1      30.774  26.327  24.828  1.00  0.00    -0.318 N 
ATOM     17  C   UNL A   1      31.255  26.584  26.094  1.00  0.00     0.021 A 
ATOM     18  C   UNL A   1      30.791  24.947  24.620  1.00  0.00     0.029 A 
ATOM     19  C   UNL A   1      31.290  27.936  26.703  1.00  0.00     0.065 C 
ATOM     20  C   UNL A   1      31.611  25.380  26.659  1.00  0.00     0.033 A 
ATOM     21  C   UNL A   1      30.275  24.397  23.346  1.00  0.00     0.065 C 
BRANCH  16  22
ATOM     22  C   UNL A   1      30.450  27.301  23.840  1.00  0.00     0.046 A 
ATOM     23  C   UNL A   1      27.385  29.290  22.778  1.00  0.00     0.044 C 
ATOM     24  C   UNL A   1      28.801  28.819  22.917  1.00  0.00    -0.049 A 
ATOM     25  C   UNL A   1      29.833  29.533  22.290  1.00  0.00     0.003 A 
ATOM     26  C   UNL A   1      29.115  27.696  23.695  1.00  0.00     0.030 A 
ATOM     27  C   UNL A   1      31.157  29.112  22.402  1.00  0.00     0.002 A 
ATOM     28  C   UNL A   1      31.466  27.982  23.157  1.00  0.00     0.026 A 
ENDBRANCH  16  22
ENDBRANCH  14  15
ENDBRANCH   8  13
BRANCH  12  29
ATOM     29  O   UNL A   1      37.301  23.027  22.695  1.00  0.00    -0.507 OA
ATOM     30  H   UNL A   1      37.345  23.532  21.906  1.00  0.00     0.293 HD
ENDBRANCH  12  29
ENDBRANCH   5   7
ENDBRANCH   4   5
ENDBRANCH   3   4
ENDBRANCH   2   3
ENDBRANCH   1   2
BRANCH   1  31
ATOM     31  C   UNL A   1      42.129  22.105  26.255  1.00  0.00     0.202 C 
BRANCH  31  32
ATOM     32  C   UNL A   1      42.456  23.633  25.996  1.00  0.00     0.261 C 
BRANCH  32  33
ATOM     33  O   UNL A   1      41.329  24.488  26.374  1.00  0.00    -0.460 OA
BRANCH  33  34
ATOM     34  C   UNL A   1      41.103  24.786  27.705  1.00  0.00     0.338 C 
ATOM     35  O   UNL A   1      41.420  24.091  28.650  1.00  0.00    -0.246 OA
BRANCH  34  36
ATOM     36  C   UNL A   1      40.321  26.080  27.793  1.00  0.00     0.060 A 
ATOM     37  C   UNL A   1      40.573  27.183  26.947  1.00  0.00     0.016 A 
ATOM     38  C   UNL A   1      39.633  26.292  28.976  1.00  0.00     0.016 A 
ATOM     39  C   UNL A   1      40.340  28.505  27.400  1.00  0.00     0.010 A 
ATOM     40  C   UNL A   1      39.608  27.576  29.475  1.00  0.00     0.010 A 
ATOM     41  C   UNL A   1      39.974  28.707  28.728  1.00  0.00    -0.014 A 
BRANCH  41  42
ATOM     42  C   UNL A   1      40.103  29.966  29.507  1.00  0.00     0.031 A 
ATOM     43  C   UNL A   1      38.957  30.911  29.429  1.00  0.00     0.074 A 
ATOM     44  C   UNL A   1      41.124  30.198  30.384  1.00  0.00     0.049 A 
ATOM     45  N   UNL A   1      39.079  32.191  29.323  1.00  0.00    -0.248 NA
ATOM     46  C   UNL A   1      37.555  30.494  29.317  1.00  0.00     0.031 C 
ATOM     47  C   UNL A   1      41.230  31.198  31.448  1.00  0.00     0.029 A 
ATOM     48  N   UNL A   1      42.345  29.524  30.502  1.00  0.00    -0.354 N 
ATOM     49  C   UNL A   1      37.818  32.715  29.546  1.00  0.00     0.074 A 
ATOM     50  C   UNL A   1      36.919  31.656  29.220  1.00  0.00     0.031 C 
ATOM     51  C   UNL A   1      42.507  31.268  31.885  1.00  0.00     0.029 A 
ATOM     52  C   UNL A   1      43.302  30.327  31.115  1.00  0.00     0.049 A 
ATOM     53  H   UNL A   1      42.506  28.603  30.192  1.00  0.00     0.167 HD
ATOM     54  C   UNL A   1      37.667  33.850  30.289  1.00  0.00     0.037 A 
ATOM     55  C   UNL A   1      44.482  30.474  30.470  1.00  0.00     0.037 A 
ATOM     56  C   UNL A   1      38.992  34.273  30.785  1.00  0.00     0.049 A 
ATOM     57  C   UNL A   1      44.402  31.859  29.896  1.00  0.00     0.074 A 
ATOM     58  C   UNL A   1      39.583  34.279  32.040  1.00  0.00     0.029 A 
ATOM     59  N   UNL A   1      40.043  34.432  29.878  1.00  0.00    -0.354 N 
ATOM     60  N   UNL A   1      43.260  32.461  29.651  1.00  0.00    -0.248 NA
ATOM     61  C   UNL A   1      45.540  32.767  29.855  1.00  0.00     0.031 C 
ATOM     62  C   UNL A   1      40.996  34.412  31.865  1.00  0.00     0.029 A 
ATOM     63  C   UNL A   1      41.275  34.463  30.505  1.00  0.00     0.049 A 
ATOM     64  H   UNL A   1      39.920  34.512  28.905  1.00  0.00     0.167 HD
ATOM     65  C   UNL A   1      43.465  33.810  29.644  1.00  0.00     0.074 A 
ATOM     66  C   UNL A   1      44.914  33.949  29.711  1.00  0.00     0.031 C 
ATOM     67  C   UNL A   1      42.480  34.755  29.730  1.00  0.00     0.037 A 
BRANCH  54  68
ATOM     68  C   UNL A   1      36.325  34.383  30.814  1.00  0.00     0.058 A 
ATOM     69  C   UNL A   1      35.299  34.761  29.919  1.00  0.00     0.135 A 
ATOM     70  C   UNL A   1      35.946  34.509  32.175  1.00  0.00     0.135 A 
ATOM     71  F   UNL A   1      35.456  34.645  28.594  1.00  0.00    -0.206 F 
ATOM     72  C   UNL A   1      34.045  35.241  30.333  1.00  0.00     0.059 A 
ATOM     73  C   UNL A   1      34.727  35.037  32.614  1.00  0.00     0.059 A 
ATOM     74  F   UNL A   1      36.690  34.040  33.178  1.00  0.00    -0.206 F 
ATOM     75  C   UNL A   1      33.767  35.381  31.685  1.00  0.00     0.060 A 
BRANCH  75  76
ATOM     76  S   UNL A   1      32.129  35.907  32.221  1.00  0.00     0.124 S 
ATOM     77  O   UNL A   1      31.478  36.228  30.956  1.00  0.00    -0.237 OA
ATOM     78  O   UNL A   1      31.638  34.717  32.908  1.00  0.00    -0.237 OA
ATOM     79  O   UNL A   1      32.402  37.053  33.086  1.00  0.00    -0.744 OA
ENDBRANCH  75  76
ENDBRANCH  54  68
BRANCH  55  80
ATOM     80  C   UNL A   1      44.995  29.132  29.990  1.00  0.00     0.058 A 
ATOM     81  C   UNL A   1      44.983  28.961  28.581  1.00  0.00     0.135 A 
ATOM     82  C   UNL A   1      45.942  28.351  30.680  1.00  0.00     0.135 A 
ATOM     83  F   UNL A   1      44.106  29.659  27.840  1.00  0.00    -0.206 F 
ATOM     84  C   UNL A   1      45.941  28.208  27.889  1.00  0.00     0.059 A 
ATOM     85  C   UNL A   1      46.927  27.598  30.002  1.00  0.00     0.059 A 
ATOM     86  F   UNL A   1      46.021  28.420  32.017  1.00  0.00    -0.206 F 
ATOM     87  C   UNL A   1      46.947  27.574  28.606  1.00  0.00     0.060 A 
BRANCH  87  88
ATOM     88  S   UNL A   1      48.346  26.871  27.684  1.00  0.00     0.124 S 
ATOM     89  O   UNL A   1      48.026  25.449  27.670  1.00  0.00    -0.237 OA
ATOM     90  O   UNL A   1      48.240  27.560  26.400  1.00  0.00    -0.237 OA
ATOM     91  O   UNL A   1      49.496  27.261  28.487  1.00  0.00    -0.744 OA
ENDBRANCH  87  88
ENDBRANCH  55  80
BRANCH  67  92
ATOM     92  C   UNL A   1      42.599  36.109  29.075  1.00  0.00     0.058 A 
ATOM     93  C   UNL A   1      43.390  37.149  29.591  1.00  0.00     0.135 A 
ATOM     94  C   UNL A   1      42.074  36.332  27.775  1.00  0.00     0.135 A 
ATOM     95  F   UNL A   1      44.051  37.036  30.751  1.00  0.00    -0.206 F 
ATOM     96  C   UNL A   1      43.580  38.344  28.914  1.00  0.00     0.059 A 
ATOM     97  C   UNL A   1      42.333  37.480  27.042  1.00  0.00     0.059 A 
ATOM     98  F   UNL A   1      41.307  35.434  27.144  1.00  0.00    -0.206 F 
ATOM     99  C   UNL A   1      43.055  38.498  27.638  1.00  0.00     0.060 A 
BRANCH  99 100
ATOM    100  S   UNL A   1      43.343  40.034  26.764  1.00  0.00     0.124 S 
ATOM    101  O   UNL A   1      43.314  40.993  27.864  1.00  0.00    -0.237 OA
ATOM    102  O   UNL A   1      44.650  39.808  26.156  1.00  0.00    -0.237 OA
ATOM    103  O   UNL A   1      42.227  40.110  25.828  1.00  0.00    -0.744 OA
ENDBRANCH  99 100
ENDBRANCH  67  92
ENDBRANCH  41  42
ENDBRANCH  34  36
ENDBRANCH  33  34
ENDBRANCH  32  33
ENDBRANCH  31  32
ENDBRANCH   1  31
TORSDOF 21
ENDMDL
MODEL 2
REMARK VINA RESULT:     -11.4      2.855      3.903
REMARK SMILES Cc1cccc(-n2c(C)cc(/C=N\c3ccc(O)c(C(=O)OCCOCCOC(=O)c4ccc(-c5c6nc(c(-c7c(F)cc(S(=O)(=O)[O-])cc7F)c7ccc([nH]7)c(-c7c(F)cc(S(=O)(=O)[O-])cc7F)c7nc(c(-c8c(F)cc(S(=O)(=O)[O-])cc8F)c8ccc5[nH]8)C=C7)C=C6)cc4)c3)c2C)c1
REMARK SMILES IDX 25 1 24 2 23 3 22 4 20 5 21 6 19 7 14 8 15 9 97 10 16 11
REMARK SMILES IDX 17 12 13 13 12 14 11 15 7 16 8 17 98 18 9 19 10 20 99 21
REMARK SMILES IDX 6 22 1 23 2 24 3 25 100 26 4 27 5 28 18 29 26 31 27 32 28 33
REMARK SMILES IDX 29 34 30 35 31 36 32 37 96 38 33 39 95 40 34 41 35 42 36 43
REMARK SMILES IDX 89 44 37 45 94 46 88 47 90 48 38 49 93 50 87 51 86 52 39 54
REMARK SMILES IDX 73 55 52 56 72 57 53 58 56 59 71 60 91 61 54 62 55 63 70 65
REMARK SMILES IDX 92 66 57 67 40 68 41 69 50 70 42 71 43 72 49 73 51 74 44 75
REMARK SMILES IDX 45 76 46 77 47 78 48 79 74 80 75 81 84 82 76 83 77 84 83 85
REMARK SMILES IDX 85 86 78 87 79 88 80 89 81 90 82 91 58 92 59 93 68 94 60 95
REMARK SMILES IDX 61 96 67 97 69 98 62 99 63 100 64 101 65 102 66 103
REMARK H PARENT 18 30 90 53 56 64
REMARK Flexibility Score: inf
ROOT
ATOM      1  O   UNL A   1      39.026  20.871  25.765  1.00  0.00    -0.374 OA
ENDROOT
BRANCH   1   2
ATOM      2  C   UNL A   1      37.780  20.705  25.160  1.00  0.00     0.202 C 
BRANCH   2   3
ATOM      3  C   UNL A   1      37.260  21.845  24.399  1.00  0.00     0.261 C 
BRANCH   3   4
ATOM      4  O   UNL A   1      35.858  21.795  24.321  1.00  0.00    -0.460 OA
BRANCH   4   5
ATOM      5  C   UNL A   1      35.381  22.923  24.863  1.00  0.00     0.342 C 
ATOM      6  O   UNL A   1      35.897  24.041  24.793  1.00  0.00    -0.246 OA
BRANCH   5   7
ATOM      7  C   UNL A   1      34.062  22.643  25.419  1.00  0.00     0.103 A 
ATOM      8  C   UNL A   1      31.742  22.996  24.978  1.00  0.00     0.064 A 
ATOM      9  C   UNL A   1      31.448  22.750  26.321  1.00  0.00     0.032 A 
ATOM     10  C   UNL A   1      33.024  22.790  24.505  1.00  0.00     0.048 A 
ATOM     11  C   UNL A   1      32.477  22.467  27.223  1.00  0.00     0.049 A 
ATOM     12  C   UNL A   1      33.795  22.480  26.783  1.00  0.00     0.130 A 
BRANCH   8  13
ATOM     13  N   UNL A   1      30.812  23.486  24.077  1.00  0.00    -0.256 NA
ATOM     14  C   UNL A   1      30.877  24.692  23.591  1.00  0.00     0.121 C 
BRANCH  14  15
ATOM     15  C   UNL A   1      31.707  25.872  23.878  1.00  0.00     0.014 A 
ATOM     16  N   UNL A   1      32.788  27.729  24.628  1.00  0.00    -0.318 N 
ATOM     17  C   UNL A   1      33.089  27.603  23.289  1.00  0.00     0.021 A 
ATOM     18  C   UNL A   1      32.011  26.635  25.011  1.00  0.00     0.029 A 
ATOM     19  C   UNL A   1      33.984  28.530  22.555  1.00  0.00     0.065 C 
ATOM     20  C   UNL A   1      32.472  26.462  22.826  1.00  0.00     0.033 A 
ATOM     21  C   UNL A   1      31.589  26.502  26.424  1.00  0.00     0.065 C 
BRANCH  16  22
ATOM     22  C   UNL A   1      33.088  28.851  25.453  1.00  0.00     0.046 A 
ATOM     23  C   UNL A   1      31.301  31.984  26.666  1.00  0.00     0.044 C 
ATOM     24  C   UNL A   1      32.304  30.880  26.523  1.00  0.00    -0.049 A 
ATOM     25  C   UNL A   1      33.390  30.811  27.410  1.00  0.00     0.003 A 
ATOM     26  C   UNL A   1      32.157  29.893  25.539  1.00  0.00     0.030 A 
ATOM     27  C   UNL A   1      34.337  29.796  27.294  1.00  0.00     0.002 A 
ATOM     28  C   UNL A   1      34.202  28.828  26.300  1.00  0.00     0.026 A 
ENDBRANCH  16  22
ENDBRANCH  14  15
ENDBRANCH   8  13
BRANCH  12  29
ATOM     29  O   UNL A   1      34.746  22.480  27.762  1.00  0.00    -0.507 OA
ATOM     30  H   UNL A   1      34.745  21.810  28.417  1.00  0.00     0.293 HD
ENDBRANCH  12  29
ENDBRANCH   5   7
ENDBRANCH   4   5
ENDBRANCH   3   4
ENDBRANCH   2   3
ENDBRANCH   1   2
BRANCH   1  31
ATOM     31  C   UNL A   1      39.221  22.267  26.051  1.00  0.00     0.202 C 
BRANCH  31  32
ATOM     32  C   UNL A   1      40.243  22.689  27.185  1.00  0.00     0.261 C 
BRANCH  32  33
ATOM     33  O   UNL A   1      41.573  22.950  26.630  1.00  0.00    -0.460 OA
BRANCH  33  34
ATOM     34  C   UNL A   1      41.867  24.189  26.091  1.00  0.00     0.338 C 
ATOM     35  O   UNL A   1      42.551  24.389  25.108  1.00  0.00    -0.246 OA
BRANCH  34  36
ATOM     36  C   UNL A   1      41.266  25.263  26.974  1.00  0.00     0.060 A 
ATOM     37  C   UNL A   1      40.732  26.465  26.458  1.00  0.00     0.016 A 
ATOM     38  C   UNL A   1      41.614  25.209  28.313  1.00  0.00     0.016 A 
ATOM     39  C   UNL A   1      40.770  27.657  27.225  1.00  0.00     0.010 A 
ATOM     40  C   UNL A   1      41.832  26.406  28.961  1.00  0.00     0.010 A 
ATOM     41  C   UNL A   1      41.446  27.653  28.442  1.00  0.00    -0.014 A 
BRANCH  41  42
ATOM     42  C   UNL A   1      41.974  28.834  29.173  1.00  0.00     0.031 A 
ATOM     43  C   UNL A   1      41.015  29.545  30.059  1.00  0.00     0.074 A 
ATOM     44  C   UNL A   1      43.297  29.173  29.184  1.00  0.00     0.049 A 
ATOM     45  N   UNL A   1      40.932  30.829  30.156  1.00  0.00    -0.248 NA
ATOM     46  C   UNL A   1      39.949  28.880  30.818  1.00  0.00     0.031 C 
ATOM     47  C   UNL A   1      44.023  30.070  30.085  1.00  0.00     0.029 A 
ATOM     48  N   UNL A   1      44.318  28.737  28.331  1.00  0.00    -0.354 N 
ATOM     49  C   UNL A   1      40.126  31.079  31.252  1.00  0.00     0.074 A 
ATOM     50  C   UNL A   1      39.331  29.903  31.397  1.00  0.00     0.031 C 
ATOM     51  C   UNL A   1      45.244  30.341  29.575  1.00  0.00     0.029 A 
ATOM     52  C   UNL A   1      45.371  29.647  28.306  1.00  0.00     0.049 A 
ATOM     53  H   UNL A   1      44.295  27.897  27.817  1.00  0.00     0.167 HD
ATOM     54  C   UNL A   1      40.435  32.089  32.117  1.00  0.00     0.037 A 
ATOM     55  C   UNL A   1      45.779  30.078  27.090  1.00  0.00     0.037 A 
ATOM     56  C   UNL A   1      41.705  32.709  31.689  1.00  0.00     0.049 A 
ATOM     57  C   UNL A   1      45.223  31.469  27.001  1.00  0.00     0.074 A 
ATOM     58  C   UNL A   1      42.989  32.709  32.212  1.00  0.00     0.029 A 
ATOM     59  N   UNL A   1      41.840  33.151  30.371  1.00  0.00    -0.354 N 
ATOM     60  N   UNL A   1      44.178  31.862  27.695  1.00  0.00    -0.248 NA
ATOM     61  C   UNL A   1      45.953  32.578  26.403  1.00  0.00     0.031 C 
ATOM     62  C   UNL A   1      43.889  33.126  31.181  1.00  0.00     0.029 A 
ATOM     63  C   UNL A   1      43.161  33.357  30.020  1.00  0.00     0.049 A 
ATOM     64  H   UNL A   1      41.081  33.297  29.760  1.00  0.00     0.167 HD
ATOM     65  C   UNL A   1      44.220  33.220  27.824  1.00  0.00     0.074 A 
ATOM     66  C   UNL A   1      45.309  33.626  26.945  1.00  0.00     0.031 C 
ATOM     67  C   UNL A   1      43.488  33.946  28.722  1.00  0.00     0.037 A 
BRANCH  54  68
ATOM     68  C   UNL A   1      39.775  32.304  33.488  1.00  0.00     0.058 A 
ATOM     69  C   UNL A   1      39.168  33.537  33.811  1.00  0.00     0.135 A 
ATOM     70  C   UNL A   1      39.650  31.338  34.520  1.00  0.00     0.135 A 
ATOM     71  F   UNL A   1      39.130  34.545  32.928  1.00  0.00    -0.206 F 
ATOM     72  C   UNL A   1      38.534  33.793  35.038  1.00  0.00     0.059 A 
ATOM     73  C   UNL A   1      39.076  31.585  35.772  1.00  0.00     0.059 A 
ATOM     74  F   UNL A   1      39.990  30.059  34.358  1.00  0.00    -0.206 F 
ATOM     75  C   UNL A   1      38.496  32.812  36.018  1.00  0.00     0.060 A 
BRANCH  75  76
ATOM     76  S   UNL A   1      37.604  33.105  37.557  1.00  0.00     0.124 S 
ATOM     77  O   UNL A   1      36.265  33.431  37.080  1.00  0.00    -0.237 OA
ATOM     78  O   UNL A   1      37.745  31.822  38.237  1.00  0.00    -0.237 OA
ATOM     79  O   UNL A   1      38.331  34.214  38.170  1.00  0.00    -0.744 OA
ENDBRANCH  75  76
ENDBRANCH  54  68
BRANCH  55  80
ATOM     80  C   UNL A   1      45.929  28.909  26.137  1.00  0.00     0.058 A 
ATOM     81  C   UNL A   1      47.221  28.321  26.118  1.00  0.00     0.135 A 
ATOM     82  C   UNL A   1      44.877  28.054  25.758  1.00  0.00     0.135 A 
ATOM     83  F   UNL A   1      48.288  29.064  26.456  1.00  0.00    -0.206 F 
ATOM     84  C   UNL A   1      47.441  26.954  25.905  1.00  0.00     0.059 A 
ATOM     85  C   UNL A   1      45.074  26.670  25.555  1.00  0.00     0.059 A 
ATOM     86  F   UNL A   1      43.618  28.516  25.721  1.00  0.00    -0.206 F 
ATOM     87  C   UNL A   1      46.353  26.123  25.679  1.00  0.00     0.060 A 
BRANCH  87  88
ATOM     88  S   UNL A   1      46.622  24.326  25.718  1.00  0.00     0.124 S 
ATOM     89  O   UNL A   1      45.343  23.830  26.213  1.00  0.00    -0.237 OA
ATOM     90  O   UNL A   1      46.919  24.034  24.318  1.00  0.00    -0.237 OA
ATOM     91  O   UNL A   1      47.756  24.184  26.619  1.00  0.00    -0.744 OA
ENDBRANCH  87  88
ENDBRANCH  55  80
BRANCH  67  92
ATOM     92  C   UNL A   1      43.024  35.354  28.438  1.00  0.00     0.058 A 
ATOM     93  C   UNL A   1      43.239  36.429  29.316  1.00  0.00     0.135 A 
ATOM     94  C   UNL A   1      42.526  35.706  27.156  1.00  0.00     0.135 A 
ATOM     95  F   UNL A   1      43.817  36.270  30.514  1.00  0.00    -0.206 F 
ATOM     96  C   UNL A   1      42.910  37.735  28.985  1.00  0.00     0.059 A 
ATOM     97  C   UNL A   1      42.283  37.015  26.773  1.00  0.00     0.059 A 
ATOM     98  F   UNL A   1      42.275  34.795  26.206  1.00  0.00    -0.206 F 
ATOM     99  C   UNL A   1      42.441  38.020  27.709  1.00  0.00     0.060 A 
BRANCH  99 100
ATOM    100  S   UNL A   1      42.059  39.718  27.288  1.00  0.00     0.124 S 
ATOM    101  O   UNL A   1      41.097  39.530  26.206  1.00  0.00    -0.237 OA
ATOM    102  O   UNL A   1      41.512  40.234  28.539  1.00  0.00    -0.237 OA
ATOM    103  O   UNL A   1      43.350  40.272  26.899  1.00  0.00    -0.744 OA
ENDBRANCH  99 100
ENDBRANCH  67  92
ENDBRANCH  41  42
ENDBRANCH  34  36
ENDBRANCH  33  34
ENDBRANCH  32  33
ENDBRANCH  31  32
ENDBRANCH   1  31
TORSDOF 21
ENDMDL
MODEL 3
REMARK VINA RESULT:     -11.3      4.597     11.262
REMARK SMILES Cc1cccc(-n2c(C)cc(/C=N\c3ccc(O)c(C(=O)OCCOCCOC(=O)c4ccc(-c5c6nc(c(-c7c(F)cc(S(=O)(=O)[O-])cc7F)c7ccc([nH]7)c(-c7c(F)cc(S(=O)(=O)[O-])cc7F)c7nc(c(-c8c(F)cc(S(=O)(=O)[O-])cc8F)c8ccc5[nH]8)C=C7)C=C6)cc4)c3)c2C)c1
REMARK SMILES IDX 25 1 24 2 23 3 22 4 20 5 21 6 19 7 14 8 15 9 97 10 16 11
REMARK SMILES IDX 17 12 13 13 12 14 11 15 7 16 8 17 98 18 9 19 10 20 99 21
REMARK SMILES IDX 6 22 1 23 2 24 3 25 100 26 4 27 5 28 18 29 26 31 27 32 28 33
REMARK SMILES IDX 29 34 30 35 31 36 32 37 96 38 33 39 95 40 34 41 35 42 36 43
REMARK SMILES IDX 89 44 37 45 94 46 88 47 90 48 38 49 93 50 87 51 86 52 39 54
REMARK SMILES IDX 73 55 52 56 72 57 53 58 56 59 71 60 91 61 54 62 55 63 70 65
REMARK SMILES IDX 92 66 57 67 40 68 41 69 50 70 42 71 43 72 49 73 51 74 44 75
REMARK SMILES IDX 45 76 46 77 47 78 48 79 74 80 75 81 84 82 76 83 77 84 83 85
REMARK SMILES IDX 85 86 78 87 79 88 80 89 81 90 82 91 58 92 59 93 68 94 60 95
REMARK SMILES IDX 61 96 67 97 69 98 62 99 63 100 64 101 65 102 66 103
REMARK H PARENT 18 30 90 53 56 64
REMARK Flexibility Score: inf
ROOT
ATOM      1  O   UNL A   1      34.423  31.288  28.644  1.00  0.00    -0.374 OA
ENDROOT
BRANCH   1   2
ATOM      2  C   UNL A   1      34.462  30.952  27.290  1.00  0.00     0.202 C 
BRANCH   2   3
ATOM      3  C   UNL A   1      33.954  29.627  26.926  1.00  0.00     0.261 C 
BRANCH   3   4
ATOM      4  O   UNL A   1      33.632  29.575  25.558  1.00  0.00    -0.460 OA
BRANCH   4   5
ATOM      5  C   UNL A   1      32.422  29.011  25.447  1.00  0.00     0.342 C 
ATOM      6  O   UNL A   1      31.486  29.131  26.239  1.00  0.00    -0.246 OA
BRANCH   5   7
ATOM      7  C   UNL A   1      32.340  28.355  24.147  1.00  0.00     0.103 A 
ATOM      8  C   UNL A   1      31.173  26.608  23.013  1.00  0.00     0.064 A 
ATOM      9  C   UNL A   1      32.183  26.557  22.050  1.00  0.00     0.032 A 
ATOM     10  C   UNL A   1      31.181  27.608  23.966  1.00  0.00     0.048 A 
ATOM     11  C   UNL A   1      33.291  27.402  22.151  1.00  0.00     0.049 A 
ATOM     12  C   UNL A   1      33.402  28.257  23.240  1.00  0.00     0.130 A 
BRANCH   8  13
ATOM     13  N   UNL A   1      30.160  25.669  23.098  1.00  0.00    -0.256 NA
ATOM     14  C   UNL A   1      30.311  24.530  23.713  1.00  0.00     0.121 C 
BRANCH  14  15
ATOM     15  C   UNL A   1      31.459  23.829  24.307  1.00  0.00     0.014 A 
ATOM     16  N   UNL A   1      33.286  22.604  24.889  1.00  0.00    -0.318 N 
ATOM     17  C   UNL A   1      32.638  22.938  26.059  1.00  0.00     0.021 A 
ATOM     18  C   UNL A   1      32.617  23.210  23.825  1.00  0.00     0.029 A 
ATOM     19  C   UNL A   1      33.124  22.556  27.407  1.00  0.00     0.065 C 
ATOM     20  C   UNL A   1      31.548  23.711  25.727  1.00  0.00     0.033 A 
ATOM     21  C   UNL A   1      33.143  23.049  22.450  1.00  0.00     0.065 C 
BRANCH  16  22
ATOM     22  C   UNL A   1      34.365  21.682  24.762  1.00  0.00     0.046 A 
ATOM     23  C   UNL A   1      38.142  21.722  25.224  1.00  0.00     0.044 C 
ATOM     24  C   UNL A   1      36.735  21.245  25.031  1.00  0.00    -0.049 A 
ATOM     25  C   UNL A   1      36.465  19.868  25.016  1.00  0.00     0.003 A 
ATOM     26  C   UNL A   1      35.675  22.155  24.902  1.00  0.00     0.030 A 
ATOM     27  C   UNL A   1      35.165  19.402  24.833  1.00  0.00     0.002 A 
ATOM     28  C   UNL A   1      34.116  20.307  24.682  1.00  0.00     0.026 A 
ENDBRANCH  16  22
ENDBRANCH  14  15
ENDBRANCH   8  13
BRANCH  12  29
ATOM     29  O   UNL A   1      34.626  28.833  23.419  1.00  0.00    -0.507 OA
ATOM     30  H   UNL A   1      35.116  29.133  22.678  1.00  0.00     0.293 HD
ENDBRANCH  12  29
ENDBRANCH   5   7
ENDBRANCH   4   5
ENDBRANCH   3   4
ENDBRANCH   2   3
ENDBRANCH   1   2
BRANCH   1  31
ATOM     31  C   UNL A   1      34.243  32.711  28.763  1.00  0.00     0.202 C 
BRANCH  31  32
ATOM     32  C   UNL A   1      34.745  33.446  30.073  1.00  0.00     0.261 C 
BRANCH  32  33
ATOM     33  O   UNL A   1      36.089  33.003  30.449  1.00  0.00    -0.460 OA
BRANCH  33  34
ATOM     34  C   UNL A   1      36.250  32.011  31.399  1.00  0.00     0.338 C 
ATOM     35  O   UNL A   1      35.822  32.043  32.536  1.00  0.00    -0.246 OA
BRANCH  34  36
ATOM     36  C   UNL A   1      37.117  30.913  30.821  1.00  0.00     0.060 A 
ATOM     37  C   UNL A   1      37.199  29.623  31.391  1.00  0.00     0.016 A 
ATOM     38  C   UNL A   1      38.122  31.326  29.961  1.00  0.00     0.016 A 
ATOM     39  C   UNL A   1      38.388  28.861  31.280  1.00  0.00     0.010 A 
ATOM     40  C   UNL A   1      39.332  30.669  30.037  1.00  0.00     0.010 A 
ATOM     41  C   UNL A   1      39.512  29.448  30.705  1.00  0.00    -0.014 A 
BRANCH  41  42
ATOM     42  C   UNL A   1      40.926  29.021  30.873  1.00  0.00     0.031 A 
ATOM     43  C   UNL A   1      41.361  27.847  30.071  1.00  0.00     0.074 A 
ATOM     44  C   UNL A   1      41.841  29.742  31.585  1.00  0.00     0.049 A 
ATOM     45  N   UNL A   1      42.114  26.901  30.521  1.00  0.00    -0.248 NA
ATOM     46  C   UNL A   1      40.870  27.546  28.722  1.00  0.00     0.031 C 
ATOM     47  C   UNL A   1      43.303  29.657  31.581  1.00  0.00     0.029 A 
ATOM     48  N   UNL A   1      41.617  30.771  32.508  1.00  0.00    -0.354 N 
ATOM     49  C   UNL A   1      42.497  26.159  29.417  1.00  0.00     0.074 A 
ATOM     50  C   UNL A   1      41.481  26.400  28.445  1.00  0.00     0.031 C 
ATOM     51  C   UNL A   1      43.805  30.345  32.629  1.00  0.00     0.029 A 
ATOM     52  C   UNL A   1      42.693  30.902  33.381  1.00  0.00     0.049 A 
ATOM     53  H   UNL A   1      40.806  31.328  32.536  1.00  0.00     0.167 HD
ATOM     54  C   UNL A   1      43.776  25.695  29.311  1.00  0.00     0.037 A 
ATOM     55  C   UNL A   1      42.414  30.884  34.705  1.00  0.00     0.037 A 
ATOM     56  C   UNL A   1      44.555  26.178  30.468  1.00  0.00     0.049 A 
ATOM     57  C   UNL A   1      42.859  29.518  35.143  1.00  0.00     0.074 A 
ATOM     58  C   UNL A   1      45.570  27.112  30.611  1.00  0.00     0.029 A 
ATOM     59  N   UNL A   1      44.071  25.954  31.760  1.00  0.00    -0.354 N 
ATOM     60  N   UNL A   1      42.947  28.501  34.317  1.00  0.00    -0.248 NA
ATOM     61  C   UNL A   1      43.523  29.272  36.416  1.00  0.00     0.031 C 
ATOM     62  C   UNL A   1      45.662  27.461  31.995  1.00  0.00     0.029 A 
ATOM     63  C   UNL A   1      44.688  26.761  32.697  1.00  0.00     0.049 A 
ATOM     64  H   UNL A   1      43.370  25.297  31.977  1.00  0.00     0.167 HD
ATOM     65  C   UNL A   1      43.829  27.593  34.827  1.00  0.00     0.074 A 
ATOM     66  C   UNL A   1      44.111  28.088  36.168  1.00  0.00     0.031 C 
ATOM     67  C   UNL A   1      44.405  26.574  34.120  1.00  0.00     0.037 A 
BRANCH  54  68
ATOM     68  C   UNL A   1      44.386  25.086  28.038  1.00  0.00     0.058 A 
ATOM     69  C   UNL A   1      44.699  23.710  27.975  1.00  0.00     0.135 A 
ATOM     70  C   UNL A   1      44.648  25.770  26.823  1.00  0.00     0.135 A 
ATOM     71  F   UNL A   1      44.455  22.894  29.010  1.00  0.00    -0.206 F 
ATOM     72  C   UNL A   1      45.243  23.089  26.839  1.00  0.00     0.059 A 
ATOM     73  C   UNL A   1      45.242  25.188  25.698  1.00  0.00     0.059 A 
ATOM     74  F   UNL A   1      44.261  27.027  26.604  1.00  0.00    -0.206 F 
ATOM     75  C   UNL A   1      45.518  23.837  25.703  1.00  0.00     0.060 A 
BRANCH  75  76
ATOM     76  S   UNL A   1      46.128  23.027  24.213  1.00  0.00     0.124 S 
ATOM     77  O   UNL A   1      46.658  21.774  24.738  1.00  0.00    -0.237 OA
ATOM     78  O   UNL A   1      44.916  22.920  23.408  1.00  0.00    -0.237 OA
ATOM     79  O   UNL A   1      47.131  23.958  23.702  1.00  0.00    -0.744 OA
ENDBRANCH  75  76
ENDBRANCH  54  68
BRANCH  55  80
ATOM     80  C   UNL A   1      41.237  31.788  35.009  1.00  0.00     0.058 A 
ATOM     81  C   UNL A   1      40.017  31.108  35.264  1.00  0.00     0.135 A 
ATOM     82  C   UNL A   1      41.346  33.062  35.598  1.00  0.00     0.135 A 
ATOM     83  F   UNL A   1      39.819  29.889  34.735  1.00  0.00    -0.206 F 
ATOM     84  C   UNL A   1      39.049  31.574  36.164  1.00  0.00     0.059 A 
ATOM     85  C   UNL A   1      40.391  33.544  36.521  1.00  0.00     0.059 A 
ATOM     86  F   UNL A   1      42.450  33.798  35.401  1.00  0.00    -0.206 F 
ATOM     87  C   UNL A   1      39.272  32.770  36.834  1.00  0.00     0.060 A 
BRANCH  87  88
ATOM     88  S   UNL A   1      38.171  33.199  38.215  1.00  0.00     0.124 S 
ATOM     89  O   UNL A   1      38.572  32.243  39.240  1.00  0.00    -0.237 OA
ATOM     90  O   UNL A   1      38.531  34.592  38.468  1.00  0.00    -0.237 OA
ATOM     91  O   UNL A   1      36.845  33.010  37.647  1.00  0.00    -0.744 OA
ENDBRANCH  87  88
ENDBRANCH  55  80
BRANCH  67  92
ATOM     92  C   UNL A   1      44.789  25.262  34.760  1.00  0.00     0.058 A 
ATOM     93  C   UNL A   1      43.876  24.219  34.989  1.00  0.00     0.135 A 
ATOM     94  C   UNL A   1      46.153  24.935  34.975  1.00  0.00     0.135 A 
ATOM     95  F   UNL A   1      42.570  24.339  34.714  1.00  0.00    -0.206 F 
ATOM     96  C   UNL A   1      44.270  22.979  35.469  1.00  0.00     0.059 A 
ATOM     97  C   UNL A   1      46.575  23.672  35.361  1.00  0.00     0.059 A 
ATOM     98  F   UNL A   1      47.143  25.818  34.794  1.00  0.00    -0.206 F 
ATOM     99  C   UNL A   1      45.621  22.712  35.644  1.00  0.00     0.060 A 
BRANCH  99 100
ATOM    100  S   UNL A   1      46.113  21.092  36.229  1.00  0.00     0.124 S 
ATOM    101  O   UNL A   1      45.331  20.227  35.351  1.00  0.00    -0.237 OA
ATOM    102  O   UNL A   1      47.553  21.099  35.992  1.00  0.00    -0.237 OA
ATOM    103  O   UNL A   1      45.714  21.100  37.631  1.00  0.00    -0.744 OA
ENDBRANCH  99 100
ENDBRANCH  67  92
ENDBRANCH  41  42
ENDBRANCH  34  36
ENDBRANCH  33  34
ENDBRANCH  32  33
ENDBRANCH  31  32
ENDBRANCH   1  31
TORSDOF 21
ENDMDL
