MODEL 1
REMARK VINA RESULT:     -11.0      0.000      0.000
REMARK SMILES O=C(Cc1ccccc1-c1ccn(C(F)F)c(=O)c1)OCCOCCOC(=O)c1ccc(-c2c3nc(c(-c4c(F)cc(S(=O)(=O)[O-])cc4F)c4ccc([nH]4)c(-c4c(F)cc(S(=O)(=O)[O-])cc4F)c4nc(c(-c5c(F)cc(S(=O)(=O)[O-])cc5F)c5ccc2[nH]5)C=C4)C=C3)cc1
REMARK SMILES IDX 23 1 22 2 21 3 20 4 2 5 1 6 3 7 4 8 5 9 9 10 6 11 8 12 7 13
REMARK SMILES IDX 10 14 11 15 19 16 12 17 17 18 13 19 18 20 14 21 15 22 16 23
REMARK SMILES IDX 24 24 25 25 26 26 27 27 28 28 29 29 30 30 94 31 31 32 93 33
REMARK SMILES IDX 32 34 33 35 34 36 87 37 35 38 92 39 86 40 88 41 36 42 91 43
REMARK SMILES IDX 85 44 84 45 37 47 71 48 50 49 70 50 51 51 54 52 69 53 89 54
REMARK SMILES IDX 52 55 53 56 68 58 90 59 55 60 38 61 39 62 48 63 40 64 41 65
REMARK SMILES IDX 47 66 49 67 42 68 43 69 44 70 45 71 46 72 72 73 73 74 82 75
REMARK SMILES IDX 74 76 75 77 81 78 83 79 76 80 77 81 78 82 79 83 80 84 56 85
REMARK SMILES IDX 57 86 66 87 58 88 59 89 65 90 67 91 60 92 61 93 62 94 63 95
REMARK SMILES IDX 64 96
REMARK H PARENT 88 46 54 57
REMARK Flexibility Score: inf
ROOT
ATOM      1  O   UNL A   1      40.109  22.158  26.266  1.00  0.00    -0.374 OA
ENDROOT
BRANCH   1   2
ATOM      2  C   UNL A   1      38.986  21.438  25.767  1.00  0.00     0.202 C 
BRANCH   2   3
ATOM      3  C   UNL A   1      37.762  22.181  25.219  1.00  0.00     0.261 C 
BRANCH   3   4
ATOM      4  O   UNL A   1      36.663  22.366  26.110  1.00  0.00    -0.463 OA
BRANCH   4   5
ATOM      5  C   UNL A   1      35.385  22.508  25.689  1.00  0.00     0.310 C 
ATOM      6  O   UNL A   1      34.531  22.879  26.495  1.00  0.00    -0.252 OA
BRANCH   5   7
ATOM      7  C   UNL A   1      35.019  22.103  24.274  1.00  0.00     0.158 C 
BRANCH   7   8
ATOM      8  C   UNL A   1      33.793  22.789  23.738  1.00  0.00    -0.029 A 
ATOM      9  C   UNL A   1      33.936  24.060  23.155  1.00  0.00     0.005 A 
ATOM     10  C   UNL A   1      32.518  22.194  23.777  1.00  0.00    -0.014 A 
ATOM     11  C   UNL A   1      32.832  24.797  22.755  1.00  0.00     0.000 A 
ATOM     12  C   UNL A   1      31.405  22.951  23.383  1.00  0.00     0.009 A 
ATOM     13  C   UNL A   1      31.562  24.255  22.903  1.00  0.00     0.001 A 
BRANCH  10  14
ATOM     14  C   UNL A   1      32.395  20.739  24.015  1.00  0.00    -0.011 A 
ATOM     15  C   UNL A   1      32.610  20.092  25.293  1.00  0.00     0.027 A 
ATOM     16  C   UNL A   1      32.313  19.982  22.906  1.00  0.00     0.080 A 
ATOM     17  C   UNL A   1      32.845  18.775  25.351  1.00  0.00     0.095 A 
ATOM     18  C   UNL A   1      32.482  18.506  22.968  1.00  0.00     0.255 A 
ATOM     19  N   UNL A   1      32.807  17.991  24.211  1.00  0.00    -0.258 N 
ATOM     20  O   UNL A   1      32.369  17.859  21.932  1.00  0.00    -0.269 OA
BRANCH  19  21
ATOM     21  C   UNL A   1      33.092  16.582  24.276  1.00  0.00     0.451 C 
ATOM     22  F   UNL A   1      34.325  16.312  23.784  1.00  0.00    -0.185 F 
ATOM     23  F   UNL A   1      33.044  16.128  25.553  1.00  0.00    -0.185 F 
ENDBRANCH  19  21
ENDBRANCH  10  14
ENDBRANCH   7   8
ENDBRANCH   5   7
ENDBRANCH   4   5
ENDBRANCH   3   4
ENDBRANCH   2   3
ENDBRANCH   1   2
BRANCH   1  24
ATOM     24  C   UNL A   1      41.409  21.598  26.104  1.00  0.00     0.202 C 
BRANCH  24  25
ATOM     25  C   UNL A   1      42.509  22.561  25.663  1.00  0.00     0.261 C 
BRANCH  25  26
ATOM     26  O   UNL A   1      42.731  23.578  26.645  1.00  0.00    -0.460 OA
BRANCH  26  27
ATOM     27  C   UNL A   1      42.827  24.829  26.132  1.00  0.00     0.338 C 
ATOM     28  O   UNL A   1      43.157  25.136  24.997  1.00  0.00    -0.246 OA
BRANCH  27  29
ATOM     29  C   UNL A   1      42.233  25.782  27.089  1.00  0.00     0.060 A 
ATOM     30  C   UNL A   1      42.850  27.034  27.212  1.00  0.00     0.016 A 
ATOM     31  C   UNL A   1      41.082  25.474  27.820  1.00  0.00     0.016 A 
ATOM     32  C   UNL A   1      42.363  27.957  28.126  1.00  0.00     0.010 A 
ATOM     33  C   UNL A   1      40.602  26.396  28.747  1.00  0.00     0.010 A 
ATOM     34  C   UNL A   1      41.276  27.614  28.938  1.00  0.00    -0.014 A 
BRANCH  34  35
ATOM     35  C   UNL A   1      41.007  28.445  30.129  1.00  0.00     0.031 A 
ATOM     36  C   UNL A   1      41.885  28.255  31.334  1.00  0.00     0.074 A 
ATOM     37  C   UNL A   1      40.064  29.401  30.095  1.00  0.00     0.049 A 
ATOM     38  N   UNL A   1      41.877  28.891  32.473  1.00  0.00    -0.248 NA
ATOM     39  C   UNL A   1      42.914  27.204  31.239  1.00  0.00     0.031 C 
ATOM     40  C   UNL A   1      39.183  29.679  28.961  1.00  0.00     0.029 A 
ATOM     41  N   UNL A   1      39.696  30.319  31.042  1.00  0.00    -0.354 N 
ATOM     42  C   UNL A   1      42.901  28.327  33.225  1.00  0.00     0.074 A 
ATOM     43  C   UNL A   1      43.476  27.263  32.436  1.00  0.00     0.031 C 
ATOM     44  C   UNL A   1      38.368  30.699  29.283  1.00  0.00     0.029 A 
ATOM     45  C   UNL A   1      38.656  31.126  30.650  1.00  0.00     0.049 A 
ATOM     46  H   UNL A   1      40.135  30.393  31.921  1.00  0.00     0.167 HD
ATOM     47  C   UNL A   1      43.336  28.684  34.456  1.00  0.00     0.037 A 
ATOM     48  C   UNL A   1      38.006  32.089  31.331  1.00  0.00     0.037 A 
ATOM     49  C   UNL A   1      42.744  29.742  35.231  1.00  0.00     0.049 A 
ATOM     50  C   UNL A   1      38.471  32.429  32.723  1.00  0.00     0.074 A 
ATOM     51  C   UNL A   1      43.093  30.185  36.494  1.00  0.00     0.029 A 
ATOM     52  N   UNL A   1      41.674  30.523  34.814  1.00  0.00    -0.354 N 
ATOM     53  N   UNL A   1      39.451  31.899  33.420  1.00  0.00    -0.248 NA
ATOM     54  C   UNL A   1      37.755  33.507  33.416  1.00  0.00     0.031 C 
ATOM     55  C   UNL A   1      42.204  31.199  36.861  1.00  0.00     0.029 A 
ATOM     56  C   UNL A   1      41.338  31.432  35.803  1.00  0.00     0.049 A 
ATOM     57  H   UNL A   1      41.222  30.441  33.944  1.00  0.00     0.167 HD
ATOM     58  C   UNL A   1      39.481  32.594  34.625  1.00  0.00     0.074 A 
ATOM     59  C   UNL A   1      38.441  33.599  34.547  1.00  0.00     0.031 C 
ATOM     60  C   UNL A   1      40.290  32.417  35.702  1.00  0.00     0.037 A 
BRANCH  47  61
ATOM     61  C   UNL A   1      44.492  27.916  35.037  1.00  0.00     0.058 A 
ATOM     62  C   UNL A   1      45.821  28.338  34.863  1.00  0.00     0.135 A 
ATOM     63  C   UNL A   1      44.269  26.761  35.802  1.00  0.00     0.135 A 
ATOM     64  F   UNL A   1      46.095  29.420  34.117  1.00  0.00    -0.206 F 
ATOM     65  C   UNL A   1      46.887  27.633  35.413  1.00  0.00     0.059 A 
ATOM     66  C   UNL A   1      45.318  26.057  36.387  1.00  0.00     0.059 A 
ATOM     67  F   UNL A   1      43.021  26.306  35.991  1.00  0.00    -0.206 F 
ATOM     68  C   UNL A   1      46.624  26.496  36.179  1.00  0.00     0.060 A 
BRANCH  68  69
ATOM     69  S   UNL A   1      48.018  25.610  36.908  1.00  0.00     0.124 S 
ATOM     70  O   UNL A   1      48.348  24.661  35.849  1.00  0.00    -0.237 OA
ATOM     71  O   UNL A   1      48.987  26.680  37.124  1.00  0.00    -0.237 OA
ATOM     72  O   UNL A   1      47.453  25.025  38.120  1.00  0.00    -0.744 OA
ENDBRANCH  68  69
ENDBRANCH  47  61
BRANCH  48  73
ATOM     73  C   UNL A   1      36.842  32.780  30.715  1.00  0.00     0.058 A 
ATOM     74  C   UNL A   1      35.524  32.456  31.063  1.00  0.00     0.135 A 
ATOM     75  C   UNL A   1      37.034  33.787  29.754  1.00  0.00     0.135 A 
ATOM     76  F   UNL A   1      35.286  31.499  31.973  1.00  0.00    -0.206 F 
ATOM     77  C   UNL A   1      34.436  33.086  30.466  1.00  0.00     0.059 A 
ATOM     78  C   UNL A   1      35.964  34.453  29.167  1.00  0.00     0.059 A 
ATOM     79  F   UNL A   1      38.276  34.147  29.394  1.00  0.00    -0.206 F 
ATOM     80  C   UNL A   1      34.668  34.086  29.520  1.00  0.00     0.060 A 
BRANCH  80  81
ATOM     81  S   UNL A   1      33.250  34.927  28.781  1.00  0.00     0.124 S 
ATOM     82  O   UNL A   1      33.895  36.033  28.084  1.00  0.00    -0.237 OA
ATOM     83  O   UNL A   1      32.683  33.881  27.935  1.00  0.00    -0.237 OA
ATOM     84  O   UNL A   1      32.439  35.295  29.939  1.00  0.00    -0.744 OA
ENDBRANCH  80  81
ENDBRANCH  48  73
BRANCH  60  85
ATOM     85  C   UNL A   1      40.089  33.352  36.865  1.00  0.00     0.058 A 
ATOM     86  C   UNL A   1      40.852  34.521  37.014  1.00  0.00     0.135 A 
ATOM     87  C   UNL A   1      39.113  33.078  37.836  1.00  0.00     0.135 A 
ATOM     88  F   UNL A   1      41.799  34.830  36.113  1.00  0.00    -0.206 F 
ATOM     89  C   UNL A   1      40.693  35.356  38.114  1.00  0.00     0.059 A 
ATOM     90  C   UNL A   1      38.910  33.920  38.925  1.00  0.00     0.059 A 
ATOM     91  F   UNL A   1      38.341  31.984  37.733  1.00  0.00    -0.206 F 
ATOM     92  C   UNL A   1      39.722  35.043  39.068  1.00  0.00     0.060 A 
BRANCH  92  93
ATOM     93  S   UNL A   1      39.537  36.127  40.499  1.00  0.00     0.124 S 
ATOM     94  O   UNL A   1      40.904  36.177  41.006  1.00  0.00    -0.237 OA
ATOM     95  O   UNL A   1      39.038  37.359  39.896  1.00  0.00    -0.237 OA
ATOM     96  O   UNL A   1      38.581  35.416  41.341  1.00  0.00    -0.744 OA
ENDBRANCH  92  93
ENDBRANCH  60  85
ENDBRANCH  34  35
ENDBRANCH  27  29
ENDBRANCH  26  27
ENDBRANCH  25  26
ENDBRANCH  24  25
ENDBRANCH   1  24
TORSDOF 20
ENDMDL
MODEL 2
REMARK VINA RESULT:     -11.0      6.569     12.230
REMARK SMILES O=C(Cc1ccccc1-c1ccn(C(F)F)c(=O)c1)OCCOCCOC(=O)c1ccc(-c2c3nc(c(-c4c(F)cc(S(=O)(=O)[O-])cc4F)c4ccc([nH]4)c(-c4c(F)cc(S(=O)(=O)[O-])cc4F)c4nc(c(-c5c(F)cc(S(=O)(=O)[O-])cc5F)c5ccc2[nH]5)C=C4)C=C3)cc1
REMARK SMILES IDX 23 1 22 2 21 3 20 4 2 5 1 6 3 7 4 8 5 9 9 10 6 11 8 12 7 13
REMARK SMILES IDX 10 14 11 15 19 16 12 17 17 18 13 19 18 20 14 21 15 22 16 23
REMARK SMILES IDX 24 24 25 25 26 26 27 27 28 28 29 29 30 30 94 31 31 32 93 33
REMARK SMILES IDX 32 34 33 35 34 36 87 37 35 38 92 39 86 40 88 41 36 42 91 43
REMARK SMILES IDX 85 44 84 45 37 47 71 48 50 49 70 50 51 51 54 52 69 53 89 54
REMARK SMILES IDX 52 55 53 56 68 58 90 59 55 60 38 61 39 62 48 63 40 64 41 65
REMARK SMILES IDX 47 66 49 67 42 68 43 69 44 70 45 71 46 72 72 73 73 74 82 75
REMARK SMILES IDX 74 76 75 77 81 78 83 79 76 80 77 81 78 82 79 83 80 84 56 85
REMARK SMILES IDX 57 86 66 87 58 88 59 89 65 90 67 91 60 92 61 93 62 94 63 95
REMARK SMILES IDX 64 96
REMARK H PARENT 88 46 54 57
REMARK Flexibility Score: inf
ROOT
ATOM      1  O   UNL A   1      34.307  30.870  28.289  1.00  0.00    -0.374 OA
ENDROOT
BRANCH   1   2
ATOM      2  C   UNL A   1      34.918  30.059  27.291  1.00  0.00     0.202 C 
BRANCH   2   3
ATOM      3  C   UNL A   1      34.090  29.050  26.489  1.00  0.00     0.261 C 
BRANCH   3   4
ATOM      4  O   UNL A   1      33.288  28.132  27.230  1.00  0.00    -0.463 OA
BRANCH   4   5
ATOM      5  C   UNL A   1      31.952  28.007  27.055  1.00  0.00     0.310 C 
ATOM      6  O   UNL A   1      31.234  27.851  28.043  1.00  0.00    -0.252 OA
BRANCH   5   7
ATOM      7  C   UNL A   1      31.389  27.953  25.647  1.00  0.00     0.158 C 
BRANCH   7   8
ATOM      8  C   UNL A   1      31.184  26.559  25.122  1.00  0.00    -0.029 A 
ATOM      9  C   UNL A   1      31.571  25.475  25.929  1.00  0.00     0.005 A 
ATOM     10  C   UNL A   1      30.597  26.303  23.869  1.00  0.00    -0.014 A 
ATOM     11  C   UNL A   1      31.523  24.173  25.456  1.00  0.00     0.000 A 
ATOM     12  C   UNL A   1      30.566  24.986  23.392  1.00  0.00     0.009 A 
ATOM     13  C   UNL A   1      31.053  23.932  24.172  1.00  0.00     0.001 A 
BRANCH  10  14
ATOM     14  C   UNL A   1      29.839  27.373  23.183  1.00  0.00    -0.011 A 
ATOM     15  C   UNL A   1      30.438  28.456  22.429  1.00  0.00     0.027 A 
ATOM     16  C   UNL A   1      28.534  27.444  23.501  1.00  0.00     0.080 A 
ATOM     17  C   UNL A   1      29.734  29.562  22.162  1.00  0.00     0.095 A 
ATOM     18  C   UNL A   1      27.715  28.628  23.131  1.00  0.00     0.255 A 
ATOM     19  N   UNL A   1      28.402  29.666  22.523  1.00  0.00    -0.258 N 
ATOM     20  O   UNL A   1      26.523  28.631  23.420  1.00  0.00    -0.269 OA
BRANCH  19  21
ATOM     21  C   UNL A   1      27.659  30.870  22.262  1.00  0.00     0.451 C 
ATOM     22  F   UNL A   1      27.407  31.546  23.408  1.00  0.00    -0.185 F 
ATOM     23  F   UNL A   1      28.340  31.699  21.431  1.00  0.00    -0.185 F 
ENDBRANCH  19  21
ENDBRANCH  10  14
ENDBRANCH   7   8
ENDBRANCH   5   7
ENDBRANCH   4   5
ENDBRANCH   3   4
ENDBRANCH   2   3
ENDBRANCH   1   2
BRANCH   1  24
ATOM     24  C   UNL A   1      34.731  32.224  28.425  1.00  0.00     0.202 C 
BRANCH  24  25
ATOM     25  C   UNL A   1      35.147  32.664  29.827  1.00  0.00     0.261 C 
BRANCH  25  26
ATOM     26  O   UNL A   1      36.559  32.536  30.012  1.00  0.00    -0.460 OA
BRANCH  26  27
ATOM     27  C   UNL A   1      36.916  31.553  30.875  1.00  0.00     0.338 C 
ATOM     28  O   UNL A   1      36.315  31.200  31.878  1.00  0.00    -0.246 OA
BRANCH  27  29
ATOM     29  C   UNL A   1      38.034  30.789  30.290  1.00  0.00     0.060 A 
ATOM     30  C   UNL A   1      39.006  30.298  31.173  1.00  0.00     0.016 A 
ATOM     31  C   UNL A   1      38.114  30.528  28.920  1.00  0.00     0.016 A 
ATOM     32  C   UNL A   1      40.104  29.610  30.679  1.00  0.00     0.010 A 
ATOM     33  C   UNL A   1      39.224  29.848  28.422  1.00  0.00     0.010 A 
ATOM     34  C   UNL A   1      40.244  29.438  29.297  1.00  0.00    -0.014 A 
BRANCH  34  35
ATOM     35  C   UNL A   1      41.565  29.035  28.776  1.00  0.00     0.031 A 
ATOM     36  C   UNL A   1      42.649  30.076  28.721  1.00  0.00     0.074 A 
ATOM     37  C   UNL A   1      41.809  27.755  28.449  1.00  0.00     0.049 A 
ATOM     38  N   UNL A   1      43.894  29.956  28.349  1.00  0.00    -0.248 NA
ATOM     39  C   UNL A   1      42.276  31.437  29.146  1.00  0.00     0.031 C 
ATOM     40  C   UNL A   1      40.829  26.670  28.497  1.00  0.00     0.029 A 
ATOM     41  N   UNL A   1      42.960  27.153  28.017  1.00  0.00    -0.354 N 
ATOM     42  C   UNL A   1      44.455  31.219  28.504  1.00  0.00     0.074 A 
ATOM     43  C   UNL A   1      43.404  32.102  28.952  1.00  0.00     0.031 C 
ATOM     44  C   UNL A   1      41.423  25.530  28.101  1.00  0.00     0.029 A 
ATOM     45  C   UNL A   1      42.813  25.814  27.751  1.00  0.00     0.049 A 
ATOM     46  H   UNL A   1      43.812  27.634  27.906  1.00  0.00     0.167 HD
ATOM     47  C   UNL A   1      45.739  31.599  28.311  1.00  0.00     0.037 A 
ATOM     48  C   UNL A   1      43.702  24.926  27.265  1.00  0.00     0.037 A 
ATOM     49  C   UNL A   1      46.771  30.706  27.855  1.00  0.00     0.049 A 
ATOM     50  C   UNL A   1      45.112  25.387  27.002  1.00  0.00     0.074 A 
ATOM     51  C   UNL A   1      48.104  30.981  27.613  1.00  0.00     0.029 A 
ATOM     52  N   UNL A   1      46.581  29.360  27.570  1.00  0.00    -0.354 N 
ATOM     53  N   UNL A   1      45.636  26.581  27.166  1.00  0.00    -0.248 NA
ATOM     54  C   UNL A   1      46.056  24.379  26.505  1.00  0.00     0.031 C 
ATOM     55  C   UNL A   1      48.710  29.815  27.134  1.00  0.00     0.029 A 
ATOM     56  C   UNL A   1      47.769  28.796  27.136  1.00  0.00     0.049 A 
ATOM     57  H   UNL A   1      45.728  28.879  27.663  1.00  0.00     0.167 HD
ATOM     58  C   UNL A   1      46.976  26.462  26.811  1.00  0.00     0.074 A 
ATOM     59  C   UNL A   1      47.185  25.073  26.453  1.00  0.00     0.031 C 
ATOM     60  C   UNL A   1      47.947  27.411  26.777  1.00  0.00     0.037 A 
BRANCH  47  61
ATOM     61  C   UNL A   1      46.088  33.038  28.578  1.00  0.00     0.058 A 
ATOM     62  C   UNL A   1      45.806  34.051  27.645  1.00  0.00     0.135 A 
ATOM     63  C   UNL A   1      46.685  33.416  29.791  1.00  0.00     0.135 A 
ATOM     64  F   UNL A   1      45.262  33.744  26.457  1.00  0.00    -0.206 F 
ATOM     65  C   UNL A   1      46.118  35.383  27.900  1.00  0.00     0.059 A 
ATOM     66  C   UNL A   1      46.978  34.745  30.079  1.00  0.00     0.059 A 
ATOM     67  F   UNL A   1      46.987  32.488  30.712  1.00  0.00    -0.206 F 
ATOM     68  C   UNL A   1      46.699  35.721  29.124  1.00  0.00     0.060 A 
BRANCH  68  69
ATOM     69  S   UNL A   1      47.071  37.457  29.448  1.00  0.00     0.124 S 
ATOM     70  O   UNL A   1      45.840  37.905  30.091  1.00  0.00    -0.237 OA
ATOM     71  O   UNL A   1      48.243  37.368  30.313  1.00  0.00    -0.237 OA
ATOM     72  O   UNL A   1      47.318  38.006  28.117  1.00  0.00    -0.744 OA
ENDBRANCH  68  69
ENDBRANCH  47  61
BRANCH  48  73
ATOM     73  C   UNL A   1      43.280  23.528  26.982  1.00  0.00     0.058 A 
ATOM     74  C   UNL A   1      43.084  23.070  25.672  1.00  0.00     0.135 A 
ATOM     75  C   UNL A   1      43.062  22.620  28.030  1.00  0.00     0.135 A 
ATOM     76  F   UNL A   1      43.274  23.899  24.634  1.00  0.00    -0.206 F 
ATOM     77  C   UNL A   1      42.664  21.769  25.410  1.00  0.00     0.059 A 
ATOM     78  C   UNL A   1      42.674  21.306  27.793  1.00  0.00     0.059 A 
ATOM     79  F   UNL A   1      43.251  23.002  29.303  1.00  0.00    -0.206 F 
ATOM     80  C   UNL A   1      42.464  20.894  26.479  1.00  0.00     0.060 A 
BRANCH  80  81
ATOM     81  S   UNL A   1      41.959  19.195  26.127  1.00  0.00     0.124 S 
ATOM     82  O   UNL A   1      42.266  18.531  27.388  1.00  0.00    -0.237 OA
ATOM     83  O   UNL A   1      40.542  19.357  25.817  1.00  0.00    -0.237 OA
ATOM     84  O   UNL A   1      42.803  18.824  24.994  1.00  0.00    -0.744 OA
ENDBRANCH  80  81
ENDBRANCH  48  73
BRANCH  60  85
ATOM     85  C   UNL A   1      49.322  26.963  26.362  1.00  0.00     0.058 A 
ATOM     86  C   UNL A   1      50.251  26.467  27.292  1.00  0.00     0.135 A 
ATOM     87  C   UNL A   1      49.713  27.022  25.014  1.00  0.00     0.135 A 
ATOM     88  F   UNL A   1      49.928  26.389  28.593  1.00  0.00    -0.206 F 
ATOM     89  C   UNL A   1      51.535  26.097  26.908  1.00  0.00     0.059 A 
ATOM     90  C   UNL A   1      50.980  26.621  24.603  1.00  0.00     0.059 A 
ATOM     91  F   UNL A   1      48.859  27.469  24.080  1.00  0.00    -0.206 F 
ATOM     92  C   UNL A   1      51.892  26.185  25.562  1.00  0.00     0.060 A 
BRANCH  92  93
ATOM     93  S   UNL A   1      53.567  25.718  25.080  1.00  0.00     0.124 S 
ATOM     94  O   UNL A   1      53.427  25.576  23.635  1.00  0.00    -0.237 OA
ATOM     95  O   UNL A   1      54.353  26.862  25.533  1.00  0.00    -0.237 OA
ATOM     96  O   UNL A   1      53.798  24.477  25.813  1.00  0.00    -0.744 OA
ENDBRANCH  92  93
ENDBRANCH  60  85
ENDBRANCH  34  35
ENDBRANCH  27  29
ENDBRANCH  26  27
ENDBRANCH  25  26
ENDBRANCH  24  25
ENDBRANCH   1  24
TORSDOF 20
ENDMDL
MODEL 3
REMARK VINA RESULT:     -10.8      3.607      9.664
REMARK SMILES O=C(Cc1ccccc1-c1ccn(C(F)F)c(=O)c1)OCCOCCOC(=O)c1ccc(-c2c3nc(c(-c4c(F)cc(S(=O)(=O)[O-])cc4F)c4ccc([nH]4)c(-c4c(F)cc(S(=O)(=O)[O-])cc4F)c4nc(c(-c5c(F)cc(S(=O)(=O)[O-])cc5F)c5ccc2[nH]5)C=C4)C=C3)cc1
REMARK SMILES IDX 23 1 22 2 21 3 20 4 2 5 1 6 3 7 4 8 5 9 9 10 6 11 8 12 7 13
REMARK SMILES IDX 10 14 11 15 19 16 12 17 17 18 13 19 18 20 14 21 15 22 16 23
REMARK SMILES IDX 24 24 25 25 26 26 27 27 28 28 29 29 30 30 94 31 31 32 93 33
REMARK SMILES IDX 32 34 33 35 34 36 87 37 35 38 92 39 86 40 88 41 36 42 91 43
REMARK SMILES IDX 85 44 84 45 37 47 71 48 50 49 70 50 51 51 54 52 69 53 89 54
REMARK SMILES IDX 52 55 53 56 68 58 90 59 55 60 38 61 39 62 48 63 40 64 41 65
REMARK SMILES IDX 47 66 49 67 42 68 43 69 44 70 45 71 46 72 72 73 73 74 82 75
REMARK SMILES IDX 74 76 75 77 81 78 83 79 76 80 77 81 78 82 79 83 80 84 56 85
REMARK SMILES IDX 57 86 66 87 58 88 59 89 65 90 67 91 60 92 61 93 62 94 63 95
REMARK SMILES IDX 64 96
REMARK H PARENT 88 46 54 57
REMARK Flexibility Score: inf
ROOT
ATOM      1  O   UNL A   1      31.103  27.864  27.090  1.00  0.00    -0.374 OA
ENDROOT
BRANCH   1   2
ATOM      2  C   UNL A   1      31.092  27.125  25.873  1.00  0.00     0.202 C 
BRANCH   2   3
ATOM      3  C   UNL A   1      30.395  25.762  25.793  1.00  0.00     0.261 C 
BRANCH   3   4
ATOM      4  O   UNL A   1      30.674  24.827  26.834  1.00  0.00    -0.463 OA
BRANCH   4   5
ATOM      5  C   UNL A   1      31.176  23.591  26.605  1.00  0.00     0.310 C 
ATOM      6  O   UNL A   1      31.578  22.926  27.559  1.00  0.00    -0.252 OA
BRANCH   5   7
ATOM      7  C   UNL A   1      31.331  23.106  25.176  1.00  0.00     0.158 C 
BRANCH   7   8
ATOM      8  C   UNL A   1      32.480  22.157  24.972  1.00  0.00    -0.029 A 
ATOM      9  C   UNL A   1      32.219  20.776  24.989  1.00  0.00     0.005 A 
ATOM     10  C   UNL A   1      33.794  22.603  24.742  1.00  0.00    -0.014 A 
ATOM     11  C   UNL A   1      33.249  19.849  24.931  1.00  0.00     0.000 A 
ATOM     12  C   UNL A   1      34.831  21.661  24.699  1.00  0.00     0.009 A 
ATOM     13  C   UNL A   1      34.560  20.294  24.822  1.00  0.00     0.001 A 
BRANCH  10  14
ATOM     14  C   UNL A   1      34.032  24.006  24.336  1.00  0.00    -0.011 A 
ATOM     15  C   UNL A   1      34.272  25.101  25.255  1.00  0.00     0.027 A 
ATOM     16  C   UNL A   1      33.764  24.283  23.047  1.00  0.00     0.080 A 
ATOM     17  C   UNL A   1      34.109  26.367  24.851  1.00  0.00     0.095 A 
ATOM     18  C   UNL A   1      33.669  25.686  22.565  1.00  0.00     0.255 A 
ATOM     19  N   UNL A   1      33.789  26.664  23.538  1.00  0.00    -0.258 N 
ATOM     20  O   UNL A   1      33.451  25.883  21.374  1.00  0.00    -0.269 OA
BRANCH  19  21
ATOM     21  C   UNL A   1      33.584  28.025  23.119  1.00  0.00     0.451 C 
ATOM     22  F   UNL A   1      34.698  28.528  22.536  1.00  0.00    -0.185 F 
ATOM     23  F   UNL A   1      32.568  28.117  22.225  1.00  0.00    -0.185 F 
ENDBRANCH  19  21
ENDBRANCH  10  14
ENDBRANCH   7   8
ENDBRANCH   5   7
ENDBRANCH   4   5
ENDBRANCH   3   4
ENDBRANCH   2   3
ENDBRANCH   1   2
BRANCH   1  24
ATOM     24  C   UNL A   1      31.801  29.107  27.129  1.00  0.00     0.202 C 
BRANCH  24  25
ATOM     25  C   UNL A   1      33.326  29.025  27.143  1.00  0.00     0.261 C 
BRANCH  25  26
ATOM     26  O   UNL A   1      33.915  30.262  26.731  1.00  0.00    -0.460 OA
BRANCH  26  27
ATOM     27  C   UNL A   1      34.472  30.971  27.743  1.00  0.00     0.338 C 
ATOM     28  O   UNL A   1      33.944  31.855  28.400  1.00  0.00    -0.246 OA
BRANCH  27  29
ATOM     29  C   UNL A   1      35.759  30.350  28.107  1.00  0.00     0.060 A 
ATOM     30  C   UNL A   1      35.850  29.760  29.375  1.00  0.00     0.016 A 
ATOM     31  C   UNL A   1      36.838  30.311  27.220  1.00  0.00     0.016 A 
ATOM     32  C   UNL A   1      37.047  29.198  29.791  1.00  0.00     0.010 A 
ATOM     33  C   UNL A   1      38.045  29.758  27.643  1.00  0.00     0.010 A 
ATOM     34  C   UNL A   1      38.163  29.252  28.948  1.00  0.00    -0.014 A 
BRANCH  34  35
ATOM     35  C   UNL A   1      39.492  28.983  29.534  1.00  0.00     0.031 A 
ATOM     36  C   UNL A   1      39.941  29.839  30.685  1.00  0.00     0.074 A 
ATOM     37  C   UNL A   1      40.231  27.947  29.105  1.00  0.00     0.049 A 
ATOM     38  N   UNL A   1      41.036  29.770  31.391  1.00  0.00    -0.248 NA
ATOM     39  C   UNL A   1      39.027  30.920  31.097  1.00  0.00     0.031 C 
ATOM     40  C   UNL A   1      39.865  27.044  28.013  1.00  0.00     0.029 A 
ATOM     41  N   UNL A   1      41.441  27.478  29.541  1.00  0.00    -0.354 N 
ATOM     42  C   UNL A   1      40.940  30.787  32.334  1.00  0.00     0.074 A 
ATOM     43  C   UNL A   1      39.706  31.493  32.078  1.00  0.00     0.031 C 
ATOM     44  C   UNL A   1      40.838  26.129  27.861  1.00  0.00     0.029 A 
ATOM     45  C   UNL A   1      41.901  26.399  28.826  1.00  0.00     0.049 A 
ATOM     46  H   UNL A   1      41.934  27.876  30.294  1.00  0.00     0.167 HD
ATOM     47  C   UNL A   1      41.796  31.087  33.338  1.00  0.00     0.037 A 
ATOM     48  C   UNL A   1      43.060  25.722  28.936  1.00  0.00     0.037 A 
ATOM     49  C   UNL A   1      43.026  30.378  33.571  1.00  0.00     0.049 A 
ATOM     50  C   UNL A   1      44.025  26.112  30.025  1.00  0.00     0.074 A 
ATOM     51  C   UNL A   1      43.978  30.601  34.550  1.00  0.00     0.029 A 
ATOM     52  N   UNL A   1      43.476  29.306  32.812  1.00  0.00    -0.354 N 
ATOM     53  N   UNL A   1      43.918  27.067  30.921  1.00  0.00    -0.248 NA
ATOM     54  C   UNL A   1      45.260  25.326  30.130  1.00  0.00     0.031 C 
ATOM     55  C   UNL A   1      45.026  29.696  34.352  1.00  0.00     0.029 A 
ATOM     56  C   UNL A   1      44.700  28.869  33.288  1.00  0.00     0.049 A 
ATOM     57  H   UNL A   1      42.995  28.916  32.047  1.00  0.00     0.167 HD
ATOM     58  C   UNL A   1      45.062  26.982  31.709  1.00  0.00     0.074 A 
ATOM     59  C   UNL A   1      45.830  25.864  31.199  1.00  0.00     0.031 C 
ATOM     60  C   UNL A   1      45.448  27.757  32.754  1.00  0.00     0.037 A 
BRANCH  47  61
ATOM     61  C   UNL A   1      41.437  32.236  34.241  1.00  0.00     0.058 A 
ATOM     62  C   UNL A   1      41.808  33.557  33.938  1.00  0.00     0.135 A 
ATOM     63  C   UNL A   1      40.687  32.020  35.407  1.00  0.00     0.135 A 
ATOM     64  F   UNL A   1      42.550  33.819  32.850  1.00  0.00    -0.206 F 
ATOM     65  C   UNL A   1      41.462  34.619  34.768  1.00  0.00     0.059 A 
ATOM     66  C   UNL A   1      40.305  33.071  36.237  1.00  0.00     0.059 A 
ATOM     67  F   UNL A   1      40.316  30.777  35.752  1.00  0.00    -0.206 F 
ATOM     68  C   UNL A   1      40.705  34.366  35.913  1.00  0.00     0.060 A 
BRANCH  68  69
ATOM     69  S   UNL A   1      40.243  35.760  36.963  1.00  0.00     0.124 S 
ATOM     70  O   UNL A   1      39.724  36.707  35.981  1.00  0.00    -0.237 OA
ATOM     71  O   UNL A   1      39.252  35.163  37.853  1.00  0.00    -0.237 OA
ATOM     72  O   UNL A   1      41.502  36.141  37.596  1.00  0.00    -0.744 OA
ENDBRANCH  68  69
ENDBRANCH  47  61
BRANCH  48  73
ATOM     73  C   UNL A   1      43.374  24.624  27.982  1.00  0.00     0.058 A 
ATOM     74  C   UNL A   1      43.095  23.284  28.285  1.00  0.00     0.135 A 
ATOM     75  C   UNL A   1      43.967  24.902  26.740  1.00  0.00     0.135 A 
ATOM     76  F   UNL A   1      42.534  22.964  29.461  1.00  0.00    -0.206 F 
ATOM     77  C   UNL A   1      43.414  22.256  27.403  1.00  0.00     0.059 A 
ATOM     78  C   UNL A   1      44.265  23.896  25.828  1.00  0.00     0.059 A 
ATOM     79  F   UNL A   1      44.241  26.170  26.393  1.00  0.00    -0.206 F 
ATOM     80  C   UNL A   1      43.997  22.573  26.175  1.00  0.00     0.060 A 
BRANCH  80  81
ATOM     81  S   UNL A   1      44.369  21.236  25.020  1.00  0.00     0.124 S 
ATOM     82  O   UNL A   1      45.635  20.737  25.545  1.00  0.00    -0.237 OA
ATOM     83  O   UNL A   1      43.215  20.358  25.189  1.00  0.00    -0.237 OA
ATOM     84  O   UNL A   1      44.445  21.918  23.731  1.00  0.00    -0.744 OA
ENDBRANCH  80  81
ENDBRANCH  48  73
BRANCH  60  85
ATOM     85  C   UNL A   1      46.748  27.398  33.424  1.00  0.00     0.058 A 
ATOM     86  C   UNL A   1      46.803  26.485  34.490  1.00  0.00     0.135 A 
ATOM     87  C   UNL A   1      47.954  27.969  32.987  1.00  0.00     0.135 A 
ATOM     88  F   UNL A   1      45.678  25.910  34.946  1.00  0.00    -0.206 F 
ATOM     89  C   UNL A   1      48.000  26.192  35.133  1.00  0.00     0.059 A 
ATOM     90  C   UNL A   1      49.168  27.661  33.592  1.00  0.00     0.059 A 
ATOM     91  F   UNL A   1      47.962  28.833  31.960  1.00  0.00    -0.206 F 
ATOM     92  C   UNL A   1      49.177  26.791  34.680  1.00  0.00     0.060 A 
BRANCH  92  93
ATOM     93  S   UNL A   1      50.721  26.415  35.535  1.00  0.00     0.124 S 
ATOM     94  O   UNL A   1      51.428  27.688  35.434  1.00  0.00    -0.237 OA
ATOM     95  O   UNL A   1      50.258  26.051  36.871  1.00  0.00    -0.237 OA
ATOM     96  O   UNL A   1      51.285  25.320  34.752  1.00  0.00    -0.744 OA
ENDBRANCH  92  93
ENDBRANCH  60  85
ENDBRANCH  34  35
ENDBRANCH  27  29
ENDBRANCH  26  27
ENDBRANCH  25  26
ENDBRANCH  24  25
ENDBRANCH   1  24
TORSDOF 20
ENDMDL
