MODEL 1
REMARK VINA RESULT:     -10.4      0.000      0.000
REMARK SMILES C[C@@H](Nc1ccc(C(=O)OCCOCCOC(=O)c2ccc(-c3c4nc(c(-c5c(F)cc(S(=O)(=O)[O-])cc5F)c5ccc([nH]5)c(-c5c(F)cc(S(=O)(=O)[O-])cc5F)c5nc(c(-c6c(F)cc(S(=O)(=O)[O-])cc6F)c6ccc3[nH]6)C=C5)C=C4)cc2)c(F)c1F)C(N)=O
REMARK SMILES IDX 13 1 12 2 11 3 10 4 8 5 9 6 7 7 4 8 5 9 87 10 6 11 85 12
REMARK SMILES IDX 88 13 86 14 3 15 2 17 1 18 89 19 90 20 91 21 14 24 15 25
REMARK SMILES IDX 16 26 17 27 18 28 19 29 20 30 84 31 21 32 83 33 22 34 23 35
REMARK SMILES IDX 24 36 77 37 25 38 82 39 76 40 78 41 26 42 81 43 75 44 74 45
REMARK SMILES IDX 27 47 61 48 40 49 60 50 41 51 44 52 59 53 79 54 42 55 43 56
REMARK SMILES IDX 58 58 80 59 45 60 28 61 29 62 38 63 30 64 31 65 37 66 39 67
REMARK SMILES IDX 32 68 33 69 34 70 35 71 36 72 62 73 63 74 72 75 64 76 65 77
REMARK SMILES IDX 71 78 73 79 66 80 67 81 68 82 69 83 70 84 46 85 47 86 56 87
REMARK SMILES IDX 48 88 49 89 55 90 57 91 50 92 51 93 52 94 53 95 54 96
REMARK H PARENT 3 16 90 22 90 23 78 46 44 57
REMARK Flexibility Score: inf
ROOT
ATOM      1  O   UNL A   1      33.455  27.308  24.920  1.00  0.00    -0.374 OA
ENDROOT
BRANCH   1   2
ATOM      2  C   UNL A   1      32.267  26.517  24.841  1.00  0.00     0.202 C 
BRANCH   2   3
ATOM      3  C   UNL A   1      32.445  25.019  25.109  1.00  0.00     0.261 C 
BRANCH   3   4
ATOM      4  O   UNL A   1      32.472  24.273  23.883  1.00  0.00    -0.460 OA
BRANCH   4   5
ATOM      5  C   UNL A   1      33.677  23.785  23.517  1.00  0.00     0.341 C 
ATOM      6  O   UNL A   1      34.643  24.424  23.123  1.00  0.00    -0.246 OA
BRANCH   5   7
ATOM      7  C   UNL A   1      33.775  22.351  23.839  1.00  0.00     0.099 A 
ATOM      8  C   UNL A   1      34.071  19.635  24.575  1.00  0.00     0.074 A 
ATOM      9  C   UNL A   1      35.022  20.583  24.953  1.00  0.00     0.030 A 
ATOM     10  C   UNL A   1      32.984  20.086  23.796  1.00  0.00     0.182 A 
ATOM     11  C   UNL A   1      34.878  21.928  24.592  1.00  0.00     0.021 A 
ATOM     12  C   UNL A   1      32.828  21.421  23.436  1.00  0.00     0.175 A 
ATOM     13  F   UNL A   1      32.064  19.190  23.401  1.00  0.00    -0.201 F 
ATOM     14  F   UNL A   1      31.768  21.779  22.697  1.00  0.00    -0.203 F 
BRANCH   8  15
ATOM     15  N   UNL A   1      34.111  18.304  24.947  1.00  0.00    -0.371 N 
ATOM     16  H   UNL A   1      33.674  18.090  25.803  1.00  0.00     0.161 HD
BRANCH  15  17
ATOM     17  C   UNL A   1      34.712  17.170  24.244  1.00  0.00     0.165 C 
ATOM     18  C   UNL A   1      33.666  16.588  23.291  1.00  0.00     0.041 C 
BRANCH  17  19
ATOM     19  C   UNL A   1      35.172  16.028  25.173  1.00  0.00     0.239 C 
ATOM     20  N   UNL A   1      36.249  16.315  25.972  1.00  0.00    -0.368 N 
ATOM     21  O   UNL A   1      34.657  14.915  25.227  1.00  0.00    -0.273 OA
ATOM     22  H   UNL A   1      36.666  17.207  25.932  1.00  0.00     0.159 HD
ATOM     23  H   UNL A   1      36.605  15.632  26.584  1.00  0.00     0.159 HD
ENDBRANCH  17  19
ENDBRANCH  15  17
ENDBRANCH   8  15
ENDBRANCH   5   7
ENDBRANCH   4   5
ENDBRANCH   3   4
ENDBRANCH   2   3
ENDBRANCH   1   2
BRANCH   1  24
ATOM     24  C   UNL A   1      33.770  27.867  26.198  1.00  0.00     0.202 C 
BRANCH  24  25
ATOM     25  C   UNL A   1      33.379  29.336  26.414  1.00  0.00     0.261 C 
BRANCH  25  26
ATOM     26  O   UNL A   1      33.664  29.781  27.751  1.00  0.00    -0.460 OA
BRANCH  26  27
ATOM     27  C   UNL A   1      34.586  30.768  27.845  1.00  0.00     0.338 C 
ATOM     28  O   UNL A   1      34.375  31.973  27.881  1.00  0.00    -0.246 OA
BRANCH  27  29
ATOM     29  C   UNL A   1      35.920  30.188  28.089  1.00  0.00     0.060 A 
ATOM     30  C   UNL A   1      36.183  29.684  29.369  1.00  0.00     0.016 A 
ATOM     31  C   UNL A   1      36.912  30.178  27.105  1.00  0.00     0.016 A 
ATOM     32  C   UNL A   1      37.451  29.199  29.681  1.00  0.00     0.010 A 
ATOM     33  C   UNL A   1      38.187  29.698  27.425  1.00  0.00     0.010 A 
ATOM     34  C   UNL A   1      38.470  29.230  28.720  1.00  0.00    -0.014 A 
BRANCH  34  35
ATOM     35  C   UNL A   1      39.854  28.858  29.101  1.00  0.00     0.031 A 
ATOM     36  C   UNL A   1      40.719  29.860  29.815  1.00  0.00     0.074 A 
ATOM     37  C   UNL A   1      40.332  27.634  28.817  1.00  0.00     0.049 A 
ATOM     38  N   UNL A   1      41.962  29.752  30.206  1.00  0.00    -0.248 NA
ATOM     39  C   UNL A   1      40.099  31.157  30.128  1.00  0.00     0.031 C 
ATOM     40  C   UNL A   1      39.584  26.572  28.147  1.00  0.00     0.029 A 
ATOM     41  N   UNL A   1      41.569  27.083  29.044  1.00  0.00    -0.354 N 
ATOM     42  C   UNL A   1      42.280  30.968  30.799  1.00  0.00     0.074 A 
ATOM     43  C   UNL A   1      41.105  31.807  30.697  1.00  0.00     0.031 C 
ATOM     44  C   UNL A   1      40.382  25.502  27.998  1.00  0.00     0.029 A 
ATOM     45  C   UNL A   1      41.705  25.813  28.537  1.00  0.00     0.049 A 
ATOM     46  H   UNL A   1      42.288  27.552  29.526  1.00  0.00     0.167 HD
ATOM     47  C   UNL A   1      43.444  31.347  31.380  1.00  0.00     0.037 A 
ATOM     48  C   UNL A   1      42.783  25.005  28.486  1.00  0.00     0.037 A 
ATOM     49  C   UNL A   1      44.609  30.506  31.477  1.00  0.00     0.049 A 
ATOM     50  C   UNL A   1      44.081  25.464  29.092  1.00  0.00     0.074 A 
ATOM     51  C   UNL A   1      45.820  30.781  32.089  1.00  0.00     0.029 A 
ATOM     52  N   UNL A   1      44.718  29.235  30.931  1.00  0.00    -0.354 N 
ATOM     53  N   UNL A   1      44.355  26.597  29.694  1.00  0.00    -0.248 NA
ATOM     54  C   UNL A   1      45.219  24.537  29.012  1.00  0.00     0.031 C 
ATOM     55  C   UNL A   1      46.678  29.698  31.868  1.00  0.00     0.029 A 
ATOM     56  C   UNL A   1      45.987  28.727  31.162  1.00  0.00     0.049 A 
ATOM     57  H   UNL A   1      44.000  28.763  30.452  1.00  0.00     0.167 HD
ATOM     58  C   UNL A   1      45.690  26.514  30.077  1.00  0.00     0.074 A 
ATOM     59  C   UNL A   1      46.164  25.213  29.653  1.00  0.00     0.031 C 
ATOM     60  C   UNL A   1      46.452  27.433  30.721  1.00  0.00     0.037 A 
BRANCH  47  61
ATOM     61  C   UNL A   1      43.524  32.746  31.925  1.00  0.00     0.058 A 
ATOM     62  C   UNL A   1      43.168  33.049  33.250  1.00  0.00     0.135 A 
ATOM     63  C   UNL A   1      43.981  33.798  31.115  1.00  0.00     0.135 A 
ATOM     64  F   UNL A   1      42.711  32.084  34.064  1.00  0.00    -0.206 F 
ATOM     65  C   UNL A   1      43.232  34.349  33.741  1.00  0.00     0.059 A 
ATOM     66  C   UNL A   1      44.078  35.102  31.593  1.00  0.00     0.059 A 
ATOM     67  F   UNL A   1      44.334  33.565  29.841  1.00  0.00    -0.206 F 
ATOM     68  C   UNL A   1      43.684  35.370  32.903  1.00  0.00     0.060 A 
BRANCH  68  69
ATOM     69  S   UNL A   1      43.751  37.055  33.550  1.00  0.00     0.124 S 
ATOM     70  O   UNL A   1      42.524  37.111  34.339  1.00  0.00    -0.237 OA
ATOM     71  O   UNL A   1      44.995  37.048  34.313  1.00  0.00    -0.237 OA
ATOM     72  O   UNL A   1      43.761  37.881  32.347  1.00  0.00    -0.744 OA
ENDBRANCH  68  69
ENDBRANCH  47  61
BRANCH  48  73
ATOM     73  C   UNL A   1      42.673  23.681  27.818  1.00  0.00     0.058 A 
ATOM     74  C   UNL A   1      42.839  23.550  26.432  1.00  0.00     0.135 A 
ATOM     75  C   UNL A   1      42.438  22.514  28.562  1.00  0.00     0.135 A 
ATOM     76  F   UNL A   1      43.052  24.638  25.677  1.00  0.00    -0.206 F 
ATOM     77  C   UNL A   1      42.776  22.309  25.806  1.00  0.00     0.059 A 
ATOM     78  C   UNL A   1      42.394  21.260  27.963  1.00  0.00     0.059 A 
ATOM     79  F   UNL A   1      42.280  22.587  29.894  1.00  0.00    -0.206 F 
ATOM     80  C   UNL A   1      42.563  21.168  26.582  1.00  0.00     0.060 A 
BRANCH  80  81
ATOM     81  S   UNL A   1      42.566  19.554  25.771  1.00  0.00     0.124 S 
ATOM     82  O   UNL A   1      42.991  18.679  26.857  1.00  0.00    -0.237 OA
ATOM     83  O   UNL A   1      41.174  19.421  25.351  1.00  0.00    -0.237 OA
ATOM     84  O   UNL A   1      43.525  19.725  24.684  1.00  0.00    -0.744 OA
ENDBRANCH  80  81
ENDBRANCH  48  73
BRANCH  60  85
ATOM     85  C   UNL A   1      47.881  27.064  31.015  1.00  0.00     0.058 A 
ATOM     86  C   UNL A   1      48.916  27.352  30.111  1.00  0.00     0.135 A 
ATOM     87  C   UNL A   1      48.227  26.462  32.237  1.00  0.00     0.135 A 
ATOM     88  F   UNL A   1      48.639  27.920  28.927  1.00  0.00    -0.206 F 
ATOM     89  C   UNL A   1      50.241  27.037  30.398  1.00  0.00     0.059 A 
ATOM     90  C   UNL A   1      49.549  26.163  32.556  1.00  0.00     0.059 A 
ATOM     91  F   UNL A   1      47.278  26.175  33.142  1.00  0.00    -0.206 F 
ATOM     92  C   UNL A   1      50.548  26.444  31.624  1.00  0.00     0.060 A 
BRANCH  92  93
ATOM     93  S   UNL A   1      52.274  26.070  31.998  1.00  0.00     0.124 S 
ATOM     94  O   UNL A   1      52.971  26.851  30.981  1.00  0.00    -0.237 OA
ATOM     95  O   UNL A   1      52.410  26.550  33.369  1.00  0.00    -0.237 OA
ATOM     96  O   UNL A   1      52.350  24.621  31.838  1.00  0.00    -0.744 OA
ENDBRANCH  92  93
ENDBRANCH  60  85
ENDBRANCH  34  35
ENDBRANCH  27  29
ENDBRANCH  26  27
ENDBRANCH  25  26
ENDBRANCH  24  25
ENDBRANCH   1  24
TORSDOF 20
ENDMDL
MODEL 2
REMARK VINA RESULT:     -10.3      4.699     11.040
REMARK SMILES C[C@@H](Nc1ccc(C(=O)OCCOCCOC(=O)c2ccc(-c3c4nc(c(-c5c(F)cc(S(=O)(=O)[O-])cc5F)c5ccc([nH]5)c(-c5c(F)cc(S(=O)(=O)[O-])cc5F)c5nc(c(-c6c(F)cc(S(=O)(=O)[O-])cc6F)c6ccc3[nH]6)C=C5)C=C4)cc2)c(F)c1F)C(N)=O
REMARK SMILES IDX 13 1 12 2 11 3 10 4 8 5 9 6 7 7 4 8 5 9 87 10 6 11 85 12
REMARK SMILES IDX 88 13 86 14 3 15 2 17 1 18 89 19 90 20 91 21 14 24 15 25
REMARK SMILES IDX 16 26 17 27 18 28 19 29 20 30 84 31 21 32 83 33 22 34 23 35
REMARK SMILES IDX 24 36 77 37 25 38 82 39 76 40 78 41 26 42 81 43 75 44 74 45
REMARK SMILES IDX 27 47 61 48 40 49 60 50 41 51 44 52 59 53 79 54 42 55 43 56
REMARK SMILES IDX 58 58 80 59 45 60 28 61 29 62 38 63 30 64 31 65 37 66 39 67
REMARK SMILES IDX 32 68 33 69 34 70 35 71 36 72 62 73 63 74 72 75 64 76 65 77
REMARK SMILES IDX 71 78 73 79 66 80 67 81 68 82 69 83 70 84 46 85 47 86 56 87
REMARK SMILES IDX 48 88 49 89 55 90 57 91 50 92 51 93 52 94 53 95 54 96
REMARK H PARENT 3 16 90 22 90 23 78 46 44 57
REMARK Flexibility Score: inf
ROOT
ATOM      1  O   UNL A   1      43.034  20.188  26.313  1.00  0.00    -0.374 OA
ENDROOT
BRANCH   1   2
ATOM      2  C   UNL A   1      43.663  19.376  25.320  1.00  0.00     0.202 C 
BRANCH   2   3
ATOM      3  C   UNL A   1      44.659  20.095  24.404  1.00  0.00     0.261 C 
BRANCH   3   4
ATOM      4  O   UNL A   1      44.459  21.516  24.438  1.00  0.00    -0.460 OA
BRANCH   4   5
ATOM      5  C   UNL A   1      45.420  22.232  25.063  1.00  0.00     0.341 C 
ATOM      6  O   UNL A   1      46.513  21.829  25.437  1.00  0.00    -0.246 OA
BRANCH   5   7
ATOM      7  C   UNL A   1      45.076  23.663  25.074  1.00  0.00     0.099 A 
ATOM      8  C   UNL A   1      44.260  26.372  25.134  1.00  0.00     0.074 A 
ATOM      9  C   UNL A   1      43.320  25.348  25.016  1.00  0.00     0.030 A 
ATOM     10  C   UNL A   1      45.620  25.998  25.193  1.00  0.00     0.182 A 
ATOM     11  C   UNL A   1      43.719  24.007  24.988  1.00  0.00     0.021 A 
ATOM     12  C   UNL A   1      46.028  24.667  25.171  1.00  0.00     0.175 A 
ATOM     13  F   UNL A   1      46.548  26.965  25.285  1.00  0.00    -0.201 F 
ATOM     14  F   UNL A   1      47.337  24.384  25.235  1.00  0.00    -0.203 F 
BRANCH   8  15
ATOM     15  N   UNL A   1      43.939  27.713  25.232  1.00  0.00    -0.371 N 
ATOM     16  H   UNL A   1      44.042  28.235  24.404  1.00  0.00     0.161 HD
BRANCH  15  17
ATOM     17  C   UNL A   1      43.466  28.463  26.397  1.00  0.00     0.165 C 
ATOM     18  C   UNL A   1      42.117  29.093  26.045  1.00  0.00     0.041 C 
BRANCH  17  19
ATOM     19  C   UNL A   1      44.406  29.606  26.832  1.00  0.00     0.239 C 
ATOM     20  N   UNL A   1      43.996  30.321  27.928  1.00  0.00    -0.368 N 
ATOM     21  O   UNL A   1      45.454  29.908  26.268  1.00  0.00    -0.273 OA
ATOM     22  H   UNL A   1      43.157  30.082  28.385  1.00  0.00     0.159 HD
ATOM     23  H   UNL A   1      44.539  31.073  28.258  1.00  0.00     0.159 HD
ENDBRANCH  17  19
ENDBRANCH  15  17
ENDBRANCH   8  15
ENDBRANCH   5   7
ENDBRANCH   4   5
ENDBRANCH   3   4
ENDBRANCH   2   3
ENDBRANCH   1   2
BRANCH   1  24
ATOM     24  C   UNL A   1      41.630  20.412  26.164  1.00  0.00     0.202 C 
BRANCH  24  25
ATOM     25  C   UNL A   1      41.110  21.790  26.596  1.00  0.00     0.261 C 
BRANCH  25  26
ATOM     26  O   UNL A   1      39.688  21.790  26.811  1.00  0.00    -0.460 OA
BRANCH  26  27
ATOM     27  C   UNL A   1      39.012  22.782  26.185  1.00  0.00     0.338 C 
ATOM     28  O   UNL A   1      38.200  22.662  25.277  1.00  0.00    -0.246 OA
BRANCH  27  29
ATOM     29  C   UNL A   1      39.244  24.063  26.878  1.00  0.00     0.060 A 
ATOM     30  C   UNL A   1      39.991  25.038  26.205  1.00  0.00     0.016 A 
ATOM     31  C   UNL A   1      38.782  24.295  28.176  1.00  0.00     0.016 A 
ATOM     32  C   UNL A   1      40.310  26.236  26.841  1.00  0.00     0.010 A 
ATOM     33  C   UNL A   1      39.112  25.495  28.815  1.00  0.00     0.010 A 
ATOM     34  C   UNL A   1      39.898  26.460  28.161  1.00  0.00    -0.014 A 
BRANCH  34  35
ATOM     35  C   UNL A   1      40.370  27.665  28.885  1.00  0.00     0.031 A 
ATOM     36  C   UNL A   1      41.740  27.665  29.506  1.00  0.00     0.074 A 
ATOM     37  C   UNL A   1      39.583  28.751  28.984  1.00  0.00     0.049 A 
ATOM     38  N   UNL A   1      42.331  28.597  30.208  1.00  0.00    -0.248 NA
ATOM     39  C   UNL A   1      42.550  26.454  29.310  1.00  0.00     0.031 C 
ATOM     40  C   UNL A   1      38.246  28.877  28.408  1.00  0.00     0.029 A 
ATOM     41  N   UNL A   1      39.792  29.951  29.616  1.00  0.00    -0.354 N 
ATOM     42  C   UNL A   1      43.576  28.082  30.549  1.00  0.00     0.074 A 
ATOM     43  C   UNL A   1      43.646  26.747  29.995  1.00  0.00     0.031 C 
ATOM     44  C   UNL A   1      37.743  30.080  28.731  1.00  0.00     0.029 A 
ATOM     45  C   UNL A   1      38.711  30.797  29.558  1.00  0.00     0.049 A 
ATOM     46  H   UNL A   1      40.636  30.184  30.068  1.00  0.00     0.167 HD
ATOM     47  C   UNL A   1      44.570  28.672  31.256  1.00  0.00     0.037 A 
ATOM     48  C   UNL A   1      38.513  32.001  30.132  1.00  0.00     0.037 A 
ATOM     49  C   UNL A   1      44.492  30.001  31.806  1.00  0.00     0.049 A 
ATOM     50  C   UNL A   1      39.611  32.617  30.956  1.00  0.00     0.074 A 
ATOM     51  C   UNL A   1      45.464  30.706  32.495  1.00  0.00     0.029 A 
ATOM     52  N   UNL A   1      43.373  30.820  31.746  1.00  0.00    -0.354 N 
ATOM     53  N   UNL A   1      40.803  32.142  31.229  1.00  0.00    -0.248 NA
ATOM     54  C   UNL A   1      39.339  33.934  31.550  1.00  0.00     0.031 C 
ATOM     55  C   UNL A   1      44.914  31.928  32.898  1.00  0.00     0.029 A 
ATOM     56  C   UNL A   1      43.618  32.008  32.417  1.00  0.00     0.049 A 
ATOM     57  H   UNL A   1      42.529  30.591  31.293  1.00  0.00     0.167 HD
ATOM     58  C   UNL A   1      41.428  33.105  32.015  1.00  0.00     0.074 A 
ATOM     59  C   UNL A   1      40.489  34.198  32.159  1.00  0.00     0.031 C 
ATOM     60  C   UNL A   1      42.668  33.084  32.566  1.00  0.00     0.037 A 
BRANCH  47  61
ATOM     61  C   UNL A   1      45.816  27.867  31.505  1.00  0.00     0.058 A 
ATOM     62  C   UNL A   1      46.018  27.160  32.701  1.00  0.00     0.135 A 
ATOM     63  C   UNL A   1      46.817  27.789  30.522  1.00  0.00     0.135 A 
ATOM     64  F   UNL A   1      45.101  27.212  33.680  1.00  0.00    -0.206 F 
ATOM     65  C   UNL A   1      47.181  26.430  32.927  1.00  0.00     0.059 A 
ATOM     66  C   UNL A   1      47.976  27.044  30.717  1.00  0.00     0.059 A 
ATOM     67  F   UNL A   1      46.675  28.445  29.360  1.00  0.00    -0.206 F 
ATOM     68  C   UNL A   1      48.157  26.382  31.930  1.00  0.00     0.060 A 
BRANCH  68  69
ATOM     69  S   UNL A   1      49.667  25.441  32.241  1.00  0.00     0.124 S 
ATOM     70  O   UNL A   1      49.168  24.366  33.094  1.00  0.00    -0.237 OA
ATOM     71  O   UNL A   1      50.072  25.046  30.896  1.00  0.00    -0.237 OA
ATOM     72  O   UNL A   1      50.541  26.408  32.898  1.00  0.00    -0.744 OA
ENDBRANCH  68  69
ENDBRANCH  47  61
BRANCH  48  73
ATOM     73  C   UNL A   1      37.208  32.690  29.954  1.00  0.00     0.058 A 
ATOM     74  C   UNL A   1      36.099  32.365  30.748  1.00  0.00     0.135 A 
ATOM     75  C   UNL A   1      37.057  33.717  29.008  1.00  0.00     0.135 A 
ATOM     76  F   UNL A   1      36.191  31.382  31.656  1.00  0.00    -0.206 F 
ATOM     77  C   UNL A   1      34.886  33.033  30.613  1.00  0.00     0.059 A 
ATOM     78  C   UNL A   1      35.862  34.415  28.870  1.00  0.00     0.059 A 
ATOM     79  F   UNL A   1      38.092  34.070  28.229  1.00  0.00    -0.206 F 
ATOM     80  C   UNL A   1      34.781  34.064  29.678  1.00  0.00     0.060 A 
BRANCH  80  81
ATOM     81  S   UNL A   1      33.228  34.980  29.568  1.00  0.00     0.124 S 
ATOM     82  O   UNL A   1      32.818  35.036  30.967  1.00  0.00    -0.237 OA
ATOM     83  O   UNL A   1      33.659  36.243  28.978  1.00  0.00    -0.237 OA
ATOM     84  O   UNL A   1      32.404  34.143  28.701  1.00  0.00    -0.744 OA
ENDBRANCH  80  81
ENDBRANCH  48  73
BRANCH  60  85
ATOM     85  C   UNL A   1      43.087  34.283  33.373  1.00  0.00     0.058 A 
ATOM     86  C   UNL A   1      42.970  34.305  34.772  1.00  0.00     0.135 A 
ATOM     87  C   UNL A   1      43.660  35.402  32.746  1.00  0.00     0.135 A 
ATOM     88  F   UNL A   1      42.424  33.265  35.420  1.00  0.00    -0.206 F 
ATOM     89  C   UNL A   1      43.386  35.403  35.519  1.00  0.00     0.059 A 
ATOM     90  C   UNL A   1      44.108  36.499  33.476  1.00  0.00     0.059 A 
ATOM     91  F   UNL A   1      43.804  35.429  31.412  1.00  0.00    -0.206 F 
ATOM     92  C   UNL A   1      43.956  36.495  34.862  1.00  0.00     0.060 A 
BRANCH  92  93
ATOM     93  S   UNL A   1      44.521  37.900  35.845  1.00  0.00     0.124 S 
ATOM     94  O   UNL A   1      45.956  37.645  35.925  1.00  0.00    -0.237 OA
ATOM     95  O   UNL A   1      44.125  39.038  35.023  1.00  0.00    -0.237 OA
ATOM     96  O   UNL A   1      43.787  37.755  37.099  1.00  0.00    -0.744 OA
ENDBRANCH  92  93
ENDBRANCH  60  85
ENDBRANCH  34  35
ENDBRANCH  27  29
ENDBRANCH  26  27
ENDBRANCH  25  26
ENDBRANCH  24  25
ENDBRANCH   1  24
TORSDOF 20
ENDMDL
MODEL 3
REMARK VINA RESULT:     -10.2      4.510      6.152
REMARK SMILES C[C@@H](Nc1ccc(C(=O)OCCOCCOC(=O)c2ccc(-c3c4nc(c(-c5c(F)cc(S(=O)(=O)[O-])cc5F)c5ccc([nH]5)c(-c5c(F)cc(S(=O)(=O)[O-])cc5F)c5nc(c(-c6c(F)cc(S(=O)(=O)[O-])cc6F)c6ccc3[nH]6)C=C5)C=C4)cc2)c(F)c1F)C(N)=O
REMARK SMILES IDX 13 1 12 2 11 3 10 4 8 5 9 6 7 7 4 8 5 9 87 10 6 11 85 12
REMARK SMILES IDX 88 13 86 14 3 15 2 17 1 18 89 19 90 20 91 21 14 24 15 25
REMARK SMILES IDX 16 26 17 27 18 28 19 29 20 30 84 31 21 32 83 33 22 34 23 35
REMARK SMILES IDX 24 36 77 37 25 38 82 39 76 40 78 41 26 42 81 43 75 44 74 45
REMARK SMILES IDX 27 47 61 48 40 49 60 50 41 51 44 52 59 53 79 54 42 55 43 56
REMARK SMILES IDX 58 58 80 59 45 60 28 61 29 62 38 63 30 64 31 65 37 66 39 67
REMARK SMILES IDX 32 68 33 69 34 70 35 71 36 72 62 73 63 74 72 75 64 76 65 77
REMARK SMILES IDX 71 78 73 79 66 80 67 81 68 82 69 83 70 84 46 85 47 86 56 87
REMARK SMILES IDX 48 88 49 89 55 90 57 91 50 92 51 93 52 94 53 95 54 96
REMARK H PARENT 3 16 90 22 90 23 78 46 44 57
REMARK Flexibility Score: inf
ROOT
ATOM      1  O   UNL A   1      34.377  30.740  27.258  1.00  0.00    -0.374 OA
ENDROOT
BRANCH   1   2
ATOM      2  C   UNL A   1      33.153  30.005  27.190  1.00  0.00     0.202 C 
BRANCH   2   3
ATOM      3  C   UNL A   1      33.262  28.502  27.463  1.00  0.00     0.261 C 
BRANCH   3   4
ATOM      4  O   UNL A   1      34.243  27.891  26.611  1.00  0.00    -0.460 OA
BRANCH   4   5
ATOM      5  C   UNL A   1      33.775  26.966  25.745  1.00  0.00     0.341 C 
ATOM      6  O   UNL A   1      33.942  25.755  25.798  1.00  0.00    -0.246 OA
BRANCH   5   7
ATOM      7  C   UNL A   1      32.836  27.578  24.790  1.00  0.00     0.099 A 
ATOM      8  C   UNL A   1      31.160  28.793  22.860  1.00  0.00     0.074 A 
ATOM      9  C   UNL A   1      32.528  29.069  22.891  1.00  0.00     0.030 A 
ATOM     10  C   UNL A   1      30.657  27.912  23.841  1.00  0.00     0.182 A 
ATOM     11  C   UNL A   1      33.361  28.468  23.842  1.00  0.00     0.021 A 
ATOM     12  C   UNL A   1      31.476  27.306  24.790  1.00  0.00     0.175 A 
ATOM     13  F   UNL A   1      29.340  27.646  23.849  1.00  0.00    -0.201 F 
ATOM     14  F   UNL A   1      30.930  26.477  25.691  1.00  0.00    -0.203 F 
BRANCH   8  15
ATOM     15  N   UNL A   1      30.288  29.296  21.913  1.00  0.00    -0.371 N 
ATOM     16  H   UNL A   1      30.172  28.743  21.108  1.00  0.00     0.161 HD
BRANCH  15  17
ATOM     17  C   UNL A   1      29.512  30.537  21.945  1.00  0.00     0.165 C 
ATOM     18  C   UNL A   1      29.425  31.010  23.397  1.00  0.00     0.041 C 
BRANCH  17  19
ATOM     19  C   UNL A   1      28.067  30.386  21.424  1.00  0.00     0.239 C 
ATOM     20  N   UNL A   1      27.292  29.475  22.093  1.00  0.00    -0.368 N 
ATOM     21  O   UNL A   1      27.594  31.004  20.474  1.00  0.00    -0.273 OA
ATOM     22  H   UNL A   1      27.667  28.977  22.857  1.00  0.00     0.159 HD
ATOM     23  H   UNL A   1      26.362  29.317  21.812  1.00  0.00     0.159 HD
ENDBRANCH  17  19
ENDBRANCH  15  17
ENDBRANCH   8  15
ENDBRANCH   5   7
ENDBRANCH   4   5
ENDBRANCH   3   4
ENDBRANCH   2   3
ENDBRANCH   1   2
BRANCH   1  24
ATOM     24  C   UNL A   1      34.383  31.901  28.092  1.00  0.00     0.202 C 
BRANCH  24  25
ATOM     25  C   UNL A   1      35.110  31.770  29.437  1.00  0.00     0.261 C 
BRANCH  25  26
ATOM     26  O   UNL A   1      35.810  30.519  29.556  1.00  0.00    -0.460 OA
BRANCH  26  27
ATOM     27  C   UNL A   1      36.586  30.395  30.658  1.00  0.00     0.338 C 
ATOM     28  O   UNL A   1      36.207  30.301  31.819  1.00  0.00    -0.246 OA
BRANCH  27  29
ATOM     29  C   UNL A   1      37.993  30.199  30.264  1.00  0.00     0.060 A 
ATOM     30  C   UNL A   1      38.278  30.120  28.895  1.00  0.00     0.016 A 
ATOM     31  C   UNL A   1      39.011  30.049  31.210  1.00  0.00     0.016 A 
ATOM     32  C   UNL A   1      39.577  29.854  28.466  1.00  0.00     0.010 A 
ATOM     33  C   UNL A   1      40.312  29.773  30.776  1.00  0.00     0.010 A 
ATOM     34  C   UNL A   1      40.596  29.650  29.405  1.00  0.00    -0.014 A 
BRANCH  34  35
ATOM     35  C   UNL A   1      41.939  29.215  28.949  1.00  0.00     0.031 A 
ATOM     36  C   UNL A   1      43.049  30.225  28.851  1.00  0.00     0.074 A 
ATOM     37  C   UNL A   1      42.166  27.928  28.631  1.00  0.00     0.049 A 
ATOM     38  N   UNL A   1      44.282  30.064  28.446  1.00  0.00    -0.248 NA
ATOM     39  C   UNL A   1      42.725  31.598  29.264  1.00  0.00     0.031 C 
ATOM     40  C   UNL A   1      41.176  26.855  28.704  1.00  0.00     0.029 A 
ATOM     41  N   UNL A   1      43.300  27.309  28.168  1.00  0.00    -0.354 N 
ATOM     42  C   UNL A   1      44.879  31.315  28.542  1.00  0.00     0.074 A 
ATOM     43  C   UNL A   1      43.866  32.230  29.023  1.00  0.00     0.031 C 
ATOM     44  C   UNL A   1      41.740  25.712  28.281  1.00  0.00     0.029 A 
ATOM     45  C   UNL A   1      43.120  25.977  27.881  1.00  0.00     0.049 A 
ATOM     46  H   UNL A   1      44.161  27.774  28.054  1.00  0.00     0.167 HD
ATOM     47  C   UNL A   1      46.156  31.667  28.258  1.00  0.00     0.037 A 
ATOM     48  C   UNL A   1      43.964  25.081  27.331  1.00  0.00     0.037 A 
ATOM     49  C   UNL A   1      47.159  30.750  27.778  1.00  0.00     0.049 A 
ATOM     50  C   UNL A   1      45.364  25.505  26.976  1.00  0.00     0.074 A 
ATOM     51  C   UNL A   1      48.494  30.999  27.509  1.00  0.00     0.029 A 
ATOM     52  N   UNL A   1      46.934  29.415  27.478  1.00  0.00    -0.354 N 
ATOM     53  N   UNL A   1      45.931  26.679  27.118  1.00  0.00    -0.248 NA
ATOM     54  C   UNL A   1      46.239  24.482  26.385  1.00  0.00     0.031 C 
ATOM     55  C   UNL A   1      49.062  29.828  26.995  1.00  0.00     0.029 A 
ATOM     56  C   UNL A   1      48.096  28.835  26.992  1.00  0.00     0.049 A 
ATOM     57  H   UNL A   1      46.076  28.946  27.594  1.00  0.00     0.167 HD
ATOM     58  C   UNL A   1      47.233  26.534  26.648  1.00  0.00     0.074 A 
ATOM     59  C   UNL A   1      47.374  25.153  26.233  1.00  0.00     0.031 C 
ATOM     60  C   UNL A   1      48.220  27.461  26.568  1.00  0.00     0.037 A 
BRANCH  47  61
ATOM     61  C   UNL A   1      46.532  33.113  28.427  1.00  0.00     0.058 A 
ATOM     62  C   UNL A   1      46.883  33.648  29.677  1.00  0.00     0.135 A 
ATOM     63  C   UNL A   1      46.558  33.974  27.318  1.00  0.00     0.135 A 
ATOM     64  F   UNL A   1      46.861  32.874  30.774  1.00  0.00    -0.206 F 
ATOM     65  C   UNL A   1      47.215  34.991  29.827  1.00  0.00     0.059 A 
ATOM     66  C   UNL A   1      46.912  35.314  27.440  1.00  0.00     0.059 A 
ATOM     67  F   UNL A   1      46.231  33.515  26.100  1.00  0.00    -0.206 F 
ATOM     68  C   UNL A   1      47.223  35.818  28.702  1.00  0.00     0.060 A 
BRANCH  68  69
ATOM     69  S   UNL A   1      47.644  37.561  28.912  1.00  0.00     0.124 S 
ATOM     70  O   UNL A   1      47.269  37.784  30.305  1.00  0.00    -0.237 OA
ATOM     71  O   UNL A   1      49.076  37.573  28.632  1.00  0.00    -0.237 OA
ATOM     72  O   UNL A   1      46.810  38.234  27.922  1.00  0.00    -0.744 OA
ENDBRANCH  68  69
ENDBRANCH  47  61
BRANCH  48  73
ATOM     73  C   UNL A   1      43.491  23.696  27.069  1.00  0.00     0.058 A 
ATOM     74  C   UNL A   1      43.387  22.755  28.103  1.00  0.00     0.135 A 
ATOM     75  C   UNL A   1      43.096  23.300  25.781  1.00  0.00     0.135 A 
ATOM     76  F   UNL A   1      43.766  23.083  29.348  1.00  0.00    -0.206 F 
ATOM     77  C   UNL A   1      42.908  21.469  27.871  1.00  0.00     0.059 A 
ATOM     78  C   UNL A   1      42.592  22.029  25.528  1.00  0.00     0.059 A 
ATOM     79  F   UNL A   1      43.169  24.168  24.759  1.00  0.00    -0.206 F 
ATOM     80  C   UNL A   1      42.503  21.119  26.581  1.00  0.00     0.060 A 
BRANCH  80  81
ATOM     81  S   UNL A   1      41.806  19.476  26.308  1.00  0.00     0.124 S 
ATOM     82  O   UNL A   1      42.503  19.057  25.097  1.00  0.00    -0.237 OA
ATOM     83  O   UNL A   1      42.179  18.777  27.533  1.00  0.00    -0.237 OA
ATOM     84  O   UNL A   1      40.378  19.738  26.156  1.00  0.00    -0.744 OA
ENDBRANCH  80  81
ENDBRANCH  48  73
BRANCH  60  85
ATOM     85  C   UNL A   1      49.546  27.014  26.017  1.00  0.00     0.058 A 
ATOM     86  C   UNL A   1      49.830  27.074  24.643  1.00  0.00     0.135 A 
ATOM     87  C   UNL A   1      50.565  26.570  26.876  1.00  0.00     0.135 A 
ATOM     88  F   UNL A   1      48.890  27.485  23.777  1.00  0.00    -0.206 F 
ATOM     89  C   UNL A   1      51.068  26.688  24.138  1.00  0.00     0.059 A 
ATOM     90  C   UNL A   1      51.820  26.205  26.396  1.00  0.00     0.059 A 
ATOM     91  F   UNL A   1      50.351  26.502  28.200  1.00  0.00    -0.206 F 
ATOM     92  C   UNL A   1      52.058  26.257  25.023  1.00  0.00     0.060 A 
BRANCH  92  93
ATOM     93  S   UNL A   1      53.671  25.790  24.359  1.00  0.00     0.124 S 
ATOM     94  O   UNL A   1      53.766  24.393  24.773  1.00  0.00    -0.237 OA
ATOM     95  O   UNL A   1      53.498  26.015  22.928  1.00  0.00    -0.237 OA
ATOM     96  O   UNL A   1      54.591  26.706  25.025  1.00  0.00    -0.744 OA
ENDBRANCH  92  93
ENDBRANCH  60  85
ENDBRANCH  34  35
ENDBRANCH  27  29
ENDBRANCH  26  27
ENDBRANCH  25  26
ENDBRANCH  24  25
ENDBRANCH   1  24
TORSDOF 20
ENDMDL
