MODEL 1
REMARK VINA RESULT:     -11.9      0.000      0.000
REMARK SMILES COC(=O)c1sc(SCC(=O)OCCOCCOC(=O)c2ccc(-c3c4nc(c(-c5c(F)cc(S(=O)(=O)[O-])cc5F)c5ccc([nH]5)c(-c5c(F)cc(S(=O)(=O)[O-])cc5F)c5nc(c(-c6c(F)cc(S(=O)(=O)[O-])cc6F)c6ccc3[nH]6)C=C5)C=C4)cc2)c(NC(=O)c2ccccc2)c1O
REMARK SMILES IDX 14 1 13 2 12 3 10 4 11 5 9 6 8 7 7 8 5 9 6 10 97 11 87 12
REMARK SMILES IDX 3 13 4 14 2 15 1 16 98 17 88 19 89 20 90 22 91 23 92 24
REMARK SMILES IDX 96 25 93 26 95 27 94 28 15 29 16 30 17 31 18 32 19 33 20 34
REMARK SMILES IDX 21 35 22 36 86 37 23 38 85 39 24 40 25 41 26 42 79 43 27 44
REMARK SMILES IDX 84 45 78 46 80 47 28 48 83 49 77 50 76 51 29 53 63 54 42 55
REMARK SMILES IDX 62 56 43 57 46 58 61 59 81 60 44 61 45 62 60 64 82 65 47 66
REMARK SMILES IDX 30 67 31 68 40 69 32 70 33 71 39 72 41 73 34 74 35 75 36 76
REMARK SMILES IDX 37 77 38 78 64 79 65 80 74 81 66 82 67 83 73 84 75 85 68 86
REMARK SMILES IDX 69 87 70 88 71 89 72 90 48 91 49 92 58 93 50 94 51 95 57 96
REMARK SMILES IDX 59 97 52 98 53 99 54 100 55 101 56 102
REMARK H PARENT 98 18 88 21 80 52 46 63
REMARK Flexibility Score: inf
ROOT
ATOM      1  C   UNL A   1      35.933  21.742  26.170  1.00  0.00     0.202 C 
ENDROOT
BRANCH   1   2
ATOM      2  C   UNL A   1      34.432  21.469  26.040  1.00  0.00     0.261 C 
BRANCH   2   3
ATOM      3  O   UNL A   1      34.171  20.744  24.820  1.00  0.00    -0.463 OA
BRANCH   3   4
ATOM      4  C   UNL A   1      32.859  20.577  24.448  1.00  0.00     0.316 C 
ATOM      5  O   UNL A   1      32.088  19.792  24.989  1.00  0.00    -0.251 OA
BRANCH   4   6
ATOM      6  C   UNL A   1      32.529  21.425  23.012  1.00  0.00     0.198 C 
BRANCH   6   7
ATOM      7  S   UNL A   1      32.859  23.916  22.418  1.00  0.00    -0.101 SA
BRANCH   7   8
ATOM      8  C   UNL A   1      31.570  25.135  22.817  1.00  0.00     0.089 A 
ATOM      9  C   UNL A   1      30.166  27.194  22.721  1.00  0.00     0.157 A 
ATOM     10  S   UNL A   1      31.501  26.561  21.853  1.00  0.00    -0.116 S 
ATOM     11  C   UNL A   1      29.742  26.297  23.678  1.00  0.00     0.166 A 
ATOM     12  C   UNL A   1      30.529  25.105  23.741  1.00  0.00     0.109 A 
BRANCH   9  13
ATOM     13  C   UNL A   1      29.679  28.513  22.379  1.00  0.00     0.352 C 
ATOM     14  O   UNL A   1      30.341  29.443  21.941  1.00  0.00    -0.245 OA
BRANCH  13  15
ATOM     15  O   UNL A   1      28.338  28.582  22.649  1.00  0.00    -0.465 OA
ATOM     16  C   UNL A   1      27.872  29.895  22.987  1.00  0.00     0.282 C 
ENDBRANCH  13  15
ENDBRANCH   9  13
BRANCH  11  17
ATOM     17  O   UNL A   1      28.705  26.523  24.518  1.00  0.00    -0.504 OA
ATOM     18  H   UNL A   1      28.859  26.909  25.358  1.00  0.00     0.293 HD
ENDBRANCH  11  17
BRANCH  12  19
ATOM     19  N   UNL A   1      30.235  24.114  24.680  1.00  0.00    -0.317 N 
ATOM     20  C   UNL A   1      30.818  23.951  25.906  1.00  0.00     0.255 C 
ATOM     21  H   UNL A   1      29.536  23.466  24.434  1.00  0.00     0.170 HD
ATOM     22  O   UNL A   1      30.661  22.962  26.607  1.00  0.00    -0.269 OA
BRANCH  20  23
ATOM     23  C   UNL A   1      31.645  25.074  26.359  1.00  0.00     0.040 A 
ATOM     24  C   UNL A   1      33.334  25.191  25.764  1.00  0.00     0.014 A 
ATOM     25  C   UNL A   1      30.812  26.552  27.045  1.00  0.00     0.014 A 
ATOM     26  C   UNL A   1      34.172  26.789  25.777  1.00  0.00     0.001 A 
ATOM     27  C   UNL A   1      31.654  28.141  27.038  1.00  0.00     0.001 A 
ATOM     28  C   UNL A   1      33.337  28.247  26.405  1.00  0.00     0.000 A 
ENDBRANCH  20  23
ENDBRANCH  12  19
ENDBRANCH   7   8
ENDBRANCH   6   7
ENDBRANCH   4   6
ENDBRANCH   3   4
ENDBRANCH   2   3
ENDBRANCH   1   2
BRANCH   1  29
ATOM     29  O   UNL A   1      36.628  21.539  24.936  1.00  0.00    -0.374 OA
BRANCH  29  30
ATOM     30  C   UNL A   1      37.431  20.361  24.876  1.00  0.00     0.202 C 
BRANCH  30  31
ATOM     31  C   UNL A   1      38.729  20.502  25.673  1.00  0.00     0.261 C 
BRANCH  31  32
ATOM     32  O   UNL A   1      39.184  21.866  25.660  1.00  0.00    -0.460 OA
BRANCH  32  33
ATOM     33  C   UNL A   1      40.471  22.082  26.036  1.00  0.00     0.338 C 
ATOM     34  O   UNL A   1      41.441  21.407  25.738  1.00  0.00    -0.246 OA
BRANCH  33  35
ATOM     35  C   UNL A   1      40.534  23.270  26.925  1.00  0.00     0.060 A 
ATOM     36  C   UNL A   1      39.587  24.283  26.754  1.00  0.00     0.016 A 
ATOM     37  C   UNL A   1      41.539  23.419  27.890  1.00  0.00     0.016 A 
ATOM     38  C   UNL A   1      39.708  25.473  27.472  1.00  0.00     0.010 A 
ATOM     39  C   UNL A   1      41.651  24.598  28.622  1.00  0.00     0.010 A 
ATOM     40  C   UNL A   1      40.768  25.651  28.372  1.00  0.00    -0.014 A 
BRANCH  40  41
ATOM     41  C   UNL A   1      41.029  27.001  28.875  1.00  0.00     0.031 A 
ATOM     42  C   UNL A   1      42.178  27.807  28.388  1.00  0.00     0.074 A 
ATOM     43  C   UNL A   1      40.199  27.616  29.741  1.00  0.00     0.049 A 
ATOM     44  N   UNL A   1      43.223  28.180  29.057  1.00  0.00    -0.248 NA
ATOM     45  C   UNL A   1      42.115  28.339  27.021  1.00  0.00     0.031 C 
ATOM     46  C   UNL A   1      38.833  27.233  30.099  1.00  0.00     0.029 A 
ATOM     47  N   UNL A   1      40.393  28.790  30.414  1.00  0.00    -0.354 N 
ATOM     48  C   UNL A   1      43.879  29.115  28.262  1.00  0.00     0.074 A 
ATOM     49  C   UNL A   1      43.185  29.138  26.994  1.00  0.00     0.031 C 
ATOM     50  C   UNL A   1      38.251  28.257  30.759  1.00  0.00     0.029 A 
ATOM     51  C   UNL A   1      39.246  29.291  30.996  1.00  0.00     0.049 A 
ATOM     52  H   UNL A   1      41.268  29.235  30.478  1.00  0.00     0.167 HD
ATOM     53  C   UNL A   1      44.867  29.930  28.717  1.00  0.00     0.037 A 
ATOM     54  C   UNL A   1      39.092  30.495  31.589  1.00  0.00     0.037 A 
ATOM     55  C   UNL A   1      45.305  29.636  30.050  1.00  0.00     0.049 A 
ATOM     56  C   UNL A   1      40.414  30.979  32.053  1.00  0.00     0.074 A 
ATOM     57  C   UNL A   1      45.918  28.574  30.678  1.00  0.00     0.029 A 
ATOM     58  N   UNL A   1      44.880  30.477  31.048  1.00  0.00    -0.354 N 
ATOM     59  N   UNL A   1      41.123  30.417  32.995  1.00  0.00    -0.248 NA
ATOM     60  C   UNL A   1      41.110  32.009  31.290  1.00  0.00     0.031 C 
ATOM     61  C   UNL A   1      45.498  28.633  32.040  1.00  0.00     0.029 A 
ATOM     62  C   UNL A   1      44.612  29.706  32.153  1.00  0.00     0.049 A 
ATOM     63  H   UNL A   1      44.785  31.454  30.985  1.00  0.00     0.167 HD
ATOM     64  C   UNL A   1      42.435  30.747  32.703  1.00  0.00     0.074 A 
ATOM     65  C   UNL A   1      42.348  31.851  31.763  1.00  0.00     0.031 C 
ATOM     66  C   UNL A   1      43.463  29.904  33.014  1.00  0.00     0.037 A 
BRANCH  53  67
ATOM     67  C   UNL A   1      45.277  31.198  28.035  1.00  0.00     0.058 A 
ATOM     68  C   UNL A   1      44.376  32.267  27.914  1.00  0.00     0.135 A 
ATOM     69  C   UNL A   1      46.480  31.291  27.311  1.00  0.00     0.135 A 
ATOM     70  F   UNL A   1      43.191  32.231  28.545  1.00  0.00    -0.206 F 
ATOM     71  C   UNL A   1      44.656  33.380  27.122  1.00  0.00     0.059 A 
ATOM     72  C   UNL A   1      46.793  32.402  26.532  1.00  0.00     0.059 A 
ATOM     73  F   UNL A   1      47.352  30.271  27.301  1.00  0.00    -0.206 F 
ATOM     74  C   UNL A   1      45.865  33.435  26.429  1.00  0.00     0.060 A 
BRANCH  74  75
ATOM     75  S   UNL A   1      46.238  34.867  25.394  1.00  0.00     0.124 S 
ATOM     76  O   UNL A   1      45.348  34.647  24.261  1.00  0.00    -0.237 OA
ATOM     77  O   UNL A   1      45.897  35.989  26.263  1.00  0.00    -0.237 OA
ATOM     78  O   UNL A   1      47.664  34.707  25.126  1.00  0.00    -0.744 OA
ENDBRANCH  74  75
ENDBRANCH  53  67
BRANCH  54  79
ATOM     79  C   UNL A   1      37.866  31.324  31.588  1.00  0.00     0.058 A 
ATOM     80  C   UNL A   1      37.003  31.363  32.693  1.00  0.00     0.135 A 
ATOM     81  C   UNL A   1      37.630  32.276  30.574  1.00  0.00     0.135 A 
ATOM     82  F   UNL A   1      37.188  30.527  33.726  1.00  0.00    -0.206 F 
ATOM     83  C   UNL A   1      35.968  32.296  32.791  1.00  0.00     0.059 A 
ATOM     84  C   UNL A   1      36.592  33.201  30.637  1.00  0.00     0.059 A 
ATOM     85  F   UNL A   1      38.460  32.394  29.526  1.00  0.00    -0.206 F 
ATOM     86  C   UNL A   1      35.775  33.217  31.759  1.00  0.00     0.060 A 
BRANCH  86  87
ATOM     87  S   UNL A   1      34.516  34.499  31.942  1.00  0.00     0.124 S 
ATOM     88  O   UNL A   1      34.121  34.733  30.558  1.00  0.00    -0.237 OA
ATOM     89  O   UNL A   1      33.527  33.834  32.784  1.00  0.00    -0.237 OA
ATOM     90  O   UNL A   1      35.238  35.596  32.581  1.00  0.00    -0.744 OA
ENDBRANCH  86  87
ENDBRANCH  54  79
BRANCH  66  91
ATOM     91  C   UNL A   1      43.233  28.880  34.089  1.00  0.00     0.058 A 
ATOM     92  C   UNL A   1      43.481  29.125  35.449  1.00  0.00     0.135 A 
ATOM     93  C   UNL A   1      42.599  27.674  33.754  1.00  0.00     0.135 A 
ATOM     94  F   UNL A   1      43.993  30.296  35.852  1.00  0.00    -0.206 F 
ATOM     95  C   UNL A   1      43.140  28.198  36.434  1.00  0.00     0.059 A 
ATOM     96  C   UNL A   1      42.225  26.745  34.723  1.00  0.00     0.059 A 
ATOM     97  F   UNL A   1      42.281  27.413  32.474  1.00  0.00    -0.206 F 
ATOM     98  C   UNL A   1      42.509  27.011  36.063  1.00  0.00     0.060 A 
BRANCH  98  99
ATOM     99  S   UNL A   1      41.951  25.867  37.346  1.00  0.00     0.124 S 
ATOM    100  O   UNL A   1      42.858  26.177  38.447  1.00  0.00    -0.237 OA
ATOM    101  O   UNL A   1      40.557  26.255  37.549  1.00  0.00    -0.237 OA
ATOM    102  O   UNL A   1      42.137  24.556  36.730  1.00  0.00    -0.744 OA
ENDBRANCH  98  99
ENDBRANCH  66  91
ENDBRANCH  40  41
ENDBRANCH  33  35
ENDBRANCH  32  33
ENDBRANCH  31  32
ENDBRANCH  30  31
ENDBRANCH  29  30
ENDBRANCH   1  29
TORSDOF 24
ENDMDL
MODEL 2
REMARK VINA RESULT:     -11.6      2.965      5.102
REMARK SMILES COC(=O)c1sc(SCC(=O)OCCOCCOC(=O)c2ccc(-c3c4nc(c(-c5c(F)cc(S(=O)(=O)[O-])cc5F)c5ccc([nH]5)c(-c5c(F)cc(S(=O)(=O)[O-])cc5F)c5nc(c(-c6c(F)cc(S(=O)(=O)[O-])cc6F)c6ccc3[nH]6)C=C5)C=C4)cc2)c(NC(=O)c2ccccc2)c1O
REMARK SMILES IDX 14 1 13 2 12 3 10 4 11 5 9 6 8 7 7 8 5 9 6 10 97 11 87 12
REMARK SMILES IDX 3 13 4 14 2 15 1 16 98 17 88 19 89 20 90 22 91 23 92 24
REMARK SMILES IDX 96 25 93 26 95 27 94 28 15 29 16 30 17 31 18 32 19 33 20 34
REMARK SMILES IDX 21 35 22 36 86 37 23 38 85 39 24 40 25 41 26 42 79 43 27 44
REMARK SMILES IDX 84 45 78 46 80 47 28 48 83 49 77 50 76 51 29 53 63 54 42 55
REMARK SMILES IDX 62 56 43 57 46 58 61 59 81 60 44 61 45 62 60 64 82 65 47 66
REMARK SMILES IDX 30 67 31 68 40 69 32 70 33 71 39 72 41 73 34 74 35 75 36 76
REMARK SMILES IDX 37 77 38 78 64 79 65 80 74 81 66 82 67 83 73 84 75 85 68 86
REMARK SMILES IDX 69 87 70 88 71 89 72 90 48 91 49 92 58 93 50 94 51 95 57 96
REMARK SMILES IDX 59 97 52 98 53 99 54 100 55 101 56 102
REMARK H PARENT 98 18 88 21 80 52 46 63
REMARK Flexibility Score: inf
ROOT
ATOM      1  C   UNL A   1      40.432  20.516  26.554  1.00  0.00     0.202 C 
ENDROOT
BRANCH   1   2
ATOM      2  C   UNL A   1      40.285  22.016  26.286  1.00  0.00     0.261 C 
BRANCH   2   3
ATOM      3  O   UNL A   1      38.890  22.345  26.108  1.00  0.00    -0.463 OA
BRANCH   3   4
ATOM      4  C   UNL A   1      38.419  23.475  26.730  1.00  0.00     0.316 C 
ATOM      5  O   UNL A   1      39.052  24.113  27.564  1.00  0.00    -0.251 OA
BRANCH   4   6
ATOM      6  C   UNL A   1      36.779  23.725  26.360  1.00  0.00     0.198 C 
BRANCH   6   7
ATOM      7  S   UNL A   1      35.575  23.879  24.080  1.00  0.00    -0.101 SA
BRANCH   7   8
ATOM      8  C   UNL A   1      34.289  22.673  23.637  1.00  0.00     0.089 A 
ATOM      9  C   UNL A   1      32.885  20.612  23.663  1.00  0.00     0.157 A 
ATOM     10  S   UNL A   1      34.215  21.218  24.557  1.00  0.00    -0.116 S 
ATOM     11  C   UNL A   1      32.466  21.537  22.732  1.00  0.00     0.166 A 
ATOM     12  C   UNL A   1      33.252  22.730  22.709  1.00  0.00     0.109 A 
BRANCH   9  13
ATOM     13  C   UNL A   1      32.397  19.282  23.962  1.00  0.00     0.352 C 
ATOM     14  O   UNL A   1      31.897  18.496  23.171  1.00  0.00    -0.245 OA
BRANCH  13  15
ATOM     15  O   UNL A   1      32.557  19.033  25.299  1.00  0.00    -0.465 OA
ATOM     16  C   UNL A   1      32.500  17.644  25.651  1.00  0.00     0.282 C 
ENDBRANCH  13  15
ENDBRANCH   9  13
BRANCH  11  17
ATOM     17  O   UNL A   1      31.433  21.336  21.879  1.00  0.00    -0.504 OA
ATOM     18  H   UNL A   1      31.478  20.649  21.244  1.00  0.00     0.293 HD
ENDBRANCH  11  17
BRANCH  12  19
ATOM     19  N   UNL A   1      32.964  23.750  21.799  1.00  0.00    -0.317 N 
ATOM     20  C   UNL A   1      32.329  24.930  22.068  1.00  0.00     0.255 C 
ATOM     21  H   UNL A   1      33.246  23.603  20.867  1.00  0.00     0.170 HD
ATOM     22  O   UNL A   1      31.933  25.701  21.206  1.00  0.00    -0.269 OA
BRANCH  20  23
ATOM     23  C   UNL A   1      32.168  25.243  23.491  1.00  0.00     0.040 A 
ATOM     24  C   UNL A   1      33.213  26.509  24.216  1.00  0.00     0.014 A 
ATOM     25  C   UNL A   1      30.613  24.753  24.323  1.00  0.00     0.014 A 
ATOM     26  C   UNL A   1      32.680  27.344  25.724  1.00  0.00     0.001 A 
ATOM     27  C   UNL A   1      30.088  25.605  25.816  1.00  0.00     0.001 A 
ATOM     28  C   UNL A   1      31.133  26.898  26.511  1.00  0.00     0.000 A 
ENDBRANCH  20  23
ENDBRANCH  12  19
ENDBRANCH   7   8
ENDBRANCH   6   7
ENDBRANCH   4   6
ENDBRANCH   3   4
ENDBRANCH   2   3
ENDBRANCH   1   2
BRANCH   1  29
ATOM     29  O   UNL A   1      41.458  19.922  25.755  1.00  0.00    -0.374 OA
BRANCH  29  30
ATOM     30  C   UNL A   1      42.509  19.289  26.486  1.00  0.00     0.202 C 
BRANCH  30  31
ATOM     31  C   UNL A   1      43.507  18.579  25.569  1.00  0.00     0.261 C 
BRANCH  31  32
ATOM     32  O   UNL A   1      44.701  19.365  25.416  1.00  0.00    -0.460 OA
BRANCH  32  33
ATOM     33  C   UNL A   1      44.761  20.177  24.328  1.00  0.00     0.338 C 
ATOM     34  O   UNL A   1      44.739  19.832  23.160  1.00  0.00    -0.246 OA
BRANCH  33  35
ATOM     35  C   UNL A   1      44.904  21.587  24.771  1.00  0.00     0.060 A 
ATOM     36  C   UNL A   1      45.554  21.844  25.981  1.00  0.00     0.016 A 
ATOM     37  C   UNL A   1      44.367  22.651  24.036  1.00  0.00     0.016 A 
ATOM     38  C   UNL A   1      45.575  23.142  26.494  1.00  0.00     0.010 A 
ATOM     39  C   UNL A   1      44.403  23.950  24.535  1.00  0.00     0.010 A 
ATOM     40  C   UNL A   1      44.957  24.188  25.795  1.00  0.00    -0.014 A 
BRANCH  40  41
ATOM     41  C   UNL A   1      44.743  25.455  26.495  1.00  0.00     0.031 A 
ATOM     42  C   UNL A   1      45.690  26.591  26.362  1.00  0.00     0.074 A 
ATOM     43  C   UNL A   1      43.637  25.690  27.231  1.00  0.00     0.049 A 
ATOM     44  N   UNL A   1      46.459  27.094  27.277  1.00  0.00    -0.248 NA
ATOM     45  C   UNL A   1      45.721  27.315  25.084  1.00  0.00     0.031 C 
ATOM     46  C   UNL A   1      42.390  24.925  27.243  1.00  0.00     0.029 A 
ATOM     47  N   UNL A   1      43.379  26.744  28.062  1.00  0.00    -0.354 N 
ATOM     48  C   UNL A   1      46.958  28.282  26.754  1.00  0.00     0.074 A 
ATOM     49  C   UNL A   1      46.517  28.347  25.379  1.00  0.00     0.031 C 
ATOM     50  C   UNL A   1      41.442  25.646  27.879  1.00  0.00     0.029 A 
ATOM     51  C   UNL A   1      42.055  26.839  28.440  1.00  0.00     0.049 A 
ATOM     52  H   UNL A   1      44.071  27.375  28.362  1.00  0.00     0.167 HD
ATOM     53  C   UNL A   1      47.587  29.229  27.501  1.00  0.00     0.037 A 
ATOM     54  C   UNL A   1      41.473  27.849  29.124  1.00  0.00     0.037 A 
ATOM     55  C   UNL A   1      47.851  28.831  28.853  1.00  0.00     0.049 A 
ATOM     56  C   UNL A   1      42.508  28.561  29.912  1.00  0.00     0.074 A 
ATOM     57  C   UNL A   1      48.614  27.864  29.469  1.00  0.00     0.029 A 
ATOM     58  N   UNL A   1      47.042  29.359  29.829  1.00  0.00    -0.354 N 
ATOM     59  N   UNL A   1      43.169  28.041  30.911  1.00  0.00    -0.248 NA
ATOM     60  C   UNL A   1      43.013  29.845  29.440  1.00  0.00     0.031 C 
ATOM     61  C   UNL A   1      47.963  27.586  30.707  1.00  0.00     0.029 A 
ATOM     62  C   UNL A   1      46.810  28.370  30.753  1.00  0.00     0.049 A 
ATOM     63  H   UNL A   1      46.693  30.278  29.861  1.00  0.00     0.167 HD
ATOM     64  C   UNL A   1      44.369  28.730  30.946  1.00  0.00     0.074 A 
ATOM     65  C   UNL A   1      44.145  29.921  30.144  1.00  0.00     0.031 C 
ATOM     66  C   UNL A   1      45.519  28.129  31.367  1.00  0.00     0.037 A 
BRANCH  53  67
ATOM     67  C   UNL A   1      47.743  30.654  27.075  1.00  0.00     0.058 A 
ATOM     68  C   UNL A   1      49.016  31.239  26.989  1.00  0.00     0.135 A 
ATOM     69  C   UNL A   1      46.635  31.515  26.955  1.00  0.00     0.135 A 
ATOM     70  F   UNL A   1      50.120  30.487  27.133  1.00  0.00    -0.206 F 
ATOM     71  C   UNL A   1      49.186  32.608  26.785  1.00  0.00     0.059 A 
ATOM     72  C   UNL A   1      46.779  32.881  26.728  1.00  0.00     0.059 A 
ATOM     73  F   UNL A   1      45.387  31.049  27.118  1.00  0.00    -0.206 F 
ATOM     74  C   UNL A   1      48.060  33.422  26.662  1.00  0.00     0.060 A 
BRANCH  74  75
ATOM     75  S   UNL A   1      48.265  35.198  26.404  1.00  0.00     0.124 S 
ATOM     76  O   UNL A   1      48.789  35.621  27.697  1.00  0.00    -0.237 OA
ATOM     77  O   UNL A   1      49.203  35.254  25.287  1.00  0.00    -0.237 OA
ATOM     78  O   UNL A   1      46.908  35.635  26.091  1.00  0.00    -0.744 OA
ENDBRANCH  74  75
ENDBRANCH  53  67
BRANCH  54  79
ATOM     79  C   UNL A   1      40.085  28.336  28.959  1.00  0.00     0.058 A 
ATOM     80  C   UNL A   1      39.182  28.362  30.031  1.00  0.00     0.135 A 
ATOM     81  C   UNL A   1      39.680  28.999  27.780  1.00  0.00     0.135 A 
ATOM     82  F   UNL A   1      39.509  27.801  31.205  1.00  0.00    -0.206 F 
ATOM     83  C   UNL A   1      37.949  29.014  29.944  1.00  0.00     0.059 A 
ATOM     84  C   UNL A   1      38.448  29.634  27.661  1.00  0.00     0.059 A 
ATOM     85  F   UNL A   1      40.510  29.123  26.734  1.00  0.00    -0.206 F 
ATOM     86  C   UNL A   1      37.594  29.654  28.755  1.00  0.00     0.060 A 
BRANCH  86  87
ATOM     87  S   UNL A   1      36.055  30.597  28.684  1.00  0.00     0.124 S 
ATOM     88  O   UNL A   1      36.436  31.733  27.852  1.00  0.00    -0.237 OA
ATOM     89  O   UNL A   1      35.140  29.638  28.075  1.00  0.00    -0.237 OA
ATOM     90  O   UNL A   1      35.784  30.911  30.084  1.00  0.00    -0.744 OA
ENDBRANCH  86  87
ENDBRANCH  54  79
BRANCH  66  91
ATOM     91  C   UNL A   1      45.399  26.913  32.242  1.00  0.00     0.058 A 
ATOM     92  C   UNL A   1      45.189  25.620  31.735  1.00  0.00     0.135 A 
ATOM     93  C   UNL A   1      45.660  27.035  33.615  1.00  0.00     0.135 A 
ATOM     94  F   UNL A   1      45.033  25.417  30.419  1.00  0.00    -0.206 F 
ATOM     95  C   UNL A   1      45.207  24.498  32.563  1.00  0.00     0.059 A 
ATOM     96  C   UNL A   1      45.709  25.925  34.456  1.00  0.00     0.059 A 
ATOM     97  F   UNL A   1      45.930  28.240  34.145  1.00  0.00    -0.206 F 
ATOM     98  C   UNL A   1      45.470  24.658  33.923  1.00  0.00     0.060 A 
BRANCH  98  99
ATOM     99  S   UNL A   1      45.621  23.195  34.974  1.00  0.00     0.124 S 
ATOM    100  O   UNL A   1      44.680  22.272  34.348  1.00  0.00    -0.237 OA
ATOM    101  O   UNL A   1      47.032  22.841  34.843  1.00  0.00    -0.237 OA
ATOM    102  O   UNL A   1      45.234  23.689  36.292  1.00  0.00    -0.744 OA
ENDBRANCH  98  99
ENDBRANCH  66  91
ENDBRANCH  40  41
ENDBRANCH  33  35
ENDBRANCH  32  33
ENDBRANCH  31  32
ENDBRANCH  30  31
ENDBRANCH  29  30
ENDBRANCH   1  29
TORSDOF 24
ENDMDL
MODEL 3
REMARK VINA RESULT:     -11.3      2.382      4.275
REMARK SMILES COC(=O)c1sc(SCC(=O)OCCOCCOC(=O)c2ccc(-c3c4nc(c(-c5c(F)cc(S(=O)(=O)[O-])cc5F)c5ccc([nH]5)c(-c5c(F)cc(S(=O)(=O)[O-])cc5F)c5nc(c(-c6c(F)cc(S(=O)(=O)[O-])cc6F)c6ccc3[nH]6)C=C5)C=C4)cc2)c(NC(=O)c2ccccc2)c1O
REMARK SMILES IDX 14 1 13 2 12 3 10 4 11 5 9 6 8 7 7 8 5 9 6 10 97 11 87 12
REMARK SMILES IDX 3 13 4 14 2 15 1 16 98 17 88 19 89 20 90 22 91 23 92 24
REMARK SMILES IDX 96 25 93 26 95 27 94 28 15 29 16 30 17 31 18 32 19 33 20 34
REMARK SMILES IDX 21 35 22 36 86 37 23 38 85 39 24 40 25 41 26 42 79 43 27 44
REMARK SMILES IDX 84 45 78 46 80 47 28 48 83 49 77 50 76 51 29 53 63 54 42 55
REMARK SMILES IDX 62 56 43 57 46 58 61 59 81 60 44 61 45 62 60 64 82 65 47 66
REMARK SMILES IDX 30 67 31 68 40 69 32 70 33 71 39 72 41 73 34 74 35 75 36 76
REMARK SMILES IDX 37 77 38 78 64 79 65 80 74 81 66 82 67 83 73 84 75 85 68 86
REMARK SMILES IDX 69 87 70 88 71 89 72 90 48 91 49 92 58 93 50 94 51 95 57 96
REMARK SMILES IDX 59 97 52 98 53 99 54 100 55 101 56 102
REMARK H PARENT 98 18 88 21 80 52 46 63
REMARK Flexibility Score: inf
ROOT
ATOM      1  C   UNL A   1      42.289  18.722  26.323  1.00  0.00     0.202 C 
ENDROOT
BRANCH   1   2
ATOM      2  C   UNL A   1      41.448  19.716  27.129  1.00  0.00     0.261 C 
BRANCH   2   3
ATOM      3  O   UNL A   1      40.851  20.684  26.240  1.00  0.00    -0.463 OA
BRANCH   3   4
ATOM      4  C   UNL A   1      40.217  21.762  26.808  1.00  0.00     0.316 C 
ATOM      5  O   UNL A   1      40.469  22.194  27.927  1.00  0.00    -0.251 OA
BRANCH   4   6
ATOM      6  C   UNL A   1      38.901  22.257  25.853  1.00  0.00     0.198 C 
BRANCH   6   7
ATOM      7  S   UNL A   1      36.442  22.720  26.491  1.00  0.00    -0.101 SA
BRANCH   7   8
ATOM      8  C   UNL A   1      35.121  21.601  25.936  1.00  0.00     0.089 A 
ATOM      9  C   UNL A   1      33.961  19.720  24.780  1.00  0.00     0.157 A 
ATOM     10  S   UNL A   1      35.565  20.313  24.880  1.00  0.00    -0.116 S 
ATOM     11  C   UNL A   1      33.123  20.450  25.595  1.00  0.00     0.166 A 
ATOM     12  C   UNL A   1      33.772  21.527  26.274  1.00  0.00     0.109 A 
BRANCH   9  13
ATOM     13  C   UNL A   1      33.688  18.603  23.900  1.00  0.00     0.352 C 
ATOM     14  O   UNL A   1      34.322  17.561  23.829  1.00  0.00    -0.245 OA
BRANCH  13  15
ATOM     15  O   UNL A   1      32.602  18.900  23.120  1.00  0.00    -0.465 OA
ATOM     16  C   UNL A   1      32.216  17.848  22.224  1.00  0.00     0.282 C 
ENDBRANCH  13  15
ENDBRANCH   9  13
BRANCH  11  17
ATOM     17  O   UNL A   1      31.796  20.212  25.721  1.00  0.00    -0.504 OA
ATOM     18  H   UNL A   1      31.235  20.278  24.973  1.00  0.00     0.293 HD
ENDBRANCH  11  17
BRANCH  12  19
ATOM     19  N   UNL A   1      33.046  22.372  27.116  1.00  0.00    -0.317 N 
ATOM     20  C   UNL A   1      32.498  23.580  26.786  1.00  0.00     0.255 C 
ATOM     21  H   UNL A   1      32.915  22.066  28.043  1.00  0.00     0.170 HD
ATOM     22  O   UNL A   1      32.038  24.363  27.605  1.00  0.00    -0.269 OA
BRANCH  20  23
ATOM     23  C   UNL A   1      32.467  23.881  25.352  1.00  0.00     0.040 A 
ATOM     24  C   UNL A   1      30.932  23.636  24.456  1.00  0.00     0.014 A 
ATOM     25  C   UNL A   1      33.768  24.967  24.659  1.00  0.00     0.014 A 
ATOM     26  C   UNL A   1      30.654  24.526  22.911  1.00  0.00     0.001 A 
ATOM     27  C   UNL A   1      33.471  25.858  23.127  1.00  0.00     0.001 A 
ATOM     28  C   UNL A   1      31.909  25.626  22.258  1.00  0.00     0.000 A 
ENDBRANCH  20  23
ENDBRANCH  12  19
ENDBRANCH   7   8
ENDBRANCH   6   7
ENDBRANCH   4   6
ENDBRANCH   3   4
ENDBRANCH   2   3
ENDBRANCH   1   2
BRANCH   1  29
ATOM     29  O   UNL A   1      42.818  19.305  25.129  1.00  0.00    -0.374 OA
BRANCH  29  30
ATOM     30  C   UNL A   1      44.240  19.261  25.009  1.00  0.00     0.202 C 
BRANCH  30  31
ATOM     31  C   UNL A   1      44.871  20.652  25.078  1.00  0.00     0.261 C 
BRANCH  31  32
ATOM     32  O   UNL A   1      44.010  21.564  25.781  1.00  0.00    -0.460 OA
BRANCH  32  33
ATOM     33  C   UNL A   1      43.534  22.621  25.072  1.00  0.00     0.338 C 
ATOM     34  O   UNL A   1      43.448  22.706  23.860  1.00  0.00    -0.246 OA
BRANCH  33  35
ATOM     35  C   UNL A   1      43.158  23.713  26.006  1.00  0.00     0.060 A 
ATOM     36  C   UNL A   1      42.356  24.753  25.528  1.00  0.00     0.016 A 
ATOM     37  C   UNL A   1      43.622  23.750  27.327  1.00  0.00     0.016 A 
ATOM     38  C   UNL A   1      42.108  25.864  26.336  1.00  0.00     0.010 A 
ATOM     39  C   UNL A   1      43.360  24.848  28.142  1.00  0.00     0.010 A 
ATOM     40  C   UNL A   1      42.650  25.934  27.627  1.00  0.00    -0.014 A 
BRANCH  40  41
ATOM     41  C   UNL A   1      42.618  27.223  28.320  1.00  0.00     0.031 A 
ATOM     42  C   UNL A   1      43.670  28.250  28.108  1.00  0.00     0.074 A 
ATOM     43  C   UNL A   1      41.595  27.581  29.123  1.00  0.00     0.049 A 
ATOM     44  N   UNL A   1      44.546  28.674  28.964  1.00  0.00    -0.248 NA
ATOM     45  C   UNL A   1      43.693  28.955  26.820  1.00  0.00     0.031 C 
ATOM     46  C   UNL A   1      40.278  26.953  29.228  1.00  0.00     0.029 A 
ATOM     47  N   UNL A   1      41.506  28.663  29.953  1.00  0.00    -0.354 N 
ATOM     48  C   UNL A   1      45.134  29.798  28.391  1.00  0.00     0.074 A 
ATOM     49  C   UNL A   1      44.611  29.899  27.047  1.00  0.00     0.031 C 
ATOM     50  C   UNL A   1      39.455  27.777  29.912  1.00  0.00     0.029 A 
ATOM     51  C   UNL A   1      40.228  28.902  30.415  1.00  0.00     0.049 A 
ATOM     52  H   UNL A   1      42.280  29.218  30.197  1.00  0.00     0.167 HD
ATOM     53  C   UNL A   1      45.908  30.678  29.081  1.00  0.00     0.037 A 
ATOM     54  C   UNL A   1      39.803  29.974  31.119  1.00  0.00     0.037 A 
ATOM     55  C   UNL A   1      46.217  30.266  30.418  1.00  0.00     0.049 A 
ATOM     56  C   UNL A   1      40.957  30.577  31.827  1.00  0.00     0.074 A 
ATOM     57  C   UNL A   1      46.913  29.228  30.999  1.00  0.00     0.029 A 
ATOM     58  N   UNL A   1      45.535  30.885  31.437  1.00  0.00    -0.354 N 
ATOM     59  N   UNL A   1      41.625  29.998  32.789  1.00  0.00    -0.248 NA
ATOM     60  C   UNL A   1      41.564  31.796  31.304  1.00  0.00     0.031 C 
ATOM     61  C   UNL A   1      46.319  29.031  32.281  1.00  0.00     0.029 A 
ATOM     62  C   UNL A   1      45.262  29.935  32.390  1.00  0.00     0.049 A 
ATOM     63  H   UNL A   1      45.288  31.837  31.478  1.00  0.00     0.167 HD
ATOM     64  C   UNL A   1      42.891  30.555  32.735  1.00  0.00     0.074 A 
ATOM     65  C   UNL A   1      42.742  31.756  31.931  1.00  0.00     0.031 C 
ATOM     66  C   UNL A   1      43.996  29.838  33.090  1.00  0.00     0.037 A 
BRANCH  53  67
ATOM     67  C   UNL A   1      46.185  32.075  28.623  1.00  0.00     0.058 A 
ATOM     68  C   UNL A   1      47.500  32.496  28.369  1.00  0.00     0.135 A 
ATOM     69  C   UNL A   1      45.189  33.070  28.639  1.00  0.00     0.135 A 
ATOM     70  F   UNL A   1      48.510  31.609  28.377  1.00  0.00    -0.206 F 
ATOM     71  C   UNL A   1      47.813  33.833  28.131  1.00  0.00     0.059 A 
ATOM     72  C   UNL A   1      45.473  34.408  28.381  1.00  0.00     0.059 A 
ATOM     73  F   UNL A   1      43.924  32.763  28.965  1.00  0.00    -0.206 F 
ATOM     74  C   UNL A   1      46.792  34.783  28.146  1.00  0.00     0.060 A 
BRANCH  74  75
ATOM     75  S   UNL A   1      47.184  36.521  27.845  1.00  0.00     0.124 S 
ATOM     76  O   UNL A   1      48.409  36.412  27.062  1.00  0.00    -0.237 OA
ATOM     77  O   UNL A   1      46.008  36.996  27.124  1.00  0.00    -0.237 OA
ATOM     78  O   UNL A   1      47.336  37.054  29.195  1.00  0.00    -0.744 OA
ENDBRANCH  74  75
ENDBRANCH  53  67
BRANCH  54  79
ATOM     79  C   UNL A   1      38.466  30.605  31.037  1.00  0.00     0.058 A 
ATOM     80  C   UNL A   1      37.502  30.420  32.039  1.00  0.00     0.135 A 
ATOM     81  C   UNL A   1      38.185  31.593  30.069  1.00  0.00     0.135 A 
ATOM     82  F   UNL A   1      37.715  29.538  33.027  1.00  0.00    -0.206 F 
ATOM     83  C   UNL A   1      36.328  31.175  32.084  1.00  0.00     0.059 A 
ATOM     84  C   UNL A   1      37.012  32.341  30.079  1.00  0.00     0.059 A 
ATOM     85  F   UNL A   1      39.085  31.922  29.131  1.00  0.00    -0.206 F 
ATOM     86  C   UNL A   1      36.095  32.139  31.101  1.00  0.00     0.060 A 
BRANCH  86  87
ATOM     87  S   UNL A   1      34.635  33.195  31.228  1.00  0.00     0.124 S 
ATOM     88  O   UNL A   1      33.979  32.960  29.947  1.00  0.00    -0.237 OA
ATOM     89  O   UNL A   1      33.963  32.644  32.400  1.00  0.00    -0.237 OA
ATOM     90  O   UNL A   1      35.197  34.531  31.407  1.00  0.00    -0.744 OA
ENDBRANCH  86  87
ENDBRANCH  54  79
BRANCH  66  91
ATOM     91  C   UNL A   1      43.805  28.649  33.989  1.00  0.00     0.058 A 
ATOM     92  C   UNL A   1      43.824  28.735  35.390  1.00  0.00     0.135 A 
ATOM     93  C   UNL A   1      43.436  27.420  33.421  1.00  0.00     0.135 A 
ATOM     94  F   UNL A   1      44.070  29.902  36.002  1.00  0.00    -0.206 F 
ATOM     95  C   UNL A   1      43.520  27.637  36.195  1.00  0.00     0.059 A 
ATOM     96  C   UNL A   1      43.102  26.317  34.206  1.00  0.00     0.059 A 
ATOM     97  F   UNL A   1      43.340  27.296  32.086  1.00  0.00    -0.206 F 
ATOM     98  C   UNL A   1      43.157  26.432  35.595  1.00  0.00     0.060 A 
BRANCH  98  99
ATOM     99  S   UNL A   1      42.638  25.047  36.634  1.00  0.00     0.124 S 
ATOM    100  O   UNL A   1      43.767  24.912  37.548  1.00  0.00    -0.237 OA
ATOM    101  O   UNL A   1      41.397  25.532  37.233  1.00  0.00    -0.237 OA
ATOM    102  O   UNL A   1      42.470  23.956  35.677  1.00  0.00    -0.744 OA
ENDBRANCH  98  99
ENDBRANCH  66  91
ENDBRANCH  40  41
ENDBRANCH  33  35
ENDBRANCH  32  33
ENDBRANCH  31  32
ENDBRANCH  30  31
ENDBRANCH  29  30
ENDBRANCH   1  29
TORSDOF 24
ENDMDL
