MODEL 1
REMARK VINA RESULT:     -10.0      0.000      0.000
REMARK SMILES CC[C@@H](C)[C@@H](C(=O)OCCOCCOC(=O)c1ccc(-c2c3nc(c(-c4c(F)cc(S(=O)(=O)[O-])cc4F)c4ccc([nH]4)c(-c4c(F)cc(S(=O)(=O)[O-])cc4F)c4nc(c(-c5c(F)cc(S(=O)(=O)[O-])cc5F)c5ccc2[nH]5)C=C4)C=C3)cc1)S(=O)(=O)c1ccc(OC)cc1
REMARK SMILES IDX 11 1 10 2 9 3 8 4 6 5 7 6 5 7 3 8 4 9 2 10 1 11 83 12 84 13
REMARK SMILES IDX 85 14 86 15 87 16 93 17 88 18 92 19 89 20 90 21 91 22 12 23
REMARK SMILES IDX 13 24 14 25 15 26 16 27 17 28 18 29 82 30 19 31 81 32 20 33
REMARK SMILES IDX 21 34 22 35 75 36 23 37 80 38 74 39 76 40 24 41 79 42 73 43
REMARK SMILES IDX 72 44 25 46 59 47 38 48 58 49 39 50 42 51 57 52 77 53 40 54
REMARK SMILES IDX 41 55 56 57 78 58 43 59 26 60 27 61 36 62 28 63 29 64 35 65
REMARK SMILES IDX 37 66 30 67 31 68 32 69 33 70 34 71 60 72 61 73 70 74 62 75
REMARK SMILES IDX 63 76 69 77 71 78 64 79 65 80 66 81 67 82 68 83 44 84 45 85
REMARK SMILES IDX 54 86 46 87 47 88 53 89 55 90 48 91 49 92 50 93 51 94 52 95
REMARK H PARENT 76 45 42 56
REMARK Flexibility Score: inf
ROOT
ATOM      1  O   UNL A   1      31.869  28.571  27.387  1.00  0.00    -0.374 OA
ENDROOT
BRANCH   1   2
ATOM      2  C   UNL A   1      31.174  27.570  26.628  1.00  0.00     0.202 C 
BRANCH   2   3
ATOM      3  C   UNL A   1      31.914  26.237  26.378  1.00  0.00     0.261 C 
BRANCH   3   4
ATOM      4  O   UNL A   1      31.129  25.276  25.611  1.00  0.00    -0.462 OA
BRANCH   4   5
ATOM      5  C   UNL A   1      30.996  25.475  24.268  1.00  0.00     0.325 C 
ATOM      6  O   UNL A   1      29.944  25.240  23.692  1.00  0.00    -0.251 OA
BRANCH   5   7
ATOM      7  C   UNL A   1      32.266  26.050  23.618  1.00  0.00     0.225 C 
BRANCH   7   8
ATOM      8  C   UNL A   1      32.122  27.353  22.731  1.00  0.00     0.015 C 
ATOM      9  C   UNL A   1      33.071  28.467  23.216  1.00  0.00     0.009 C 
BRANCH   8  10
ATOM     10  C   UNL A   1      30.676  27.933  22.680  1.00  0.00     0.002 C 
ATOM     11  C   UNL A   1      30.474  29.277  23.384  1.00  0.00     0.004 C 
ENDBRANCH   8  10
ENDBRANCH   7   8
BRANCH   7  12
ATOM     12  S   UNL A   1      33.124  24.662  22.743  1.00  0.00     0.192 S 
ATOM     13  O   UNL A   1      32.228  23.516  22.732  1.00  0.00    -0.223 OA
ATOM     14  O   UNL A   1      33.638  25.104  21.460  1.00  0.00    -0.223 OA
BRANCH  12  15
ATOM     15  C   UNL A   1      34.556  24.130  23.691  1.00  0.00     0.068 A 
ATOM     16  C   UNL A   1      34.791  24.642  24.953  1.00  0.00     0.024 A 
ATOM     17  C   UNL A   1      35.477  23.220  23.164  1.00  0.00     0.024 A 
ATOM     18  C   UNL A   1      35.897  24.257  25.707  1.00  0.00     0.048 A 
ATOM     19  C   UNL A   1      36.614  22.843  23.914  1.00  0.00     0.048 A 
ATOM     20  C   UNL A   1      36.820  23.358  25.195  1.00  0.00     0.118 A 
BRANCH  20  21
ATOM     21  O   UNL A   1      37.860  23.118  26.043  1.00  0.00    -0.497 OA
ATOM     22  C   UNL A   1      38.652  21.966  25.814  1.00  0.00     0.278 C 
ENDBRANCH  20  21
ENDBRANCH  12  15
ENDBRANCH   7  12
ENDBRANCH   5   7
ENDBRANCH   4   5
ENDBRANCH   3   4
ENDBRANCH   2   3
ENDBRANCH   1   2
BRANCH   1  23
ATOM     23  C   UNL A   1      31.883  29.865  26.810  1.00  0.00     0.202 C 
BRANCH  23  24
ATOM     24  C   UNL A   1      33.013  30.822  27.189  1.00  0.00     0.261 C 
BRANCH  24  25
ATOM     25  O   UNL A   1      33.935  30.175  28.059  1.00  0.00    -0.460 OA
BRANCH  25  26
ATOM     26  C   UNL A   1      34.910  31.015  28.476  1.00  0.00     0.338 C 
ATOM     27  O   UNL A   1      34.785  32.155  28.892  1.00  0.00    -0.246 OA
BRANCH  26  28
ATOM     28  C   UNL A   1      36.161  30.259  28.535  1.00  0.00     0.060 A 
ATOM     29  C   UNL A   1      36.487  29.671  29.762  1.00  0.00     0.016 A 
ATOM     30  C   UNL A   1      36.996  30.148  27.422  1.00  0.00     0.016 A 
ATOM     31  C   UNL A   1      37.707  29.030  29.907  1.00  0.00     0.010 A 
ATOM     32  C   UNL A   1      38.221  29.510  27.570  1.00  0.00     0.010 A 
ATOM     33  C   UNL A   1      38.595  29.001  28.827  1.00  0.00    -0.014 A 
BRANCH  33  34
ATOM     34  C   UNL A   1      40.008  28.655  29.061  1.00  0.00     0.031 A 
ATOM     35  C   UNL A   1      40.905  29.728  29.608  1.00  0.00     0.074 A 
ATOM     36  C   UNL A   1      40.464  27.424  28.786  1.00  0.00     0.049 A 
ATOM     37  N   UNL A   1      42.199  29.721  29.768  1.00  0.00    -0.248 NA
ATOM     38  C   UNL A   1      40.252  30.986  30.015  1.00  0.00     0.031 C 
ATOM     39  C   UNL A   1      39.649  26.309  28.306  1.00  0.00     0.029 A 
ATOM     40  N   UNL A   1      41.733  26.915  28.850  1.00  0.00    -0.354 N 
ATOM     41  C   UNL A   1      42.518  30.976  30.272  1.00  0.00     0.074 A 
ATOM     42  C   UNL A   1      41.289  31.729  30.367  1.00  0.00     0.031 C 
ATOM     43  C   UNL A   1      40.447  25.247  28.096  1.00  0.00     0.029 A 
ATOM     44  C   UNL A   1      41.828  25.628  28.382  1.00  0.00     0.049 A 
ATOM     45  H   UNL A   1      42.502  27.422  29.199  1.00  0.00     0.167 HD
ATOM     46  C   UNL A   1      43.734  31.449  30.626  1.00  0.00     0.037 A 
ATOM     47  C   UNL A   1      42.920  24.867  28.174  1.00  0.00     0.037 A 
ATOM     48  C   UNL A   1      44.940  30.673  30.525  1.00  0.00     0.049 A 
ATOM     49  C   UNL A   1      44.274  25.438  28.509  1.00  0.00     0.074 A 
ATOM     50  C   UNL A   1      46.229  31.038  30.862  1.00  0.00     0.029 A 
ATOM     51  N   UNL A   1      45.001  29.372  30.043  1.00  0.00    -0.354 N 
ATOM     52  N   UNL A   1      44.571  26.624  28.990  1.00  0.00    -0.248 NA
ATOM     53  C   UNL A   1      45.439  24.575  28.277  1.00  0.00     0.031 C 
ATOM     54  C   UNL A   1      47.078  29.979  30.531  1.00  0.00     0.029 A 
ATOM     55  C   UNL A   1      46.309  28.927  30.055  1.00  0.00     0.049 A 
ATOM     56  H   UNL A   1      44.226  28.845  29.740  1.00  0.00     0.167 HD
ATOM     57  C   UNL A   1      45.951  26.632  29.160  1.00  0.00     0.074 A 
ATOM     58  C   UNL A   1      46.431  25.337  28.721  1.00  0.00     0.031 C 
ATOM     59  C   UNL A   1      46.749  27.616  29.642  1.00  0.00     0.037 A 
BRANCH  46  60
ATOM     60  C   UNL A   1      43.822  32.867  31.117  1.00  0.00     0.058 A 
ATOM     61  C   UNL A   1      43.942  33.953  30.235  1.00  0.00     0.135 A 
ATOM     62  C   UNL A   1      43.760  33.145  32.492  1.00  0.00     0.135 A 
ATOM     63  F   UNL A   1      44.031  33.745  28.911  1.00  0.00    -0.206 F 
ATOM     64  C   UNL A   1      44.019  35.262  30.700  1.00  0.00     0.059 A 
ATOM     65  C   UNL A   1      43.803  34.449  32.977  1.00  0.00     0.059 A 
ATOM     66  F   UNL A   1      43.655  32.144  33.380  1.00  0.00    -0.206 F 
ATOM     67  C   UNL A   1      43.945  35.500  32.074  1.00  0.00     0.060 A 
BRANCH  67  68
ATOM     68  S   UNL A   1      44.035  37.204  32.660  1.00  0.00     0.124 S 
ATOM     69  O   UNL A   1      45.389  37.256  33.203  1.00  0.00    -0.237 OA
ATOM     70  O   UNL A   1      43.815  37.966  31.434  1.00  0.00    -0.237 OA
ATOM     71  O   UNL A   1      42.962  37.284  33.645  1.00  0.00    -0.744 OA
ENDBRANCH  67  68
ENDBRANCH  46  60
BRANCH  47  72
ATOM     72  C   UNL A   1      42.773  23.500  27.610  1.00  0.00     0.058 A 
ATOM     73  C   UNL A   1      42.541  22.395  28.442  1.00  0.00     0.135 A 
ATOM     74  C   UNL A   1      42.845  23.271  26.226  1.00  0.00     0.135 A 
ATOM     75  F   UNL A   1      42.468  22.561  29.771  1.00  0.00    -0.206 F 
ATOM     76  C   UNL A   1      42.401  21.111  27.926  1.00  0.00     0.059 A 
ATOM     77  C   UNL A   1      42.681  22.001  25.684  1.00  0.00     0.059 A 
ATOM     78  F   UNL A   1      43.049  24.296  25.384  1.00  0.00    -0.206 F 
ATOM     79  C   UNL A   1      42.469  20.925  26.544  1.00  0.00     0.060 A 
BRANCH  79  80
ATOM     80  S   UNL A   1      42.244  19.260  25.884  1.00  0.00     0.124 S 
ATOM     81  O   UNL A   1      40.803  19.221  25.667  1.00  0.00    -0.237 OA
ATOM     82  O   UNL A   1      43.071  19.295  24.682  1.00  0.00    -0.237 OA
ATOM     83  O   UNL A   1      42.745  18.404  26.956  1.00  0.00    -0.744 OA
ENDBRANCH  79  80
ENDBRANCH  47  72
BRANCH  59  84
ATOM     84  C   UNL A   1      48.215  27.322  29.797  1.00  0.00     0.058 A 
ATOM     85  C   UNL A   1      49.135  27.576  28.771  1.00  0.00     0.135 A 
ATOM     86  C   UNL A   1      48.712  26.900  31.042  1.00  0.00     0.135 A 
ATOM     87  F   UNL A   1      48.709  27.972  27.561  1.00  0.00    -0.206 F 
ATOM     88  C   UNL A   1      50.503  27.427  28.975  1.00  0.00     0.059 A 
ATOM     89  C   UNL A   1      50.076  26.772  31.277  1.00  0.00     0.059 A 
ATOM     90  F   UNL A   1      47.870  26.653  32.058  1.00  0.00    -0.206 F 
ATOM     91  C   UNL A   1      50.964  27.039  30.236  1.00  0.00     0.060 A 
BRANCH  91  92
ATOM     92  S   UNL A   1      52.745  26.943  30.513  1.00  0.00     0.124 S 
ATOM     93  O   UNL A   1      52.874  25.637  31.149  1.00  0.00    -0.237 OA
ATOM     94  O   UNL A   1      53.275  27.043  29.156  1.00  0.00    -0.237 OA
ATOM     95  O   UNL A   1      53.018  28.091  31.373  1.00  0.00    -0.744 OA
ENDBRANCH  91  92
ENDBRANCH  59  84
ENDBRANCH  33  34
ENDBRANCH  26  28
ENDBRANCH  25  26
ENDBRANCH  24  25
ENDBRANCH  23  24
ENDBRANCH   1  23
TORSDOF 22
ENDMDL
MODEL 2
REMARK VINA RESULT:      -9.7      3.355      9.757
REMARK SMILES CC[C@@H](C)[C@@H](C(=O)OCCOCCOC(=O)c1ccc(-c2c3nc(c(-c4c(F)cc(S(=O)(=O)[O-])cc4F)c4ccc([nH]4)c(-c4c(F)cc(S(=O)(=O)[O-])cc4F)c4nc(c(-c5c(F)cc(S(=O)(=O)[O-])cc5F)c5ccc2[nH]5)C=C4)C=C3)cc1)S(=O)(=O)c1ccc(OC)cc1
REMARK SMILES IDX 11 1 10 2 9 3 8 4 6 5 7 6 5 7 3 8 4 9 2 10 1 11 83 12 84 13
REMARK SMILES IDX 85 14 86 15 87 16 93 17 88 18 92 19 89 20 90 21 91 22 12 23
REMARK SMILES IDX 13 24 14 25 15 26 16 27 17 28 18 29 82 30 19 31 81 32 20 33
REMARK SMILES IDX 21 34 22 35 75 36 23 37 80 38 74 39 76 40 24 41 79 42 73 43
REMARK SMILES IDX 72 44 25 46 59 47 38 48 58 49 39 50 42 51 57 52 77 53 40 54
REMARK SMILES IDX 41 55 56 57 78 58 43 59 26 60 27 61 36 62 28 63 29 64 35 65
REMARK SMILES IDX 37 66 30 67 31 68 32 69 33 70 34 71 60 72 61 73 70 74 62 75
REMARK SMILES IDX 63 76 69 77 71 78 64 79 65 80 66 81 67 82 68 83 44 84 45 85
REMARK SMILES IDX 54 86 46 87 47 88 53 89 55 90 48 91 49 92 50 93 51 94 52 95
REMARK H PARENT 76 45 42 56
REMARK Flexibility Score: inf
ROOT
ATOM      1  O   UNL A   1      35.721  21.171  24.986  1.00  0.00    -0.374 OA
ENDROOT
BRANCH   1   2
ATOM      2  C   UNL A   1      35.368  21.935  26.148  1.00  0.00     0.202 C 
BRANCH   2   3
ATOM      3  C   UNL A   1      34.280  23.020  25.973  1.00  0.00     0.261 C 
BRANCH   3   4
ATOM      4  O   UNL A   1      34.800  24.279  25.450  1.00  0.00    -0.462 OA
BRANCH   4   5
ATOM      5  C   UNL A   1      33.913  25.180  24.935  1.00  0.00     0.325 C 
ATOM      6  O   UNL A   1      34.277  26.281  24.553  1.00  0.00    -0.251 OA
BRANCH   5   7
ATOM      7  C   UNL A   1      32.478  24.633  24.861  1.00  0.00     0.225 C 
BRANCH   7   8
ATOM      8  C   UNL A   1      31.884  24.295  23.433  1.00  0.00     0.015 C 
ATOM      9  C   UNL A   1      31.457  22.816  23.341  1.00  0.00     0.009 C 
BRANCH   8  10
ATOM     10  C   UNL A   1      32.856  24.595  22.252  1.00  0.00     0.002 C 
ATOM     11  C   UNL A   1      32.446  25.746  21.330  1.00  0.00     0.004 C 
ENDBRANCH   8  10
ENDBRANCH   7   8
BRANCH   7  12
ATOM     12  S   UNL A   1      31.396  25.762  25.852  1.00  0.00     0.192 S 
ATOM     13  O   UNL A   1      30.250  24.995  26.314  1.00  0.00    -0.223 OA
ATOM     14  O   UNL A   1      32.169  26.458  26.863  1.00  0.00    -0.223 OA
BRANCH  12  15
ATOM     15  C   UNL A   1      30.708  27.041  24.791  1.00  0.00     0.068 A 
ATOM     16  C   UNL A   1      31.248  28.313  24.785  1.00  0.00     0.024 A 
ATOM     17  C   UNL A   1      29.598  26.790  23.979  1.00  0.00     0.024 A 
ATOM     18  C   UNL A   1      30.732  29.327  23.982  1.00  0.00     0.048 A 
ATOM     19  C   UNL A   1      29.054  27.820  23.180  1.00  0.00     0.048 A 
ATOM     20  C   UNL A   1      29.628  29.092  23.176  1.00  0.00     0.118 A 
BRANCH  20  21
ATOM     21  O   UNL A   1      29.227  30.197  22.484  1.00  0.00    -0.497 OA
ATOM     22  C   UNL A   1      27.859  30.561  22.549  1.00  0.00     0.278 C 
ENDBRANCH  20  21
ENDBRANCH  12  15
ENDBRANCH   7  12
ENDBRANCH   5   7
ENDBRANCH   4   5
ENDBRANCH   3   4
ENDBRANCH   2   3
ENDBRANCH   1   2
BRANCH   1  23
ATOM     23  C   UNL A   1      37.089  21.227  24.619  1.00  0.00     0.202 C 
BRANCH  23  24
ATOM     24  C   UNL A   1      38.124  21.521  25.705  1.00  0.00     0.261 C 
BRANCH  24  25
ATOM     25  O   UNL A   1      38.786  22.751  25.434  1.00  0.00    -0.460 OA
BRANCH  25  26
ATOM     26  C   UNL A   1      39.937  22.869  26.133  1.00  0.00     0.338 C 
ATOM     27  O   UNL A   1      40.899  22.119  26.120  1.00  0.00    -0.246 OA
BRANCH  26  28
ATOM     28  C   UNL A   1      39.936  24.179  26.786  1.00  0.00     0.060 A 
ATOM     29  C   UNL A   1      40.942  25.074  26.409  1.00  0.00     0.016 A 
ATOM     30  C   UNL A   1      38.984  24.508  27.753  1.00  0.00     0.016 A 
ATOM     31  C   UNL A   1      41.054  26.289  27.066  1.00  0.00     0.010 A 
ATOM     32  C   UNL A   1      39.099  25.724  28.414  1.00  0.00     0.010 A 
ATOM     33  C   UNL A   1      40.166  26.587  28.106  1.00  0.00    -0.014 A 
BRANCH  33  34
ATOM     34  C   UNL A   1      40.484  27.683  29.036  1.00  0.00     0.031 A 
ATOM     35  C   UNL A   1      41.711  27.537  29.890  1.00  0.00     0.074 A 
ATOM     36  C   UNL A   1      39.694  28.765  29.113  1.00  0.00     0.049 A 
ATOM     37  N   UNL A   1      42.127  28.284  30.875  1.00  0.00    -0.248 NA
ATOM     38  C   UNL A   1      42.578  26.380  29.601  1.00  0.00     0.031 C 
ATOM     39  C   UNL A   1      38.517  29.012  28.282  1.00  0.00     0.029 A 
ATOM     40  N   UNL A   1      39.754  29.847  29.948  1.00  0.00    -0.354 N 
ATOM     41  C   UNL A   1      43.289  27.678  31.337  1.00  0.00     0.074 A 
ATOM     42  C   UNL A   1      43.499  26.488  30.545  1.00  0.00     0.031 C 
ATOM     43  C   UNL A   1      37.949  30.167  28.666  1.00  0.00     0.029 A 
ATOM     44  C   UNL A   1      38.697  30.711  29.798  1.00  0.00     0.049 A 
ATOM     45  H   UNL A   1      40.484  29.994  30.592  1.00  0.00     0.167 HD
ATOM     46  C   UNL A   1      44.105  28.088  32.333  1.00  0.00     0.037 A 
ATOM     47  C   UNL A   1      38.359  31.792  30.526  1.00  0.00     0.037 A 
ATOM     48  C   UNL A   1      43.872  29.281  33.100  1.00  0.00     0.049 A 
ATOM     49  C   UNL A   1      39.245  32.193  31.678  1.00  0.00     0.074 A 
ATOM     50  C   UNL A   1      44.632  29.806  34.128  1.00  0.00     0.029 A 
ATOM     51  N   UNL A   1      42.788  30.131  32.923  1.00  0.00    -0.354 N 
ATOM     52  N   UNL A   1      40.345  31.620  32.109  1.00  0.00    -0.248 NA
ATOM     53  C   UNL A   1      38.849  33.383  32.442  1.00  0.00     0.031 C 
ATOM     54  C   UNL A   1      43.978  30.943  34.610  1.00  0.00     0.029 A 
ATOM     55  C   UNL A   1      42.849  31.167  33.837  1.00  0.00     0.049 A 
ATOM     56  H   UNL A   1      42.083  30.014  32.247  1.00  0.00     0.167 HD
ATOM     57  C   UNL A   1      40.796  32.404  33.164  1.00  0.00     0.074 A 
ATOM     58  C   UNL A   1      39.845  33.487  33.314  1.00  0.00     0.031 C 
ATOM     59  C   UNL A   1      41.901  32.250  33.936  1.00  0.00     0.037 A 
BRANCH  46  60
ATOM     60  C   UNL A   1      45.293  27.230  32.668  1.00  0.00     0.058 A 
ATOM     61  C   UNL A   1      46.507  27.334  31.969  1.00  0.00     0.135 A 
ATOM     62  C   UNL A   1      45.224  26.306  33.724  1.00  0.00     0.135 A 
ATOM     63  F   UNL A   1      46.623  28.184  30.936  1.00  0.00    -0.206 F 
ATOM     64  C   UNL A   1      47.601  26.538  32.290  1.00  0.00     0.059 A 
ATOM     65  C   UNL A   1      46.316  25.522  34.082  1.00  0.00     0.059 A 
ATOM     66  F   UNL A   1      44.085  26.158  34.418  1.00  0.00    -0.206 F 
ATOM     67  C   UNL A   1      47.497  25.636  33.351  1.00  0.00     0.060 A 
BRANCH  67  68
ATOM     68  S   UNL A   1      48.929  24.619  33.762  1.00  0.00     0.124 S 
ATOM     69  O   UNL A   1      49.660  24.619  32.499  1.00  0.00    -0.237 OA
ATOM     70  O   UNL A   1      49.544  25.374  34.850  1.00  0.00    -0.237 OA
ATOM     71  O   UNL A   1      48.341  23.339  34.145  1.00  0.00    -0.744 OA
ENDBRANCH  67  68
ENDBRANCH  46  60
BRANCH  47  72
ATOM     72  C   UNL A   1      37.127  32.554  30.194  1.00  0.00     0.058 A 
ATOM     73  C   UNL A   1      37.154  33.604  29.266  1.00  0.00     0.135 A 
ATOM     74  C   UNL A   1      35.893  32.235  30.785  1.00  0.00     0.135 A 
ATOM     75  F   UNL A   1      38.309  33.949  28.678  1.00  0.00    -0.206 F 
ATOM     76  C   UNL A   1      36.007  34.323  28.947  1.00  0.00     0.059 A 
ATOM     77  C   UNL A   1      34.727  32.921  30.461  1.00  0.00     0.059 A 
ATOM     78  F   UNL A   1      35.809  31.227  31.667  1.00  0.00    -0.206 F 
ATOM     79  C   UNL A   1      34.796  33.971  29.547  1.00  0.00     0.060 A 
BRANCH  79  80
ATOM     80  S   UNL A   1      33.308  34.885  29.092  1.00  0.00     0.124 S 
ATOM     81  O   UNL A   1      32.712  34.001  28.097  1.00  0.00    -0.237 OA
ATOM     82  O   UNL A   1      32.606  34.976  30.369  1.00  0.00    -0.237 OA
ATOM     83  O   UNL A   1      33.832  36.148  28.582  1.00  0.00    -0.744 OA
ENDBRANCH  79  80
ENDBRANCH  47  72
BRANCH  59  84
ATOM     84  C   UNL A   1      42.194  33.306  34.964  1.00  0.00     0.058 A 
ATOM     85  C   UNL A   1      42.983  34.426  34.672  1.00  0.00     0.135 A 
ATOM     86  C   UNL A   1      41.565  33.250  36.219  1.00  0.00     0.135 A 
ATOM     87  F   UNL A   1      43.613  34.523  33.490  1.00  0.00    -0.206 F 
ATOM     88  C   UNL A   1      43.135  35.461  35.589  1.00  0.00     0.059 A 
ATOM     89  C   UNL A   1      41.678  34.285  37.139  1.00  0.00     0.059 A 
ATOM     90  F   UNL A   1      40.791  32.200  36.541  1.00  0.00    -0.206 F 
ATOM     91  C   UNL A   1      42.466  35.387  36.814  1.00  0.00     0.060 A 
BRANCH  91  92
ATOM     92  S   UNL A   1      42.595  36.781  37.954  1.00  0.00     0.124 S 
ATOM     93  O   UNL A   1      43.403  37.719  37.181  1.00  0.00    -0.237 OA
ATOM     94  O   UNL A   1      41.197  37.156  38.145  1.00  0.00    -0.237 OA
ATOM     95  O   UNL A   1      43.250  36.205  39.125  1.00  0.00    -0.744 OA
ENDBRANCH  91  92
ENDBRANCH  59  84
ENDBRANCH  33  34
ENDBRANCH  26  28
ENDBRANCH  25  26
ENDBRANCH  24  25
ENDBRANCH  23  24
ENDBRANCH   1  23
TORSDOF 22
ENDMDL
MODEL 3
REMARK VINA RESULT:      -9.6      2.696      3.603
REMARK SMILES CC[C@@H](C)[C@@H](C(=O)OCCOCCOC(=O)c1ccc(-c2c3nc(c(-c4c(F)cc(S(=O)(=O)[O-])cc4F)c4ccc([nH]4)c(-c4c(F)cc(S(=O)(=O)[O-])cc4F)c4nc(c(-c5c(F)cc(S(=O)(=O)[O-])cc5F)c5ccc2[nH]5)C=C4)C=C3)cc1)S(=O)(=O)c1ccc(OC)cc1
REMARK SMILES IDX 11 1 10 2 9 3 8 4 6 5 7 6 5 7 3 8 4 9 2 10 1 11 83 12 84 13
REMARK SMILES IDX 85 14 86 15 87 16 93 17 88 18 92 19 89 20 90 21 91 22 12 23
REMARK SMILES IDX 13 24 14 25 15 26 16 27 17 28 18 29 82 30 19 31 81 32 20 33
REMARK SMILES IDX 21 34 22 35 75 36 23 37 80 38 74 39 76 40 24 41 79 42 73 43
REMARK SMILES IDX 72 44 25 46 59 47 38 48 58 49 39 50 42 51 57 52 77 53 40 54
REMARK SMILES IDX 41 55 56 57 78 58 43 59 26 60 27 61 36 62 28 63 29 64 35 65
REMARK SMILES IDX 37 66 30 67 31 68 32 69 33 70 34 71 60 72 61 73 70 74 62 75
REMARK SMILES IDX 63 76 69 77 71 78 64 79 65 80 66 81 67 82 68 83 44 84 45 85
REMARK SMILES IDX 54 86 46 87 47 88 53 89 55 90 48 91 49 92 50 93 51 94 52 95
REMARK H PARENT 76 45 42 56
REMARK Flexibility Score: inf
ROOT
ATOM      1  O   UNL A   1      33.752  29.546  27.176  1.00  0.00    -0.374 OA
ENDROOT
BRANCH   1   2
ATOM      2  C   UNL A   1      34.045  28.920  25.918  1.00  0.00     0.202 C 
BRANCH   2   3
ATOM      3  C   UNL A   1      33.033  27.873  25.401  1.00  0.00     0.261 C 
BRANCH   3   4
ATOM      4  O   UNL A   1      33.549  27.066  24.301  1.00  0.00    -0.462 OA
BRANCH   4   5
ATOM      5  C   UNL A   1      33.669  25.719  24.489  1.00  0.00     0.325 C 
ATOM      6  O   UNL A   1      34.392  25.261  25.361  1.00  0.00    -0.251 OA
BRANCH   5   7
ATOM      7  C   UNL A   1      32.781  24.900  23.538  1.00  0.00     0.225 C 
BRANCH   7   8
ATOM      8  C   UNL A   1      31.381  24.395  24.078  1.00  0.00     0.015 C 
ATOM      9  C   UNL A   1      30.252  25.380  23.711  1.00  0.00     0.009 C 
BRANCH   8  10
ATOM     10  C   UNL A   1      31.339  24.160  25.618  1.00  0.00     0.002 C 
ATOM     11  C   UNL A   1      30.627  22.885  26.077  1.00  0.00     0.004 C 
ENDBRANCH   8  10
ENDBRANCH   7   8
BRANCH   7  12
ATOM     12  S   UNL A   1      33.821  23.543  22.829  1.00  0.00     0.192 S 
ATOM     13  O   UNL A   1      33.398  23.323  21.455  1.00  0.00    -0.223 OA
ATOM     14  O   UNL A   1      35.230  23.809  23.046  1.00  0.00    -0.223 OA
BRANCH  12  15
ATOM     15  C   UNL A   1      33.476  21.996  23.680  1.00  0.00     0.068 A 
ATOM     16  C   UNL A   1      32.465  21.164  23.239  1.00  0.00     0.024 A 
ATOM     17  C   UNL A   1      34.194  21.620  24.819  1.00  0.00     0.024 A 
ATOM     18  C   UNL A   1      32.167  19.965  23.882  1.00  0.00     0.048 A 
ATOM     19  C   UNL A   1      33.881  20.416  25.491  1.00  0.00     0.048 A 
ATOM     20  C   UNL A   1      32.868  19.582  25.016  1.00  0.00     0.118 A 
BRANCH  20  21
ATOM     21  O   UNL A   1      32.428  18.404  25.544  1.00  0.00    -0.497 OA
ATOM     22  C   UNL A   1      33.239  17.256  25.376  1.00  0.00     0.278 C 
ENDBRANCH  20  21
ENDBRANCH  12  15
ENDBRANCH   7  12
ENDBRANCH   5   7
ENDBRANCH   4   5
ENDBRANCH   3   4
ENDBRANCH   2   3
ENDBRANCH   1   2
BRANCH   1  23
ATOM     23  C   UNL A   1      34.083  30.922  27.258  1.00  0.00     0.202 C 
BRANCH  23  24
ATOM     24  C   UNL A   1      34.511  31.491  28.611  1.00  0.00     0.261 C 
BRANCH  24  25
ATOM     25  O   UNL A   1      35.921  31.675  28.643  1.00  0.00    -0.460 OA
BRANCH  25  26
ATOM     26  C   UNL A   1      36.459  31.250  29.809  1.00  0.00     0.338 C 
ATOM     27  O   UNL A   1      35.995  31.367  30.932  1.00  0.00    -0.246 OA
BRANCH  26  28
ATOM     28  C   UNL A   1      37.630  30.430  29.495  1.00  0.00     0.060 A 
ATOM     29  C   UNL A   1      38.453  30.067  30.565  1.00  0.00     0.016 A 
ATOM     30  C   UNL A   1      37.917  30.048  28.183  1.00  0.00     0.016 A 
ATOM     31  C   UNL A   1      39.630  29.379  30.316  1.00  0.00     0.010 A 
ATOM     32  C   UNL A   1      39.099  29.363  27.934  1.00  0.00     0.010 A 
ATOM     33  C   UNL A   1      39.978  29.079  28.994  1.00  0.00    -0.014 A 
BRANCH  33  34
ATOM     34  C   UNL A   1      41.362  28.683  28.683  1.00  0.00     0.031 A 
ATOM     35  C   UNL A   1      42.407  29.762  28.665  1.00  0.00     0.074 A 
ATOM     36  C   UNL A   1      41.664  27.402  28.422  1.00  0.00     0.049 A 
ATOM     37  N   UNL A   1      43.653  29.699  28.287  1.00  0.00    -0.248 NA
ATOM     38  C   UNL A   1      41.980  31.097  29.121  1.00  0.00     0.031 C 
ATOM     39  C   UNL A   1      40.722  26.285  28.473  1.00  0.00     0.029 A 
ATOM     40  N   UNL A   1      42.847  26.832  28.037  1.00  0.00    -0.354 N 
ATOM     41  C   UNL A   1      44.153  30.987  28.438  1.00  0.00     0.074 A 
ATOM     42  C   UNL A   1      43.071  31.816  28.916  1.00  0.00     0.031 C 
ATOM     43  C   UNL A   1      41.362  25.160  28.109  1.00  0.00     0.029 A 
ATOM     44  C   UNL A   1      42.740  25.492  27.755  1.00  0.00     0.049 A 
ATOM     45  H   UNL A   1      43.692  27.332  27.971  1.00  0.00     0.167 HD
ATOM     46  C   UNL A   1      45.409  31.428  28.201  1.00  0.00     0.037 A 
ATOM     47  C   UNL A   1      43.650  24.648  27.232  1.00  0.00     0.037 A 
ATOM     48  C   UNL A   1      46.466  30.576  27.730  1.00  0.00     0.049 A 
ATOM     49  C   UNL A   1      45.024  25.177  26.908  1.00  0.00     0.074 A 
ATOM     50  C   UNL A   1      47.781  30.904  27.462  1.00  0.00     0.029 A 
ATOM     51  N   UNL A   1      46.322  29.223  27.452  1.00  0.00    -0.354 N 
ATOM     52  N   UNL A   1      45.494  26.394  27.057  1.00  0.00    -0.248 NA
ATOM     53  C   UNL A   1      45.991  24.224  26.347  1.00  0.00     0.031 C 
ATOM     54  C   UNL A   1      48.418  29.763  26.968  1.00  0.00     0.029 A 
ATOM     55  C   UNL A   1      47.520  28.707  26.995  1.00  0.00     0.049 A 
ATOM     56  H   UNL A   1      45.490  28.709  27.564  1.00  0.00     0.167 HD
ATOM     57  C   UNL A   1      46.823  26.342  26.651  1.00  0.00     0.074 A 
ATOM     58  C   UNL A   1      47.079  24.976  26.241  1.00  0.00     0.031 C 
ATOM     59  C   UNL A   1      47.751  27.330  26.627  1.00  0.00     0.037 A 
BRANCH  46  60
ATOM     60  C   UNL A   1      45.692  32.889  28.411  1.00  0.00     0.058 A 
ATOM     61  C   UNL A   1      46.168  33.386  29.636  1.00  0.00     0.135 A 
ATOM     62  C   UNL A   1      45.510  33.804  27.361  1.00  0.00     0.135 A 
ATOM     63  F   UNL A   1      46.338  32.561  30.682  1.00  0.00    -0.206 F 
ATOM     64  C   UNL A   1      46.431  34.740  29.818  1.00  0.00     0.059 A 
ATOM     65  C   UNL A   1      45.797  35.157  27.512  1.00  0.00     0.059 A 
ATOM     66  F   UNL A   1      45.048  33.385  26.173  1.00  0.00    -0.206 F 
ATOM     67  C   UNL A   1      46.245  35.618  28.748  1.00  0.00     0.060 A 
BRANCH  67  68
ATOM     68  S   UNL A   1      46.602  37.369  28.998  1.00  0.00     0.124 S 
ATOM     69  O   UNL A   1      47.705  37.578  28.065  1.00  0.00    -0.237 OA
ATOM     70  O   UNL A   1      45.336  37.998  28.632  1.00  0.00    -0.237 OA
ATOM     71  O   UNL A   1      46.953  37.448  30.411  1.00  0.00    -0.744 OA
ENDBRANCH  67  68
ENDBRANCH  46  60
BRANCH  47  72
ATOM     72  C   UNL A   1      43.283  23.231  26.972  1.00  0.00     0.058 A 
ATOM     73  C   UNL A   1      43.086  22.763  25.665  1.00  0.00     0.135 A 
ATOM     74  C   UNL A   1      43.138  22.312  28.024  1.00  0.00     0.135 A 
ATOM     75  F   UNL A   1      43.209  23.603  24.627  1.00  0.00    -0.206 F 
ATOM     76  C   UNL A   1      42.743  21.439  25.410  1.00  0.00     0.059 A 
ATOM     77  C   UNL A   1      42.823  20.977  27.792  1.00  0.00     0.059 A 
ATOM     78  F   UNL A   1      43.333  22.705  29.293  1.00  0.00    -0.206 F 
ATOM     79  C   UNL A   1      42.618  20.553  26.481  1.00  0.00     0.060 A 
BRANCH  79  80
ATOM     80  S   UNL A   1      42.213  18.828  26.133  1.00  0.00     0.124 S 
ATOM     81  O   UNL A   1      42.490  18.196  27.418  1.00  0.00    -0.237 OA
ATOM     82  O   UNL A   1      40.807  18.917  25.754  1.00  0.00    -0.237 OA
ATOM     83  O   UNL A   1      43.127  18.481  25.048  1.00  0.00    -0.744 OA
ENDBRANCH  79  80
ENDBRANCH  47  72
BRANCH  59  84
ATOM     84  C   UNL A   1      49.151  26.972  26.215  1.00  0.00     0.058 A 
ATOM     85  C   UNL A   1      49.577  27.057  24.884  1.00  0.00     0.135 A 
ATOM     86  C   UNL A   1      50.108  26.665  27.198  1.00  0.00     0.135 A 
ATOM     87  F   UNL A   1      48.699  27.340  23.908  1.00  0.00    -0.206 F 
ATOM     88  C   UNL A   1      50.909  26.855  24.537  1.00  0.00     0.059 A 
ATOM     89  C   UNL A   1      51.449  26.487  26.879  1.00  0.00     0.059 A 
ATOM     90  F   UNL A   1      49.748  26.582  28.489  1.00  0.00    -0.206 F 
ATOM     91  C   UNL A   1      51.839  26.584  25.545  1.00  0.00     0.060 A 
BRANCH  91  92
ATOM     92  S   UNL A   1      53.579  26.419  25.092  1.00  0.00     0.124 S 
ATOM     93  O   UNL A   1      53.966  27.813  24.898  1.00  0.00    -0.237 OA
ATOM     94  O   UNL A   1      54.144  25.761  26.266  1.00  0.00    -0.237 OA
ATOM     95  O   UNL A   1      53.540  25.605  23.880  1.00  0.00    -0.744 OA
ENDBRANCH  91  92
ENDBRANCH  59  84
ENDBRANCH  33  34
ENDBRANCH  26  28
ENDBRANCH  25  26
ENDBRANCH  24  25
ENDBRANCH  23  24
ENDBRANCH   1  23
TORSDOF 22
ENDMDL
