MODEL 1
REMARK VINA RESULT:     -11.0      0.000      0.000
REMARK SMILES CCCc1c(C(=O)OCCOCCOC(=O)c2ccc(-c3c4nc(c(-c5c(F)cc(S(=O)(=O)[O-])cc5F)c5ccc([nH]5)c(-c5c(F)cc(S(=O)(=O)[O-])cc5F)c5nc(c(-c6c(F)cc(S(=O)(=O)[O-])cc6F)c6ccc3[nH]6)C=C5)C=C4)cc2)nnn1-c1ccccc1[N+](=O)[O-]
REMARK SMILES IDX 12 1 11 2 10 3 9 4 8 5 6 6 7 7 5 8 4 9 85 10 83 11 84 12
REMARK SMILES IDX 3 13 2 14 1 15 86 16 87 17 91 18 88 19 90 20 89 21 92 22
REMARK SMILES IDX 93 23 94 24 13 25 14 26 15 27 16 28 17 29 18 30 82 31 19 32
REMARK SMILES IDX 81 33 20 34 21 35 22 36 75 37 23 38 80 39 74 40 76 41 24 42
REMARK SMILES IDX 79 43 73 44 72 45 25 47 59 48 38 49 58 50 39 51 42 52 57 53
REMARK SMILES IDX 77 54 40 55 41 56 56 58 78 59 43 60 26 61 27 62 36 63 28 64
REMARK SMILES IDX 29 65 35 66 37 67 30 68 31 69 32 70 33 71 34 72 60 73 61 74
REMARK SMILES IDX 70 75 62 76 63 77 69 78 71 79 64 80 65 81 66 82 67 83 68 84
REMARK SMILES IDX 44 85 45 86 54 87 46 88 47 89 53 90 55 91 48 92 49 93 50 94
REMARK SMILES IDX 51 95 52 96
REMARK H PARENT 76 46 42 57
REMARK Flexibility Score: inf
ROOT
ATOM      1  C   UNL A   1      36.875  21.960  25.327  1.00  0.00     0.202 C 
ENDROOT
BRANCH   1   2
ATOM      2  O   UNL A   1      35.968  20.861  25.261  1.00  0.00    -0.374 OA
BRANCH   2   3
ATOM      3  C   UNL A   1      34.567  21.153  25.230  1.00  0.00     0.202 C 
BRANCH   3   4
ATOM      4  C   UNL A   1      33.835  20.951  26.561  1.00  0.00     0.261 C 
BRANCH   4   5
ATOM      5  O   UNL A   1      33.054  22.115  26.902  1.00  0.00    -0.458 OA
BRANCH   5   6
ATOM      6  C   UNL A   1      31.989  22.377  26.100  1.00  0.00     0.360 C 
ATOM      7  O   UNL A   1      31.321  21.505  25.555  1.00  0.00    -0.244 OA
BRANCH   6   8
ATOM      8  C   UNL A   1      31.605  23.787  26.086  1.00  0.00     0.194 A 
ATOM      9  C   UNL A   1      32.233  24.945  25.623  1.00  0.00     0.080 A 
ATOM     10  N   UNL A   1      31.208  25.887  25.723  1.00  0.00    -0.210 N 
ATOM     11  N   UNL A   1      30.424  24.145  26.700  1.00  0.00    -0.122 NA
ATOM     12  N   UNL A   1      30.276  25.451  26.595  1.00  0.00    -0.061 NA
BRANCH   9  13
ATOM     13  C   UNL A   1      33.576  25.256  25.033  1.00  0.00     0.059 C 
BRANCH  13  14
ATOM     14  C   UNL A   1      33.905  24.550  23.716  1.00  0.00     0.003 C 
ATOM     15  C   UNL A   1      32.741  24.516  22.747  1.00  0.00     0.004 C 
ENDBRANCH  13  14
ENDBRANCH   9  13
BRANCH  10  16
ATOM     16  C   UNL A   1      30.988  27.102  25.033  1.00  0.00     0.144 A 
ATOM     17  C   UNL A   1      30.241  27.057  23.845  1.00  0.00     0.036 A 
ATOM     18  C   UNL A   1      31.518  28.333  25.452  1.00  0.00     0.294 A 
ATOM     19  C   UNL A   1      29.958  28.236  23.146  1.00  0.00     0.003 A 
ATOM     20  C   UNL A   1      31.229  29.516  24.752  1.00  0.00     0.088 A 
ATOM     21  C   UNL A   1      30.435  29.462  23.608  1.00  0.00     0.007 A 
BRANCH  18  22
ATOM     22  N   UNL A   1      32.514  28.437  26.514  1.00  0.00     0.065 N 
ATOM     23  O   UNL A   1      32.119  28.281  27.677  1.00  0.00    -0.258 OA
ATOM     24  O   UNL A   1      33.681  28.688  26.188  1.00  0.00    -0.258 OA
ENDBRANCH  18  22
ENDBRANCH  10  16
ENDBRANCH   6   8
ENDBRANCH   5   6
ENDBRANCH   4   5
ENDBRANCH   3   4
ENDBRANCH   2   3
ENDBRANCH   1   2
BRANCH   1  25
ATOM     25  C   UNL A   1      38.317  21.618  25.667  1.00  0.00     0.261 C 
BRANCH  25  26
ATOM     26  O   UNL A   1      38.894  22.678  26.409  1.00  0.00    -0.460 OA
BRANCH  26  27
ATOM     27  C   UNL A   1      40.085  22.417  27.002  1.00  0.00     0.338 C 
ATOM     28  O   UNL A   1      40.428  21.416  27.583  1.00  0.00    -0.246 OA
BRANCH  27  29
ATOM     29  C   UNL A   1      40.857  23.668  26.923  1.00  0.00     0.060 A 
ATOM     30  C   UNL A   1      42.037  23.712  27.662  1.00  0.00     0.016 A 
ATOM     31  C   UNL A   1      40.219  24.826  26.457  1.00  0.00     0.016 A 
ATOM     32  C   UNL A   1      42.380  24.918  28.224  1.00  0.00     0.010 A 
ATOM     33  C   UNL A   1      40.573  26.025  26.992  1.00  0.00     0.010 A 
ATOM     34  C   UNL A   1      41.549  26.012  27.978  1.00  0.00    -0.014 A 
BRANCH  34  35
ATOM     35  C   UNL A   1      41.685  27.203  28.774  1.00  0.00     0.031 A 
ATOM     36  C   UNL A   1      42.868  27.977  28.369  1.00  0.00     0.074 A 
ATOM     37  C   UNL A   1      40.714  27.578  29.626  1.00  0.00     0.049 A 
ATOM     38  N   UNL A   1      44.027  27.972  28.939  1.00  0.00    -0.248 NA
ATOM     39  C   UNL A   1      42.871  28.549  27.010  1.00  0.00     0.031 C 
ATOM     40  C   UNL A   1      39.387  26.986  29.831  1.00  0.00     0.029 A 
ATOM     41  N   UNL A   1      40.680  28.685  30.411  1.00  0.00    -0.354 N 
ATOM     42  C   UNL A   1      44.797  28.809  28.144  1.00  0.00     0.074 A 
ATOM     43  C   UNL A   1      44.171  28.797  26.855  1.00  0.00     0.031 C 
ATOM     44  C   UNL A   1      38.603  27.870  30.489  1.00  0.00     0.029 A 
ATOM     45  C   UNL A   1      39.396  29.032  30.842  1.00  0.00     0.049 A 
ATOM     46  H   UNL A   1      41.484  29.197  30.655  1.00  0.00     0.167 HD
ATOM     47  C   UNL A   1      45.616  29.739  28.708  1.00  0.00     0.037 A 
ATOM     48  C   UNL A   1      39.064  30.267  31.305  1.00  0.00     0.037 A 
ATOM     49  C   UNL A   1      45.828  29.438  30.109  1.00  0.00     0.049 A 
ATOM     50  C   UNL A   1      40.354  30.905  31.735  1.00  0.00     0.074 A 
ATOM     51  C   UNL A   1      46.282  28.327  30.798  1.00  0.00     0.029 A 
ATOM     52  N   UNL A   1      45.145  30.198  31.035  1.00  0.00    -0.354 N 
ATOM     53  N   UNL A   1      41.092  30.436  32.713  1.00  0.00    -0.248 NA
ATOM     54  C   UNL A   1      41.079  31.681  30.734  1.00  0.00     0.031 C 
ATOM     55  C   UNL A   1      45.439  28.234  31.945  1.00  0.00     0.029 A 
ATOM     56  C   UNL A   1      44.589  29.340  31.951  1.00  0.00     0.049 A 
ATOM     57  H   UNL A   1      45.070  31.180  31.038  1.00  0.00     0.167 HD
ATOM     58  C   UNL A   1      42.400  30.489  32.238  1.00  0.00     0.074 A 
ATOM     59  C   UNL A   1      42.329  31.305  31.026  1.00  0.00     0.031 C 
ATOM     60  C   UNL A   1      43.367  29.625  32.676  1.00  0.00     0.037 A 
BRANCH  47  61
ATOM     61  C   UNL A   1      45.843  31.125  28.133  1.00  0.00     0.058 A 
ATOM     62  C   UNL A   1      44.712  31.926  27.879  1.00  0.00     0.135 A 
ATOM     63  C   UNL A   1      47.052  31.603  27.573  1.00  0.00     0.135 A 
ATOM     64  F   UNL A   1      43.513  31.599  28.389  1.00  0.00    -0.206 F 
ATOM     65  C   UNL A   1      44.753  33.032  27.032  1.00  0.00     0.059 A 
ATOM     66  C   UNL A   1      47.123  32.729  26.766  1.00  0.00     0.059 A 
ATOM     67  F   UNL A   1      48.228  30.982  27.697  1.00  0.00    -0.206 F 
ATOM     68  C   UNL A   1      45.962  33.408  26.459  1.00  0.00     0.060 A 
BRANCH  68  69
ATOM     69  S   UNL A   1      46.007  34.757  25.275  1.00  0.00     0.124 S 
ATOM     70  O   UNL A   1      45.142  34.242  24.220  1.00  0.00    -0.237 OA
ATOM     71  O   UNL A   1      45.473  35.862  26.064  1.00  0.00    -0.237 OA
ATOM     72  O   UNL A   1      47.423  34.861  24.937  1.00  0.00    -0.744 OA
ENDBRANCH  68  69
ENDBRANCH  47  61
BRANCH  48  73
ATOM     73  C   UNL A   1      37.830  31.035  30.955  1.00  0.00     0.058 A 
ATOM     74  C   UNL A   1      37.019  31.639  31.935  1.00  0.00     0.135 A 
ATOM     75  C   UNL A   1      37.546  31.400  29.622  1.00  0.00     0.135 A 
ATOM     76  F   UNL A   1      37.229  31.380  33.235  1.00  0.00    -0.206 F 
ATOM     77  C   UNL A   1      36.010  32.563  31.611  1.00  0.00     0.059 A 
ATOM     78  C   UNL A   1      36.542  32.302  29.275  1.00  0.00     0.059 A 
ATOM     79  F   UNL A   1      38.295  30.960  28.601  1.00  0.00    -0.206 F 
ATOM     80  C   UNL A   1      35.791  32.899  30.274  1.00  0.00     0.060 A 
BRANCH  80  81
ATOM     81  S   UNL A   1      34.605  34.197  29.841  1.00  0.00     0.124 S 
ATOM     82  O   UNL A   1      34.436  34.892  31.112  1.00  0.00    -0.237 OA
ATOM     83  O   UNL A   1      35.315  34.931  28.799  1.00  0.00    -0.237 OA
ATOM     84  O   UNL A   1      33.436  33.448  29.382  1.00  0.00    -0.744 OA
ENDBRANCH  80  81
ENDBRANCH  48  73
BRANCH  60  85
ATOM     85  C   UNL A   1      43.086  28.740  33.867  1.00  0.00     0.058 A 
ATOM     86  C   UNL A   1      43.104  29.172  35.206  1.00  0.00     0.135 A 
ATOM     87  C   UNL A   1      42.571  27.457  33.621  1.00  0.00     0.135 A 
ATOM     88  F   UNL A   1      43.475  30.421  35.519  1.00  0.00    -0.206 F 
ATOM     89  C   UNL A   1      42.665  28.356  36.252  1.00  0.00     0.059 A 
ATOM     90  C   UNL A   1      42.097  26.640  34.643  1.00  0.00     0.059 A 
ATOM     91  F   UNL A   1      42.460  27.010  32.360  1.00  0.00    -0.206 F 
ATOM     92  C   UNL A   1      42.159  27.090  35.959  1.00  0.00     0.060 A 
BRANCH  92  93
ATOM     93  S   UNL A   1      41.526  26.057  37.299  1.00  0.00     0.124 S 
ATOM     94  O   UNL A   1      42.608  26.126  38.275  1.00  0.00    -0.237 OA
ATOM     95  O   UNL A   1      40.291  26.740  37.670  1.00  0.00    -0.237 OA
ATOM     96  O   UNL A   1      41.340  24.752  36.667  1.00  0.00    -0.744 OA
ENDBRANCH  92  93
ENDBRANCH  60  85
ENDBRANCH  34  35
ENDBRANCH  27  29
ENDBRANCH  26  27
ENDBRANCH  25  26
ENDBRANCH   1  25
TORSDOF 21
ENDMDL
MODEL 2
REMARK VINA RESULT:     -10.8      1.619      2.375
REMARK SMILES CCCc1c(C(=O)OCCOCCOC(=O)c2ccc(-c3c4nc(c(-c5c(F)cc(S(=O)(=O)[O-])cc5F)c5ccc([nH]5)c(-c5c(F)cc(S(=O)(=O)[O-])cc5F)c5nc(c(-c6c(F)cc(S(=O)(=O)[O-])cc6F)c6ccc3[nH]6)C=C5)C=C4)cc2)nnn1-c1ccccc1[N+](=O)[O-]
REMARK SMILES IDX 12 1 11 2 10 3 9 4 8 5 6 6 7 7 5 8 4 9 85 10 83 11 84 12
REMARK SMILES IDX 3 13 2 14 1 15 86 16 87 17 91 18 88 19 90 20 89 21 92 22
REMARK SMILES IDX 93 23 94 24 13 25 14 26 15 27 16 28 17 29 18 30 82 31 19 32
REMARK SMILES IDX 81 33 20 34 21 35 22 36 75 37 23 38 80 39 74 40 76 41 24 42
REMARK SMILES IDX 79 43 73 44 72 45 25 47 59 48 38 49 58 50 39 51 42 52 57 53
REMARK SMILES IDX 77 54 40 55 41 56 56 58 78 59 43 60 26 61 27 62 36 63 28 64
REMARK SMILES IDX 29 65 35 66 37 67 30 68 31 69 32 70 33 71 34 72 60 73 61 74
REMARK SMILES IDX 70 75 62 76 63 77 69 78 71 79 64 80 65 81 66 82 67 83 68 84
REMARK SMILES IDX 44 85 45 86 54 87 46 88 47 89 53 90 55 91 48 92 49 93 50 94
REMARK SMILES IDX 51 95 52 96
REMARK H PARENT 76 46 42 57
REMARK Flexibility Score: inf
ROOT
ATOM      1  C   UNL A   1      37.222  22.869  25.775  1.00  0.00     0.202 C 
ENDROOT
BRANCH   1   2
ATOM      2  O   UNL A   1      36.141  21.957  25.959  1.00  0.00    -0.374 OA
BRANCH   2   3
ATOM      3  C   UNL A   1      35.638  21.276  24.806  1.00  0.00     0.202 C 
BRANCH   3   4
ATOM      4  C   UNL A   1      34.198  21.631  24.422  1.00  0.00     0.261 C 
BRANCH   4   5
ATOM      5  O   UNL A   1      34.167  22.753  23.515  1.00  0.00    -0.458 OA
BRANCH   5   6
ATOM      6  C   UNL A   1      33.111  22.803  22.661  1.00  0.00     0.360 C 
ATOM      7  O   UNL A   1      32.557  21.807  22.210  1.00  0.00    -0.244 OA
BRANCH   6   8
ATOM      8  C   UNL A   1      32.587  24.153  22.464  1.00  0.00     0.194 A 
ATOM      9  C   UNL A   1      31.492  24.841  22.992  1.00  0.00     0.080 A 
ATOM     10  N   UNL A   1      31.730  26.143  22.548  1.00  0.00    -0.210 N 
ATOM     11  N   UNL A   1      33.201  24.959  21.529  1.00  0.00    -0.122 NA
ATOM     12  N   UNL A   1      32.568  26.115  21.492  1.00  0.00    -0.061 NA
BRANCH   9  13
ATOM     13  C   UNL A   1      30.354  24.480  23.898  1.00  0.00     0.059 C 
BRANCH  13  14
ATOM     14  C   UNL A   1      30.684  24.416  25.391  1.00  0.00     0.003 C 
ATOM     15  C   UNL A   1      30.920  23.006  25.892  1.00  0.00     0.004 C 
ENDBRANCH  13  14
ENDBRANCH   9  13
BRANCH  10  16
ATOM     16  C   UNL A   1      31.310  27.393  23.060  1.00  0.00     0.144 A 
ATOM     17  C   UNL A   1      30.196  28.005  22.464  1.00  0.00     0.036 A 
ATOM     18  C   UNL A   1      31.979  28.066  24.095  1.00  0.00     0.294 A 
ATOM     19  C   UNL A   1      29.712  29.221  22.959  1.00  0.00     0.003 A 
ATOM     20  C   UNL A   1      31.489  29.284  24.594  1.00  0.00     0.088 A 
ATOM     21  C   UNL A   1      30.346  29.849  24.030  1.00  0.00     0.007 A 
BRANCH  18  22
ATOM     22  N   UNL A   1      33.284  27.641  24.592  1.00  0.00     0.065 N 
ATOM     23  O   UNL A   1      34.282  28.092  24.015  1.00  0.00    -0.258 OA
ATOM     24  O   UNL A   1      33.309  26.850  25.542  1.00  0.00    -0.258 OA
ENDBRANCH  18  22
ENDBRANCH  10  16
ENDBRANCH   6   8
ENDBRANCH   5   6
ENDBRANCH   4   5
ENDBRANCH   3   4
ENDBRANCH   2   3
ENDBRANCH   1   2
BRANCH   1  25
ATOM     25  C   UNL A   1      38.619  22.295  25.949  1.00  0.00     0.261 C 
BRANCH  25  26
ATOM     26  O   UNL A   1      39.436  23.230  26.631  1.00  0.00    -0.460 OA
BRANCH  26  27
ATOM     27  C   UNL A   1      40.775  23.062  26.507  1.00  0.00     0.338 C 
ATOM     28  O   UNL A   1      41.402  22.030  26.503  1.00  0.00    -0.246 OA
BRANCH  27  29
ATOM     29  C   UNL A   1      41.355  24.414  26.515  1.00  0.00     0.060 A 
ATOM     30  C   UNL A   1      42.495  24.593  27.295  1.00  0.00     0.016 A 
ATOM     31  C   UNL A   1      40.563  25.490  26.084  1.00  0.00     0.016 A 
ATOM     32  C   UNL A   1      42.639  25.805  27.926  1.00  0.00     0.010 A 
ATOM     33  C   UNL A   1      40.721  26.697  26.688  1.00  0.00     0.010 A 
ATOM     34  C   UNL A   1      41.662  26.776  27.705  1.00  0.00    -0.014 A 
BRANCH  34  35
ATOM     35  C   UNL A   1      41.598  27.930  28.562  1.00  0.00     0.031 A 
ATOM     36  C   UNL A   1      42.749  28.817  28.341  1.00  0.00     0.074 A 
ATOM     37  C   UNL A   1      40.502  28.180  29.302  1.00  0.00     0.049 A 
ATOM     38  N   UNL A   1      43.828  28.876  29.049  1.00  0.00    -0.248 NA
ATOM     39  C   UNL A   1      42.865  29.459  27.019  1.00  0.00     0.031 C 
ATOM     40  C   UNL A   1      39.217  27.473  29.316  1.00  0.00     0.029 A 
ATOM     41  N   UNL A   1      40.279  29.238  30.124  1.00  0.00    -0.354 N 
ATOM     42  C   UNL A   1      44.613  29.812  28.392  1.00  0.00     0.074 A 
ATOM     43  C   UNL A   1      44.149  29.819  27.036  1.00  0.00     0.031 C 
ATOM     44  C   UNL A   1      38.286  28.254  29.909  1.00  0.00     0.029 A 
ATOM     45  C   UNL A   1      38.927  29.457  30.407  1.00  0.00     0.049 A 
ATOM     46  H   UNL A   1      41.001  29.799  30.488  1.00  0.00     0.167 HD
ATOM     47  C   UNL A   1      45.275  30.774  29.093  1.00  0.00     0.037 A 
ATOM     48  C   UNL A   1      38.437  30.635  30.877  1.00  0.00     0.037 A 
ATOM     49  C   UNL A   1      45.341  30.417  30.495  1.00  0.00     0.049 A 
ATOM     50  C   UNL A   1      39.606  31.350  31.491  1.00  0.00     0.074 A 
ATOM     51  C   UNL A   1      45.804  29.312  31.187  1.00  0.00     0.029 A 
ATOM     52  N   UNL A   1      44.489  31.070  31.361  1.00  0.00    -0.354 N 
ATOM     53  N   UNL A   1      40.259  30.891  32.532  1.00  0.00    -0.248 NA
ATOM     54  C   UNL A   1      40.376  32.234  30.622  1.00  0.00     0.031 C 
ATOM     55  C   UNL A   1      44.841  29.090  32.215  1.00  0.00     0.029 A 
ATOM     56  C   UNL A   1      43.903  30.123  32.163  1.00  0.00     0.049 A 
ATOM     57  H   UNL A   1      44.330  32.041  31.397  1.00  0.00     0.167 HD
ATOM     58  C   UNL A   1      41.605  31.075  32.225  1.00  0.00     0.074 A 
ATOM     59  C   UNL A   1      41.610  31.945  31.050  1.00  0.00     0.031 C 
ATOM     60  C   UNL A   1      42.583  30.269  32.743  1.00  0.00     0.037 A 
BRANCH  47  61
ATOM     61  C   UNL A   1      45.448  32.203  28.611  1.00  0.00     0.058 A 
ATOM     62  C   UNL A   1      46.748  32.746  28.617  1.00  0.00     0.135 A 
ATOM     63  C   UNL A   1      44.408  33.142  28.407  1.00  0.00     0.135 A 
ATOM     64  F   UNL A   1      47.822  31.953  28.762  1.00  0.00    -0.206 F 
ATOM     65  C   UNL A   1      46.986  34.118  28.559  1.00  0.00     0.059 A 
ATOM     66  C   UNL A   1      44.627  34.507  28.300  1.00  0.00     0.059 A 
ATOM     67  F   UNL A   1      43.112  32.823  28.376  1.00  0.00    -0.206 F 
ATOM     68  C   UNL A   1      45.913  34.992  28.427  1.00  0.00     0.060 A 
BRANCH  68  69
ATOM     69  S   UNL A   1      46.195  36.764  28.470  1.00  0.00     0.124 S 
ATOM     70  O   UNL A   1      44.879  37.274  28.103  1.00  0.00    -0.237 OA
ATOM     71  O   UNL A   1      46.601  36.966  29.857  1.00  0.00    -0.237 OA
ATOM     72  O   UNL A   1      47.249  36.961  27.479  1.00  0.00    -0.744 OA
ENDBRANCH  68  69
ENDBRANCH  47  61
BRANCH  48  73
ATOM     73  C   UNL A   1      37.192  31.318  30.411  1.00  0.00     0.058 A 
ATOM     74  C   UNL A   1      36.259  31.873  31.307  1.00  0.00     0.135 A 
ATOM     75  C   UNL A   1      37.005  31.656  29.053  1.00  0.00     0.135 A 
ATOM     76  F   UNL A   1      36.368  31.635  32.623  1.00  0.00    -0.206 F 
ATOM     77  C   UNL A   1      35.226  32.727  30.884  1.00  0.00     0.059 A 
ATOM     78  C   UNL A   1      35.981  32.489  28.608  1.00  0.00     0.059 A 
ATOM     79  F   UNL A   1      37.870  31.260  28.108  1.00  0.00    -0.206 F 
ATOM     80  C   UNL A   1      35.105  33.041  29.529  1.00  0.00     0.060 A 
BRANCH  80  81
ATOM     81  S   UNL A   1      33.882  34.256  28.977  1.00  0.00     0.124 S 
ATOM     82  O   UNL A   1      34.726  35.309  28.424  1.00  0.00    -0.237 OA
ATOM     83  O   UNL A   1      33.098  33.491  28.014  1.00  0.00    -0.237 OA
ATOM     84  O   UNL A   1      33.176  34.609  30.208  1.00  0.00    -0.744 OA
ENDBRANCH  80  81
ENDBRANCH  48  73
BRANCH  60  85
ATOM     85  C   UNL A   1      42.239  29.302  33.851  1.00  0.00     0.058 A 
ATOM     86  C   UNL A   1      41.593  28.067  33.661  1.00  0.00     0.135 A 
ATOM     87  C   UNL A   1      42.778  29.548  35.124  1.00  0.00     0.135 A 
ATOM     88  F   UNL A   1      41.147  27.704  32.451  1.00  0.00    -0.206 F 
ATOM     89  C   UNL A   1      41.458  27.138  34.696  1.00  0.00     0.059 A 
ATOM     90  C   UNL A   1      42.685  28.624  36.160  1.00  0.00     0.059 A 
ATOM     91  F   UNL A   1      43.467  30.677  35.353  1.00  0.00    -0.206 F 
ATOM     92  C   UNL A   1      42.013  27.424  35.944  1.00  0.00     0.060 A 
BRANCH  92  93
ATOM     93  S   UNL A   1      41.902  26.198  37.266  1.00  0.00     0.124 S 
ATOM     94  O   UNL A   1      42.138  24.951  36.546  1.00  0.00    -0.237 OA
ATOM     95  O   UNL A   1      42.964  26.616  38.176  1.00  0.00    -0.237 OA
ATOM     96  O   UNL A   1      40.546  26.373  37.782  1.00  0.00    -0.744 OA
ENDBRANCH  92  93
ENDBRANCH  60  85
ENDBRANCH  34  35
ENDBRANCH  27  29
ENDBRANCH  26  27
ENDBRANCH  25  26
ENDBRANCH   1  25
TORSDOF 21
ENDMDL
MODEL 3
REMARK VINA RESULT:     -10.6      2.467      9.011
REMARK SMILES CCCc1c(C(=O)OCCOCCOC(=O)c2ccc(-c3c4nc(c(-c5c(F)cc(S(=O)(=O)[O-])cc5F)c5ccc([nH]5)c(-c5c(F)cc(S(=O)(=O)[O-])cc5F)c5nc(c(-c6c(F)cc(S(=O)(=O)[O-])cc6F)c6ccc3[nH]6)C=C5)C=C4)cc2)nnn1-c1ccccc1[N+](=O)[O-]
REMARK SMILES IDX 12 1 11 2 10 3 9 4 8 5 6 6 7 7 5 8 4 9 85 10 83 11 84 12
REMARK SMILES IDX 3 13 2 14 1 15 86 16 87 17 91 18 88 19 90 20 89 21 92 22
REMARK SMILES IDX 93 23 94 24 13 25 14 26 15 27 16 28 17 29 18 30 82 31 19 32
REMARK SMILES IDX 81 33 20 34 21 35 22 36 75 37 23 38 80 39 74 40 76 41 24 42
REMARK SMILES IDX 79 43 73 44 72 45 25 47 59 48 38 49 58 50 39 51 42 52 57 53
REMARK SMILES IDX 77 54 40 55 41 56 56 58 78 59 43 60 26 61 27 62 36 63 28 64
REMARK SMILES IDX 29 65 35 66 37 67 30 68 31 69 32 70 33 71 34 72 60 73 61 74
REMARK SMILES IDX 70 75 62 76 63 77 69 78 71 79 64 80 65 81 66 82 67 83 68 84
REMARK SMILES IDX 44 85 45 86 54 87 46 88 47 89 53 90 55 91 48 92 49 93 50 94
REMARK SMILES IDX 51 95 52 96
REMARK H PARENT 76 46 42 57
REMARK Flexibility Score: inf
ROOT
ATOM      1  C   UNL A   1      33.446  30.486  27.514  1.00  0.00     0.202 C 
ENDROOT
BRANCH   1   2
ATOM      2  O   UNL A   1      32.631  30.338  26.353  1.00  0.00    -0.374 OA
BRANCH   2   3
ATOM      3  C   UNL A   1      31.959  29.089  26.164  1.00  0.00     0.202 C 
BRANCH   3   4
ATOM      4  C   UNL A   1      31.518  28.803  24.724  1.00  0.00     0.261 C 
BRANCH   4   5
ATOM      5  O   UNL A   1      31.734  27.417  24.384  1.00  0.00    -0.458 OA
BRANCH   5   6
ATOM      6  C   UNL A   1      32.524  27.182  23.304  1.00  0.00     0.360 C 
ATOM      7  O   UNL A   1      32.726  28.007  22.420  1.00  0.00    -0.244 OA
BRANCH   6   8
ATOM      8  C   UNL A   1      33.252  25.918  23.383  1.00  0.00     0.194 A 
ATOM      9  C   UNL A   1      33.567  25.057  24.437  1.00  0.00     0.080 A 
ATOM     10  N   UNL A   1      34.069  23.945  23.759  1.00  0.00    -0.210 N 
ATOM     11  N   UNL A   1      33.844  25.436  22.234  1.00  0.00    -0.122 NA
ATOM     12  N   UNL A   1      34.461  24.307  22.521  1.00  0.00    -0.061 NA
BRANCH   9  13
ATOM     13  C   UNL A   1      33.378  25.094  25.924  1.00  0.00     0.059 C 
BRANCH  13  14
ATOM     14  C   UNL A   1      32.026  24.595  26.437  1.00  0.00     0.003 C 
ATOM     15  C   UNL A   1      32.100  23.231  27.091  1.00  0.00     0.004 C 
ENDBRANCH  13  14
ENDBRANCH   9  13
BRANCH  10  16
ATOM     16  C   UNL A   1      34.145  22.582  24.133  1.00  0.00     0.144 A 
ATOM     17  C   UNL A   1      35.325  22.135  24.749  1.00  0.00     0.036 A 
ATOM     18  C   UNL A   1      33.123  21.654  23.876  1.00  0.00     0.294 A 
ATOM     19  C   UNL A   1      35.436  20.808  25.178  1.00  0.00     0.003 A 
ATOM     20  C   UNL A   1      33.234  20.324  24.311  1.00  0.00     0.088 A 
ATOM     21  C   UNL A   1      34.388  19.911  24.975  1.00  0.00     0.007 A 
BRANCH  18  22
ATOM     22  N   UNL A   1      31.984  21.960  23.015  1.00  0.00     0.065 N 
ATOM     23  O   UNL A   1      31.900  21.340  21.947  1.00  0.00    -0.258 OA
ATOM     24  O   UNL A   1      31.189  22.827  23.398  1.00  0.00    -0.258 OA
ENDBRANCH  18  22
ENDBRANCH  10  16
ENDBRANCH   6   8
ENDBRANCH   5   6
ENDBRANCH   4   5
ENDBRANCH   3   4
ENDBRANCH   2   3
ENDBRANCH   1   2
BRANCH   1  25
ATOM     25  C   UNL A   1      33.663  31.909  28.003  1.00  0.00     0.261 C 
BRANCH  25  26
ATOM     26  O   UNL A   1      34.839  31.967  28.790  1.00  0.00    -0.460 OA
BRANCH  26  27
ATOM     27  C   UNL A   1      34.794  32.772  29.880  1.00  0.00     0.338 C 
ATOM     28  O   UNL A   1      34.123  33.760  30.053  1.00  0.00    -0.246 OA
BRANCH  27  29
ATOM     29  C   UNL A   1      35.844  32.282  30.787  1.00  0.00     0.060 A 
ATOM     30  C   UNL A   1      36.943  33.119  30.969  1.00  0.00     0.016 A 
ATOM     31  C   UNL A   1      35.882  30.915  31.100  1.00  0.00     0.016 A 
ATOM     32  C   UNL A   1      38.168  32.519  31.131  1.00  0.00     0.010 A 
ATOM     33  C   UNL A   1      37.091  30.323  31.287  1.00  0.00     0.010 A 
ATOM     34  C   UNL A   1      38.215  31.124  31.146  1.00  0.00    -0.014 A 
BRANCH  34  35
ATOM     35  C   UNL A   1      39.479  30.453  31.007  1.00  0.00     0.031 A 
ATOM     36  C   UNL A   1      40.117  30.249  32.316  1.00  0.00     0.074 A 
ATOM     37  C   UNL A   1      39.865  29.947  29.821  1.00  0.00     0.049 A 
ATOM     38  N   UNL A   1      41.041  30.978  32.848  1.00  0.00    -0.248 NA
ATOM     39  C   UNL A   1      39.432  29.358  33.271  1.00  0.00     0.031 C 
ATOM     40  C   UNL A   1      39.115  29.871  28.563  1.00  0.00     0.029 A 
ATOM     41  N   UNL A   1      41.003  29.260  29.542  1.00  0.00    -0.354 N 
ATOM     42  C   UNL A   1      41.245  30.407  34.096  1.00  0.00     0.074 A 
ATOM     43  C   UNL A   1      40.026  29.721  34.408  1.00  0.00     0.031 C 
ATOM     44  C   UNL A   1      39.710  28.974  27.744  1.00  0.00     0.029 A 
ATOM     45  C   UNL A   1      40.929  28.500  28.371  1.00  0.00     0.049 A 
ATOM     46  H   UNL A   1      41.806  29.295  30.110  1.00  0.00     0.167 HD
ATOM     47  C   UNL A   1      42.507  30.201  34.565  1.00  0.00     0.037 A 
ATOM     48  C   UNL A   1      41.768  27.467  28.090  1.00  0.00     0.037 A 
ATOM     49  C   UNL A   1      43.459  30.982  33.803  1.00  0.00     0.049 A 
ATOM     50  C   UNL A   1      42.987  27.685  28.939  1.00  0.00     0.074 A 
ATOM     51  C   UNL A   1      43.576  32.327  33.496  1.00  0.00     0.029 A 
ATOM     52  N   UNL A   1      44.229  30.319  32.872  1.00  0.00    -0.354 N 
ATOM     53  N   UNL A   1      43.778  28.723  28.804  1.00  0.00    -0.248 NA
ATOM     54  C   UNL A   1      42.990  27.078  30.267  1.00  0.00     0.031 C 
ATOM     55  C   UNL A   1      43.986  32.360  32.131  1.00  0.00     0.029 A 
ATOM     56  C   UNL A   1      44.196  31.046  31.708  1.00  0.00     0.049 A 
ATOM     57  H   UNL A   1      44.715  29.474  33.016  1.00  0.00     0.167 HD
ATOM     58  C   UNL A   1      44.040  29.151  30.102  1.00  0.00     0.074 A 
ATOM     59  C   UNL A   1      43.558  28.070  30.962  1.00  0.00     0.031 C 
ATOM     60  C   UNL A   1      44.332  30.457  30.391  1.00  0.00     0.037 A 
BRANCH  47  61
ATOM     61  C   UNL A   1      42.920  28.987  35.378  1.00  0.00     0.058 A 
ATOM     62  C   UNL A   1      43.670  29.204  36.551  1.00  0.00     0.135 A 
ATOM     63  C   UNL A   1      42.863  27.641  34.944  1.00  0.00     0.135 A 
ATOM     64  F   UNL A   1      43.767  30.433  37.084  1.00  0.00    -0.206 F 
ATOM     65  C   UNL A   1      44.409  28.194  37.164  1.00  0.00     0.059 A 
ATOM     66  C   UNL A   1      43.553  26.612  35.568  1.00  0.00     0.059 A 
ATOM     67  F   UNL A   1      42.209  27.236  33.853  1.00  0.00    -0.206 F 
ATOM     68  C   UNL A   1      44.363  26.905  36.646  1.00  0.00     0.060 A 
BRANCH  68  69
ATOM     69  S   UNL A   1      45.401  25.622  37.354  1.00  0.00     0.124 S 
ATOM     70  O   UNL A   1      44.476  24.495  37.398  1.00  0.00    -0.237 OA
ATOM     71  O   UNL A   1      46.476  25.536  36.372  1.00  0.00    -0.237 OA
ATOM     72  O   UNL A   1      45.784  26.177  38.649  1.00  0.00    -0.744 OA
ENDBRANCH  68  69
ENDBRANCH  47  61
BRANCH  48  73
ATOM     73  C   UNL A   1      41.372  26.142  27.523  1.00  0.00     0.058 A 
ATOM     74  C   UNL A   1      42.182  25.445  26.607  1.00  0.00     0.135 A 
ATOM     75  C   UNL A   1      40.289  25.410  28.056  1.00  0.00     0.135 A 
ATOM     76  F   UNL A   1      43.254  26.043  26.066  1.00  0.00    -0.206 F 
ATOM     77  C   UNL A   1      41.946  24.102  26.265  1.00  0.00     0.059 A 
ATOM     78  C   UNL A   1      40.027  24.083  27.721  1.00  0.00     0.059 A 
ATOM     79  F   UNL A   1      39.490  25.930  28.998  1.00  0.00    -0.206 F 
ATOM     80  C   UNL A   1      40.870  23.425  26.841  1.00  0.00     0.060 A 
BRANCH  80  81
ATOM     81  S   UNL A   1      40.633  21.656  26.537  1.00  0.00     0.124 S 
ATOM     82  O   UNL A   1      40.681  21.105  27.886  1.00  0.00    -0.237 OA
ATOM     83  O   UNL A   1      39.331  21.626  25.879  1.00  0.00    -0.237 OA
ATOM     84  O   UNL A   1      41.766  21.305  25.681  1.00  0.00    -0.744 OA
ENDBRANCH  80  81
ENDBRANCH  48  73
BRANCH  60  85
ATOM     85  C   UNL A   1      44.606  31.423  29.262  1.00  0.00     0.058 A 
ATOM     86  C   UNL A   1      45.807  31.477  28.532  1.00  0.00     0.135 A 
ATOM     87  C   UNL A   1      43.528  32.174  28.768  1.00  0.00     0.135 A 
ATOM     88  F   UNL A   1      46.851  30.707  28.868  1.00  0.00    -0.206 F 
ATOM     89  C   UNL A   1      45.940  32.268  27.388  1.00  0.00     0.059 A 
ATOM     90  C   UNL A   1      43.627  32.942  27.613  1.00  0.00     0.059 A 
ATOM     91  F   UNL A   1      42.333  32.113  29.377  1.00  0.00    -0.206 F 
ATOM     92  C   UNL A   1      44.841  32.996  26.932  1.00  0.00     0.060 A 
BRANCH  92  93
ATOM     93  S   UNL A   1      44.986  33.965  25.415  1.00  0.00     0.124 S 
ATOM     94  O   UNL A   1      46.421  34.220  25.352  1.00  0.00    -0.237 OA
ATOM     95  O   UNL A   1      44.458  33.053  24.405  1.00  0.00    -0.237 OA
ATOM     96  O   UNL A   1      44.156  35.138  25.678  1.00  0.00    -0.744 OA
ENDBRANCH  92  93
ENDBRANCH  60  85
ENDBRANCH  34  35
ENDBRANCH  27  29
ENDBRANCH  26  27
ENDBRANCH  25  26
ENDBRANCH   1  25
TORSDOF 21
ENDMDL
