MODEL 1
REMARK VINA RESULT:     -10.6      0.000      0.000
REMARK SMILES CCC(CC)COc1cc2c(cc1Cl)C=C(C(=O)OCCOCCOC(=O)c1ccc(-c3c4nc(c(-c5c(F)cc(S(=O)(=O)[O-])cc5F)c5ccc([nH]5)c(-c5c(F)cc(S(=O)(=O)[O-])cc5F)c5nc(c(-c6c(F)cc(S(=O)(=O)[O-])cc6F)c6ccc3[nH]6)C=C5)C=C4)cc1)[C@@H](C(F)(F)F)O2
REMARK SMILES IDX 21 1 20 2 19 3 17 4 18 5 16 6 8 7 9 8 13 9 10 10 12 11 14 12
REMARK SMILES IDX 11 13 99 14 15 15 94 16 7 17 6 18 3 19 2 20 1 21 4 22 5 23
REMARK SMILES IDX 95 24 96 25 97 26 98 27 22 28 23 29 24 30 25 31 26 32 27 33
REMARK SMILES IDX 28 34 29 35 93 36 30 37 92 38 31 39 32 40 33 41 86 42 34 43
REMARK SMILES IDX 91 44 85 45 87 46 35 47 90 48 84 49 83 50 36 52 70 53 49 54
REMARK SMILES IDX 69 55 50 56 53 57 68 58 88 59 51 60 52 61 67 63 89 64 54 65
REMARK SMILES IDX 37 66 38 67 47 68 39 69 40 70 46 71 48 72 41 73 42 74 43 75
REMARK SMILES IDX 44 76 45 77 71 78 72 79 81 80 73 81 74 82 80 83 82 84 75 85
REMARK SMILES IDX 76 86 77 87 78 88 79 89 55 90 56 91 65 92 57 93 58 94 64 95
REMARK SMILES IDX 66 96 59 97 60 98 61 99 62 100 63 101
REMARK H PARENT 87 51 53 62
REMARK Flexibility Score: inf
ROOT
ATOM      1  C   UNL A   1      31.143  31.217  26.374  1.00  0.00     0.202 C 
ENDROOT
BRANCH   1   2
ATOM      2  C   UNL A   1      31.423  30.059  25.411  1.00  0.00     0.261 C 
BRANCH   2   3
ATOM      3  O   UNL A   1      32.532  29.241  25.818  1.00  0.00    -0.460 OA
BRANCH   3   4
ATOM      4  C   UNL A   1      32.933  28.373  24.862  1.00  0.00     0.338 C 
ATOM      5  O   UNL A   1      33.362  28.660  23.754  1.00  0.00    -0.246 OA
BRANCH   4   6
ATOM      6  C   UNL A   1      32.924  26.986  25.356  1.00  0.00     0.087 C 
ATOM      7  C   UNL A   1      34.464  22.279  25.808  1.00  0.00     0.141 A 
ATOM      8  C   UNL A   1      33.239  22.895  26.113  1.00  0.00     0.095 A 
ATOM      9  C   UNL A   1      35.503  23.040  25.258  1.00  0.00     0.083 A 
ATOM     10  C   UNL A   1      33.110  24.279  25.956  1.00  0.00     0.131 A 
ATOM     11  C   UNL A   1      35.426  24.424  25.271  1.00  0.00     0.036 A 
ATOM     12  Cl  UNL A   1      36.887  22.337  24.506  1.00  0.00    -0.080 Cl
ATOM     13  C   UNL A   1      34.234  25.042  25.636  1.00  0.00     0.019 A 
ATOM     14  O   UNL A   1      31.874  24.861  26.113  1.00  0.00    -0.475 OA
ATOM     15  C   UNL A   1      34.146  26.480  25.546  1.00  0.00     0.027 C 
ATOM     16  C   UNL A   1      31.675  26.153  25.431  1.00  0.00     0.316 C 
BRANCH   7  17
ATOM     17  O   UNL A   1      34.607  20.925  25.961  1.00  0.00    -0.492 OA
BRANCH  17  18
ATOM     18  C   UNL A   1      34.559  20.194  24.709  1.00  0.00     0.233 C 
BRANCH  18  19
ATOM     19  C   UNL A   1      33.644  18.939  24.771  1.00  0.00     0.026 C 
BRANCH  19  20
ATOM     20  C   UNL A   1      32.401  19.102  23.866  1.00  0.00     0.003 C 
ATOM     21  C   UNL A   1      32.339  20.455  23.169  1.00  0.00     0.004 C 
ENDBRANCH  19  20
BRANCH  19  22
ATOM     22  C   UNL A   1      34.402  17.626  24.474  1.00  0.00     0.003 C 
ATOM     23  C   UNL A   1      34.075  16.958  23.148  1.00  0.00     0.004 C 
ENDBRANCH  19  22
ENDBRANCH  18  19
ENDBRANCH  17  18
ENDBRANCH   7  17
BRANCH  16  24
ATOM     24  C   UNL A   1      31.060  25.958  24.036  1.00  0.00     0.430 C 
ATOM     25  F   UNL A   1      30.274  27.000  23.686  1.00  0.00    -0.167 F 
ATOM     26  F   UNL A   1      32.025  25.853  23.091  1.00  0.00    -0.167 F 
ATOM     27  F   UNL A   1      30.308  24.835  23.967  1.00  0.00    -0.167 F 
ENDBRANCH  16  24
ENDBRANCH   4   6
ENDBRANCH   3   4
ENDBRANCH   2   3
ENDBRANCH   1   2
BRANCH   1  28
ATOM     28  O   UNL A   1      32.245  31.921  26.939  1.00  0.00    -0.374 OA
BRANCH  28  29
ATOM     29  C   UNL A   1      32.148  33.328  27.134  1.00  0.00     0.202 C 
BRANCH  29  30
ATOM     30  C   UNL A   1      32.983  33.999  28.235  1.00  0.00     0.261 C 
BRANCH  30  31
ATOM     31  O   UNL A   1      32.517  35.305  28.605  1.00  0.00    -0.460 OA
BRANCH  31  32
ATOM     32  C   UNL A   1      33.004  35.758  29.790  1.00  0.00     0.338 C 
ATOM     33  O   UNL A   1      32.588  36.696  30.445  1.00  0.00    -0.246 OA
BRANCH  32  34
ATOM     34  C   UNL A   1      34.027  34.822  30.294  1.00  0.00     0.060 A 
ATOM     35  C   UNL A   1      35.259  34.692  29.654  1.00  0.00     0.016 A 
ATOM     36  C   UNL A   1      33.757  34.117  31.474  1.00  0.00     0.016 A 
ATOM     37  C   UNL A   1      36.237  33.874  30.222  1.00  0.00     0.010 A 
ATOM     38  C   UNL A   1      34.737  33.303  32.042  1.00  0.00     0.010 A 
ATOM     39  C   UNL A   1      35.994  33.194  31.432  1.00  0.00    -0.014 A 
BRANCH  39  40
ATOM     40  C   UNL A   1      37.108  32.489  32.113  1.00  0.00     0.031 A 
ATOM     41  C   UNL A   1      37.792  31.313  31.486  1.00  0.00     0.074 A 
ATOM     42  C   UNL A   1      37.503  32.941  33.320  1.00  0.00     0.049 A 
ATOM     43  N   UNL A   1      38.865  30.682  31.888  1.00  0.00    -0.248 NA
ATOM     44  C   UNL A   1      37.198  30.769  30.255  1.00  0.00     0.031 C 
ATOM     45  C   UNL A   1      36.869  34.040  34.050  1.00  0.00     0.029 A 
ATOM     46  N   UNL A   1      38.537  32.553  34.133  1.00  0.00    -0.354 N 
ATOM     47  C   UNL A   1      39.095  29.686  30.947  1.00  0.00     0.074 A 
ATOM     48  C   UNL A   1      38.014  29.756  29.987  1.00  0.00     0.031 C 
ATOM     49  C   UNL A   1      37.558  34.274  35.177  1.00  0.00     0.029 A 
ATOM     50  C   UNL A   1      38.665  33.326  35.264  1.00  0.00     0.049 A 
ATOM     51  H   UNL A   1      39.130  31.795  33.928  1.00  0.00     0.167 HD
ATOM     52  C   UNL A   1      40.130  28.814  30.882  1.00  0.00     0.037 A 
ATOM     53  C   UNL A   1      39.580  33.287  36.252  1.00  0.00     0.037 A 
ATOM     54  C   UNL A   1      41.191  28.744  31.855  1.00  0.00     0.049 A 
ATOM     55  C   UNL A   1      40.698  32.284  36.175  1.00  0.00     0.074 A 
ATOM     56  C   UNL A   1      42.306  27.924  31.853  1.00  0.00     0.029 A 
ATOM     57  N   UNL A   1      41.264  29.512  33.009  1.00  0.00    -0.354 N 
ATOM     58  N   UNL A   1      40.957  31.413  35.228  1.00  0.00    -0.248 NA
ATOM     59  C   UNL A   1      41.648  32.255  37.295  1.00  0.00     0.031 C 
ATOM     60  C   UNL A   1      43.023  28.156  33.031  1.00  0.00     0.029 A 
ATOM     61  C   UNL A   1      42.385  29.159  33.743  1.00  0.00     0.049 A 
ATOM     62  H   UNL A   1      40.615  30.204  33.269  1.00  0.00     0.167 HD
ATOM     63  C   UNL A   1      42.108  30.746  35.630  1.00  0.00     0.074 A 
ATOM     64  C   UNL A   1      42.505  31.324  36.897  1.00  0.00     0.031 C 
ATOM     65  C   UNL A   1      42.771  29.742  35.005  1.00  0.00     0.037 A 
BRANCH  52  66
ATOM     66  C   UNL A   1      40.184  27.872  29.710  1.00  0.00     0.058 A 
ATOM     67  C   UNL A   1      41.034  28.117  28.619  1.00  0.00     0.135 A 
ATOM     68  C   UNL A   1      39.445  26.679  29.707  1.00  0.00     0.135 A 
ATOM     69  F   UNL A   1      41.758  29.247  28.566  1.00  0.00    -0.206 F 
ATOM     70  C   UNL A   1      41.134  27.223  27.559  1.00  0.00     0.059 A 
ATOM     71  C   UNL A   1      39.549  25.756  28.669  1.00  0.00     0.059 A 
ATOM     72  F   UNL A   1      38.619  26.393  30.726  1.00  0.00    -0.206 F 
ATOM     73  C   UNL A   1      40.390  26.041  27.595  1.00  0.00     0.060 A 
BRANCH  73  74
ATOM     74  S   UNL A   1      40.547  24.888  26.215  1.00  0.00     0.124 S 
ATOM     75  O   UNL A   1      39.151  24.549  25.959  1.00  0.00    -0.237 OA
ATOM     76  O   UNL A   1      41.195  25.710  25.198  1.00  0.00    -0.237 OA
ATOM     77  O   UNL A   1      41.363  23.809  26.763  1.00  0.00    -0.744 OA
ENDBRANCH  73  74
ENDBRANCH  52  66
BRANCH  53  78
ATOM     78  C   UNL A   1      39.496  34.261  37.373  1.00  0.00     0.058 A 
ATOM     79  C   UNL A   1      39.027  33.868  38.634  1.00  0.00     0.135 A 
ATOM     80  C   UNL A   1      39.915  35.592  37.215  1.00  0.00     0.135 A 
ATOM     81  F   UNL A   1      38.612  32.608  38.834  1.00  0.00    -0.206 F 
ATOM     82  C   UNL A   1      38.969  34.761  39.700  1.00  0.00     0.059 A 
ATOM     83  C   UNL A   1      39.891  36.495  38.272  1.00  0.00     0.059 A 
ATOM     84  F   UNL A   1      40.386  36.013  36.032  1.00  0.00    -0.206 F 
ATOM     85  C   UNL A   1      39.410  36.071  39.510  1.00  0.00     0.060 A 
BRANCH  85  86
ATOM     86  S   UNL A   1      39.380  37.204  40.916  1.00  0.00     0.124 S 
ATOM     87  O   UNL A   1      40.802  37.346  41.210  1.00  0.00    -0.237 OA
ATOM     88  O   UNL A   1      38.726  38.378  40.346  1.00  0.00    -0.237 OA
ATOM     89  O   UNL A   1      38.599  36.482  41.915  1.00  0.00    -0.744 OA
ENDBRANCH  85  86
ENDBRANCH  53  78
BRANCH  65  90
ATOM     90  C   UNL A   1      44.000  29.190  35.674  1.00  0.00     0.058 A 
ATOM     91  C   UNL A   1      43.930  28.078  36.528  1.00  0.00     0.135 A 
ATOM     92  C   UNL A   1      45.271  29.709  35.377  1.00  0.00     0.135 A 
ATOM     93  F   UNL A   1      42.739  27.549  36.853  1.00  0.00    -0.206 F 
ATOM     94  C   UNL A   1      45.076  27.498  37.060  1.00  0.00     0.059 A 
ATOM     95  C   UNL A   1      46.432  29.129  35.876  1.00  0.00     0.059 A 
ATOM     96  F   UNL A   1      45.394  30.769  34.561  1.00  0.00    -0.206 F 
ATOM     97  C   UNL A   1      46.324  28.022  36.718  1.00  0.00     0.060 A 
BRANCH  97  98
ATOM     98  S   UNL A   1      47.804  27.206  37.355  1.00  0.00     0.124 S 
ATOM     99  O   UNL A   1      47.657  27.405  38.792  1.00  0.00    -0.237 OA
ATOM    100  O   UNL A   1      47.627  25.835  36.883  1.00  0.00    -0.237 OA
ATOM    101  O   UNL A   1      48.898  27.943  36.728  1.00  0.00    -0.744 OA
ENDBRANCH  97  98
ENDBRANCH  65  90
ENDBRANCH  39  40
ENDBRANCH  32  34
ENDBRANCH  31  32
ENDBRANCH  30  31
ENDBRANCH  29  30
ENDBRANCH  28  29
ENDBRANCH   1  28
TORSDOF 23
ENDMDL
MODEL 2
REMARK VINA RESULT:      -9.7      7.454     14.601
REMARK SMILES CCC(CC)COc1cc2c(cc1Cl)C=C(C(=O)OCCOCCOC(=O)c1ccc(-c3c4nc(c(-c5c(F)cc(S(=O)(=O)[O-])cc5F)c5ccc([nH]5)c(-c5c(F)cc(S(=O)(=O)[O-])cc5F)c5nc(c(-c6c(F)cc(S(=O)(=O)[O-])cc6F)c6ccc3[nH]6)C=C5)C=C4)cc1)[C@@H](C(F)(F)F)O2
REMARK SMILES IDX 21 1 20 2 19 3 17 4 18 5 16 6 8 7 9 8 13 9 10 10 12 11 14 12
REMARK SMILES IDX 11 13 99 14 15 15 94 16 7 17 6 18 3 19 2 20 1 21 4 22 5 23
REMARK SMILES IDX 95 24 96 25 97 26 98 27 22 28 23 29 24 30 25 31 26 32 27 33
REMARK SMILES IDX 28 34 29 35 93 36 30 37 92 38 31 39 32 40 33 41 86 42 34 43
REMARK SMILES IDX 91 44 85 45 87 46 35 47 90 48 84 49 83 50 36 52 70 53 49 54
REMARK SMILES IDX 69 55 50 56 53 57 68 58 88 59 51 60 52 61 67 63 89 64 54 65
REMARK SMILES IDX 37 66 38 67 47 68 39 69 40 70 46 71 48 72 41 73 42 74 43 75
REMARK SMILES IDX 44 76 45 77 71 78 72 79 81 80 73 81 74 82 80 83 82 84 75 85
REMARK SMILES IDX 76 86 77 87 78 88 79 89 55 90 56 91 65 92 57 93 58 94 64 95
REMARK SMILES IDX 66 96 59 97 60 98 61 99 62 100 63 101
REMARK H PARENT 87 51 53 62
REMARK Flexibility Score: inf
ROOT
ATOM      1  C   UNL A   1      48.336  20.661  38.687  1.00  0.00     0.202 C 
ENDROOT
BRANCH   1   2
ATOM      2  C   UNL A   1      47.776  19.287  39.068  1.00  0.00     0.261 C 
BRANCH   2   3
ATOM      3  O   UNL A   1      47.428  19.185  40.459  1.00  0.00    -0.460 OA
BRANCH   3   4
ATOM      4  C   UNL A   1      46.145  19.528  40.713  1.00  0.00     0.338 C 
ATOM      5  O   UNL A   1      45.573  20.539  40.331  1.00  0.00    -0.246 OA
BRANCH   4   6
ATOM      6  C   UNL A   1      45.430  18.453  41.421  1.00  0.00     0.087 C 
ATOM      7  C   UNL A   1      44.877  14.546  44.447  1.00  0.00     0.141 A 
ATOM      8  C   UNL A   1      44.062  15.058  43.424  1.00  0.00     0.095 A 
ATOM      9  C   UNL A   1      46.097  15.168  44.738  1.00  0.00     0.083 A 
ATOM     10  C   UNL A   1      44.436  16.242  42.779  1.00  0.00     0.131 A 
ATOM     11  C   UNL A   1      46.371  16.425  44.220  1.00  0.00     0.036 A 
ATOM     12  Cl  UNL A   1      47.329  14.424  45.688  1.00  0.00    -0.080 Cl
ATOM     13  C   UNL A   1      45.530  16.967  43.253  1.00  0.00     0.019 A 
ATOM     14  O   UNL A   1      43.720  16.665  41.684  1.00  0.00    -0.475 OA
ATOM     15  C   UNL A   1      45.888  18.232  42.656  1.00  0.00     0.027 C 
ATOM     16  C   UNL A   1      44.434  17.552  40.746  1.00  0.00     0.316 C 
BRANCH   7  17
ATOM     17  O   UNL A   1      44.522  13.389  45.091  1.00  0.00    -0.492 OA
BRANCH  17  18
ATOM     18  C   UNL A   1      43.093  13.147  45.101  1.00  0.00     0.233 C 
BRANCH  18  19
ATOM     19  C   UNL A   1      42.711  11.725  44.607  1.00  0.00     0.026 C 
BRANCH  19  20
ATOM     20  C   UNL A   1      41.620  11.781  43.513  1.00  0.00     0.003 C 
ATOM     21  C   UNL A   1      42.138  12.291  42.174  1.00  0.00     0.004 C 
ENDBRANCH  19  20
BRANCH  19  22
ATOM     22  C   UNL A   1      43.934  10.895  44.156  1.00  0.00     0.003 C 
ATOM     23  C   UNL A   1      44.682  10.164  45.260  1.00  0.00     0.004 C 
ENDBRANCH  19  22
ENDBRANCH  18  19
ENDBRANCH  17  18
ENDBRANCH   7  17
BRANCH  16  24
ATOM     24  C   UNL A   1      45.096  16.750  39.614  1.00  0.00     0.430 C 
ATOM     25  F   UNL A   1      44.353  15.677  39.262  1.00  0.00    -0.167 F 
ATOM     26  F   UNL A   1      45.246  17.512  38.504  1.00  0.00    -0.167 F 
ATOM     27  F   UNL A   1      46.324  16.302  39.963  1.00  0.00    -0.167 F 
ENDBRANCH  16  24
ENDBRANCH   4   6
ENDBRANCH   3   4
ENDBRANCH   2   3
ENDBRANCH   1   2
BRANCH   1  28
ATOM     28  O   UNL A   1      47.439  21.657  38.204  1.00  0.00    -0.374 OA
BRANCH  28  29
ATOM     29  C   UNL A   1      47.893  22.590  37.227  1.00  0.00     0.202 C 
BRANCH  29  30
ATOM     30  C   UNL A   1      46.872  23.460  36.480  1.00  0.00     0.261 C 
BRANCH  30  31
ATOM     31  O   UNL A   1      47.189  24.860  36.480  1.00  0.00    -0.460 OA
BRANCH  31  32
ATOM     32  C   UNL A   1      46.659  25.554  37.521  1.00  0.00     0.338 C 
ATOM     33  O   UNL A   1      46.992  25.492  38.691  1.00  0.00    -0.246 OA
BRANCH  32  34
ATOM     34  C   UNL A   1      45.716  26.567  37.010  1.00  0.00     0.060 A 
ATOM     35  C   UNL A   1      46.162  27.646  36.248  1.00  0.00     0.016 A 
ATOM     36  C   UNL A   1      44.348  26.380  37.251  1.00  0.00     0.016 A 
ATOM     37  C   UNL A   1      45.226  28.522  35.697  1.00  0.00     0.010 A 
ATOM     38  C   UNL A   1      43.414  27.255  36.696  1.00  0.00     0.010 A 
ATOM     39  C   UNL A   1      43.846  28.320  35.894  1.00  0.00    -0.014 A 
BRANCH  39  40
ATOM     40  C   UNL A   1      42.869  29.147  35.143  1.00  0.00     0.031 A 
ATOM     41  C   UNL A   1      42.395  28.755  33.778  1.00  0.00     0.074 A 
ATOM     42  C   UNL A   1      42.404  30.268  35.729  1.00  0.00     0.049 A 
ATOM     43  N   UNL A   1      41.446  29.294  33.056  1.00  0.00    -0.248 NA
ATOM     44  C   UNL A   1      43.073  27.621  33.131  1.00  0.00     0.031 C 
ATOM     45  C   UNL A   1      42.841  30.776  37.031  1.00  0.00     0.029 A 
ATOM     46  N   UNL A   1      41.451  31.168  35.323  1.00  0.00    -0.354 N 
ATOM     47  C   UNL A   1      41.388  28.549  31.886  1.00  0.00     0.074 A 
ATOM     48  C   UNL A   1      42.441  27.559  31.965  1.00  0.00     0.031 C 
ATOM     49  C   UNL A   1      42.124  31.866  37.341  1.00  0.00     0.029 A 
ATOM     50  C   UNL A   1      41.194  32.151  36.251  1.00  0.00     0.049 A 
ATOM     51  H   UNL A   1      40.996  31.116  34.452  1.00  0.00     0.167 HD
ATOM     52  C   UNL A   1      40.517  28.668  30.855  1.00  0.00     0.037 A 
ATOM     53  C   UNL A   1      40.300  33.157  36.235  1.00  0.00     0.037 A 
ATOM     54  C   UNL A   1      39.484  29.671  30.781  1.00  0.00     0.049 A 
ATOM     55  C   UNL A   1      39.369  33.291  35.061  1.00  0.00     0.074 A 
ATOM     56  C   UNL A   1      38.525  29.846  29.799  1.00  0.00     0.029 A 
ATOM     57  N   UNL A   1      39.282  30.675  31.717  1.00  0.00    -0.354 N 
ATOM     58  N   UNL A   1      39.262  32.518  34.005  1.00  0.00    -0.248 NA
ATOM     59  C   UNL A   1      38.439  34.428  35.072  1.00  0.00     0.031 C 
ATOM     60  C   UNL A   1      37.780  30.987  30.111  1.00  0.00     0.029 A 
ATOM     61  C   UNL A   1      38.238  31.493  31.317  1.00  0.00     0.049 A 
ATOM     62  H   UNL A   1      39.804  30.791  32.544  1.00  0.00     0.167 HD
ATOM     63  C   UNL A   1      38.242  33.066  33.236  1.00  0.00     0.074 A 
ATOM     64  C   UNL A   1      37.752  34.224  33.955  1.00  0.00     0.031 C 
ATOM     65  C   UNL A   1      37.759  32.646  32.041  1.00  0.00     0.037 A 
BRANCH  52  66
ATOM     66  C   UNL A   1      40.623  27.680  29.725  1.00  0.00     0.058 A 
ATOM     67  C   UNL A   1      39.696  26.635  29.583  1.00  0.00     0.135 A 
ATOM     68  C   UNL A   1      41.608  27.820  28.733  1.00  0.00     0.135 A 
ATOM     69  F   UNL A   1      38.739  26.451  30.507  1.00  0.00    -0.206 F 
ATOM     70  C   UNL A   1      39.752  25.754  28.510  1.00  0.00     0.059 A 
ATOM     71  C   UNL A   1      41.667  26.964  27.636  1.00  0.00     0.059 A 
ATOM     72  F   UNL A   1      42.518  28.802  28.819  1.00  0.00    -0.206 F 
ATOM     73  C   UNL A   1      40.739  25.929  27.538  1.00  0.00     0.060 A 
BRANCH  73  74
ATOM     74  S   UNL A   1      40.784  24.781  26.146  1.00  0.00     0.124 S 
ATOM     75  O   UNL A   1      39.362  24.575  25.892  1.00  0.00    -0.237 OA
ATOM     76  O   UNL A   1      41.504  25.548  25.135  1.00  0.00    -0.237 OA
ATOM     77  O   UNL A   1      41.498  23.625  26.680  1.00  0.00    -0.744 OA
ENDBRANCH  73  74
ENDBRANCH  52  66
BRANCH  53  78
ATOM     78  C   UNL A   1      40.218  34.089  37.392  1.00  0.00     0.058 A 
ATOM     79  C   UNL A   1      40.852  35.339  37.356  1.00  0.00     0.135 A 
ATOM     80  C   UNL A   1      39.475  33.763  38.538  1.00  0.00     0.135 A 
ATOM     81  F   UNL A   1      41.576  35.694  36.285  1.00  0.00    -0.206 F 
ATOM     82  C   UNL A   1      40.760  36.232  38.419  1.00  0.00     0.059 A 
ATOM     83  C   UNL A   1      39.347  34.650  39.602  1.00  0.00     0.059 A 
ATOM     84  F   UNL A   1      38.836  32.586  38.614  1.00  0.00    -0.206 F 
ATOM     85  C   UNL A   1      39.999  35.880  39.535  1.00  0.00     0.060 A 
BRANCH  85  86
ATOM     86  S   UNL A   1      39.844  37.071  40.884  1.00  0.00     0.124 S 
ATOM     87  O   UNL A   1      39.901  36.200  42.053  1.00  0.00    -0.237 OA
ATOM     88  O   UNL A   1      41.008  37.927  40.668  1.00  0.00    -0.237 OA
ATOM     89  O   UNL A   1      38.554  37.703  40.630  1.00  0.00    -0.744 OA
ENDBRANCH  85  86
ENDBRANCH  53  78
BRANCH  65  90
ATOM     90  C   UNL A   1      36.643  33.439  31.417  1.00  0.00     0.058 A 
ATOM     91  C   UNL A   1      36.879  34.316  30.348  1.00  0.00     0.135 A 
ATOM     92  C   UNL A   1      35.312  33.239  31.821  1.00  0.00     0.135 A 
ATOM     93  F   UNL A   1      38.133  34.551  29.930  1.00  0.00    -0.206 F 
ATOM     94  C   UNL A   1      35.834  34.966  29.699  1.00  0.00     0.059 A 
ATOM     95  C   UNL A   1      34.250  33.857  31.169  1.00  0.00     0.059 A 
ATOM     96  F   UNL A   1      35.031  32.405  32.836  1.00  0.00    -0.206 F 
ATOM     97  C   UNL A   1      34.522  34.720  30.107  1.00  0.00     0.060 A 
BRANCH  97  98
ATOM     98  S   UNL A   1      33.177  35.511  29.199  1.00  0.00     0.124 S 
ATOM     99  O   UNL A   1      32.390  34.359  28.773  1.00  0.00    -0.237 OA
ATOM    100  O   UNL A   1      32.566  36.352  30.224  1.00  0.00    -0.237 OA
ATOM    101  O   UNL A   1      33.862  36.232  28.130  1.00  0.00    -0.744 OA
ENDBRANCH  97  98
ENDBRANCH  65  90
ENDBRANCH  39  40
ENDBRANCH  32  34
ENDBRANCH  31  32
ENDBRANCH  30  31
ENDBRANCH  29  30
ENDBRANCH  28  29
ENDBRANCH   1  28
TORSDOF 23
ENDMDL
MODEL 3
REMARK VINA RESULT:      -9.7      6.189     10.945
REMARK SMILES CCC(CC)COc1cc2c(cc1Cl)C=C(C(=O)OCCOCCOC(=O)c1ccc(-c3c4nc(c(-c5c(F)cc(S(=O)(=O)[O-])cc5F)c5ccc([nH]5)c(-c5c(F)cc(S(=O)(=O)[O-])cc5F)c5nc(c(-c6c(F)cc(S(=O)(=O)[O-])cc6F)c6ccc3[nH]6)C=C5)C=C4)cc1)[C@@H](C(F)(F)F)O2
REMARK SMILES IDX 21 1 20 2 19 3 17 4 18 5 16 6 8 7 9 8 13 9 10 10 12 11 14 12
REMARK SMILES IDX 11 13 99 14 15 15 94 16 7 17 6 18 3 19 2 20 1 21 4 22 5 23
REMARK SMILES IDX 95 24 96 25 97 26 98 27 22 28 23 29 24 30 25 31 26 32 27 33
REMARK SMILES IDX 28 34 29 35 93 36 30 37 92 38 31 39 32 40 33 41 86 42 34 43
REMARK SMILES IDX 91 44 85 45 87 46 35 47 90 48 84 49 83 50 36 52 70 53 49 54
REMARK SMILES IDX 69 55 50 56 53 57 68 58 88 59 51 60 52 61 67 63 89 64 54 65
REMARK SMILES IDX 37 66 38 67 47 68 39 69 40 70 46 71 48 72 41 73 42 74 43 75
REMARK SMILES IDX 44 76 45 77 71 78 72 79 81 80 73 81 74 82 80 83 82 84 75 85
REMARK SMILES IDX 76 86 77 87 78 88 79 89 55 90 56 91 65 92 57 93 58 94 64 95
REMARK SMILES IDX 66 96 59 97 60 98 61 99 62 100 63 101
REMARK H PARENT 87 51 53 62
REMARK Flexibility Score: inf
ROOT
ATOM      1  C   UNL A   1      33.246  31.232  27.527  1.00  0.00     0.202 C 
ENDROOT
BRANCH   1   2
ATOM      2  C   UNL A   1      32.399  30.892  26.296  1.00  0.00     0.261 C 
BRANCH   2   3
ATOM      3  O   UNL A   1      31.864  29.559  26.329  1.00  0.00    -0.460 OA
BRANCH   3   4
ATOM      4  C   UNL A   1      32.386  28.753  25.377  1.00  0.00     0.338 C 
ATOM      5  O   UNL A   1      32.967  29.108  24.362  1.00  0.00    -0.246 OA
BRANCH   4   6
ATOM      6  C   UNL A   1      32.295  27.335  25.763  1.00  0.00     0.087 C 
ATOM      7  C   UNL A   1      33.523  22.516  25.804  1.00  0.00     0.141 A 
ATOM      8  C   UNL A   1      32.352  23.185  26.194  1.00  0.00     0.095 A 
ATOM      9  C   UNL A   1      34.597  23.247  25.281  1.00  0.00     0.083 A 
ATOM     10  C   UNL A   1      32.313  24.583  26.147  1.00  0.00     0.131 A 
ATOM     11  C   UNL A   1      34.614  24.628  25.402  1.00  0.00     0.036 A 
ATOM     12  Cl  UNL A   1      35.909  22.516  24.434  1.00  0.00    -0.080 Cl
ATOM     13  C   UNL A   1      33.477  25.292  25.851  1.00  0.00     0.019 A 
ATOM     14  O   UNL A   1      31.124  25.230  26.387  1.00  0.00    -0.475 OA
ATOM     15  C   UNL A   1      33.485  26.736  25.875  1.00  0.00     0.027 C 
ATOM     16  C   UNL A   1      30.995  26.583  25.813  1.00  0.00     0.316 C 
BRANCH   7  17
ATOM     17  O   UNL A   1      33.578  21.148  25.847  1.00  0.00    -0.492 OA
BRANCH  17  18
ATOM     18  C   UNL A   1      32.369  20.505  25.369  1.00  0.00     0.233 C 
BRANCH  18  19
ATOM     19  C   UNL A   1      32.631  19.490  24.222  1.00  0.00     0.026 C 
BRANCH  19  20
ATOM     20  C   UNL A   1      32.542  20.169  22.836  1.00  0.00     0.003 C 
ATOM     21  C   UNL A   1      31.834  21.518  22.873  1.00  0.00     0.004 C 
ENDBRANCH  19  20
BRANCH  19  22
ATOM     22  C   UNL A   1      33.955  18.713  24.396  1.00  0.00     0.003 C 
ATOM     23  C   UNL A   1      33.820  17.269  24.855  1.00  0.00     0.004 C 
ENDBRANCH  19  22
ENDBRANCH  18  19
ENDBRANCH  17  18
ENDBRANCH   7  17
BRANCH  16  24
ATOM     24  C   UNL A   1      30.331  26.538  24.427  1.00  0.00     0.430 C 
ATOM     25  F   UNL A   1      29.642  27.671  24.167  1.00  0.00    -0.167 F 
ATOM     26  F   UNL A   1      31.260  26.405  23.450  1.00  0.00    -0.167 F 
ATOM     27  F   UNL A   1      29.473  25.499  24.310  1.00  0.00    -0.167 F 
ENDBRANCH  16  24
ENDBRANCH   4   6
ENDBRANCH   3   4
ENDBRANCH   2   3
ENDBRANCH   1   2
BRANCH   1  28
ATOM     28  O   UNL A   1      34.648  30.978  27.485  1.00  0.00    -0.374 OA
BRANCH  28  29
ATOM     29  C   UNL A   1      35.114  29.633  27.524  1.00  0.00     0.202 C 
BRANCH  29  30
ATOM     30  C   UNL A   1      36.303  29.270  28.425  1.00  0.00     0.261 C 
BRANCH  30  31
ATOM     31  O   UNL A   1      36.356  30.018  29.649  1.00  0.00    -0.460 OA
BRANCH  31  32
ATOM     32  C   UNL A   1      37.159  29.475  30.602  1.00  0.00     0.338 C 
ATOM     33  O   UNL A   1      36.841  29.146  31.730  1.00  0.00    -0.246 OA
BRANCH  32  34
ATOM     34  C   UNL A   1      38.474  29.154  30.016  1.00  0.00     0.060 A 
ATOM     35  C   UNL A   1      38.915  29.781  28.851  1.00  0.00     0.016 A 
ATOM     36  C   UNL A   1      39.302  28.252  30.697  1.00  0.00     0.016 A 
ATOM     37  C   UNL A   1      40.207  29.526  28.388  1.00  0.00     0.010 A 
ATOM     38  C   UNL A   1      40.594  28.001  30.235  1.00  0.00     0.010 A 
ATOM     39  C   UNL A   1      41.064  28.655  29.089  1.00  0.00    -0.014 A 
BRANCH  39  40
ATOM     40  C   UNL A   1      42.489  28.550  28.688  1.00  0.00     0.031 A 
ATOM     41  C   UNL A   1      43.469  29.645  28.977  1.00  0.00     0.074 A 
ATOM     42  C   UNL A   1      42.890  27.428  28.059  1.00  0.00     0.049 A 
ATOM     43  N   UNL A   1      44.767  29.644  28.817  1.00  0.00    -0.248 NA
ATOM     44  C   UNL A   1      42.928  30.907  29.506  1.00  0.00     0.031 C 
ATOM     45  C   UNL A   1      42.009  26.323  27.675  1.00  0.00     0.029 A 
ATOM     46  N   UNL A   1      44.134  27.018  27.652  1.00  0.00    -0.354 N 
ATOM     47  C   UNL A   1      45.206  30.887  29.253  1.00  0.00     0.074 A 
ATOM     48  C   UNL A   1      44.028  31.642  29.625  1.00  0.00     0.031 C 
ATOM     49  C   UNL A   1      42.746  25.340  27.136  1.00  0.00     0.029 A 
ATOM     50  C   UNL A   1      44.146  25.753  27.112  1.00  0.00     0.049 A 
ATOM     51  H   UNL A   1      44.941  27.575  27.738  1.00  0.00     0.167 HD
ATOM     52  C   UNL A   1      46.478  31.342  29.356  1.00  0.00     0.037 A 
ATOM     53  C   UNL A   1      45.171  25.002  26.664  1.00  0.00     0.037 A 
ATOM     54  C   UNL A   1      47.641  30.585  28.964  1.00  0.00     0.049 A 
ATOM     55  C   UNL A   1      46.571  25.545  26.754  1.00  0.00     0.074 A 
ATOM     56  C   UNL A   1      48.974  30.943  29.070  1.00  0.00     0.029 A 
ATOM     57  N   UNL A   1      47.612  29.326  28.381  1.00  0.00    -0.354 N 
ATOM     58  N   UNL A   1      46.979  26.686  27.259  1.00  0.00    -0.248 NA
ATOM     59  C   UNL A   1      47.649  24.705  26.215  1.00  0.00     0.031 C 
ATOM     60  C   UNL A   1      49.747  29.926  28.500  1.00  0.00     0.029 A 
ATOM     61  C   UNL A   1      48.900  28.909  28.089  1.00  0.00     0.049 A 
ATOM     62  H   UNL A   1      46.796  28.806  28.200  1.00  0.00     0.167 HD
ATOM     63  C   UNL A   1      48.361  26.692  27.115  1.00  0.00     0.074 A 
ATOM     64  C   UNL A   1      48.722  25.435  26.491  1.00  0.00     0.031 C 
ATOM     65  C   UNL A   1      49.249  27.655  27.466  1.00  0.00     0.037 A 
BRANCH  52  66
ATOM     66  C   UNL A   1      46.690  32.716  29.931  1.00  0.00     0.058 A 
ATOM     67  C   UNL A   1      46.936  32.900  31.302  1.00  0.00     0.135 A 
ATOM     68  C   UNL A   1      46.729  33.848  29.103  1.00  0.00     0.135 A 
ATOM     69  F   UNL A   1      46.903  31.852  32.141  1.00  0.00    -0.206 F 
ATOM     70  C   UNL A   1      47.192  34.159  31.832  1.00  0.00     0.059 A 
ATOM     71  C   UNL A   1      47.009  35.115  29.608  1.00  0.00     0.059 A 
ATOM     72  F   UNL A   1      46.503  33.730  27.784  1.00  0.00    -0.206 F 
ATOM     73  C   UNL A   1      47.230  35.262  30.976  1.00  0.00     0.060 A 
BRANCH  73  74
ATOM     74  S   UNL A   1      47.578  36.885  31.685  1.00  0.00     0.124 S 
ATOM     75  O   UNL A   1      46.819  36.827  32.930  1.00  0.00    -0.237 OA
ATOM     76  O   UNL A   1      49.030  36.855  31.827  1.00  0.00    -0.237 OA
ATOM     77  O   UNL A   1      47.066  37.813  30.682  1.00  0.00    -0.744 OA
ENDBRANCH  73  74
ENDBRANCH  52  66
BRANCH  53  78
ATOM     78  C   UNL A   1      44.907  23.639  26.131  1.00  0.00     0.058 A 
ATOM     79  C   UNL A   1      44.977  23.378  24.755  1.00  0.00     0.135 A 
ATOM     80  C   UNL A   1      44.616  22.565  26.987  1.00  0.00     0.135 A 
ATOM     81  F   UNL A   1      45.248  24.372  23.895  1.00  0.00    -0.206 F 
ATOM     82  C   UNL A   1      44.761  22.101  24.245  1.00  0.00     0.059 A 
ATOM     83  C   UNL A   1      44.423  21.276  26.503  1.00  0.00     0.059 A 
ATOM     84  F   UNL A   1      44.554  22.761  28.313  1.00  0.00    -0.206 F 
ATOM     85  C   UNL A   1      44.491  21.055  25.128  1.00  0.00     0.060 A 
BRANCH  85  86
ATOM     86  S   UNL A   1      44.266  19.394  24.456  1.00  0.00     0.124 S 
ATOM     87  O   UNL A   1      45.344  18.663  25.114  1.00  0.00    -0.237 OA
ATOM     88  O   UNL A   1      42.913  19.069  24.898  1.00  0.00    -0.237 OA
ATOM     89  O   UNL A   1      44.420  19.588  23.019  1.00  0.00    -0.744 OA
ENDBRANCH  85  86
ENDBRANCH  53  78
BRANCH  65  90
ATOM     90  C   UNL A   1      50.705  27.403  27.186  1.00  0.00     0.058 A 
ATOM     91  C   UNL A   1      51.523  26.739  28.113  1.00  0.00     0.135 A 
ATOM     92  C   UNL A   1      51.260  27.733  25.939  1.00  0.00     0.135 A 
ATOM     93  F   UNL A   1      51.045  26.412  29.324  1.00  0.00    -0.206 F 
ATOM     94  C   UNL A   1      52.839  26.409  27.812  1.00  0.00     0.059 A 
ATOM     95  C   UNL A   1      52.566  27.388  25.606  1.00  0.00     0.059 A 
ATOM     96  F   UNL A   1      50.518  28.364  25.014  1.00  0.00    -0.206 F 
ATOM     97  C   UNL A   1      53.349  26.725  26.551  1.00  0.00     0.060 A 
BRANCH  97  98
ATOM     98  S   UNL A   1      55.034  26.215  26.152  1.00  0.00     0.124 S 
ATOM     99  O   UNL A   1      55.692  27.501  25.946  1.00  0.00    -0.237 OA
ATOM    100  O   UNL A   1      55.429  25.486  27.353  1.00  0.00    -0.237 OA
ATOM    101  O   UNL A   1      54.870  25.396  24.954  1.00  0.00    -0.744 OA
ENDBRANCH  97  98
ENDBRANCH  65  90
ENDBRANCH  39  40
ENDBRANCH  32  34
ENDBRANCH  31  32
ENDBRANCH  30  31
ENDBRANCH  29  30
ENDBRANCH  28  29
ENDBRANCH   1  28
TORSDOF 23
ENDMDL
