MODEL 1
REMARK VINA RESULT:     -11.0      0.000      0.000
REMARK SMILES CCn1ncc(CNc2ccccc2C(=O)OCCOCCOC(=O)c2ccc(-c3c4nc(c(-c5c(F)cc(S(=O)(=O)[O-])cc5F)c5ccc([nH]5)c(-c5c(F)cc(S(=O)(=O)[O-])cc5F)c5nc(c(-c6c(F)cc(S(=O)(=O)[O-])cc6F)c6ccc3[nH]6)C=C5)C=C4)cc2)c1C
REMARK SMILES IDX 19 1 18 2 17 3 15 4 16 5 14 6 9 7 10 8 11 9 13 10 12 11 8 12
REMARK SMILES IDX 7 14 6 15 3 16 4 17 92 18 5 19 93 20 2 21 1 22 20 23 21 24
REMARK SMILES IDX 22 25 23 26 24 27 25 28 26 29 27 30 91 31 28 32 90 33 29 34
REMARK SMILES IDX 30 35 31 36 84 37 32 38 89 39 83 40 85 41 33 42 88 43 82 44
REMARK SMILES IDX 81 45 34 47 68 48 47 49 67 50 48 51 51 52 66 53 86 54 49 55
REMARK SMILES IDX 50 56 65 58 87 59 52 60 35 61 36 62 45 63 37 64 38 65 44 66
REMARK SMILES IDX 46 67 39 68 40 69 41 70 42 71 43 72 69 73 70 74 79 75 71 76
REMARK SMILES IDX 72 77 78 78 80 79 73 80 74 81 75 82 76 83 77 84 53 85 54 86
REMARK SMILES IDX 63 87 55 88 56 89 62 90 64 91 57 92 58 93 59 94 60 95 61 96
REMARK H PARENT 8 13 85 46 51 57
REMARK Flexibility Score: inf
ROOT
ATOM      1  C   UNL A   1      33.673  27.750  26.326  1.00  0.00     0.202 C 
ENDROOT
BRANCH   1   2
ATOM      2  C   UNL A   1      33.838  28.406  24.960  1.00  0.00     0.261 C 
BRANCH   2   3
ATOM      3  O   UNL A   1      33.979  27.406  23.937  1.00  0.00    -0.460 OA
BRANCH   3   4
ATOM      4  C   UNL A   1      33.398  27.718  22.755  1.00  0.00     0.340 C 
ATOM      5  O   UNL A   1      33.970  27.872  21.687  1.00  0.00    -0.246 OA
BRANCH   4   6
ATOM      6  C   UNL A   1      31.925  27.703  22.868  1.00  0.00     0.083 A 
ATOM      7  C   UNL A   1      31.139  26.628  23.321  1.00  0.00     0.049 A 
ATOM      8  C   UNL A   1      29.755  26.892  23.461  1.00  0.00     0.026 A 
ATOM      9  C   UNL A   1      29.178  28.131  23.157  1.00  0.00     0.002 A 
ATOM     10  C   UNL A   1      31.337  28.947  22.536  1.00  0.00     0.018 A 
ATOM     11  C   UNL A   1      29.970  29.159  22.676  1.00  0.00     0.001 A 
BRANCH   7  12
ATOM     12  N   UNL A   1      31.536  25.361  23.700  1.00  0.00    -0.380 N 
ATOM     13  H   UNL A   1      31.603  24.713  22.962  1.00  0.00     0.160 HD
BRANCH  12  14
ATOM     14  C   UNL A   1      31.870  24.829  25.008  1.00  0.00     0.152 C 
BRANCH  14  15
ATOM     15  C   UNL A   1      31.944  23.343  25.062  1.00  0.00     0.012 A 
ATOM     16  N   UNL A   1      32.540  21.252  24.764  1.00  0.00    -0.270 N 
ATOM     17  N   UNL A   1      31.408  21.172  25.489  1.00  0.00    -0.181 NA
ATOM     18  C   UNL A   1      32.895  22.539  24.456  1.00  0.00     0.040 A 
ATOM     19  C   UNL A   1      31.053  22.443  25.677  1.00  0.00     0.141 A 
ATOM     20  C   UNL A   1      34.079  22.929  23.646  1.00  0.00     0.067 C 
BRANCH  16  21
ATOM     21  C   UNL A   1      33.215  20.028  24.376  1.00  0.00     0.141 C 
ATOM     22  C   UNL A   1      32.906  18.874  25.314  1.00  0.00     0.029 C 
ENDBRANCH  16  21
ENDBRANCH  14  15
ENDBRANCH  12  14
ENDBRANCH   7  12
ENDBRANCH   4   6
ENDBRANCH   3   4
ENDBRANCH   2   3
ENDBRANCH   1   2
BRANCH   1  23
ATOM     23  O   UNL A   1      33.174  28.585  27.374  1.00  0.00    -0.374 OA
BRANCH  23  24
ATOM     24  C   UNL A   1      32.551  29.820  27.035  1.00  0.00     0.202 C 
BRANCH  24  25
ATOM     25  C   UNL A   1      33.337  31.105  27.272  1.00  0.00     0.261 C 
BRANCH  25  26
ATOM     26  O   UNL A   1      34.746  30.926  27.244  1.00  0.00    -0.460 OA
BRANCH  26  27
ATOM     27  C   UNL A   1      35.422  31.901  27.895  1.00  0.00     0.338 C 
ATOM     28  O   UNL A   1      35.421  33.091  27.637  1.00  0.00    -0.246 OA
BRANCH  27  29
ATOM     29  C   UNL A   1      36.332  31.289  28.871  1.00  0.00     0.060 A 
ATOM     30  C   UNL A   1      37.385  32.100  29.300  1.00  0.00     0.016 A 
ATOM     31  C   UNL A   1      36.346  29.895  29.036  1.00  0.00     0.016 A 
ATOM     32  C   UNL A   1      38.566  31.495  29.652  1.00  0.00     0.010 A 
ATOM     33  C   UNL A   1      37.533  29.292  29.379  1.00  0.00     0.010 A 
ATOM     34  C   UNL A   1      38.648  30.102  29.579  1.00  0.00    -0.014 A 
BRANCH  34  35
ATOM     35  C   UNL A   1      39.965  29.517  29.701  1.00  0.00     0.031 A 
ATOM     36  C   UNL A   1      40.413  29.363  31.095  1.00  0.00     0.074 A 
ATOM     37  C   UNL A   1      40.653  29.088  28.627  1.00  0.00     0.049 A 
ATOM     38  N   UNL A   1      41.340  30.011  31.717  1.00  0.00    -0.248 NA
ATOM     39  C   UNL A   1      39.603  28.484  31.951  1.00  0.00     0.031 C 
ATOM     40  C   UNL A   1      40.147  28.893  27.264  1.00  0.00     0.029 A 
ATOM     41  N   UNL A   1      41.928  28.620  28.559  1.00  0.00    -0.354 N 
ATOM     42  C   UNL A   1      41.381  29.442  32.984  1.00  0.00     0.074 A 
ATOM     43  C   UNL A   1      40.167  28.686  33.140  1.00  0.00     0.031 C 
ATOM     44  C   UNL A   1      41.031  28.141  26.571  1.00  0.00     0.029 A 
ATOM     45  C   UNL A   1      42.210  27.923  27.394  1.00  0.00     0.049 A 
ATOM     46  H   UNL A   1      42.592  28.764  29.272  1.00  0.00     0.167 HD
ATOM     47  C   UNL A   1      42.540  29.376  33.691  1.00  0.00     0.037 A 
ATOM     48  C   UNL A   1      43.298  27.146  27.175  1.00  0.00     0.037 A 
ATOM     49  C   UNL A   1      43.540  30.263  33.161  1.00  0.00     0.049 A 
ATOM     50  C   UNL A   1      44.344  27.552  28.148  1.00  0.00     0.074 A 
ATOM     51  C   UNL A   1      43.700  31.629  33.073  1.00  0.00     0.029 A 
ATOM     52  N   UNL A   1      44.425  29.695  32.280  1.00  0.00    -0.354 N 
ATOM     53  N   UNL A   1      44.923  28.722  28.160  1.00  0.00    -0.248 NA
ATOM     54  C   UNL A   1      44.525  26.764  29.362  1.00  0.00     0.031 C 
ATOM     55  C   UNL A   1      44.486  31.853  31.906  1.00  0.00     0.029 A 
ATOM     56  C   UNL A   1      44.789  30.616  31.333  1.00  0.00     0.049 A 
ATOM     57  H   UNL A   1      44.750  28.767  32.323  1.00  0.00     0.167 HD
ATOM     58  C   UNL A   1      45.184  28.977  29.497  1.00  0.00     0.074 A 
ATOM     59  C   UNL A   1      45.070  27.687  30.158  1.00  0.00     0.031 C 
ATOM     60  C   UNL A   1      45.177  30.252  29.983  1.00  0.00     0.037 A 
BRANCH  47  61
ATOM     61  C   UNL A   1      42.900  28.201  34.567  1.00  0.00     0.058 A 
ATOM     62  C   UNL A   1      43.162  28.410  35.934  1.00  0.00     0.135 A 
ATOM     63  C   UNL A   1      43.274  26.935  34.059  1.00  0.00     0.135 A 
ATOM     64  F   UNL A   1      42.875  29.589  36.510  1.00  0.00    -0.206 F 
ATOM     65  C   UNL A   1      43.792  27.449  36.726  1.00  0.00     0.059 A 
ATOM     66  C   UNL A   1      43.842  25.941  34.844  1.00  0.00     0.059 A 
ATOM     67  F   UNL A   1      43.209  26.636  32.756  1.00  0.00    -0.206 F 
ATOM     68  C   UNL A   1      44.137  26.221  36.166  1.00  0.00     0.060 A 
BRANCH  68  69
ATOM     69  S   UNL A   1      45.047  25.016  37.146  1.00  0.00     0.124 S 
ATOM     70  O   UNL A   1      46.423  25.448  36.928  1.00  0.00    -0.237 OA
ATOM     71  O   UNL A   1      44.508  25.239  38.482  1.00  0.00    -0.237 OA
ATOM     72  O   UNL A   1      44.679  23.742  36.534  1.00  0.00    -0.744 OA
ENDBRANCH  68  69
ENDBRANCH  47  61
BRANCH  48  73
ATOM     73  C   UNL A   1      43.349  25.862  26.430  1.00  0.00     0.058 A 
ATOM     74  C   UNL A   1      44.256  25.671  25.375  1.00  0.00     0.135 A 
ATOM     75  C   UNL A   1      42.704  24.706  26.917  1.00  0.00     0.135 A 
ATOM     76  F   UNL A   1      44.929  26.715  24.867  1.00  0.00    -0.206 F 
ATOM     77  C   UNL A   1      44.547  24.401  24.866  1.00  0.00     0.059 A 
ATOM     78  C   UNL A   1      42.967  23.433  26.417  1.00  0.00     0.059 A 
ATOM     79  F   UNL A   1      41.865  24.768  27.963  1.00  0.00    -0.206 F 
ATOM     80  C   UNL A   1      43.910  23.285  25.409  1.00  0.00     0.060 A 
BRANCH  80  81
ATOM     81  S   UNL A   1      44.411  21.631  24.879  1.00  0.00     0.124 S 
ATOM     82  O   UNL A   1      44.506  21.795  23.433  1.00  0.00    -0.237 OA
ATOM     83  O   UNL A   1      45.674  21.451  25.586  1.00  0.00    -0.237 OA
ATOM     84  O   UNL A   1      43.315  20.782  25.340  1.00  0.00    -0.744 OA
ENDBRANCH  80  81
ENDBRANCH  48  73
BRANCH  60  85
ATOM     85  C   UNL A   1      45.393  31.372  29.004  1.00  0.00     0.058 A 
ATOM     86  C   UNL A   1      46.651  31.856  28.608  1.00  0.00     0.135 A 
ATOM     87  C   UNL A   1      44.266  31.893  28.350  1.00  0.00     0.135 A 
ATOM     88  F   UNL A   1      47.778  31.347  29.123  1.00  0.00    -0.206 F 
ATOM     89  C   UNL A   1      46.778  32.840  27.625  1.00  0.00     0.059 A 
ATOM     90  C   UNL A   1      44.371  32.851  27.347  1.00  0.00     0.059 A 
ATOM     91  F   UNL A   1      43.040  31.429  28.650  1.00  0.00    -0.206 F 
ATOM     92  C   UNL A   1      45.632  33.329  26.997  1.00  0.00     0.060 A 
BRANCH  92  93
ATOM     93  S   UNL A   1      45.801  34.533  25.662  1.00  0.00     0.124 S 
ATOM     94  O   UNL A   1      45.365  35.768  26.305  1.00  0.00    -0.237 OA
ATOM     95  O   UNL A   1      47.223  34.453  25.339  1.00  0.00    -0.237 OA
ATOM     96  O   UNL A   1      44.908  34.021  24.624  1.00  0.00    -0.744 OA
ENDBRANCH  92  93
ENDBRANCH  60  85
ENDBRANCH  34  35
ENDBRANCH  27  29
ENDBRANCH  26  27
ENDBRANCH  25  26
ENDBRANCH  24  25
ENDBRANCH  23  24
ENDBRANCH   1  23
TORSDOF 21
ENDMDL
MODEL 2
REMARK VINA RESULT:     -10.7      2.589      9.296
REMARK SMILES CCn1ncc(CNc2ccccc2C(=O)OCCOCCOC(=O)c2ccc(-c3c4nc(c(-c5c(F)cc(S(=O)(=O)[O-])cc5F)c5ccc([nH]5)c(-c5c(F)cc(S(=O)(=O)[O-])cc5F)c5nc(c(-c6c(F)cc(S(=O)(=O)[O-])cc6F)c6ccc3[nH]6)C=C5)C=C4)cc2)c1C
REMARK SMILES IDX 19 1 18 2 17 3 15 4 16 5 14 6 9 7 10 8 11 9 13 10 12 11 8 12
REMARK SMILES IDX 7 14 6 15 3 16 4 17 92 18 5 19 93 20 2 21 1 22 20 23 21 24
REMARK SMILES IDX 22 25 23 26 24 27 25 28 26 29 27 30 91 31 28 32 90 33 29 34
REMARK SMILES IDX 30 35 31 36 84 37 32 38 89 39 83 40 85 41 33 42 88 43 82 44
REMARK SMILES IDX 81 45 34 47 68 48 47 49 67 50 48 51 51 52 66 53 86 54 49 55
REMARK SMILES IDX 50 56 65 58 87 59 52 60 35 61 36 62 45 63 37 64 38 65 44 66
REMARK SMILES IDX 46 67 39 68 40 69 41 70 42 71 43 72 69 73 70 74 79 75 71 76
REMARK SMILES IDX 72 77 78 78 80 79 73 80 74 81 75 82 76 83 77 84 53 85 54 86
REMARK SMILES IDX 63 87 55 88 56 89 62 90 64 91 57 92 58 93 59 94 60 95 61 96
REMARK H PARENT 8 13 85 46 51 57
REMARK Flexibility Score: inf
ROOT
ATOM      1  C   UNL A   1      38.650  20.503  25.385  1.00  0.00     0.202 C 
ENDROOT
BRANCH   1   2
ATOM      2  C   UNL A   1      37.799  21.742  25.636  1.00  0.00     0.261 C 
BRANCH   2   3
ATOM      3  O   UNL A   1      36.625  21.723  24.806  1.00  0.00    -0.460 OA
BRANCH   3   4
ATOM      4  C   UNL A   1      35.457  21.589  25.477  1.00  0.00     0.340 C 
ATOM      5  O   UNL A   1      35.324  21.535  26.690  1.00  0.00    -0.246 OA
BRANCH   4   6
ATOM      6  C   UNL A   1      34.304  21.668  24.557  1.00  0.00     0.083 A 
ATOM      7  C   UNL A   1      33.950  22.776  23.765  1.00  0.00     0.049 A 
ATOM      8  C   UNL A   1      32.876  22.572  22.866  1.00  0.00     0.026 A 
ATOM      9  C   UNL A   1      32.180  21.361  22.766  1.00  0.00     0.002 A 
ATOM     10  C   UNL A   1      33.584  20.452  24.473  1.00  0.00     0.018 A 
ATOM     11  C   UNL A   1      32.526  20.300  23.585  1.00  0.00     0.001 A 
BRANCH   7  12
ATOM     12  N   UNL A   1      34.540  24.023  23.703  1.00  0.00    -0.380 N 
ATOM     13  H   UNL A   1      35.207  24.128  22.987  1.00  0.00     0.160 HD
BRANCH  12  14
ATOM     14  C   UNL A   1      34.336  25.203  24.522  1.00  0.00     0.152 C 
BRANCH  14  15
ATOM     15  C   UNL A   1      33.045  25.902  24.275  1.00  0.00     0.012 A 
ATOM     16  N   UNL A   1      31.454  27.143  23.412  1.00  0.00    -0.270 N 
ATOM     17  N   UNL A   1      30.937  26.709  24.578  1.00  0.00    -0.181 NA
ATOM     18  C   UNL A   1      32.734  26.708  23.191  1.00  0.00     0.040 A 
ATOM     19  C   UNL A   1      31.902  25.948  25.095  1.00  0.00     0.141 A 
ATOM     20  C   UNL A   1      33.561  27.050  22.005  1.00  0.00     0.067 C 
BRANCH  16  21
ATOM     21  C   UNL A   1      30.654  28.010  22.568  1.00  0.00     0.141 C 
ATOM     22  C   UNL A   1      29.266  28.252  23.136  1.00  0.00     0.029 C 
ENDBRANCH  16  21
ENDBRANCH  14  15
ENDBRANCH  12  14
ENDBRANCH   7  12
ENDBRANCH   4   6
ENDBRANCH   3   4
ENDBRANCH   2   3
ENDBRANCH   1   2
BRANCH   1  23
ATOM     23  O   UNL A   1      39.922  20.465  26.037  1.00  0.00    -0.374 OA
BRANCH  23  24
ATOM     24  C   UNL A   1      40.617  19.224  26.123  1.00  0.00     0.202 C 
BRANCH  24  25
ATOM     25  C   UNL A   1      42.102  19.261  26.466  1.00  0.00     0.261 C 
BRANCH  25  26
ATOM     26  O   UNL A   1      42.650  20.571  26.494  1.00  0.00    -0.460 OA
BRANCH  26  27
ATOM     27  C   UNL A   1      43.497  20.819  25.467  1.00  0.00     0.338 C 
ATOM     28  O   UNL A   1      43.977  20.004  24.701  1.00  0.00    -0.246 OA
BRANCH  27  29
ATOM     29  C   UNL A   1      43.919  22.224  25.518  1.00  0.00     0.060 A 
ATOM     30  C   UNL A   1      44.757  22.560  26.583  1.00  0.00     0.016 A 
ATOM     31  C   UNL A   1      43.216  23.193  24.785  1.00  0.00     0.016 A 
ATOM     32  C   UNL A   1      44.686  23.836  27.085  1.00  0.00     0.010 A 
ATOM     33  C   UNL A   1      43.139  24.467  25.296  1.00  0.00     0.010 A 
ATOM     34  C   UNL A   1      43.794  24.735  26.495  1.00  0.00    -0.014 A 
BRANCH  34  35
ATOM     35  C   UNL A   1      43.553  25.974  27.200  1.00  0.00     0.031 A 
ATOM     36  C   UNL A   1      44.605  26.983  26.993  1.00  0.00     0.074 A 
ATOM     37  C   UNL A   1      42.423  26.183  27.901  1.00  0.00     0.049 A 
ATOM     38  N   UNL A   1      45.481  27.414  27.837  1.00  0.00    -0.248 NA
ATOM     39  C   UNL A   1      44.807  27.446  25.613  1.00  0.00     0.031 C 
ATOM     40  C   UNL A   1      41.196  25.379  27.875  1.00  0.00     0.029 A 
ATOM     41  N   UNL A   1      42.092  27.235  28.698  1.00  0.00    -0.354 N 
ATOM     42  C   UNL A   1      46.194  28.385  27.144  1.00  0.00     0.074 A 
ATOM     43  C   UNL A   1      45.895  28.202  25.748  1.00  0.00     0.031 C 
ATOM     44  C   UNL A   1      40.193  26.090  28.436  1.00  0.00     0.029 A 
ATOM     45  C   UNL A   1      40.737  27.326  28.974  1.00  0.00     0.049 A 
ATOM     46  H   UNL A   1      42.756  27.872  29.047  1.00  0.00     0.167 HD
ATOM     47  C   UNL A   1      46.729  29.459  27.782  1.00  0.00     0.037 A 
ATOM     48  C   UNL A   1      40.107  28.395  29.519  1.00  0.00     0.037 A 
ATOM     49  C   UNL A   1      46.798  29.255  29.204  1.00  0.00     0.049 A 
ATOM     50  C   UNL A   1      41.131  29.216  30.214  1.00  0.00     0.074 A 
ATOM     51  C   UNL A   1      47.507  28.429  30.049  1.00  0.00     0.029 A 
ATOM     52  N   UNL A   1      45.746  29.762  29.923  1.00  0.00    -0.354 N 
ATOM     53  N   UNL A   1      41.809  28.818  31.257  1.00  0.00    -0.248 NA
ATOM     54  C   UNL A   1      41.674  30.389  29.538  1.00  0.00     0.031 C 
ATOM     55  C   UNL A   1      46.675  28.233  31.189  1.00  0.00     0.029 A 
ATOM     56  C   UNL A   1      45.495  28.957  31.004  1.00  0.00     0.049 A 
ATOM     57  H   UNL A   1      45.248  30.581  29.698  1.00  0.00     0.167 HD
ATOM     58  C   UNL A   1      43.049  29.422  31.128  1.00  0.00     0.074 A 
ATOM     59  C   UNL A   1      42.853  30.489  30.158  1.00  0.00     0.031 C 
ATOM     60  C   UNL A   1      44.178  28.815  31.596  1.00  0.00     0.037 A 
BRANCH  47  61
ATOM     61  C   UNL A   1      46.773  30.838  27.171  1.00  0.00     0.058 A 
ATOM     62  C   UNL A   1      48.004  31.512  27.069  1.00  0.00     0.135 A 
ATOM     63  C   UNL A   1      45.622  31.630  26.949  1.00  0.00     0.135 A 
ATOM     64  F   UNL A   1      49.157  30.861  27.292  1.00  0.00    -0.206 F 
ATOM     65  C   UNL A   1      48.083  32.881  26.809  1.00  0.00     0.059 A 
ATOM     66  C   UNL A   1      45.679  32.978  26.626  1.00  0.00     0.059 A 
ATOM     67  F   UNL A   1      44.382  31.162  27.139  1.00  0.00    -0.206 F 
ATOM     68  C   UNL A   1      46.912  33.606  26.601  1.00  0.00     0.060 A 
BRANCH  68  69
ATOM     69  S   UNL A   1      46.993  35.390  26.376  1.00  0.00     0.124 S 
ATOM     70  O   UNL A   1      48.167  35.518  25.521  1.00  0.00    -0.237 OA
ATOM     71  O   UNL A   1      45.708  35.678  25.750  1.00  0.00    -0.237 OA
ATOM     72  O   UNL A   1      47.145  35.892  27.739  1.00  0.00    -0.744 OA
ENDBRANCH  68  69
ENDBRANCH  47  61
BRANCH  48  73
ATOM     73  C   UNL A   1      38.761  28.917  29.171  1.00  0.00     0.058 A 
ATOM     74  C   UNL A   1      37.801  29.170  30.165  1.00  0.00     0.135 A 
ATOM     75  C   UNL A   1      38.485  29.440  27.890  1.00  0.00     0.135 A 
ATOM     76  F   UNL A   1      37.995  28.728  31.417  1.00  0.00    -0.206 F 
ATOM     77  C   UNL A   1      36.660  29.940  29.918  1.00  0.00     0.059 A 
ATOM     78  C   UNL A   1      37.350  30.197  27.616  1.00  0.00     0.059 A 
ATOM     79  F   UNL A   1      39.364  29.309  26.884  1.00  0.00    -0.206 F 
ATOM     80  C   UNL A   1      36.454  30.466  28.643  1.00  0.00     0.060 A 
BRANCH  80  81
ATOM     81  S   UNL A   1      35.078  31.604  28.363  1.00  0.00     0.124 S 
ATOM     82  O   UNL A   1      35.726  32.684  27.627  1.00  0.00    -0.237 OA
ATOM     83  O   UNL A   1      34.148  30.780  27.598  1.00  0.00    -0.237 OA
ATOM     84  O   UNL A   1      34.639  31.944  29.714  1.00  0.00    -0.744 OA
ENDBRANCH  80  81
ENDBRANCH  48  73
BRANCH  60  85
ATOM     85  C   UNL A   1      44.015  27.777  32.671  1.00  0.00     0.058 A 
ATOM     86  C   UNL A   1      43.796  28.060  34.029  1.00  0.00     0.135 A 
ATOM     87  C   UNL A   1      43.962  26.432  32.275  1.00  0.00     0.135 A 
ATOM     88  F   UNL A   1      43.744  29.325  34.469  1.00  0.00    -0.206 F 
ATOM     89  C   UNL A   1      43.563  27.043  34.958  1.00  0.00     0.059 A 
ATOM     90  C   UNL A   1      43.703  25.405  33.177  1.00  0.00     0.059 A 
ATOM     91  F   UNL A   1      44.112  26.105  30.979  1.00  0.00    -0.206 F 
ATOM     92  C   UNL A   1      43.515  25.718  34.522  1.00  0.00     0.060 A 
BRANCH  92  93
ATOM     93  S   UNL A   1      43.124  24.413  35.706  1.00  0.00     0.124 S 
ATOM     94  O   UNL A   1      44.229  24.516  36.653  1.00  0.00    -0.237 OA
ATOM     95  O   UNL A   1      41.816  24.821  36.211  1.00  0.00    -0.237 OA
ATOM     96  O   UNL A   1      43.114  23.201  34.888  1.00  0.00    -0.744 OA
ENDBRANCH  92  93
ENDBRANCH  60  85
ENDBRANCH  34  35
ENDBRANCH  27  29
ENDBRANCH  26  27
ENDBRANCH  25  26
ENDBRANCH  24  25
ENDBRANCH  23  24
ENDBRANCH   1  23
TORSDOF 21
ENDMDL
MODEL 3
REMARK VINA RESULT:     -10.2      2.561      8.747
REMARK SMILES CCn1ncc(CNc2ccccc2C(=O)OCCOCCOC(=O)c2ccc(-c3c4nc(c(-c5c(F)cc(S(=O)(=O)[O-])cc5F)c5ccc([nH]5)c(-c5c(F)cc(S(=O)(=O)[O-])cc5F)c5nc(c(-c6c(F)cc(S(=O)(=O)[O-])cc6F)c6ccc3[nH]6)C=C5)C=C4)cc2)c1C
REMARK SMILES IDX 19 1 18 2 17 3 15 4 16 5 14 6 9 7 10 8 11 9 13 10 12 11 8 12
REMARK SMILES IDX 7 14 6 15 3 16 4 17 92 18 5 19 93 20 2 21 1 22 20 23 21 24
REMARK SMILES IDX 22 25 23 26 24 27 25 28 26 29 27 30 91 31 28 32 90 33 29 34
REMARK SMILES IDX 30 35 31 36 84 37 32 38 89 39 83 40 85 41 33 42 88 43 82 44
REMARK SMILES IDX 81 45 34 47 68 48 47 49 67 50 48 51 51 52 66 53 86 54 49 55
REMARK SMILES IDX 50 56 65 58 87 59 52 60 35 61 36 62 45 63 37 64 38 65 44 66
REMARK SMILES IDX 46 67 39 68 40 69 41 70 42 71 43 72 69 73 70 74 79 75 71 76
REMARK SMILES IDX 72 77 78 78 80 79 73 80 74 81 75 82 76 83 77 84 53 85 54 86
REMARK SMILES IDX 63 87 55 88 56 89 62 90 64 91 57 92 58 93 59 94 60 95 61 96
REMARK H PARENT 8 13 85 46 51 57
REMARK Flexibility Score: inf
ROOT
ATOM      1  C   UNL A   1      35.986  22.954  25.305  1.00  0.00     0.202 C 
ENDROOT
BRANCH   1   2
ATOM      2  C   UNL A   1      35.394  24.033  26.204  1.00  0.00     0.261 C 
BRANCH   2   3
ATOM      3  O   UNL A   1      34.049  24.341  25.800  1.00  0.00    -0.460 OA
BRANCH   3   4
ATOM      4  C   UNL A   1      33.850  25.626  25.423  1.00  0.00     0.340 C 
ATOM      5  O   UNL A   1      34.001  26.616  26.124  1.00  0.00    -0.246 OA
BRANCH   4   6
ATOM      6  C   UNL A   1      33.564  25.717  23.977  1.00  0.00     0.083 A 
ATOM      7  C   UNL A   1      33.206  24.649  23.134  1.00  0.00     0.049 A 
ATOM      8  C   UNL A   1      32.857  25.001  21.808  1.00  0.00     0.026 A 
ATOM      9  C   UNL A   1      32.878  26.319  21.335  1.00  0.00     0.002 A 
ATOM     10  C   UNL A   1      33.609  27.046  23.491  1.00  0.00     0.018 A 
ATOM     11  C   UNL A   1      33.271  27.345  22.176  1.00  0.00     0.001 A 
BRANCH   7  12
ATOM     12  N   UNL A   1      33.096  23.306  23.433  1.00  0.00    -0.380 N 
ATOM     13  H   UNL A   1      33.929  22.791  23.330  1.00  0.00     0.160 HD
BRANCH  12  14
ATOM     14  C   UNL A   1      31.953  22.528  23.874  1.00  0.00     0.152 C 
BRANCH  14  15
ATOM     15  C   UNL A   1      32.228  21.074  24.033  1.00  0.00     0.012 A 
ATOM     16  N   UNL A   1      32.485  18.926  23.661  1.00  0.00    -0.270 N 
ATOM     17  N   UNL A   1      32.672  19.055  24.989  1.00  0.00    -0.181 NA
ATOM     18  C   UNL A   1      32.188  20.110  23.039  1.00  0.00     0.040 A 
ATOM     19  C   UNL A   1      32.524  20.362  25.210  1.00  0.00     0.141 A 
ATOM     20  C   UNL A   1      31.907  20.267  21.588  1.00  0.00     0.067 C 
BRANCH  16  21
ATOM     21  C   UNL A   1      32.581  17.609  23.062  1.00  0.00     0.141 C 
ATOM     22  C   UNL A   1      33.955  16.989  23.244  1.00  0.00     0.029 C 
ENDBRANCH  16  21
ENDBRANCH  14  15
ENDBRANCH  12  14
ENDBRANCH   7  12
ENDBRANCH   4   6
ENDBRANCH   3   4
ENDBRANCH   2   3
ENDBRANCH   1   2
BRANCH   1  23
ATOM     23  O   UNL A   1      37.194  22.341  25.761  1.00  0.00    -0.374 OA
BRANCH  23  24
ATOM     24  C   UNL A   1      37.704  21.210  25.061  1.00  0.00     0.202 C 
BRANCH  24  25
ATOM     25  C   UNL A   1      38.980  20.561  25.585  1.00  0.00     0.261 C 
BRANCH  25  26
ATOM     26  O   UNL A   1      39.803  21.443  26.336  1.00  0.00    -0.460 OA
BRANCH  26  27
ATOM     27  C   UNL A   1      41.093  21.039  26.408  1.00  0.00     0.338 C 
ATOM     28  O   UNL A   1      41.503  19.893  26.403  1.00  0.00    -0.246 OA
BRANCH  27  29
ATOM     29  C   UNL A   1      41.947  22.199  26.689  1.00  0.00     0.060 A 
ATOM     30  C   UNL A   1      42.298  22.373  28.029  1.00  0.00     0.016 A 
ATOM     31  C   UNL A   1      42.054  23.234  25.746  1.00  0.00     0.016 A 
ATOM     32  C   UNL A   1      42.505  23.653  28.483  1.00  0.00     0.010 A 
ATOM     33  C   UNL A   1      42.252  24.515  26.205  1.00  0.00     0.010 A 
ATOM     34  C   UNL A   1      42.370  24.710  27.578  1.00  0.00    -0.014 A 
BRANCH  34  35
ATOM     35  C   UNL A   1      42.334  26.045  28.134  1.00  0.00     0.031 A 
ATOM     36  C   UNL A   1      43.498  26.867  27.761  1.00  0.00     0.074 A 
ATOM     37  C   UNL A   1      41.284  26.489  28.847  1.00  0.00     0.049 A 
ATOM     38  N   UNL A   1      44.470  27.269  28.510  1.00  0.00    -0.248 NA
ATOM     39  C   UNL A   1      43.682  27.132  26.327  1.00  0.00     0.031 C 
ATOM     40  C   UNL A   1      39.962  25.865  28.971  1.00  0.00     0.029 A 
ATOM     41  N   UNL A   1      41.141  27.662  29.520  1.00  0.00    -0.354 N 
ATOM     42  C   UNL A   1      45.264  28.043  27.673  1.00  0.00     0.074 A 
ATOM     43  C   UNL A   1      44.866  27.741  26.324  1.00  0.00     0.031 C 
ATOM     44  C   UNL A   1      39.095  26.769  29.479  1.00  0.00     0.029 A 
ATOM     45  C   UNL A   1      39.827  27.973  29.836  1.00  0.00     0.049 A 
ATOM     46  H   UNL A   1      41.901  28.239  29.761  1.00  0.00     0.167 HD
ATOM     47  C   UNL A   1      45.972  29.100  28.151  1.00  0.00     0.037 A 
ATOM     48  C   UNL A   1      39.376  29.175  30.269  1.00  0.00     0.037 A 
ATOM     49  C   UNL A   1      46.093  29.058  29.583  1.00  0.00     0.049 A 
ATOM     50  C   UNL A   1      40.538  29.922  30.815  1.00  0.00     0.074 A 
ATOM     51  C   UNL A   1      46.733  28.247  30.496  1.00  0.00     0.029 A 
ATOM     52  N   UNL A   1      45.160  29.787  30.276  1.00  0.00    -0.354 N 
ATOM     53  N   UNL A   1      41.214  29.560  31.872  1.00  0.00    -0.248 NA
ATOM     54  C   UNL A   1      41.192  30.921  29.978  1.00  0.00     0.031 C 
ATOM     55  C   UNL A   1      45.948  28.304  31.684  1.00  0.00     0.029 A 
ATOM     56  C   UNL A   1      44.866  29.157  31.457  1.00  0.00     0.049 A 
ATOM     57  H   UNL A   1      44.763  30.634  29.971  1.00  0.00     0.167 HD
ATOM     58  C   UNL A   1      42.514  29.967  31.620  1.00  0.00     0.074 A 
ATOM     59  C   UNL A   1      42.407  30.929  30.533  1.00  0.00     0.031 C 
ATOM     60  C   UNL A   1      43.577  29.269  32.114  1.00  0.00     0.037 A 
BRANCH  47  61
ATOM     61  C   UNL A   1      46.164  30.379  27.373  1.00  0.00     0.058 A 
ATOM     62  C   UNL A   1      47.459  30.907  27.214  1.00  0.00     0.135 A 
ATOM     63  C   UNL A   1      45.103  31.248  27.026  1.00  0.00     0.135 A 
ATOM     64  F   UNL A   1      48.537  30.177  27.545  1.00  0.00    -0.206 F 
ATOM     65  C   UNL A   1      47.681  32.216  26.786  1.00  0.00     0.059 A 
ATOM     66  C   UNL A   1      45.302  32.531  26.537  1.00  0.00     0.059 A 
ATOM     67  F   UNL A   1      43.819  30.936  27.246  1.00  0.00    -0.206 F 
ATOM     68  C   UNL A   1      46.593  33.023  26.462  1.00  0.00     0.060 A 
BRANCH  68  69
ATOM     69  S   UNL A   1      46.860  34.747  26.015  1.00  0.00     0.124 S 
ATOM     70  O   UNL A   1      47.052  35.356  27.326  1.00  0.00    -0.237 OA
ATOM     71  O   UNL A   1      48.042  34.663  25.166  1.00  0.00    -0.237 OA
ATOM     72  O   UNL A   1      45.624  35.107  25.325  1.00  0.00    -0.744 OA
ENDBRANCH  68  69
ENDBRANCH  47  61
BRANCH  48  73
ATOM     73  C   UNL A   1      38.093  29.834  29.913  1.00  0.00     0.058 A 
ATOM     74  C   UNL A   1      37.234  30.334  30.905  1.00  0.00     0.135 A 
ATOM     75  C   UNL A   1      37.817  30.233  28.589  1.00  0.00     0.135 A 
ATOM     76  F   UNL A   1      37.439  30.021  32.193  1.00  0.00    -0.206 F 
ATOM     77  C   UNL A   1      36.193  31.219  30.609  1.00  0.00     0.059 A 
ATOM     78  C   UNL A   1      36.778  31.102  28.268  1.00  0.00     0.059 A 
ATOM     79  F   UNL A   1      38.612  29.863  27.572  1.00  0.00    -0.206 F 
ATOM     80  C   UNL A   1      35.986  31.614  29.288  1.00  0.00     0.060 A 
BRANCH  80  81
ATOM     81  S   UNL A   1      34.760  32.890  28.922  1.00  0.00     0.124 S 
ATOM     82  O   UNL A   1      33.989  32.269  27.851  1.00  0.00    -0.237 OA
ATOM     83  O   UNL A   1      34.074  33.032  30.202  1.00  0.00    -0.237 OA
ATOM     84  O   UNL A   1      35.573  34.037  28.524  1.00  0.00    -0.744 OA
ENDBRANCH  80  81
ENDBRANCH  48  73
BRANCH  60  85
ATOM     85  C   UNL A   1      43.339  28.397  33.315  1.00  0.00     0.058 A 
ATOM     86  C   UNL A   1      43.138  28.873  34.622  1.00  0.00     0.135 A 
ATOM     87  C   UNL A   1      43.191  27.018  33.100  1.00  0.00     0.135 A 
ATOM     88  F   UNL A   1      43.176  30.185  34.890  1.00  0.00    -0.206 F 
ATOM     89  C   UNL A   1      42.832  28.007  35.674  1.00  0.00     0.059 A 
ATOM     90  C   UNL A   1      42.858  26.142  34.128  1.00  0.00     0.059 A 
ATOM     91  F   UNL A   1      43.320  26.513  31.862  1.00  0.00    -0.206 F 
ATOM     92  C   UNL A   1      42.691  26.643  35.417  1.00  0.00     0.060 A 
BRANCH  92  93
ATOM     93  S   UNL A   1      42.205  25.537  36.760  1.00  0.00     0.124 S 
ATOM     94  O   UNL A   1      41.324  24.595  36.078  1.00  0.00    -0.237 OA
ATOM     95  O   UNL A   1      43.486  24.998  37.207  1.00  0.00    -0.237 OA
ATOM     96  O   UNL A   1      41.547  26.427  37.715  1.00  0.00    -0.744 OA
ENDBRANCH  92  93
ENDBRANCH  60  85
ENDBRANCH  34  35
ENDBRANCH  27  29
ENDBRANCH  26  27
ENDBRANCH  25  26
ENDBRANCH  24  25
ENDBRANCH  23  24
ENDBRANCH   1  23
TORSDOF 21
ENDMDL
