MODEL 1
REMARK VINA RESULT:     -11.4      0.000      0.000
REMARK SMILES O=C(OCCOCCOC(=O)c1c(C(F)(F)F)nn(-c2ccccc2)c1C(F)(F)Cl)c1ccc(-c2c3nc(c(-c4c(F)cc(S(=O)(=O)[O-])cc4F)c4ccc([nH]4)c(-c4c(F)cc(S(=O)(=O)[O-])cc4F)c4nc(c(-c5c(F)cc(S(=O)(=O)[O-])cc5F)c5ccc2[nH]5)C=C4)C=C3)cc1
REMARK SMILES IDX 5 1 4 2 3 3 2 4 1 5 31 6 32 7 96 8 33 9 95 10 34 11 35 12
REMARK SMILES IDX 36 13 89 14 37 15 94 16 88 17 90 18 38 19 93 20 87 21 86 22
REMARK SMILES IDX 39 24 73 25 52 26 72 27 53 28 56 29 71 30 91 31 54 32 55 33
REMARK SMILES IDX 70 35 92 36 57 37 40 38 41 39 50 40 42 41 43 42 49 43 51 44
REMARK SMILES IDX 44 45 45 46 46 47 47 48 48 49 74 50 75 51 84 52 76 53 77 54
REMARK SMILES IDX 83 55 85 56 78 57 79 58 80 59 81 60 82 61 58 62 59 63 68 64
REMARK SMILES IDX 60 65 61 66 67 67 69 68 62 69 63 70 64 71 65 72 66 73 6 74
REMARK SMILES IDX 7 75 8 76 9 77 10 78 11 79 12 80 13 81 26 82 18 83 19 84
REMARK SMILES IDX 14 85 15 86 16 87 17 88 27 89 28 90 29 91 30 92 20 93 21 94
REMARK SMILES IDX 25 95 22 96 24 97 23 98
REMARK H PARENT 90 23 56 34
REMARK Flexibility Score: inf
ROOT
ATOM      1  C   UNL A   1      36.644  20.698  25.352  1.00  0.00     0.202 C 
ENDROOT
BRANCH   1   2
ATOM      2  C   UNL A   1      37.918  21.500  25.061  1.00  0.00     0.261 C 
BRANCH   2   3
ATOM      3  O   UNL A   1      38.227  22.445  26.087  1.00  0.00    -0.460 OA
BRANCH   3   4
ATOM      4  C   UNL A   1      39.380  22.563  26.784  1.00  0.00     0.338 C 
ATOM      5  O   UNL A   1      39.946  21.526  27.130  1.00  0.00    -0.246 OA
BRANCH   4   6
ATOM      6  C   UNL A   1      40.018  23.868  27.141  1.00  0.00     0.060 A 
ATOM      7  C   UNL A   1      41.257  24.042  27.761  1.00  0.00     0.016 A 
ATOM      8  C   UNL A   1      39.245  25.012  26.874  1.00  0.00     0.016 A 
ATOM      9  C   UNL A   1      41.593  25.248  28.337  1.00  0.00     0.010 A 
ATOM     10  C   UNL A   1      39.614  26.248  27.379  1.00  0.00     0.010 A 
ATOM     11  C   UNL A   1      40.729  26.324  28.207  1.00  0.00    -0.014 A 
BRANCH  11  12
ATOM     12  C   UNL A   1      41.057  27.512  28.976  1.00  0.00     0.031 A 
ATOM     13  C   UNL A   1      42.211  28.303  28.461  1.00  0.00     0.074 A 
ATOM     14  C   UNL A   1      40.309  27.853  30.042  1.00  0.00     0.049 A 
ATOM     15  N   UNL A   1      43.289  28.674  29.075  1.00  0.00    -0.248 NA
ATOM     16  C   UNL A   1      42.215  28.606  27.018  1.00  0.00     0.031 C 
ATOM     17  C   UNL A   1      39.033  27.264  30.470  1.00  0.00     0.029 A 
ATOM     18  N   UNL A   1      40.461  28.894  30.899  1.00  0.00    -0.354 N 
ATOM     19  C   UNL A   1      44.007  29.438  28.153  1.00  0.00     0.074 A 
ATOM     20  C   UNL A   1      43.386  29.221  26.875  1.00  0.00     0.031 C 
ATOM     21  C   UNL A   1      38.409  28.123  31.302  1.00  0.00     0.029 A 
ATOM     22  C   UNL A   1      39.295  29.243  31.561  1.00  0.00     0.049 A 
ATOM     23  H   UNL A   1      41.319  29.357  31.037  1.00  0.00     0.167 HD
ATOM     24  C   UNL A   1      44.912  30.377  28.541  1.00  0.00     0.037 A 
ATOM     25  C   UNL A   1      39.040  30.433  32.158  1.00  0.00     0.037 A 
ATOM     26  C   UNL A   1      45.424  30.105  29.859  1.00  0.00     0.049 A 
ATOM     27  C   UNL A   1      40.352  31.092  32.403  1.00  0.00     0.074 A 
ATOM     28  C   UNL A   1      46.122  29.056  30.426  1.00  0.00     0.029 A 
ATOM     29  N   UNL A   1      44.951  30.847  30.913  1.00  0.00    -0.354 N 
ATOM     30  N   UNL A   1      41.256  30.636  33.229  1.00  0.00    -0.248 NA
ATOM     31  C   UNL A   1      40.847  32.016  31.394  1.00  0.00     0.031 C 
ATOM     32  C   UNL A   1      45.624  28.955  31.756  1.00  0.00     0.029 A 
ATOM     33  C   UNL A   1      44.683  29.971  31.933  1.00  0.00     0.049 A 
ATOM     34  H   UNL A   1      44.828  31.825  30.932  1.00  0.00     0.167 HD
ATOM     35  C   UNL A   1      42.474  30.888  32.609  1.00  0.00     0.074 A 
ATOM     36  C   UNL A   1      42.161  31.819  31.528  1.00  0.00     0.031 C 
ATOM     37  C   UNL A   1      43.572  30.111  32.849  1.00  0.00     0.037 A 
BRANCH  24  38
ATOM     38  C   UNL A   1      45.033  31.735  27.877  1.00  0.00     0.058 A 
ATOM     39  C   UNL A   1      46.248  32.097  27.259  1.00  0.00     0.135 A 
ATOM     40  C   UNL A   1      44.125  32.799  28.091  1.00  0.00     0.135 A 
ATOM     41  F   UNL A   1      47.181  31.170  26.987  1.00  0.00    -0.206 F 
ATOM     42  C   UNL A   1      46.582  33.425  26.985  1.00  0.00     0.059 A 
ATOM     43  C   UNL A   1      44.417  34.120  27.780  1.00  0.00     0.059 A 
ATOM     44  F   UNL A   1      42.949  32.634  28.704  1.00  0.00    -0.206 F 
ATOM     45  C   UNL A   1      45.669  34.432  27.282  1.00  0.00     0.060 A 
BRANCH  45  46
ATOM     46  S   UNL A   1      46.153  36.156  27.103  1.00  0.00     0.124 S 
ATOM     47  O   UNL A   1      46.609  36.183  25.719  1.00  0.00    -0.237 OA
ATOM     48  O   UNL A   1      44.901  36.854  27.381  1.00  0.00    -0.237 OA
ATOM     49  O   UNL A   1      47.193  36.319  28.116  1.00  0.00    -0.744 OA
ENDBRANCH  45  46
ENDBRANCH  24  38
BRANCH  25  50
ATOM     50  C   UNL A   1      37.746  31.165  32.117  1.00  0.00     0.058 A 
ATOM     51  C   UNL A   1      37.094  31.560  33.295  1.00  0.00     0.135 A 
ATOM     52  C   UNL A   1      37.237  31.706  30.915  1.00  0.00     0.135 A 
ATOM     53  F   UNL A   1      37.533  31.123  34.485  1.00  0.00    -0.206 F 
ATOM     54  C   UNL A   1      36.018  32.455  33.286  1.00  0.00     0.059 A 
ATOM     55  C   UNL A   1      36.156  32.581  30.878  1.00  0.00     0.059 A 
ATOM     56  F   UNL A   1      37.832  31.469  29.735  1.00  0.00    -0.206 F 
ATOM     57  C   UNL A   1      35.562  32.969  32.070  1.00  0.00     0.060 A 
BRANCH  57  58
ATOM     58  S   UNL A   1      34.272  34.234  32.060  1.00  0.00     0.124 S 
ATOM     59  O   UNL A   1      35.006  35.416  32.499  1.00  0.00    -0.237 OA
ATOM     60  O   UNL A   1      33.844  34.229  30.666  1.00  0.00    -0.237 OA
ATOM     61  O   UNL A   1      33.289  33.724  33.013  1.00  0.00    -0.744 OA
ENDBRANCH  57  58
ENDBRANCH  25  50
BRANCH  37  62
ATOM     62  C   UNL A   1      43.521  29.135  33.996  1.00  0.00     0.058 A 
ATOM     63  C   UNL A   1      42.985  27.839  33.896  1.00  0.00     0.135 A 
ATOM     64  C   UNL A   1      44.194  29.457  35.184  1.00  0.00     0.135 A 
ATOM     65  F   UNL A   1      42.427  27.411  32.756  1.00  0.00    -0.206 F 
ATOM     66  C   UNL A   1      43.078  26.918  34.942  1.00  0.00     0.059 A 
ATOM     67  C   UNL A   1      44.328  28.545  36.228  1.00  0.00     0.059 A 
ATOM     68  F   UNL A   1      44.791  30.653  35.315  1.00  0.00    -0.206 F 
ATOM     69  C   UNL A   1      43.756  27.280  36.104  1.00  0.00     0.060 A 
BRANCH  69  70
ATOM     70  S   UNL A   1      43.962  26.054  37.415  1.00  0.00     0.124 S 
ATOM     71  O   UNL A   1      45.196  25.385  37.019  1.00  0.00    -0.237 OA
ATOM     72  O   UNL A   1      44.047  26.882  38.615  1.00  0.00    -0.237 OA
ATOM     73  O   UNL A   1      42.752  25.241  37.315  1.00  0.00    -0.744 OA
ENDBRANCH  69  70
ENDBRANCH  37  62
ENDBRANCH  11  12
ENDBRANCH   4   6
ENDBRANCH   3   4
ENDBRANCH   2   3
ENDBRANCH   1   2
BRANCH   1  74
ATOM     74  O   UNL A   1      35.473  20.947  24.585  1.00  0.00    -0.374 OA
BRANCH  74  75
ATOM     75  C   UNL A   1      34.253  20.292  24.958  1.00  0.00     0.202 C 
BRANCH  75  76
ATOM     76  C   UNL A   1      32.972  21.132  25.009  1.00  0.00     0.261 C 
BRANCH  76  77
ATOM     77  O   UNL A   1      33.282  22.541  24.963  1.00  0.00    -0.460 OA
BRANCH  77  78
ATOM     78  C   UNL A   1      33.280  23.240  26.122  1.00  0.00     0.342 C 
ATOM     79  O   UNL A   1      34.030  23.053  27.070  1.00  0.00    -0.246 OA
BRANCH  78  80
ATOM     80  C   UNL A   1      32.350  24.351  26.085  1.00  0.00     0.121 A 
ATOM     81  C   UNL A   1      30.959  24.321  26.417  1.00  0.00     0.181 A 
ATOM     82  C   UNL A   1      32.604  25.667  25.703  1.00  0.00     0.145 A 
ATOM     83  N   UNL A   1      30.417  25.545  26.257  1.00  0.00    -0.162 NA
ATOM     84  N   UNL A   1      31.358  26.243  25.589  1.00  0.00    -0.229 N 
BRANCH  81  85
ATOM     85  C   UNL A   1      30.122  23.158  26.901  1.00  0.00     0.436 C 
ATOM     86  F   UNL A   1      28.871  23.543  27.274  1.00  0.00    -0.164 F 
ATOM     87  F   UNL A   1      29.973  22.207  25.943  1.00  0.00    -0.164 F 
ATOM     88  F   UNL A   1      30.651  22.534  27.981  1.00  0.00    -0.164 F 
ENDBRANCH  81  85
BRANCH  82  89
ATOM     89  C   UNL A   1      33.824  26.423  25.320  1.00  0.00     0.365 C 
ATOM     90  F   UNL A   1      34.900  25.589  25.358  1.00  0.00    -0.181 F 
ATOM     91  F   UNL A   1      33.755  26.880  24.041  1.00  0.00    -0.181 F 
ATOM     92  Cl  UNL A   1      34.162  27.835  26.324  1.00  0.00    -0.040 Cl
ENDBRANCH  82  89
BRANCH  84  93
ATOM     93  C   UNL A   1      30.951  27.318  24.766  1.00  0.00     0.065 A 
ATOM     94  C   UNL A   1      30.332  27.051  23.542  1.00  0.00     0.028 A 
ATOM     95  C   UNL A   1      31.176  28.638  25.183  1.00  0.00     0.028 A 
ATOM     96  C   UNL A   1      29.847  28.115  22.783  1.00  0.00     0.002 A 
ATOM     97  C   UNL A   1      30.714  29.693  24.401  1.00  0.00     0.002 A 
ATOM     98  C   UNL A   1      30.030  29.431  23.214  1.00  0.00     0.000 A 
ENDBRANCH  84  93
ENDBRANCH  78  80
ENDBRANCH  77  78
ENDBRANCH  76  77
ENDBRANCH  75  76
ENDBRANCH  74  75
ENDBRANCH   1  74
TORSDOF 20
ENDMDL
MODEL 2
REMARK VINA RESULT:     -11.3      1.377      2.134
REMARK SMILES O=C(OCCOCCOC(=O)c1c(C(F)(F)F)nn(-c2ccccc2)c1C(F)(F)Cl)c1ccc(-c2c3nc(c(-c4c(F)cc(S(=O)(=O)[O-])cc4F)c4ccc([nH]4)c(-c4c(F)cc(S(=O)(=O)[O-])cc4F)c4nc(c(-c5c(F)cc(S(=O)(=O)[O-])cc5F)c5ccc2[nH]5)C=C4)C=C3)cc1
REMARK SMILES IDX 5 1 4 2 3 3 2 4 1 5 31 6 32 7 96 8 33 9 95 10 34 11 35 12
REMARK SMILES IDX 36 13 89 14 37 15 94 16 88 17 90 18 38 19 93 20 87 21 86 22
REMARK SMILES IDX 39 24 73 25 52 26 72 27 53 28 56 29 71 30 91 31 54 32 55 33
REMARK SMILES IDX 70 35 92 36 57 37 40 38 41 39 50 40 42 41 43 42 49 43 51 44
REMARK SMILES IDX 44 45 45 46 46 47 47 48 48 49 74 50 75 51 84 52 76 53 77 54
REMARK SMILES IDX 83 55 85 56 78 57 79 58 80 59 81 60 82 61 58 62 59 63 68 64
REMARK SMILES IDX 60 65 61 66 67 67 69 68 62 69 63 70 64 71 65 72 66 73 6 74
REMARK SMILES IDX 7 75 8 76 9 77 10 78 11 79 12 80 13 81 26 82 18 83 19 84
REMARK SMILES IDX 14 85 15 86 16 87 17 88 27 89 28 90 29 91 30 92 20 93 21 94
REMARK SMILES IDX 25 95 22 96 24 97 23 98
REMARK H PARENT 90 23 56 34
REMARK Flexibility Score: inf
ROOT
ATOM      1  C   UNL A   1      37.033  23.301  24.317  1.00  0.00     0.202 C 
ENDROOT
BRANCH   1   2
ATOM      2  C   UNL A   1      37.357  21.945  24.956  1.00  0.00     0.261 C 
BRANCH   2   3
ATOM      3  O   UNL A   1      38.028  22.070  26.212  1.00  0.00    -0.460 OA
BRANCH   3   4
ATOM      4  C   UNL A   1      39.359  22.031  26.446  1.00  0.00     0.338 C 
ATOM      5  O   UNL A   1      39.923  20.941  26.355  1.00  0.00    -0.246 OA
BRANCH   4   6
ATOM      6  C   UNL A   1      40.189  23.227  26.789  1.00  0.00     0.060 A 
ATOM      7  C   UNL A   1      41.300  23.251  27.635  1.00  0.00     0.016 A 
ATOM      8  C   UNL A   1      39.749  24.445  26.242  1.00  0.00     0.016 A 
ATOM      9  C   UNL A   1      41.778  24.442  28.137  1.00  0.00     0.010 A 
ATOM     10  C   UNL A   1      40.279  25.649  26.678  1.00  0.00     0.010 A 
ATOM     11  C   UNL A   1      41.210  25.632  27.711  1.00  0.00    -0.014 A 
BRANCH  11  12
ATOM     12  C   UNL A   1      41.641  26.836  28.401  1.00  0.00     0.031 A 
ATOM     13  C   UNL A   1      42.965  27.373  27.973  1.00  0.00     0.074 A 
ATOM     14  C   UNL A   1      40.842  27.411  29.318  1.00  0.00     0.049 A 
ATOM     15  N   UNL A   1      44.011  27.640  28.689  1.00  0.00    -0.248 NA
ATOM     16  C   UNL A   1      43.190  27.501  26.521  1.00  0.00     0.031 C 
ATOM     17  C   UNL A   1      39.444  27.081  29.624  1.00  0.00     0.029 A 
ATOM     18  N   UNL A   1      41.065  28.508  30.084  1.00  0.00    -0.354 N 
ATOM     19  C   UNL A   1      44.950  28.171  27.803  1.00  0.00     0.074 A 
ATOM     20  C   UNL A   1      44.457  27.906  26.479  1.00  0.00     0.031 C 
ATOM     21  C   UNL A   1      38.880  28.118  30.278  1.00  0.00     0.029 A 
ATOM     22  C   UNL A   1      39.906  29.110  30.546  1.00  0.00     0.049 A 
ATOM     23  H   UNL A   1      41.967  28.846  30.292  1.00  0.00     0.167 HD
ATOM     24  C   UNL A   1      45.949  28.997  28.218  1.00  0.00     0.037 A 
ATOM     25  C   UNL A   1      39.788  30.386  30.986  1.00  0.00     0.037 A 
ATOM     26  C   UNL A   1      46.249  28.803  29.613  1.00  0.00     0.049 A 
ATOM     27  C   UNL A   1      41.153  30.856  31.342  1.00  0.00     0.074 A 
ATOM     28  C   UNL A   1      46.689  27.732  30.367  1.00  0.00     0.029 A 
ATOM     29  N   UNL A   1      45.788  29.728  30.517  1.00  0.00    -0.354 N 
ATOM     30  N   UNL A   1      41.864  30.365  32.323  1.00  0.00    -0.248 NA
ATOM     31  C   UNL A   1      41.913  31.569  30.326  1.00  0.00     0.031 C 
ATOM     32  C   UNL A   1      46.027  27.865  31.621  1.00  0.00     0.029 A 
ATOM     33  C   UNL A   1      45.257  29.029  31.571  1.00  0.00     0.049 A 
ATOM     34  H   UNL A   1      45.831  30.708  30.426  1.00  0.00     0.167 HD
ATOM     35  C   UNL A   1      43.171  30.351  31.852  1.00  0.00     0.074 A 
ATOM     36  C   UNL A   1      43.150  31.187  30.654  1.00  0.00     0.031 C 
ATOM     37  C   UNL A   1      44.086  29.446  32.311  1.00  0.00     0.037 A 
BRANCH  24  38
ATOM     38  C   UNL A   1      46.376  30.233  27.450  1.00  0.00     0.058 A 
ATOM     39  C   UNL A   1      47.750  30.501  27.278  1.00  0.00     0.135 A 
ATOM     40  C   UNL A   1      45.509  31.310  27.149  1.00  0.00     0.135 A 
ATOM     41  F   UNL A   1      48.668  29.550  27.514  1.00  0.00    -0.206 F 
ATOM     42  C   UNL A   1      48.229  31.771  26.950  1.00  0.00     0.059 A 
ATOM     43  C   UNL A   1      45.962  32.567  26.772  1.00  0.00     0.059 A 
ATOM     44  F   UNL A   1      44.183  31.236  27.301  1.00  0.00    -0.206 F 
ATOM     45  C   UNL A   1      47.324  32.805  26.732  1.00  0.00     0.060 A 
BRANCH  45  46
ATOM     46  S   UNL A   1      47.929  34.483  26.488  1.00  0.00     0.124 S 
ATOM     47  O   UNL A   1      46.726  35.262  26.757  1.00  0.00    -0.237 OA
ATOM     48  O   UNL A   1      48.989  34.572  27.488  1.00  0.00    -0.237 OA
ATOM     49  O   UNL A   1      48.383  34.477  25.100  1.00  0.00    -0.744 OA
ENDBRANCH  45  46
ENDBRANCH  24  38
BRANCH  25  50
ATOM     50  C   UNL A   1      38.650  31.300  30.701  1.00  0.00     0.058 A 
ATOM     51  C   UNL A   1      38.134  31.440  29.404  1.00  0.00     0.135 A 
ATOM     52  C   UNL A   1      37.884  31.878  31.739  1.00  0.00     0.135 A 
ATOM     53  F   UNL A   1      38.777  30.892  28.362  1.00  0.00    -0.206 F 
ATOM     54  C   UNL A   1      36.922  32.093  29.152  1.00  0.00     0.059 A 
ATOM     55  C   UNL A   1      36.687  32.549  31.511  1.00  0.00     0.059 A 
ATOM     56  F   UNL A   1      38.232  31.733  33.027  1.00  0.00    -0.206 F 
ATOM     57  C   UNL A   1      36.199  32.636  30.216  1.00  0.00     0.060 A 
BRANCH  57  58
ATOM     58  S   UNL A   1      34.566  33.350  29.917  1.00  0.00     0.124 S 
ATOM     59  O   UNL A   1      34.906  34.680  29.420  1.00  0.00    -0.237 OA
ATOM     60  O   UNL A   1      34.000  32.429  28.939  1.00  0.00    -0.237 OA
ATOM     61  O   UNL A   1      33.936  33.321  31.235  1.00  0.00    -0.744 OA
ENDBRANCH  57  58
ENDBRANCH  25  50
BRANCH  37  62
ATOM     62  C   UNL A   1      43.736  28.630  33.528  1.00  0.00     0.058 A 
ATOM     63  C   UNL A   1      43.882  29.092  34.848  1.00  0.00     0.135 A 
ATOM     64  C   UNL A   1      43.067  27.410  33.350  1.00  0.00     0.135 A 
ATOM     65  F   UNL A   1      44.405  30.298  35.101  1.00  0.00    -0.206 F 
ATOM     66  C   UNL A   1      43.421  28.358  35.943  1.00  0.00     0.059 A 
ATOM     67  C   UNL A   1      42.570  26.675  34.424  1.00  0.00     0.059 A 
ATOM     68  F   UNL A   1      42.831  26.947  32.111  1.00  0.00    -0.206 F 
ATOM     69  C   UNL A   1      42.761  27.150  35.720  1.00  0.00     0.060 A 
BRANCH  69  70
ATOM     70  S   UNL A   1      42.078  26.253  37.131  1.00  0.00     0.124 S 
ATOM     71  O   UNL A   1      42.012  24.887  36.624  1.00  0.00    -0.237 OA
ATOM     72  O   UNL A   1      43.073  26.494  38.173  1.00  0.00    -0.237 OA
ATOM     73  O   UNL A   1      40.787  26.899  37.355  1.00  0.00    -0.744 OA
ENDBRANCH  69  70
ENDBRANCH  37  62
ENDBRANCH  11  12
ENDBRANCH   4   6
ENDBRANCH   3   4
ENDBRANCH   2   3
ENDBRANCH   1   2
BRANCH   1  74
ATOM     74  O   UNL A   1      36.161  23.351  23.195  1.00  0.00    -0.374 OA
BRANCH  74  75
ATOM     75  C   UNL A   1      35.020  22.482  23.170  1.00  0.00     0.202 C 
BRANCH  75  76
ATOM     76  C   UNL A   1      33.657  23.072  23.549  1.00  0.00     0.261 C 
BRANCH  76  77
ATOM     77  O   UNL A   1      33.155  22.462  24.757  1.00  0.00    -0.460 OA
BRANCH  77  78
ATOM     78  C   UNL A   1      33.317  23.120  25.928  1.00  0.00     0.342 C 
ATOM     79  O   UNL A   1      34.175  22.883  26.767  1.00  0.00    -0.246 OA
BRANCH  78  80
ATOM     80  C   UNL A   1      32.421  24.252  26.045  1.00  0.00     0.121 A 
ATOM     81  C   UNL A   1      31.057  24.230  26.479  1.00  0.00     0.181 A 
ATOM     82  C   UNL A   1      32.684  25.587  25.744  1.00  0.00     0.145 A 
ATOM     83  N   UNL A   1      30.541  25.475  26.452  1.00  0.00    -0.162 NA
ATOM     84  N   UNL A   1      31.450  26.199  25.768  1.00  0.00    -0.229 N 
BRANCH  81  85
ATOM     85  C   UNL A   1      30.225  23.053  26.938  1.00  0.00     0.436 C 
ATOM     86  F   UNL A   1      30.800  22.390  27.978  1.00  0.00    -0.164 F 
ATOM     87  F   UNL A   1      28.989  23.436  27.348  1.00  0.00    -0.164 F 
ATOM     88  F   UNL A   1      30.037  22.123  25.970  1.00  0.00    -0.164 F 
ENDBRANCH  81  85
BRANCH  82  89
ATOM     89  C   UNL A   1      33.894  26.341  25.326  1.00  0.00     0.365 C 
ATOM     90  F   UNL A   1      34.081  27.392  26.172  1.00  0.00    -0.181 F 
ATOM     91  F   UNL A   1      35.020  25.584  25.423  1.00  0.00    -0.181 F 
ATOM     92  Cl  UNL A   1      33.852  26.944  23.668  1.00  0.00    -0.040 Cl
ENDBRANCH  82  89
BRANCH  84  93
ATOM     93  C   UNL A   1      31.014  27.344  25.061  1.00  0.00     0.065 A 
ATOM     94  C   UNL A   1      31.365  28.613  25.526  1.00  0.00     0.028 A 
ATOM     95  C   UNL A   1      30.233  27.193  23.906  1.00  0.00     0.028 A 
ATOM     96  C   UNL A   1      31.014  29.732  24.770  1.00  0.00     0.002 A 
ATOM     97  C   UNL A   1      29.862  28.319  23.177  1.00  0.00     0.002 A 
ATOM     98  C   UNL A   1      30.273  29.584  23.596  1.00  0.00     0.000 A 
ENDBRANCH  84  93
ENDBRANCH  78  80
ENDBRANCH  77  78
ENDBRANCH  76  77
ENDBRANCH  75  76
ENDBRANCH  74  75
ENDBRANCH   1  74
TORSDOF 20
ENDMDL
MODEL 3
REMARK VINA RESULT:     -11.3      3.085      9.274
REMARK SMILES O=C(OCCOCCOC(=O)c1c(C(F)(F)F)nn(-c2ccccc2)c1C(F)(F)Cl)c1ccc(-c2c3nc(c(-c4c(F)cc(S(=O)(=O)[O-])cc4F)c4ccc([nH]4)c(-c4c(F)cc(S(=O)(=O)[O-])cc4F)c4nc(c(-c5c(F)cc(S(=O)(=O)[O-])cc5F)c5ccc2[nH]5)C=C4)C=C3)cc1
REMARK SMILES IDX 5 1 4 2 3 3 2 4 1 5 31 6 32 7 96 8 33 9 95 10 34 11 35 12
REMARK SMILES IDX 36 13 89 14 37 15 94 16 88 17 90 18 38 19 93 20 87 21 86 22
REMARK SMILES IDX 39 24 73 25 52 26 72 27 53 28 56 29 71 30 91 31 54 32 55 33
REMARK SMILES IDX 70 35 92 36 57 37 40 38 41 39 50 40 42 41 43 42 49 43 51 44
REMARK SMILES IDX 44 45 45 46 46 47 47 48 48 49 74 50 75 51 84 52 76 53 77 54
REMARK SMILES IDX 83 55 85 56 78 57 79 58 80 59 81 60 82 61 58 62 59 63 68 64
REMARK SMILES IDX 60 65 61 66 67 67 69 68 62 69 63 70 64 71 65 72 66 73 6 74
REMARK SMILES IDX 7 75 8 76 9 77 10 78 11 79 12 80 13 81 26 82 18 83 19 84
REMARK SMILES IDX 14 85 15 86 16 87 17 88 27 89 28 90 29 91 30 92 20 93 21 94
REMARK SMILES IDX 25 95 22 96 24 97 23 98
REMARK H PARENT 90 23 56 34
REMARK Flexibility Score: inf
ROOT
ATOM      1  C   UNL A   1      32.530  30.095  25.458  1.00  0.00     0.202 C 
ENDROOT
BRANCH   1   2
ATOM      2  C   UNL A   1      32.930  30.386  26.909  1.00  0.00     0.261 C 
BRANCH   2   3
ATOM      3  O   UNL A   1      34.315  30.139  27.163  1.00  0.00    -0.460 OA
BRANCH   3   4
ATOM      4  C   UNL A   1      35.233  31.004  27.651  1.00  0.00     0.338 C 
ATOM      5  O   UNL A   1      35.006  32.208  27.526  1.00  0.00    -0.246 OA
BRANCH   4   6
ATOM      6  C   UNL A   1      36.491  30.592  28.347  1.00  0.00     0.060 A 
ATOM      7  C   UNL A   1      37.463  31.444  28.876  1.00  0.00     0.016 A 
ATOM      8  C   UNL A   1      36.724  29.207  28.405  1.00  0.00     0.016 A 
ATOM      9  C   UNL A   1      38.718  30.971  29.191  1.00  0.00     0.010 A 
ATOM     10  C   UNL A   1      37.958  28.713  28.799  1.00  0.00     0.010 A 
ATOM     11  C   UNL A   1      38.979  29.615  29.075  1.00  0.00    -0.014 A 
BRANCH  11  12
ATOM     12  C   UNL A   1      40.361  29.206  29.257  1.00  0.00     0.031 A 
ATOM     13  C   UNL A   1      40.835  29.179  30.671  1.00  0.00     0.074 A 
ATOM     14  C   UNL A   1      41.103  28.841  28.194  1.00  0.00     0.049 A 
ATOM     15  N   UNL A   1      41.856  29.770  31.204  1.00  0.00    -0.248 NA
ATOM     16  C   UNL A   1      39.963  28.501  31.648  1.00  0.00     0.031 C 
ATOM     17  C   UNL A   1      40.647  28.619  26.816  1.00  0.00     0.029 A 
ATOM     18  N   UNL A   1      42.402  28.457  28.146  1.00  0.00    -0.354 N 
ATOM     19  C   UNL A   1      41.873  29.365  32.540  1.00  0.00     0.074 A 
ATOM     20  C   UNL A   1      40.608  28.731  32.789  1.00  0.00     0.031 C 
ATOM     21  C   UNL A   1      41.569  27.882  26.162  1.00  0.00     0.029 A 
ATOM     22  C   UNL A   1      42.718  27.701  27.029  1.00  0.00     0.049 A 
ATOM     23  H   UNL A   1      43.061  28.694  28.840  1.00  0.00     0.167 HD
ATOM     24  C   UNL A   1      43.014  29.367  33.281  1.00  0.00     0.037 A 
ATOM     25  C   UNL A   1      43.786  26.877  26.897  1.00  0.00     0.037 A 
ATOM     26  C   UNL A   1      43.980  30.300  32.761  1.00  0.00     0.049 A 
ATOM     27  C   UNL A   1      44.786  27.286  27.919  1.00  0.00     0.074 A 
ATOM     28  C   UNL A   1      43.992  31.667  32.559  1.00  0.00     0.029 A 
ATOM     29  N   UNL A   1      45.043  29.811  32.041  1.00  0.00    -0.354 N 
ATOM     30  N   UNL A   1      45.410  28.434  27.915  1.00  0.00    -0.248 NA
ATOM     31  C   UNL A   1      44.765  26.601  29.203  1.00  0.00     0.031 C 
ATOM     32  C   UNL A   1      44.742  31.859  31.364  1.00  0.00     0.029 A 
ATOM     33  C   UNL A   1      45.176  30.605  30.931  1.00  0.00     0.049 A 
ATOM     34  H   UNL A   1      45.604  29.037  32.279  1.00  0.00     0.167 HD
ATOM     35  C   UNL A   1      45.504  28.802  29.251  1.00  0.00     0.074 A 
ATOM     36  C   UNL A   1      45.171  27.593  30.000  1.00  0.00     0.031 C 
ATOM     37  C   UNL A   1      45.569  30.114  29.628  1.00  0.00     0.037 A 
BRANCH  24  38
ATOM     38  C   UNL A   1      43.384  28.250  34.238  1.00  0.00     0.058 A 
ATOM     39  C   UNL A   1      43.773  28.568  35.555  1.00  0.00     0.135 A 
ATOM     40  C   UNL A   1      43.667  26.926  33.828  1.00  0.00     0.135 A 
ATOM     41  F   UNL A   1      43.540  29.789  36.063  1.00  0.00    -0.206 F 
ATOM     42  C   UNL A   1      44.492  27.679  36.358  1.00  0.00     0.059 A 
ATOM     43  C   UNL A   1      44.336  26.009  34.628  1.00  0.00     0.059 A 
ATOM     44  F   UNL A   1      43.403  26.477  32.597  1.00  0.00    -0.206 F 
ATOM     45  C   UNL A   1      44.796  26.413  35.869  1.00  0.00     0.060 A 
BRANCH  45  46
ATOM     46  S   UNL A   1      45.874  25.325  36.816  1.00  0.00     0.124 S 
ATOM     47  O   UNL A   1      46.817  26.281  37.384  1.00  0.00    -0.237 OA
ATOM     48  O   UNL A   1      44.938  24.712  37.753  1.00  0.00    -0.237 OA
ATOM     49  O   UNL A   1      46.417  24.426  35.802  1.00  0.00    -0.744 OA
ENDBRANCH  45  46
ENDBRANCH  24  38
BRANCH  25  50
ATOM     50  C   UNL A   1      43.776  25.541  26.243  1.00  0.00     0.058 A 
ATOM     51  C   UNL A   1      44.691  25.218  25.230  1.00  0.00     0.135 A 
ATOM     52  C   UNL A   1      43.022  24.466  26.765  1.00  0.00     0.135 A 
ATOM     53  F   UNL A   1      45.474  26.171  24.701  1.00  0.00    -0.206 F 
ATOM     54  C   UNL A   1      44.866  23.905  24.776  1.00  0.00     0.059 A 
ATOM     55  C   UNL A   1      43.164  23.156  26.316  1.00  0.00     0.059 A 
ATOM     56  F   UNL A   1      42.180  24.638  27.795  1.00  0.00    -0.206 F 
ATOM     57  C   UNL A   1      44.104  22.877  25.335  1.00  0.00     0.060 A 
BRANCH  57  58
ATOM     58  S   UNL A   1      44.426  21.164  24.860  1.00  0.00     0.124 S 
ATOM     59  O   UNL A   1      43.246  20.481  25.381  1.00  0.00    -0.237 OA
ATOM     60  O   UNL A   1      44.519  21.258  23.408  1.00  0.00    -0.237 OA
ATOM     61  O   UNL A   1      45.678  20.851  25.543  1.00  0.00    -0.744 OA
ENDBRANCH  57  58
ENDBRANCH  25  50
BRANCH  37  62
ATOM     62  C   UNL A   1      45.804  31.154  28.563  1.00  0.00     0.058 A 
ATOM     63  C   UNL A   1      44.780  31.720  27.784  1.00  0.00     0.135 A 
ATOM     64  C   UNL A   1      47.081  31.722  28.449  1.00  0.00     0.135 A 
ATOM     65  F   UNL A   1      43.511  31.315  27.916  1.00  0.00    -0.206 F 
ATOM     66  C   UNL A   1      45.021  32.777  26.903  1.00  0.00     0.059 A 
ATOM     67  C   UNL A   1      47.339  32.797  27.600  1.00  0.00     0.059 A 
ATOM     68  F   UNL A   1      48.087  31.274  29.219  1.00  0.00    -0.206 F 
ATOM     69  C   UNL A   1      46.305  33.312  26.821  1.00  0.00     0.060 A 
BRANCH  69  70
ATOM     70  S   UNL A   1      46.591  34.742  25.756  1.00  0.00     0.124 S 
ATOM     71  O   UNL A   1      45.566  34.573  24.732  1.00  0.00    -0.237 OA
ATOM     72  O   UNL A   1      46.396  35.864  26.670  1.00  0.00    -0.237 OA
ATOM     73  O   UNL A   1      47.966  34.557  25.298  1.00  0.00    -0.744 OA
ENDBRANCH  69  70
ENDBRANCH  37  62
ENDBRANCH  11  12
ENDBRANCH   4   6
ENDBRANCH   3   4
ENDBRANCH   2   3
ENDBRANCH   1   2
BRANCH   1  74
ATOM     74  O   UNL A   1      31.159  30.165  25.086  1.00  0.00    -0.374 OA
BRANCH  74  75
ATOM     75  C   UNL A   1      30.620  29.135  24.247  1.00  0.00     0.202 C 
BRANCH  75  76
ATOM     76  C   UNL A   1      31.481  27.893  23.988  1.00  0.00     0.261 C 
BRANCH  76  77
ATOM     77  O   UNL A   1      30.978  26.760  24.725  1.00  0.00    -0.460 OA
BRANCH  77  78
ATOM     78  C   UNL A   1      30.598  25.658  24.036  1.00  0.00     0.342 C 
ATOM     79  O   UNL A   1      29.503  25.481  23.520  1.00  0.00    -0.246 OA
BRANCH  78  80
ATOM     80  C   UNL A   1      31.692  24.725  23.856  1.00  0.00     0.121 A 
ATOM     81  C   UNL A   1      32.567  24.630  22.729  1.00  0.00     0.181 A 
ATOM     82  C   UNL A   1      32.107  23.716  24.724  1.00  0.00     0.145 A 
ATOM     83  N   UNL A   1      33.460  23.637  22.916  1.00  0.00    -0.162 NA
ATOM     84  N   UNL A   1      32.988  22.960  23.983  1.00  0.00    -0.229 N 
BRANCH  81  85
ATOM     85  C   UNL A   1      32.594  25.472  21.473  1.00  0.00     0.436 C 
ATOM     86  F   UNL A   1      33.430  26.540  21.586  1.00  0.00    -0.164 F 
ATOM     87  F   UNL A   1      33.007  24.760  20.393  1.00  0.00    -0.164 F 
ATOM     88  F   UNL A   1      31.383  25.988  21.151  1.00  0.00    -0.164 F 
ENDBRANCH  81  85
BRANCH  82  89
ATOM     89  C   UNL A   1      31.715  23.294  26.093  1.00  0.00     0.365 C 
ATOM     90  F   UNL A   1      30.957  24.271  26.664  1.00  0.00    -0.181 F 
ATOM     91  F   UNL A   1      30.931  22.182  26.074  1.00  0.00    -0.181 F 
ATOM     92  Cl  UNL A   1      33.066  22.921  27.166  1.00  0.00    -0.040 Cl
ENDBRANCH  82  89
BRANCH  84  93
ATOM     93  C   UNL A   1      33.303  21.588  24.111  1.00  0.00     0.065 A 
ATOM     94  C   UNL A   1      34.536  21.214  24.651  1.00  0.00     0.028 A 
ATOM     95  C   UNL A   1      32.381  20.619  23.692  1.00  0.00     0.028 A 
ATOM     96  C   UNL A   1      34.799  19.861  24.864  1.00  0.00     0.002 A 
ATOM     97  C   UNL A   1      32.668  19.270  23.880  1.00  0.00     0.002 A 
ATOM     98  C   UNL A   1      33.865  18.893  24.487  1.00  0.00     0.000 A 
ENDBRANCH  84  93
ENDBRANCH  78  80
ENDBRANCH  77  78
ENDBRANCH  76  77
ENDBRANCH  75  76
ENDBRANCH  74  75
ENDBRANCH   1  74
TORSDOF 20
ENDMDL
