MODEL 1
REMARK VINA RESULT:     -11.3      0.000      0.000
REMARK SMILES Cc1ccc2c(c1)OCCN2c1sc(C(=O)OCCOCCOC(=O)c2ccc(-c3c4nc(c(-c5c(F)cc(S(=O)(=O)[O-])cc5F)c5ccc([nH]5)c(-c5c(F)cc(S(=O)(=O)[O-])cc5F)c5nc(c(-c6c(F)cc(S(=O)(=O)[O-])cc6F)c6ccc3[nH]6)C=C5)C=C4)cc2)cc1C
REMARK SMILES IDX 21 1 20 2 19 3 18 4 17 5 15 6 16 7 14 8 12 9 13 10 93 11
REMARK SMILES IDX 92 12 94 13 11 14 1 15 2 16 3 17 7 18 4 19 6 20 5 21 8 22
REMARK SMILES IDX 9 23 10 24 22 25 23 26 24 27 25 28 26 29 27 30 91 31 28 32
REMARK SMILES IDX 90 33 29 34 30 35 31 36 84 37 32 38 89 39 83 40 85 41 33 42
REMARK SMILES IDX 88 43 82 44 81 45 34 47 68 48 47 49 67 50 48 51 51 52 66 53
REMARK SMILES IDX 86 54 49 55 50 56 65 58 87 59 52 60 35 61 36 62 45 63 37 64
REMARK SMILES IDX 38 65 44 66 46 67 39 68 40 69 41 70 42 71 43 72 69 73 70 74
REMARK SMILES IDX 79 75 71 76 72 77 78 78 80 79 73 80 74 81 75 82 76 83 77 84
REMARK SMILES IDX 53 85 54 86 63 87 55 88 56 89 62 90 64 91 57 92 58 93 59 94
REMARK SMILES IDX 60 95 61 96
REMARK H PARENT 85 46 51 57
REMARK Flexibility Score: inf
ROOT
ATOM      1  C   UNL A   1      40.190  21.569  26.635  1.00  0.00     0.202 C 
ENDROOT
BRANCH   1   2
ATOM      2  O   UNL A   1      38.994  21.406  25.870  1.00  0.00    -0.374 OA
BRANCH   2   3
ATOM      3  C   UNL A   1      38.148  22.548  25.729  1.00  0.00     0.202 C 
BRANCH   3   4
ATOM      4  C   UNL A   1      36.896  22.363  24.865  1.00  0.00     0.261 C 
BRANCH   4   5
ATOM      5  O   UNL A   1      35.718  22.819  25.544  1.00  0.00    -0.459 OA
BRANCH   5   6
ATOM      6  C   UNL A   1      34.547  22.558  24.895  1.00  0.00     0.348 C 
ATOM      7  O   UNL A   1      34.066  21.440  24.751  1.00  0.00    -0.245 OA
BRANCH   6   8
ATOM      8  C   UNL A   1      33.864  23.775  24.506  1.00  0.00     0.114 A 
ATOM      9  C   UNL A   1      32.678  25.955  24.469  1.00  0.00     0.099 A 
ATOM     10  S   UNL A   1      32.570  24.468  25.361  1.00  0.00    -0.110 S 
ATOM     11  C   UNL A   1      33.425  25.748  23.310  1.00  0.00    -0.015 A 
ATOM     12  C   UNL A   1      34.134  24.506  23.371  1.00  0.00     0.033 A 
ATOM     13  C   UNL A   1      33.632  26.687  22.169  1.00  0.00     0.047 C 
BRANCH   9  14
ATOM     14  N   UNL A   1      32.068  27.110  24.886  1.00  0.00    -0.327 N 
ATOM     15  C   UNL A   1      34.569  31.371  27.882  1.00  0.00     0.044 C 
ATOM     16  C   UNL A   1      33.894  30.262  27.136  1.00  0.00    -0.047 A 
ATOM     17  C   UNL A   1      34.446  28.983  27.131  1.00  0.00     0.006 A 
ATOM     18  C   UNL A   1      32.745  30.496  26.376  1.00  0.00     0.052 A 
ATOM     19  C   UNL A   1      33.855  27.954  26.391  1.00  0.00     0.030 A 
ATOM     20  C   UNL A   1      32.151  29.459  25.644  1.00  0.00     0.143 A 
ATOM     21  C   UNL A   1      32.683  28.149  25.645  1.00  0.00     0.085 A 
ATOM     22  O   UNL A   1      31.034  29.830  24.925  1.00  0.00    -0.490 OA
ATOM     23  C   UNL A   1      30.721  28.888  23.896  1.00  0.00     0.251 C 
ATOM     24  C   UNL A   1      30.720  27.461  24.437  1.00  0.00     0.165 C 
ENDBRANCH   9  14
ENDBRANCH   6   8
ENDBRANCH   5   6
ENDBRANCH   4   5
ENDBRANCH   3   4
ENDBRANCH   2   3
ENDBRANCH   1   2
BRANCH   1  25
ATOM     25  C   UNL A   1      41.185  22.628  26.147  1.00  0.00     0.261 C 
BRANCH  25  26
ATOM     26  O   UNL A   1      41.384  23.661  27.128  1.00  0.00    -0.460 OA
BRANCH  26  27
ATOM     27  C   UNL A   1      41.516  24.914  26.629  1.00  0.00     0.338 C 
ATOM     28  O   UNL A   1      41.731  25.222  25.467  1.00  0.00    -0.246 OA
BRANCH  27  29
ATOM     29  C   UNL A   1      41.165  25.899  27.675  1.00  0.00     0.060 A 
ATOM     30  C   UNL A   1      40.019  25.763  28.462  1.00  0.00     0.016 A 
ATOM     31  C   UNL A   1      42.031  26.984  27.867  1.00  0.00     0.016 A 
ATOM     32  C   UNL A   1      39.762  26.701  29.465  1.00  0.00     0.010 A 
ATOM     33  C   UNL A   1      41.773  27.918  28.872  1.00  0.00     0.010 A 
ATOM     34  C   UNL A   1      40.645  27.774  29.691  1.00  0.00    -0.014 A 
BRANCH  34  35
ATOM     35  C   UNL A   1      40.444  28.665  30.859  1.00  0.00     0.031 A 
ATOM     36  C   UNL A   1      41.273  28.531  32.101  1.00  0.00     0.074 A 
ATOM     37  C   UNL A   1      39.484  29.608  30.785  1.00  0.00     0.049 A 
ATOM     38  N   UNL A   1      41.291  29.297  33.161  1.00  0.00    -0.248 NA
ATOM     39  C   UNL A   1      42.198  27.389  32.168  1.00  0.00     0.031 C 
ATOM     40  C   UNL A   1      38.579  29.795  29.649  1.00  0.00     0.029 A 
ATOM     41  N   UNL A   1      39.115  30.590  31.669  1.00  0.00    -0.354 N 
ATOM     42  C   UNL A   1      42.242  28.751  34.013  1.00  0.00     0.074 A 
ATOM     43  C   UNL A   1      42.742  27.554  33.369  1.00  0.00     0.031 C 
ATOM     44  C   UNL A   1      37.785  30.849  29.890  1.00  0.00     0.029 A 
ATOM     45  C   UNL A   1      38.108  31.402  31.203  1.00  0.00     0.049 A 
ATOM     46  H   UNL A   1      39.532  30.702  32.554  1.00  0.00     0.167 HD
ATOM     47  C   UNL A   1      42.673  29.221  35.208  1.00  0.00     0.037 A 
ATOM     48  C   UNL A   1      37.519  32.476  31.762  1.00  0.00     0.037 A 
ATOM     49  C   UNL A   1      42.161  30.410  35.843  1.00  0.00     0.049 A 
ATOM     50  C   UNL A   1      37.993  32.958  33.105  1.00  0.00     0.074 A 
ATOM     51  C   UNL A   1      42.574  30.997  37.027  1.00  0.00     0.029 A 
ATOM     52  N   UNL A   1      41.117  31.185  35.358  1.00  0.00    -0.354 N 
ATOM     53  N   UNL A   1      38.963  32.487  33.851  1.00  0.00    -0.248 NA
ATOM     54  C   UNL A   1      37.297  34.117  33.682  1.00  0.00     0.031 C 
ATOM     55  C   UNL A   1      41.748  32.095  37.284  1.00  0.00     0.029 A 
ATOM     56  C   UNL A   1      40.850  32.223  36.237  1.00  0.00     0.049 A 
ATOM     57  H   UNL A   1      40.638  31.022  34.515  1.00  0.00     0.167 HD
ATOM     58  C   UNL A   1      39.001  33.297  34.979  1.00  0.00     0.074 A 
ATOM     59  C   UNL A   1      37.971  34.302  34.809  1.00  0.00     0.031 C 
ATOM     60  C   UNL A   1      39.816  33.214  36.060  1.00  0.00     0.037 A 
BRANCH  47  61
ATOM     61  C   UNL A   1      43.770  28.469  35.908  1.00  0.00     0.058 A 
ATOM     62  C   UNL A   1      45.117  28.823  35.738  1.00  0.00     0.135 A 
ATOM     63  C   UNL A   1      43.473  27.444  36.822  1.00  0.00     0.135 A 
ATOM     64  F   UNL A   1      45.459  29.790  34.871  1.00  0.00    -0.206 F 
ATOM     65  C   UNL A   1      46.133  28.179  36.437  1.00  0.00     0.059 A 
ATOM     66  C   UNL A   1      44.471  26.801  37.549  1.00  0.00     0.059 A 
ATOM     67  F   UNL A   1      42.201  27.068  37.024  1.00  0.00    -0.206 F 
ATOM     68  C   UNL A   1      45.800  27.171  37.344  1.00  0.00     0.060 A 
BRANCH  68  69
ATOM     69  S   UNL A   1      47.132  26.364  38.255  1.00  0.00     0.124 S 
ATOM     70  O   UNL A   1      47.047  24.998  37.746  1.00  0.00    -0.237 OA
ATOM     71  O   UNL A   1      48.303  27.125  37.832  1.00  0.00    -0.237 OA
ATOM     72  O   UNL A   1      46.745  26.536  39.652  1.00  0.00    -0.744 OA
ENDBRANCH  68  69
ENDBRANCH  47  61
BRANCH  48  73
ATOM     73  C   UNL A   1      36.439  33.187  31.030  1.00  0.00     0.058 A 
ATOM     74  C   UNL A   1      35.104  33.099  31.450  1.00  0.00     0.135 A 
ATOM     75  C   UNL A   1      36.724  33.993  29.916  1.00  0.00     0.135 A 
ATOM     76  F   UNL A   1      34.783  32.338  32.506  1.00  0.00    -0.206 F 
ATOM     77  C   UNL A   1      34.087  33.777  30.787  1.00  0.00     0.059 A 
ATOM     78  C   UNL A   1      35.726  34.700  29.252  1.00  0.00     0.059 A 
ATOM     79  F   UNL A   1      37.988  34.123  29.484  1.00  0.00    -0.206 F 
ATOM     80  C   UNL A   1      34.408  34.579  29.691  1.00  0.00     0.060 A 
BRANCH  80  81
ATOM     81  S   UNL A   1      33.085  35.493  28.871  1.00  0.00     0.124 S 
ATOM     82  O   UNL A   1      32.455  34.447  28.074  1.00  0.00    -0.237 OA
ATOM     83  O   UNL A   1      32.309  35.987  30.004  1.00  0.00    -0.237 OA
ATOM     84  O   UNL A   1      33.800  36.518  28.116  1.00  0.00    -0.744 OA
ENDBRANCH  80  81
ENDBRANCH  48  73
BRANCH  60  85
ATOM     85  C   UNL A   1      39.629  34.225  37.157  1.00  0.00     0.058 A 
ATOM     86  C   UNL A   1      38.844  33.938  38.285  1.00  0.00     0.135 A 
ATOM     87  C   UNL A   1      40.314  35.450  37.128  1.00  0.00     0.135 A 
ATOM     88  F   UNL A   1      38.160  32.786  38.357  1.00  0.00    -0.206 F 
ATOM     89  C   UNL A   1      38.745  34.833  39.346  1.00  0.00     0.059 A 
ATOM     90  C   UNL A   1      40.249  36.349  38.189  1.00  0.00     0.059 A 
ATOM     91  F   UNL A   1      41.083  35.770  36.074  1.00  0.00    -0.206 F 
ATOM     92  C   UNL A   1      39.460  36.031  39.294  1.00  0.00     0.060 A 
BRANCH  92  93
ATOM     93  S   UNL A   1      39.377  37.145  40.712  1.00  0.00     0.124 S 
ATOM     94  O   UNL A   1      38.518  38.209  40.203  1.00  0.00    -0.237 OA
ATOM     95  O   UNL A   1      38.787  36.294  41.742  1.00  0.00    -0.237 OA
ATOM     96  O   UNL A   1      40.770  37.518  40.936  1.00  0.00    -0.744 OA
ENDBRANCH  92  93
ENDBRANCH  60  85
ENDBRANCH  34  35
ENDBRANCH  27  29
ENDBRANCH  26  27
ENDBRANCH  25  26
ENDBRANCH   1  25
TORSDOF 18
ENDMDL
MODEL 2
REMARK VINA RESULT:     -11.3      6.572     12.354
REMARK SMILES Cc1ccc2c(c1)OCCN2c1sc(C(=O)OCCOCCOC(=O)c2ccc(-c3c4nc(c(-c5c(F)cc(S(=O)(=O)[O-])cc5F)c5ccc([nH]5)c(-c5c(F)cc(S(=O)(=O)[O-])cc5F)c5nc(c(-c6c(F)cc(S(=O)(=O)[O-])cc6F)c6ccc3[nH]6)C=C5)C=C4)cc2)cc1C
REMARK SMILES IDX 21 1 20 2 19 3 18 4 17 5 15 6 16 7 14 8 12 9 13 10 93 11
REMARK SMILES IDX 92 12 94 13 11 14 1 15 2 16 3 17 7 18 4 19 6 20 5 21 8 22
REMARK SMILES IDX 9 23 10 24 22 25 23 26 24 27 25 28 26 29 27 30 91 31 28 32
REMARK SMILES IDX 90 33 29 34 30 35 31 36 84 37 32 38 89 39 83 40 85 41 33 42
REMARK SMILES IDX 88 43 82 44 81 45 34 47 68 48 47 49 67 50 48 51 51 52 66 53
REMARK SMILES IDX 86 54 49 55 50 56 65 58 87 59 52 60 35 61 36 62 45 63 37 64
REMARK SMILES IDX 38 65 44 66 46 67 39 68 40 69 41 70 42 71 43 72 69 73 70 74
REMARK SMILES IDX 79 75 71 76 72 77 78 78 80 79 73 80 74 81 75 82 76 83 77 84
REMARK SMILES IDX 53 85 54 86 63 87 55 88 56 89 62 90 64 91 57 92 58 93 59 94
REMARK SMILES IDX 60 95 61 96
REMARK H PARENT 85 46 51 57
REMARK Flexibility Score: inf
ROOT
ATOM      1  C   UNL A   1      33.987  31.678  27.967  1.00  0.00     0.202 C 
ENDROOT
BRANCH   1   2
ATOM      2  O   UNL A   1      33.835  30.595  27.046  1.00  0.00    -0.374 OA
BRANCH   2   3
ATOM      3  C   UNL A   1      32.536  30.014  26.931  1.00  0.00     0.202 C 
BRANCH   3   4
ATOM      4  C   UNL A   1      31.990  29.850  25.508  1.00  0.00     0.261 C 
BRANCH   4   5
ATOM      5  O   UNL A   1      31.420  28.548  25.311  1.00  0.00    -0.459 OA
BRANCH   5   6
ATOM      6  C   UNL A   1      31.898  27.873  24.228  1.00  0.00     0.348 C 
ATOM      7  O   UNL A   1      32.222  28.398  23.168  1.00  0.00    -0.245 OA
BRANCH   6   8
ATOM      8  C   UNL A   1      32.104  26.468  24.515  1.00  0.00     0.114 A 
ATOM      9  C   UNL A   1      32.953  24.137  24.613  1.00  0.00     0.099 A 
ATOM     10  S   UNL A   1      32.641  25.322  23.382  1.00  0.00    -0.110 S 
ATOM     11  C   UNL A   1      32.292  24.501  25.786  1.00  0.00    -0.015 A 
ATOM     12  C   UNL A   1      31.849  25.862  25.724  1.00  0.00     0.033 A 
ATOM     13  C   UNL A   1      32.134  23.706  27.038  1.00  0.00     0.047 C 
BRANCH   9  14
ATOM     14  N   UNL A   1      33.717  23.021  24.385  1.00  0.00    -0.327 N 
ATOM     15  C   UNL A   1      39.146  22.207  26.187  1.00  0.00     0.044 C 
ATOM     16  C   UNL A   1      37.752  22.414  25.682  1.00  0.00    -0.047 A 
ATOM     17  C   UNL A   1      37.224  23.700  25.587  1.00  0.00     0.006 A 
ATOM     18  C   UNL A   1      36.930  21.330  25.363  1.00  0.00     0.052 A 
ATOM     19  C   UNL A   1      35.904  23.900  25.171  1.00  0.00     0.030 A 
ATOM     20  C   UNL A   1      35.611  21.536  24.937  1.00  0.00     0.143 A 
ATOM     21  C   UNL A   1      35.064  22.834  24.812  1.00  0.00     0.085 A 
ATOM     22  O   UNL A   1      34.905  20.381  24.673  1.00  0.00    -0.490 OA
ATOM     23  C   UNL A   1      33.494  20.607  24.655  1.00  0.00     0.251 C 
ATOM     24  C   UNL A   1      33.139  21.815  23.792  1.00  0.00     0.165 C 
ENDBRANCH   9  14
ENDBRANCH   6   8
ENDBRANCH   5   6
ENDBRANCH   4   5
ENDBRANCH   3   4
ENDBRANCH   2   3
ENDBRANCH   1   2
BRANCH   1  25
ATOM     25  C   UNL A   1      35.120  31.560  28.993  1.00  0.00     0.261 C 
BRANCH  25  26
ATOM     26  O   UNL A   1      35.744  30.266  28.948  1.00  0.00    -0.460 OA
BRANCH  26  27
ATOM     27  C   UNL A   1      36.477  29.939  30.040  1.00  0.00     0.338 C 
ATOM     28  O   UNL A   1      36.053  29.659  31.150  1.00  0.00    -0.246 OA
BRANCH  27  29
ATOM     29  C   UNL A   1      37.894  29.772  29.649  1.00  0.00     0.060 A 
ATOM     30  C   UNL A   1      38.913  29.667  30.598  1.00  0.00     0.016 A 
ATOM     31  C   UNL A   1      38.191  29.711  28.281  1.00  0.00     0.016 A 
ATOM     32  C   UNL A   1      40.229  29.467  30.171  1.00  0.00     0.010 A 
ATOM     33  C   UNL A   1      39.506  29.507  27.857  1.00  0.00     0.010 A 
ATOM     34  C   UNL A   1      40.533  29.365  28.800  1.00  0.00    -0.014 A 
BRANCH  34  35
ATOM     35  C   UNL A   1      41.903  28.993  28.370  1.00  0.00     0.031 A 
ATOM     36  C   UNL A   1      43.014  29.998  28.333  1.00  0.00     0.074 A 
ATOM     37  C   UNL A   1      42.132  27.716  28.003  1.00  0.00     0.049 A 
ATOM     38  N   UNL A   1      44.284  29.807  28.084  1.00  0.00    -0.248 NA
ATOM     39  C   UNL A   1      42.658  31.400  28.604  1.00  0.00     0.031 C 
ATOM     40  C   UNL A   1      41.114  26.665  27.946  1.00  0.00     0.029 A 
ATOM     41  N   UNL A   1      43.287  27.083  27.620  1.00  0.00    -0.354 N 
ATOM     42  C   UNL A   1      44.887  31.054  28.191  1.00  0.00     0.074 A 
ATOM     43  C   UNL A   1      43.833  32.005  28.475  1.00  0.00     0.031 C 
ATOM     44  C   UNL A   1      41.696  25.511  27.587  1.00  0.00     0.029 A 
ATOM     45  C   UNL A   1      43.122  25.741  27.370  1.00  0.00     0.049 A 
ATOM     46  H   UNL A   1      44.152  27.545  27.534  1.00  0.00     0.167 HD
ATOM     47  C   UNL A   1      46.201  31.365  28.087  1.00  0.00     0.037 A 
ATOM     48  C   UNL A   1      44.017  24.800  27.015  1.00  0.00     0.037 A 
ATOM     49  C   UNL A   1      47.240  30.410  27.796  1.00  0.00     0.049 A 
ATOM     50  C   UNL A   1      45.465  25.179  26.874  1.00  0.00     0.074 A 
ATOM     51  C   UNL A   1      48.607  30.622  27.726  1.00  0.00     0.029 A 
ATOM     52  N   UNL A   1      47.031  29.067  27.512  1.00  0.00    -0.354 N 
ATOM     53  N   UNL A   1      46.033  26.344  27.077  1.00  0.00    -0.248 NA
ATOM     54  C   UNL A   1      46.395  24.119  26.458  1.00  0.00     0.031 C 
ATOM     55  C   UNL A   1      49.218  29.422  27.351  1.00  0.00     0.029 A 
ATOM     56  C   UNL A   1      48.239  28.448  27.233  1.00  0.00     0.049 A 
ATOM     57  H   UNL A   1      46.154  28.622  27.510  1.00  0.00     0.167 HD
ATOM     58  C   UNL A   1      47.386  26.155  26.825  1.00  0.00     0.074 A 
ATOM     59  C   UNL A   1      47.557  24.760  26.474  1.00  0.00     0.031 C 
ATOM     60  C   UNL A   1      48.396  27.059  26.878  1.00  0.00     0.037 A 
BRANCH  47  61
ATOM     61  C   UNL A   1      46.606  32.796  28.311  1.00  0.00     0.058 A 
ATOM     62  C   UNL A   1      47.033  33.242  29.571  1.00  0.00     0.135 A 
ATOM     63  C   UNL A   1      46.652  33.708  27.243  1.00  0.00     0.135 A 
ATOM     64  F   UNL A   1      47.001  32.415  30.628  1.00  0.00    -0.206 F 
ATOM     65  C   UNL A   1      47.477  34.545  29.769  1.00  0.00     0.059 A 
ATOM     66  C   UNL A   1      47.115  35.010  27.414  1.00  0.00     0.059 A 
ATOM     67  F   UNL A   1      46.258  33.333  26.017  1.00  0.00    -0.206 F 
ATOM     68  C   UNL A   1      47.518  35.422  28.684  1.00  0.00     0.060 A 
BRANCH  68  69
ATOM     69  S   UNL A   1      48.118  37.101  28.961  1.00  0.00     0.124 S 
ATOM     70  O   UNL A   1      49.044  37.267  27.845  1.00  0.00    -0.237 OA
ATOM     71  O   UNL A   1      46.890  37.886  28.886  1.00  0.00    -0.237 OA
ATOM     72  O   UNL A   1      48.736  37.030  30.281  1.00  0.00    -0.744 OA
ENDBRANCH  68  69
ENDBRANCH  47  61
BRANCH  48  73
ATOM     73  C   UNL A   1      43.569  23.399  26.807  1.00  0.00     0.058 A 
ATOM     74  C   UNL A   1      43.459  22.861  25.517  1.00  0.00     0.135 A 
ATOM     75  C   UNL A   1      43.270  22.560  27.893  1.00  0.00     0.135 A 
ATOM     76  F   UNL A   1      43.729  23.625  24.447  1.00  0.00    -0.206 F 
ATOM     77  C   UNL A   1      43.061  21.545  25.308  1.00  0.00     0.059 A 
ATOM     78  C   UNL A   1      42.894  21.234  27.710  1.00  0.00     0.059 A 
ATOM     79  F   UNL A   1      43.375  23.023  29.149  1.00  0.00    -0.206 F 
ATOM     80  C   UNL A   1      42.785  20.737  26.412  1.00  0.00     0.060 A 
BRANCH  80  81
ATOM     81  S   UNL A   1      42.318  19.017  26.128  1.00  0.00     0.124 S 
ATOM     82  O   UNL A   1      42.601  18.416  27.427  1.00  0.00    -0.237 OA
ATOM     83  O   UNL A   1      40.907  19.138  25.775  1.00  0.00    -0.237 OA
ATOM     84  O   UNL A   1      43.196  18.605  25.037  1.00  0.00    -0.744 OA
ENDBRANCH  80  81
ENDBRANCH  48  73
BRANCH  60  85
ATOM     85  C   UNL A   1      49.781  26.582  26.539  1.00  0.00     0.058 A 
ATOM     86  C   UNL A   1      50.626  26.045  27.522  1.00  0.00     0.135 A 
ATOM     87  C   UNL A   1      50.231  26.574  25.209  1.00  0.00     0.135 A 
ATOM     88  F   UNL A   1      50.248  26.038  28.809  1.00  0.00    -0.206 F 
ATOM     89  C   UNL A   1      51.872  25.516  27.197  1.00  0.00     0.059 A 
ATOM     90  C   UNL A   1      51.463  26.028  24.858  1.00  0.00     0.059 A 
ATOM     91  F   UNL A   1      49.458  27.071  24.230  1.00  0.00    -0.206 F 
ATOM     92  C   UNL A   1      52.277  25.502  25.861  1.00  0.00     0.060 A 
BRANCH  92  93
ATOM     93  S   UNL A   1      53.864  24.745  25.450  1.00  0.00     0.124 S 
ATOM     94  O   UNL A   1      53.461  23.390  25.088  1.00  0.00    -0.237 OA
ATOM     95  O   UNL A   1      54.331  25.582  24.348  1.00  0.00    -0.237 OA
ATOM     96  O   UNL A   1      54.629  24.862  26.688  1.00  0.00    -0.744 OA
ENDBRANCH  92  93
ENDBRANCH  60  85
ENDBRANCH  34  35
ENDBRANCH  27  29
ENDBRANCH  26  27
ENDBRANCH  25  26
ENDBRANCH   1  25
TORSDOF 18
ENDMDL
MODEL 3
REMARK VINA RESULT:     -11.1      4.910     10.074
REMARK SMILES Cc1ccc2c(c1)OCCN2c1sc(C(=O)OCCOCCOC(=O)c2ccc(-c3c4nc(c(-c5c(F)cc(S(=O)(=O)[O-])cc5F)c5ccc([nH]5)c(-c5c(F)cc(S(=O)(=O)[O-])cc5F)c5nc(c(-c6c(F)cc(S(=O)(=O)[O-])cc6F)c6ccc3[nH]6)C=C5)C=C4)cc2)cc1C
REMARK SMILES IDX 21 1 20 2 19 3 18 4 17 5 15 6 16 7 14 8 12 9 13 10 93 11
REMARK SMILES IDX 92 12 94 13 11 14 1 15 2 16 3 17 7 18 4 19 6 20 5 21 8 22
REMARK SMILES IDX 9 23 10 24 22 25 23 26 24 27 25 28 26 29 27 30 91 31 28 32
REMARK SMILES IDX 90 33 29 34 30 35 31 36 84 37 32 38 89 39 83 40 85 41 33 42
REMARK SMILES IDX 88 43 82 44 81 45 34 47 68 48 47 49 67 50 48 51 51 52 66 53
REMARK SMILES IDX 86 54 49 55 50 56 65 58 87 59 52 60 35 61 36 62 45 63 37 64
REMARK SMILES IDX 38 65 44 66 46 67 39 68 40 69 41 70 42 71 43 72 69 73 70 74
REMARK SMILES IDX 79 75 71 76 72 77 78 78 80 79 73 80 74 81 75 82 76 83 77 84
REMARK SMILES IDX 53 85 54 86 63 87 55 88 56 89 62 90 64 91 57 92 58 93 59 94
REMARK SMILES IDX 60 95 61 96
REMARK H PARENT 85 46 51 57
REMARK Flexibility Score: inf
ROOT
ATOM      1  C   UNL A   1      32.937  27.759  26.181  1.00  0.00     0.202 C 
ENDROOT
BRANCH   1   2
ATOM      2  O   UNL A   1      33.852  27.564  25.100  1.00  0.00    -0.374 OA
BRANCH   2   3
ATOM      3  C   UNL A   1      33.590  28.271  23.887  1.00  0.00     0.202 C 
BRANCH   3   4
ATOM      4  C   UNL A   1      32.146  28.739  23.674  1.00  0.00     0.261 C 
BRANCH   4   5
ATOM      5  O   UNL A   1      31.430  27.852  22.804  1.00  0.00    -0.459 OA
BRANCH   5   6
ATOM      6  C   UNL A   1      30.392  27.191  23.390  1.00  0.00     0.348 C 
ATOM      7  O   UNL A   1      29.247  27.623  23.469  1.00  0.00    -0.245 OA
BRANCH   6   8
ATOM      8  C   UNL A   1      30.767  25.852  23.799  1.00  0.00     0.114 A 
ATOM      9  C   UNL A   1      31.935  23.692  24.162  1.00  0.00     0.099 A 
ATOM     10  S   UNL A   1      31.609  24.748  22.822  1.00  0.00    -0.110 S 
ATOM     11  C   UNL A   1      31.082  24.008  25.219  1.00  0.00    -0.015 A 
ATOM     12  C   UNL A   1      30.452  25.277  25.010  1.00  0.00     0.033 A 
ATOM     13  C   UNL A   1      30.885  23.264  26.497  1.00  0.00     0.047 C 
BRANCH   9  14
ATOM     14  N   UNL A   1      32.879  22.700  24.106  1.00  0.00    -0.327 N 
ATOM     15  C   UNL A   1      38.272  23.036  26.154  1.00  0.00     0.044 C 
ATOM     16  C   UNL A   1      36.889  22.942  25.586  1.00  0.00    -0.047 A 
ATOM     17  C   UNL A   1      36.166  24.099  25.307  1.00  0.00     0.006 A 
ATOM     18  C   UNL A   1      36.270  21.705  25.391  1.00  0.00     0.052 A 
ATOM     19  C   UNL A   1      34.853  24.023  24.830  1.00  0.00     0.030 A 
ATOM     20  C   UNL A   1      34.958  21.632  24.904  1.00  0.00     0.143 A 
ATOM     21  C   UNL A   1      34.216  22.795  24.593  1.00  0.00     0.085 A 
ATOM     22  O   UNL A   1      34.462  20.352  24.775  1.00  0.00    -0.490 OA
ATOM     23  C   UNL A   1      33.036  20.336  24.688  1.00  0.00     0.251 C 
ATOM     24  C   UNL A   1      32.534  21.348  23.662  1.00  0.00     0.165 C 
ENDBRANCH   9  14
ENDBRANCH   6   8
ENDBRANCH   5   6
ENDBRANCH   4   5
ENDBRANCH   3   4
ENDBRANCH   2   3
ENDBRANCH   1   2
BRANCH   1  25
ATOM     25  C   UNL A   1      33.430  28.604  27.361  1.00  0.00     0.261 C 
BRANCH  25  26
ATOM     26  O   UNL A   1      33.936  29.878  26.927  1.00  0.00    -0.460 OA
BRANCH  26  27
ATOM     27  C   UNL A   1      34.539  30.619  27.888  1.00  0.00     0.338 C 
ATOM     28  O   UNL A   1      34.017  31.467  28.595  1.00  0.00    -0.246 OA
BRANCH  27  29
ATOM     29  C   UNL A   1      35.912  30.115  28.108  1.00  0.00     0.060 A 
ATOM     30  C   UNL A   1      36.859  30.082  27.082  1.00  0.00     0.016 A 
ATOM     31  C   UNL A   1      36.247  29.676  29.396  1.00  0.00     0.016 A 
ATOM     32  C   UNL A   1      38.154  29.637  27.360  1.00  0.00     0.010 A 
ATOM     33  C   UNL A   1      37.543  29.235  29.671  1.00  0.00     0.010 A 
ATOM     34  C   UNL A   1      38.512  29.229  28.659  1.00  0.00    -0.014 A 
BRANCH  34  35
ATOM     35  C   UNL A   1      39.927  28.914  28.973  1.00  0.00     0.031 A 
ATOM     36  C   UNL A   1      40.518  27.570  28.670  1.00  0.00     0.074 A 
ATOM     37  C   UNL A   1      40.681  29.871  29.550  1.00  0.00     0.049 A 
ATOM     38  N   UNL A   1      41.759  27.176  28.787  1.00  0.00    -0.248 NA
ATOM     39  C   UNL A   1      39.600  26.531  28.179  1.00  0.00     0.031 C 
ATOM     40  C   UNL A   1      40.198  31.197  29.941  1.00  0.00     0.029 A 
ATOM     41  N   UNL A   1      42.008  29.884  29.897  1.00  0.00    -0.354 N 
ATOM     42  C   UNL A   1      41.783  25.854  28.361  1.00  0.00     0.074 A 
ATOM     43  C   UNL A   1      40.419  25.495  28.035  1.00  0.00     0.031 C 
ATOM     44  C   UNL A   1      41.221  31.907  30.440  1.00  0.00     0.029 A 
ATOM     45  C   UNL A   1      42.428  31.083  30.423  1.00  0.00     0.049 A 
ATOM     46  H   UNL A   1      42.604  29.109  29.779  1.00  0.00     0.167 HD
ATOM     47  C   UNL A   1      42.850  25.029  28.232  1.00  0.00     0.037 A 
ATOM     48  C   UNL A   1      43.646  31.480  30.836  1.00  0.00     0.037 A 
ATOM     49  C   UNL A   1      44.203  25.396  28.568  1.00  0.00     0.049 A 
ATOM     50  C   UNL A   1      44.808  30.533  30.713  1.00  0.00     0.074 A 
ATOM     51  C   UNL A   1      45.358  24.647  28.419  1.00  0.00     0.029 A 
ATOM     52  N   UNL A   1      44.583  26.605  29.133  1.00  0.00    -0.354 N 
ATOM     53  N   UNL A   1      44.830  29.320  30.216  1.00  0.00    -0.248 NA
ATOM     54  C   UNL A   1      46.110  31.007  31.205  1.00  0.00     0.031 C 
ATOM     55  C   UNL A   1      46.428  25.381  28.939  1.00  0.00     0.029 A 
ATOM     56  C   UNL A   1      45.949  26.608  29.370  1.00  0.00     0.049 A 
ATOM     57  H   UNL A   1      43.973  27.350  29.335  1.00  0.00     0.167 HD
ATOM     58  C   UNL A   1      46.147  28.889  30.323  1.00  0.00     0.074 A 
ATOM     59  C   UNL A   1      46.897  29.979  30.915  1.00  0.00     0.031 C 
ATOM     60  C   UNL A   1      46.684  27.697  29.966  1.00  0.00     0.037 A 
BRANCH  47  61
ATOM     61  C   UNL A   1      42.612  23.649  27.684  1.00  0.00     0.058 A 
ATOM     62  C   UNL A   1      42.613  23.407  26.302  1.00  0.00     0.135 A 
ATOM     63  C   UNL A   1      42.469  22.546  28.542  1.00  0.00     0.135 A 
ATOM     64  F   UNL A   1      42.737  24.426  25.436  1.00  0.00    -0.206 F 
ATOM     65  C   UNL A   1      42.466  22.123  25.788  1.00  0.00     0.059 A 
ATOM     66  C   UNL A   1      42.343  21.250  28.051  1.00  0.00     0.059 A 
ATOM     67  F   UNL A   1      42.465  22.722  29.872  1.00  0.00    -0.206 F 
ATOM     68  C   UNL A   1      42.335  21.049  26.671  1.00  0.00     0.060 A 
BRANCH  68  69
ATOM     69  S   UNL A   1      42.167  19.390  25.982  1.00  0.00     0.124 S 
ATOM     70  O   UNL A   1      42.666  18.567  27.080  1.00  0.00    -0.237 OA
ATOM     71  O   UNL A   1      40.732  19.302  25.729  1.00  0.00    -0.237 OA
ATOM     72  O   UNL A   1      43.011  19.425  24.792  1.00  0.00    -0.744 OA
ENDBRANCH  68  69
ENDBRANCH  47  61
BRANCH  48  73
ATOM     73  C   UNL A   1      43.831  32.854  31.370  1.00  0.00     0.058 A 
ATOM     74  C   UNL A   1      44.163  33.919  30.520  1.00  0.00     0.135 A 
ATOM     75  C   UNL A   1      43.651  33.136  32.734  1.00  0.00     0.135 A 
ATOM     76  F   UNL A   1      44.350  33.698  29.211  1.00  0.00    -0.206 F 
ATOM     77  C   UNL A   1      44.318  35.214  31.003  1.00  0.00     0.059 A 
ATOM     78  C   UNL A   1      43.777  34.427  33.236  1.00  0.00     0.059 A 
ATOM     79  F   UNL A   1      43.317  32.154  33.585  1.00  0.00    -0.206 F 
ATOM     80  C   UNL A   1      44.118  35.459  32.363  1.00  0.00     0.060 A 
BRANCH  80  81
ATOM     81  S   UNL A   1      44.274  37.153  32.967  1.00  0.00     0.124 S 
ATOM     82  O   UNL A   1      43.053  37.300  33.751  1.00  0.00    -0.237 OA
ATOM     83  O   UNL A   1      45.518  37.092  33.728  1.00  0.00    -0.237 OA
ATOM     84  O   UNL A   1      44.337  37.944  31.741  1.00  0.00    -0.744 OA
ENDBRANCH  80  81
ENDBRANCH  48  73
BRANCH  60  85
ATOM     85  C   UNL A   1      48.153  27.490  30.211  1.00  0.00     0.058 A 
ATOM     86  C   UNL A   1      48.611  26.762  31.320  1.00  0.00     0.135 A 
ATOM     87  C   UNL A   1      49.105  27.940  29.281  1.00  0.00     0.135 A 
ATOM     88  F   UNL A   1      47.743  26.320  32.243  1.00  0.00    -0.206 F 
ATOM     89  C   UNL A   1      49.963  26.488  31.499  1.00  0.00     0.059 A 
ATOM     90  C   UNL A   1      50.460  27.656  29.428  1.00  0.00     0.059 A 
ATOM     91  F   UNL A   1      48.719  28.636  28.200  1.00  0.00    -0.206 F 
ATOM     92  C   UNL A   1      50.879  26.929  30.542  1.00  0.00     0.060 A 
BRANCH  92  93
ATOM     93  S   UNL A   1      52.620  26.499  30.754  1.00  0.00     0.124 S 
ATOM     94  O   UNL A   1      53.042  26.285  29.374  1.00  0.00    -0.237 OA
ATOM     95  O   UNL A   1      53.158  27.692  31.402  1.00  0.00    -0.237 OA
ATOM     96  O   UNL A   1      52.578  25.303  31.590  1.00  0.00    -0.744 OA
ENDBRANCH  92  93
ENDBRANCH  60  85
ENDBRANCH  34  35
ENDBRANCH  27  29
ENDBRANCH  26  27
ENDBRANCH  25  26
ENDBRANCH   1  25
TORSDOF 18
ENDMDL
