MODEL 1
REMARK VINA RESULT:     -10.7      0.000      0.000
REMARK SMILES O=C(N[C@@H](Cc1c[nH]c2ccccc12)C(=O)N[C@@H](CO)C(=O)OCCOCCOC(=O)c1ccc(-c2c3nc(c(-c4c(F)cc(S(=O)(=O)[O-])cc4F)c4ccc([nH]4)c(-c4c(F)cc(S(=O)(=O)[O-])cc4F)c4nc(c(-c5c(F)cc(S(=O)(=O)[O-])cc5F)c5ccc2[nH]5)C=C4)C=C3)cc1)c1ccc(F)cc1
REMARK SMILES IDX 25 1 24 2 23 3 21 4 22 5 18 6 17 7 15 8 16 9 4 11 3 12 1 13
REMARK SMILES IDX 2 14 98 16 99 17 104 18 100 19 103 20 101 21 102 22 5 23
REMARK SMILES IDX 6 24 7 25 14 26 8 27 9 28 13 29 10 31 12 32 11 33 19 34
REMARK SMILES IDX 20 35 26 37 27 38 28 39 29 40 30 41 31 42 32 43 33 44 97 45
REMARK SMILES IDX 34 46 96 47 35 48 36 49 37 50 90 51 38 52 95 53 89 54 91 55
REMARK SMILES IDX 39 56 94 57 88 58 87 59 40 61 74 62 53 63 73 64 54 65 57 66
REMARK SMILES IDX 72 67 92 68 55 69 56 70 71 72 93 73 58 74 41 75 42 76 51 77
REMARK SMILES IDX 43 78 44 79 50 80 52 81 45 82 46 83 47 84 48 85 49 86 75 87
REMARK SMILES IDX 76 88 85 89 77 90 78 91 84 92 86 93 79 94 80 95 81 96 82 97
REMARK SMILES IDX 83 98 59 99 60 100 69 101 61 102 62 103 68 104 70 105 63 106
REMARK SMILES IDX 64 107 65 108 66 109 67 110
REMARK H PARENT 17 10 3 15 8 30 20 36 91 60 57 71
REMARK Flexibility Score: inf
ROOT
ATOM      1  C   UNL A   1      36.342  18.250  24.586  1.00  0.00     0.202 C 
ENDROOT
BRANCH   1   2
ATOM      2  C   UNL A   1      35.048  17.433  24.659  1.00  0.00     0.261 C 
BRANCH   2   3
ATOM      3  O   UNL A   1      33.986  18.048  23.903  1.00  0.00    -0.462 OA
BRANCH   3   4
ATOM      4  C   UNL A   1      32.831  18.263  24.597  1.00  0.00     0.331 C 
ATOM      5  O   UNL A   1      32.056  17.374  24.942  1.00  0.00    -0.250 OA
BRANCH   4   6
ATOM      6  C   UNL A   1      32.604  19.756  24.942  1.00  0.00     0.218 C 
BRANCH   6   7
ATOM      7  N   UNL A   1      33.638  20.319  25.826  1.00  0.00    -0.339 N 
ATOM      8  C   UNL A   1      33.756  21.455  26.565  1.00  0.00     0.243 C 
ATOM      9  O   UNL A   1      34.651  21.419  27.424  1.00  0.00    -0.273 OA
ATOM     10  H   UNL A   1      34.429  19.737  25.900  1.00  0.00     0.164 HD
BRANCH   8  11
ATOM     11  C   UNL A   1      32.886  22.754  26.486  1.00  0.00     0.176 C 
BRANCH  11  12
ATOM     12  N   UNL A   1      31.550  22.684  27.078  1.00  0.00    -0.340 N 
ATOM     13  O   UNL A   1      29.438  23.298  27.520  1.00  0.00    -0.269 OA
ATOM     14  C   UNL A   1      30.420  23.408  26.790  1.00  0.00     0.251 C 
ATOM     15  H   UNL A   1      31.445  22.016  27.793  1.00  0.00     0.164 HD
BRANCH  14  16
ATOM     16  C   UNL A   1      30.358  24.362  25.655  1.00  0.00     0.040 A 
ATOM     17  C   UNL A   1      30.075  25.722  25.835  1.00  0.00     0.017 A 
ATOM     18  C   UNL A   1      30.691  23.882  24.379  1.00  0.00     0.017 A 
ATOM     19  C   UNL A   1      30.074  26.583  24.734  1.00  0.00     0.040 A 
ATOM     20  C   UNL A   1      30.698  24.748  23.282  1.00  0.00     0.040 A 
ATOM     21  C   UNL A   1      30.383  26.090  23.469  1.00  0.00     0.123 A 
ATOM     22  F   UNL A   1      30.389  26.920  22.418  1.00  0.00    -0.207 F 
ENDBRANCH  14  16
ENDBRANCH  11  12
BRANCH  11  23
ATOM     23  C   UNL A   1      33.607  24.121  26.705  1.00  0.00     0.072 C 
BRANCH  23  24
ATOM     24  C   UNL A   1      33.822  25.034  25.525  1.00  0.00    -0.020 A 
ATOM     25  C   UNL A   1      34.319  24.686  24.295  1.00  0.00     0.087 A 
ATOM     26  C   UNL A   1      33.621  26.469  25.439  1.00  0.00     0.003 A 
ATOM     27  N   UNL A   1      34.141  25.708  23.413  1.00  0.00    -0.361 N 
ATOM     28  C   UNL A   1      33.802  26.837  24.100  1.00  0.00     0.046 A 
ATOM     29  C   UNL A   1      33.306  27.502  26.350  1.00  0.00     0.010 A 
ATOM     30  H   UNL A   1      34.240  25.643  22.435  1.00  0.00     0.166 HD
ATOM     31  C   UNL A   1      33.657  28.138  23.616  1.00  0.00     0.026 A 
ATOM     32  C   UNL A   1      33.201  28.828  25.887  1.00  0.00     0.001 A 
ATOM     33  C   UNL A   1      33.363  29.136  24.538  1.00  0.00     0.002 A 
ENDBRANCH  23  24
ENDBRANCH  11  23
ENDBRANCH   8  11
ENDBRANCH   6   7
BRANCH   6  34
ATOM     34  C   UNL A   1      32.474  20.514  23.615  1.00  0.00     0.193 C 
BRANCH  34  35
ATOM     35  O   UNL A   1      31.913  19.680  22.609  1.00  0.00    -0.394 OA
ATOM     36  H   UNL A   1      32.179  18.760  22.765  1.00  0.00     0.210 HD
ENDBRANCH  34  35
ENDBRANCH   6  34
ENDBRANCH   4   6
ENDBRANCH   3   4
ENDBRANCH   2   3
ENDBRANCH   1   2
BRANCH   1  37
ATOM     37  O   UNL A   1      36.215  19.651  24.843  1.00  0.00    -0.374 OA
BRANCH  37  38
ATOM     38  C   UNL A   1      37.404  20.356  25.188  1.00  0.00     0.202 C 
BRANCH  38  39
ATOM     39  C   UNL A   1      37.475  21.821  24.751  1.00  0.00     0.261 C 
BRANCH  39  40
ATOM     40  O   UNL A   1      37.727  22.696  25.858  1.00  0.00    -0.460 OA
BRANCH  40  41
ATOM     41  C   UNL A   1      39.042  22.871  26.128  1.00  0.00     0.338 C 
ATOM     42  O   UNL A   1      39.976  22.189  25.737  1.00  0.00    -0.246 OA
BRANCH  41  43
ATOM     43  C   UNL A   1      39.243  24.150  26.828  1.00  0.00     0.060 A 
ATOM     44  C   UNL A   1      40.100  25.071  26.216  1.00  0.00     0.016 A 
ATOM     45  C   UNL A   1      38.666  24.425  28.071  1.00  0.00     0.016 A 
ATOM     46  C   UNL A   1      40.441  26.243  26.877  1.00  0.00     0.010 A 
ATOM     47  C   UNL A   1      39.016  25.605  28.738  1.00  0.00     0.010 A 
ATOM     48  C   UNL A   1      39.940  26.494  28.161  1.00  0.00    -0.014 A 
BRANCH  48  49
ATOM     49  C   UNL A   1      40.536  27.608  28.935  1.00  0.00     0.031 A 
ATOM     50  C   UNL A   1      39.714  28.845  29.170  1.00  0.00     0.074 A 
ATOM     51  C   UNL A   1      41.744  27.467  29.507  1.00  0.00     0.049 A 
ATOM     52  N   UNL A   1      39.974  29.882  29.923  1.00  0.00    -0.248 NA
ATOM     53  C   UNL A   1      38.422  28.920  28.469  1.00  0.00     0.031 C 
ATOM     54  C   UNL A   1      42.615  26.302  29.365  1.00  0.00     0.029 A 
ATOM     55  N   UNL A   1      42.438  28.307  30.340  1.00  0.00    -0.354 N 
ATOM     56  C   UNL A   1      38.876  30.726  29.797  1.00  0.00     0.074 A 
ATOM     57  C   UNL A   1      37.965  30.100  28.865  1.00  0.00     0.031 C 
ATOM     58  C   UNL A   1      43.726  26.497  30.096  1.00  0.00     0.029 A 
ATOM     59  C   UNL A   1      43.647  27.802  30.749  1.00  0.00     0.049 A 
ATOM     60  H   UNL A   1      42.099  29.189  30.620  1.00  0.00     0.167 HD
ATOM     61  C   UNL A   1      38.642  31.907  30.416  1.00  0.00     0.037 A 
ATOM     62  C   UNL A   1      44.581  28.333  31.563  1.00  0.00     0.037 A 
ATOM     63  C   UNL A   1      39.558  32.528  31.337  1.00  0.00     0.049 A 
ATOM     64  C   UNL A   1      44.313  29.664  32.212  1.00  0.00     0.074 A 
ATOM     65  C   UNL A   1      39.419  33.721  32.023  1.00  0.00     0.029 A 
ATOM     66  N   UNL A   1      40.792  32.003  31.698  1.00  0.00    -0.354 N 
ATOM     67  N   UNL A   1      43.257  30.437  32.107  1.00  0.00    -0.248 NA
ATOM     68  C   UNL A   1      45.355  30.188  33.104  1.00  0.00     0.031 C 
ATOM     69  C   UNL A   1      40.585  33.939  32.766  1.00  0.00     0.029 A 
ATOM     70  C   UNL A   1      41.432  32.858  32.580  1.00  0.00     0.049 A 
ATOM     71  H   UNL A   1      41.159  31.149  31.373  1.00  0.00     0.167 HD
ATOM     72  C   UNL A   1      43.500  31.529  32.935  1.00  0.00     0.074 A 
ATOM     73  C   UNL A   1      44.794  31.304  33.548  1.00  0.00     0.031 C 
ATOM     74  C   UNL A   1      42.726  32.618  33.169  1.00  0.00     0.037 A 
BRANCH  61  75
ATOM     75  C   UNL A   1      37.353  32.612  30.098  1.00  0.00     0.058 A 
ATOM     76  C   UNL A   1      37.288  33.631  29.133  1.00  0.00     0.135 A 
ATOM     77  C   UNL A   1      36.164  32.254  30.753  1.00  0.00     0.135 A 
ATOM     78  F   UNL A   1      38.398  34.027  28.491  1.00  0.00    -0.206 F 
ATOM     79  C   UNL A   1      36.094  34.287  28.848  1.00  0.00     0.059 A 
ATOM     80  C   UNL A   1      34.954  32.880  30.465  1.00  0.00     0.059 A 
ATOM     81  F   UNL A   1      36.171  31.290  31.687  1.00  0.00    -0.206 F 
ATOM     82  C   UNL A   1      34.932  33.905  29.521  1.00  0.00     0.060 A 
BRANCH  82  83
ATOM     83  S   UNL A   1      33.389  34.762  29.141  1.00  0.00     0.124 S 
ATOM     84  O   UNL A   1      33.883  35.995  28.534  1.00  0.00    -0.237 OA
ATOM     85  O   UNL A   1      32.728  33.830  28.233  1.00  0.00    -0.237 OA
ATOM     86  O   UNL A   1      32.755  34.916  30.446  1.00  0.00    -0.744 OA
ENDBRANCH  82  83
ENDBRANCH  61  75
BRANCH  62  87
ATOM     87  C   UNL A   1      45.848  27.598  31.816  1.00  0.00     0.058 A 
ATOM     88  C   UNL A   1      45.934  26.614  32.812  1.00  0.00     0.135 A 
ATOM     89  C   UNL A   1      47.000  27.864  31.060  1.00  0.00     0.135 A 
ATOM     90  F   UNL A   1      44.862  26.328  33.567  1.00  0.00    -0.206 F 
ATOM     91  C   UNL A   1      47.120  25.929  33.059  1.00  0.00     0.059 A 
ATOM     92  C   UNL A   1      48.190  27.176  31.272  1.00  0.00     0.059 A 
ATOM     93  F   UNL A   1      46.967  28.790  30.088  1.00  0.00    -0.206 F 
ATOM     94  C   UNL A   1      48.243  26.216  32.281  1.00  0.00     0.060 A 
BRANCH  94  95
ATOM     95  S   UNL A   1      49.763  25.286  32.571  1.00  0.00     0.124 S 
ATOM     96  O   UNL A   1      49.297  24.230  33.461  1.00  0.00    -0.237 OA
ATOM     97  O   UNL A   1      50.133  24.870  31.222  1.00  0.00    -0.237 OA
ATOM     98  O   UNL A   1      50.650  26.276  33.176  1.00  0.00    -0.744 OA
ENDBRANCH  94  95
ENDBRANCH  62  87
BRANCH  74  99
ATOM     99  C   UNL A   1      43.257  33.634  34.143  1.00  0.00     0.058 A 
ATOM    100  C   UNL A   1      43.033  33.518  35.524  1.00  0.00     0.135 A 
ATOM    101  C   UNL A   1      44.003  34.734  33.689  1.00  0.00     0.135 A 
ATOM    102  F   UNL A   1      42.326  32.486  36.010  1.00  0.00    -0.206 F 
ATOM    103  C   UNL A   1      43.487  34.484  36.417  1.00  0.00     0.059 A 
ATOM    104  C   UNL A   1      44.491  35.696  34.567  1.00  0.00     0.059 A 
ATOM    105  F   UNL A   1      44.262  34.882  32.380  1.00  0.00    -0.206 F 
ATOM    106  C   UNL A   1      44.207  35.575  35.927  1.00  0.00     0.060 A 
BRANCH 106 107
ATOM    107  S   UNL A   1      44.777  36.833  37.089  1.00  0.00     0.124 S 
ATOM    108  O   UNL A   1      44.341  38.059  36.427  1.00  0.00    -0.237 OA
ATOM    109  O   UNL A   1      44.060  36.484  38.311  1.00  0.00    -0.237 OA
ATOM    110  O   UNL A   1      46.221  36.621  37.135  1.00  0.00    -0.744 OA
ENDBRANCH 106 107
ENDBRANCH  74  99
ENDBRANCH  48  49
ENDBRANCH  41  43
ENDBRANCH  40  41
ENDBRANCH  39  40
ENDBRANCH  38  39
ENDBRANCH  37  38
ENDBRANCH   1  37
TORSDOF 25
ENDMDL
MODEL 2
REMARK VINA RESULT:      -9.7      2.974      8.098
REMARK SMILES O=C(N[C@@H](Cc1c[nH]c2ccccc12)C(=O)N[C@@H](CO)C(=O)OCCOCCOC(=O)c1ccc(-c2c3nc(c(-c4c(F)cc(S(=O)(=O)[O-])cc4F)c4ccc([nH]4)c(-c4c(F)cc(S(=O)(=O)[O-])cc4F)c4nc(c(-c5c(F)cc(S(=O)(=O)[O-])cc5F)c5ccc2[nH]5)C=C4)C=C3)cc1)c1ccc(F)cc1
REMARK SMILES IDX 25 1 24 2 23 3 21 4 22 5 18 6 17 7 15 8 16 9 4 11 3 12 1 13
REMARK SMILES IDX 2 14 98 16 99 17 104 18 100 19 103 20 101 21 102 22 5 23
REMARK SMILES IDX 6 24 7 25 14 26 8 27 9 28 13 29 10 31 12 32 11 33 19 34
REMARK SMILES IDX 20 35 26 37 27 38 28 39 29 40 30 41 31 42 32 43 33 44 97 45
REMARK SMILES IDX 34 46 96 47 35 48 36 49 37 50 90 51 38 52 95 53 89 54 91 55
REMARK SMILES IDX 39 56 94 57 88 58 87 59 40 61 74 62 53 63 73 64 54 65 57 66
REMARK SMILES IDX 72 67 92 68 55 69 56 70 71 72 93 73 58 74 41 75 42 76 51 77
REMARK SMILES IDX 43 78 44 79 50 80 52 81 45 82 46 83 47 84 48 85 49 86 75 87
REMARK SMILES IDX 76 88 85 89 77 90 78 91 84 92 86 93 79 94 80 95 81 96 82 97
REMARK SMILES IDX 83 98 59 99 60 100 69 101 61 102 62 103 68 104 70 105 63 106
REMARK SMILES IDX 64 107 65 108 66 109 67 110
REMARK H PARENT 17 10 3 15 8 30 20 36 91 60 57 71
REMARK Flexibility Score: inf
ROOT
ATOM      1  C   UNL A   1      36.074  18.445  24.532  1.00  0.00     0.202 C 
ENDROOT
BRANCH   1   2
ATOM      2  C   UNL A   1      34.641  17.909  24.618  1.00  0.00     0.261 C 
BRANCH   2   3
ATOM      3  O   UNL A   1      33.685  18.862  24.111  1.00  0.00    -0.462 OA
BRANCH   3   4
ATOM      4  C   UNL A   1      32.686  19.197  24.977  1.00  0.00     0.331 C 
ATOM      5  O   UNL A   1      32.168  18.415  25.772  1.00  0.00    -0.250 OA
BRANCH   4   6
ATOM      6  C   UNL A   1      32.282  20.690  24.883  1.00  0.00     0.218 C 
BRANCH   6   7
ATOM      7  N   UNL A   1      32.357  21.401  26.171  1.00  0.00    -0.339 N 
ATOM      8  C   UNL A   1      32.012  22.643  26.604  1.00  0.00     0.243 C 
ATOM      9  O   UNL A   1      31.945  22.757  27.838  1.00  0.00    -0.273 OA
ATOM     10  H   UNL A   1      32.748  20.847  26.885  1.00  0.00     0.164 HD
BRANCH   8  11
ATOM     11  C   UNL A   1      31.658  23.903  25.745  1.00  0.00     0.176 C 
BRANCH  11  12
ATOM     12  N   UNL A   1      30.684  23.709  24.670  1.00  0.00    -0.340 N 
ATOM     13  O   UNL A   1      29.513  24.183  22.816  1.00  0.00    -0.269 OA
ATOM     14  C   UNL A   1      30.498  24.421  23.511  1.00  0.00     0.251 C 
ATOM     15  H   UNL A   1      30.068  22.952  24.797  1.00  0.00     0.164 HD
BRANCH  14  16
ATOM     16  C   UNL A   1      31.418  25.508  23.093  1.00  0.00     0.040 A 
ATOM     17  C   UNL A   1      31.083  26.862  23.223  1.00  0.00     0.017 A 
ATOM     18  C   UNL A   1      32.696  25.145  22.643  1.00  0.00     0.017 A 
ATOM     19  C   UNL A   1      32.007  27.844  22.853  1.00  0.00     0.040 A 
ATOM     20  C   UNL A   1      33.620  26.130  22.283  1.00  0.00     0.040 A 
ATOM     21  C   UNL A   1      33.264  27.470  22.385  1.00  0.00     0.123 A 
ATOM     22  F   UNL A   1      34.149  28.414  22.041  1.00  0.00    -0.207 F 
ENDBRANCH  14  16
ENDBRANCH  11  12
BRANCH  11  23
ATOM     23  C   UNL A   1      31.521  25.269  26.486  1.00  0.00     0.072 C 
BRANCH  23  24
ATOM     24  C   UNL A   1      32.610  26.299  26.332  1.00  0.00    -0.020 A 
ATOM     25  C   UNL A   1      33.915  26.071  25.972  1.00  0.00     0.087 A 
ATOM     26  C   UNL A   1      32.553  27.726  26.588  1.00  0.00     0.003 A 
ATOM     27  N   UNL A   1      34.536  27.250  25.698  1.00  0.00    -0.361 N 
ATOM     28  C   UNL A   1      33.762  28.279  26.150  1.00  0.00     0.046 A 
ATOM     29  C   UNL A   1      31.608  28.616  27.146  1.00  0.00     0.010 A 
ATOM     30  H   UNL A   1      35.406  27.346  25.246  1.00  0.00     0.166 HD
ATOM     31  C   UNL A   1      34.069  29.640  26.200  1.00  0.00     0.026 A 
ATOM     32  C   UNL A   1      31.918  29.986  27.246  1.00  0.00     0.001 A 
ATOM     33  C   UNL A   1      33.126  30.489  26.768  1.00  0.00     0.002 A 
ENDBRANCH  23  24
ENDBRANCH  11  23
ENDBRANCH   8  11
ENDBRANCH   6   7
BRANCH   6  34
ATOM     34  C   UNL A   1      33.154  21.328  23.796  1.00  0.00     0.193 C 
BRANCH  34  35
ATOM     35  O   UNL A   1      32.364  21.722  22.681  1.00  0.00    -0.394 OA
ATOM     36  H   UNL A   1      31.468  21.361  22.775  1.00  0.00     0.210 HD
ENDBRANCH  34  35
ENDBRANCH   6  34
ENDBRANCH   4   6
ENDBRANCH   3   4
ENDBRANCH   2   3
ENDBRANCH   1   2
BRANCH   1  37
ATOM     37  O   UNL A   1      36.268  19.792  24.971  1.00  0.00    -0.374 OA
BRANCH  37  38
ATOM     38  C   UNL A   1      37.592  20.314  24.889  1.00  0.00     0.202 C 
BRANCH  38  39
ATOM     39  C   UNL A   1      37.724  21.838  24.951  1.00  0.00     0.261 C 
BRANCH  39  40
ATOM     40  O   UNL A   1      38.164  22.283  26.241  1.00  0.00    -0.460 OA
BRANCH  40  41
ATOM     41  C   UNL A   1      39.500  22.487  26.322  1.00  0.00     0.338 C 
ATOM     42  O   UNL A   1      40.384  21.826  25.801  1.00  0.00    -0.246 OA
BRANCH  41  43
ATOM     43  C   UNL A   1      39.769  23.772  26.989  1.00  0.00     0.060 A 
ATOM     44  C   UNL A   1      39.757  24.912  26.178  1.00  0.00     0.016 A 
ATOM     45  C   UNL A   1      40.084  23.862  28.347  1.00  0.00     0.016 A 
ATOM     46  C   UNL A   1      40.128  26.141  26.708  1.00  0.00     0.010 A 
ATOM     47  C   UNL A   1      40.465  25.101  28.878  1.00  0.00     0.010 A 
ATOM     48  C   UNL A   1      40.532  26.233  28.047  1.00  0.00    -0.014 A 
BRANCH  48  49
ATOM     49  C   UNL A   1      41.175  27.490  28.495  1.00  0.00     0.031 A 
ATOM     50  C   UNL A   1      42.654  27.660  28.284  1.00  0.00     0.074 A 
ATOM     51  C   UNL A   1      40.429  28.500  28.976  1.00  0.00     0.049 A 
ATOM     52  N   UNL A   1      43.402  28.716  28.472  1.00  0.00    -0.248 NA
ATOM     53  C   UNL A   1      43.388  26.484  27.789  1.00  0.00     0.031 C 
ATOM     54  C   UNL A   1      38.985  28.452  29.198  1.00  0.00     0.029 A 
ATOM     55  N   UNL A   1      40.785  29.771  29.347  1.00  0.00    -0.354 N 
ATOM     56  C   UNL A   1      44.689  28.338  28.107  1.00  0.00     0.074 A 
ATOM     57  C   UNL A   1      44.629  26.945  27.726  1.00  0.00     0.031 C 
ATOM     58  C   UNL A   1      38.575  29.646  29.658  1.00  0.00     0.029 A 
ATOM     59  C   UNL A   1      39.727  30.537  29.771  1.00  0.00     0.049 A 
ATOM     60  H   UNL A   1      41.711  30.103  29.310  1.00  0.00     0.167 HD
ATOM     61  C   UNL A   1      45.814  29.090  28.077  1.00  0.00     0.037 A 
ATOM     62  C   UNL A   1      39.696  31.815  30.197  1.00  0.00     0.037 A 
ATOM     63  C   UNL A   1      45.867  30.475  28.467  1.00  0.00     0.049 A 
ATOM     64  C   UNL A   1      40.967  32.621  30.187  1.00  0.00     0.074 A 
ATOM     65  C   UNL A   1      46.954  31.331  28.471  1.00  0.00     0.029 A 
ATOM     66  N   UNL A   1      44.781  31.207  28.928  1.00  0.00    -0.354 N 
ATOM     67  N   UNL A   1      42.172  32.259  29.812  1.00  0.00    -0.248 NA
ATOM     68  C   UNL A   1      40.873  34.013  30.644  1.00  0.00     0.031 C 
ATOM     69  C   UNL A   1      46.535  32.568  28.974  1.00  0.00     0.029 A 
ATOM     70  C   UNL A   1      45.177  32.498  29.238  1.00  0.00     0.049 A 
ATOM     71  H   UNL A   1      43.865  30.860  29.021  1.00  0.00     0.167 HD
ATOM     72  C   UNL A   1      42.974  33.386  29.967  1.00  0.00     0.074 A 
ATOM     73  C   UNL A   1      42.112  34.444  30.452  1.00  0.00     0.031 C 
ATOM     74  C   UNL A   1      44.302  33.533  29.731  1.00  0.00     0.037 A 
BRANCH  61  75
ATOM     75  C   UNL A   1      47.082  28.420  27.627  1.00  0.00     0.058 A 
ATOM     76  C   UNL A   1      47.456  28.381  26.273  1.00  0.00     0.135 A 
ATOM     77  C   UNL A   1      47.943  27.822  28.561  1.00  0.00     0.135 A 
ATOM     78  F   UNL A   1      46.660  28.919  25.336  1.00  0.00    -0.206 F 
ATOM     79  C   UNL A   1      48.626  27.751  25.860  1.00  0.00     0.059 A 
ATOM     80  C   UNL A   1      49.131  27.207  28.172  1.00  0.00     0.059 A 
ATOM     81  F   UNL A   1      47.631  27.826  29.866  1.00  0.00    -0.206 F 
ATOM     82  C   UNL A   1      49.457  27.165  26.817  1.00  0.00     0.060 A 
BRANCH  82  83
ATOM     83  S   UNL A   1      50.973  26.353  26.269  1.00  0.00     0.124 S 
ATOM     84  O   UNL A   1      50.901  25.085  26.990  1.00  0.00    -0.237 OA
ATOM     85  O   UNL A   1      50.779  26.271  24.824  1.00  0.00    -0.237 OA
ATOM     86  O   UNL A   1      52.025  27.265  26.706  1.00  0.00    -0.744 OA
ENDBRANCH  82  83
ENDBRANCH  61  75
BRANCH  62  87
ATOM     87  C   UNL A   1      38.414  32.413  30.656  1.00  0.00     0.058 A 
ATOM     88  C   UNL A   1      37.613  33.174  29.791  1.00  0.00     0.135 A 
ATOM     89  C   UNL A   1      37.962  32.228  31.972  1.00  0.00     0.135 A 
ATOM     90  F   UNL A   1      38.005  33.385  28.526  1.00  0.00    -0.206 F 
ATOM     91  C   UNL A   1      36.416  33.741  30.218  1.00  0.00     0.059 A 
ATOM     92  C   UNL A   1      36.758  32.766  32.415  1.00  0.00     0.059 A 
ATOM     93  F   UNL A   1      38.687  31.498  32.835  1.00  0.00    -0.206 F 
ATOM     94  C   UNL A   1      35.997  33.529  31.533  1.00  0.00     0.060 A 
BRANCH  94  95
ATOM     95  S   UNL A   1      34.417  34.225  32.064  1.00  0.00     0.124 S 
ATOM     96  O   UNL A   1      34.847  35.415  32.787  1.00  0.00    -0.237 OA
ATOM     97  O   UNL A   1      33.739  34.459  30.792  1.00  0.00    -0.237 OA
ATOM     98  O   UNL A   1      33.842  33.161  32.883  1.00  0.00    -0.744 OA
ENDBRANCH  94  95
ENDBRANCH  62  87
BRANCH  74  99
ATOM     99  C   UNL A   1      44.889  34.896  29.978  1.00  0.00     0.058 A 
ATOM    100  C   UNL A   1      44.915  35.880  28.978  1.00  0.00     0.135 A 
ATOM    101  C   UNL A   1      45.430  35.221  31.234  1.00  0.00     0.135 A 
ATOM    102  F   UNL A   1      44.413  35.620  27.761  1.00  0.00    -0.206 F 
ATOM    103  C   UNL A   1      45.501  37.123  29.197  1.00  0.00     0.059 A 
ATOM    104  C   UNL A   1      45.995  36.467  31.483  1.00  0.00     0.059 A 
ATOM    105  F   UNL A   1      45.414  34.322  32.231  1.00  0.00    -0.206 F 
ATOM    106  C   UNL A   1      46.047  37.403  30.451  1.00  0.00     0.060 A 
BRANCH 106 107
ATOM    107  S   UNL A   1      46.822  39.011  30.722  1.00  0.00     0.124 S 
ATOM    108  O   UNL A   1      46.137  39.834  29.730  1.00  0.00    -0.237 OA
ATOM    109  O   UNL A   1      46.491  39.291  32.116  1.00  0.00    -0.237 OA
ATOM    110  O   UNL A   1      48.235  38.754  30.460  1.00  0.00    -0.744 OA
ENDBRANCH 106 107
ENDBRANCH  74  99
ENDBRANCH  48  49
ENDBRANCH  41  43
ENDBRANCH  40  41
ENDBRANCH  39  40
ENDBRANCH  38  39
ENDBRANCH  37  38
ENDBRANCH   1  37
TORSDOF 25
ENDMDL
MODEL 3
REMARK VINA RESULT:      -9.4      3.567      8.411
REMARK SMILES O=C(N[C@@H](Cc1c[nH]c2ccccc12)C(=O)N[C@@H](CO)C(=O)OCCOCCOC(=O)c1ccc(-c2c3nc(c(-c4c(F)cc(S(=O)(=O)[O-])cc4F)c4ccc([nH]4)c(-c4c(F)cc(S(=O)(=O)[O-])cc4F)c4nc(c(-c5c(F)cc(S(=O)(=O)[O-])cc5F)c5ccc2[nH]5)C=C4)C=C3)cc1)c1ccc(F)cc1
REMARK SMILES IDX 25 1 24 2 23 3 21 4 22 5 18 6 17 7 15 8 16 9 4 11 3 12 1 13
REMARK SMILES IDX 2 14 98 16 99 17 104 18 100 19 103 20 101 21 102 22 5 23
REMARK SMILES IDX 6 24 7 25 14 26 8 27 9 28 13 29 10 31 12 32 11 33 19 34
REMARK SMILES IDX 20 35 26 37 27 38 28 39 29 40 30 41 31 42 32 43 33 44 97 45
REMARK SMILES IDX 34 46 96 47 35 48 36 49 37 50 90 51 38 52 95 53 89 54 91 55
REMARK SMILES IDX 39 56 94 57 88 58 87 59 40 61 74 62 53 63 73 64 54 65 57 66
REMARK SMILES IDX 72 67 92 68 55 69 56 70 71 72 93 73 58 74 41 75 42 76 51 77
REMARK SMILES IDX 43 78 44 79 50 80 52 81 45 82 46 83 47 84 48 85 49 86 75 87
REMARK SMILES IDX 76 88 85 89 77 90 78 91 84 92 86 93 79 94 80 95 81 96 82 97
REMARK SMILES IDX 83 98 59 99 60 100 69 101 61 102 62 103 68 104 70 105 63 106
REMARK SMILES IDX 64 107 65 108 66 109 67 110
REMARK H PARENT 17 10 3 15 8 30 20 36 91 60 57 71
REMARK Flexibility Score: inf
ROOT
ATOM      1  C   UNL A   1      36.007  18.987  24.627  1.00  0.00     0.202 C 
ENDROOT
BRANCH   1   2
ATOM      2  C   UNL A   1      34.485  18.804  24.618  1.00  0.00     0.261 C 
BRANCH   2   3
ATOM      3  O   UNL A   1      33.802  20.046  24.354  1.00  0.00    -0.462 OA
BRANCH   3   4
ATOM      4  C   UNL A   1      32.761  20.323  25.191  1.00  0.00     0.331 C 
ATOM      5  O   UNL A   1      31.776  19.601  25.333  1.00  0.00    -0.250 OA
BRANCH   4   6
ATOM      6  C   UNL A   1      32.958  21.640  25.983  1.00  0.00     0.218 C 
BRANCH   6   7
ATOM      7  N   UNL A   1      31.700  22.357  26.253  1.00  0.00    -0.339 N 
ATOM      8  C   UNL A   1      31.138  23.512  25.807  1.00  0.00     0.243 C 
ATOM      9  O   UNL A   1      29.923  23.616  26.040  1.00  0.00    -0.273 OA
ATOM     10  H   UNL A   1      31.134  21.891  26.910  1.00  0.00     0.164 HD
BRANCH   8  11
ATOM     11  C   UNL A   1      31.821  24.678  25.016  1.00  0.00     0.176 C 
BRANCH  11  12
ATOM     12  N   UNL A   1      33.265  24.834  25.199  1.00  0.00    -0.340 N 
ATOM     13  O   UNL A   1      35.218  25.894  25.502  1.00  0.00    -0.269 OA
ATOM     14  C   UNL A   1      33.992  25.940  25.561  1.00  0.00     0.251 C 
ATOM     15  H   UNL A   1      33.796  24.022  25.037  1.00  0.00     0.164 HD
BRANCH  14  16
ATOM     16  C   UNL A   1      33.348  27.213  25.972  1.00  0.00     0.040 A 
ATOM     17  C   UNL A   1      33.723  28.450  25.432  1.00  0.00     0.017 A 
ATOM     18  C   UNL A   1      32.265  27.139  26.862  1.00  0.00     0.017 A 
ATOM     19  C   UNL A   1      33.050  29.611  25.824  1.00  0.00     0.040 A 
ATOM     20  C   UNL A   1      31.590  28.301  27.244  1.00  0.00     0.040 A 
ATOM     21  C   UNL A   1      31.993  29.527  26.726  1.00  0.00     0.123 A 
ATOM     22  F   UNL A   1      31.346  30.641  27.092  1.00  0.00    -0.207 F 
ENDBRANCH  14  16
ENDBRANCH  11  12
BRANCH  11  23
ATOM     23  C   UNL A   1      31.332  24.948  23.559  1.00  0.00     0.072 C 
BRANCH  23  24
ATOM     24  C   UNL A   1      30.953  26.351  23.161  1.00  0.00    -0.020 A 
ATOM     25  C   UNL A   1      31.784  27.315  22.648  1.00  0.00     0.087 A 
ATOM     26  C   UNL A   1      29.668  27.014  23.287  1.00  0.00     0.003 A 
ATOM     27  N   UNL A   1      31.052  28.363  22.182  1.00  0.00    -0.361 N 
ATOM     28  C   UNL A   1      29.770  28.250  22.637  1.00  0.00     0.046 A 
ATOM     29  C   UNL A   1      28.425  26.705  23.882  1.00  0.00     0.010 A 
ATOM     30  H   UNL A   1      31.391  29.087  21.607  1.00  0.00     0.166 HD
ATOM     31  C   UNL A   1      28.721  29.164  22.515  1.00  0.00     0.026 A 
ATOM     32  C   UNL A   1      27.369  27.635  23.810  1.00  0.00     0.001 A 
ATOM     33  C   UNL A   1      27.515  28.839  23.125  1.00  0.00     0.002 A 
ENDBRANCH  23  24
ENDBRANCH  11  23
ENDBRANCH   8  11
ENDBRANCH   6   7
BRANCH   6  34
ATOM     34  C   UNL A   1      33.733  21.291  27.259  1.00  0.00     0.193 C 
BRANCH  34  35
ATOM     35  O   UNL A   1      35.100  21.666  27.138  1.00  0.00    -0.394 OA
ATOM     36  H   UNL A   1      35.663  20.892  27.298  1.00  0.00     0.210 HD
ENDBRANCH  34  35
ENDBRANCH   6  34
ENDBRANCH   4   6
ENDBRANCH   3   4
ENDBRANCH   2   3
ENDBRANCH   1   2
BRANCH   1  37
ATOM     37  O   UNL A   1      36.480  20.302  24.929  1.00  0.00    -0.374 OA
BRANCH  37  38
ATOM     38  C   UNL A   1      37.888  20.466  25.074  1.00  0.00     0.202 C 
BRANCH  38  39
ATOM     39  C   UNL A   1      38.355  21.756  25.753  1.00  0.00     0.261 C 
BRANCH  39  40
ATOM     40  O   UNL A   1      39.322  21.499  26.779  1.00  0.00    -0.460 OA
BRANCH  40  41
ATOM     41  C   UNL A   1      40.568  21.930  26.475  1.00  0.00     0.338 C 
ATOM     42  O   UNL A   1      41.344  21.447  25.665  1.00  0.00    -0.246 OA
BRANCH  41  43
ATOM     43  C   UNL A   1      40.823  23.224  27.130  1.00  0.00     0.060 A 
ATOM     44  C   UNL A   1      40.413  24.368  26.437  1.00  0.00     0.016 A 
ATOM     45  C   UNL A   1      41.493  23.329  28.351  1.00  0.00     0.016 A 
ATOM     46  C   UNL A   1      40.733  25.626  26.928  1.00  0.00     0.010 A 
ATOM     47  C   UNL A   1      41.822  24.599  28.842  1.00  0.00     0.010 A 
ATOM     48  C   UNL A   1      41.482  25.747  28.106  1.00  0.00    -0.014 A 
BRANCH  48  49
ATOM     49  C   UNL A   1      42.032  27.080  28.446  1.00  0.00     0.031 A 
ATOM     50  C   UNL A   1      43.451  27.396  28.061  1.00  0.00     0.074 A 
ATOM     51  C   UNL A   1      41.241  28.023  28.987  1.00  0.00     0.049 A 
ATOM     52  N   UNL A   1      44.097  28.531  28.136  1.00  0.00    -0.248 NA
ATOM     53  C   UNL A   1      44.247  26.286  27.512  1.00  0.00     0.031 C 
ATOM     54  C   UNL A   1      39.845  27.833  29.377  1.00  0.00     0.029 A 
ATOM     55  N   UNL A   1      41.498  29.338  29.283  1.00  0.00    -0.354 N 
ATOM     56  C   UNL A   1      45.367  28.276  27.632  1.00  0.00     0.074 A 
ATOM     57  C   UNL A   1      45.416  26.871  27.293  1.00  0.00     0.031 C 
ATOM     58  C   UNL A   1      39.364  28.994  29.853  1.00  0.00     0.029 A 
ATOM     59  C   UNL A   1      40.419  30.004  29.810  1.00  0.00     0.049 A 
ATOM     60  H   UNL A   1      42.373  29.763  29.132  1.00  0.00     0.167 HD
ATOM     61  C   UNL A   1      46.395  29.140  27.453  1.00  0.00     0.037 A 
ATOM     62  C   UNL A   1      40.298  31.286  30.206  1.00  0.00     0.037 A 
ATOM     63  C   UNL A   1      46.342  30.536  27.801  1.00  0.00     0.049 A 
ATOM     64  C   UNL A   1      41.466  32.219  30.029  1.00  0.00     0.074 A 
ATOM     65  C   UNL A   1      47.324  31.500  27.659  1.00  0.00     0.029 A 
ATOM     66  N   UNL A   1      45.242  31.167  28.368  1.00  0.00    -0.354 N 
ATOM     67  N   UNL A   1      42.652  31.971  29.524  1.00  0.00    -0.248 NA
ATOM     68  C   UNL A   1      41.274  33.610  30.460  1.00  0.00     0.031 C 
ATOM     69  C   UNL A   1      46.834  32.704  28.177  1.00  0.00     0.029 A 
ATOM     70  C   UNL A   1      45.530  32.502  28.599  1.00  0.00     0.049 A 
ATOM     71  H   UNL A   1      44.386  30.729  28.576  1.00  0.00     0.167 HD
ATOM     72  C   UNL A   1      43.341  33.181  29.558  1.00  0.00     0.074 A 
ATOM     73  C   UNL A   1      42.430  34.160  30.115  1.00  0.00     0.031 C 
ATOM     74  C   UNL A   1      44.609  33.457  29.166  1.00  0.00     0.037 A 
BRANCH  61  75
ATOM     75  C   UNL A   1      47.669  28.589  26.874  1.00  0.00     0.058 A 
ATOM     76  C   UNL A   1      48.766  28.259  27.687  1.00  0.00     0.135 A 
ATOM     77  C   UNL A   1      47.789  28.374  25.492  1.00  0.00     0.135 A 
ATOM     78  F   UNL A   1      48.713  28.464  29.012  1.00  0.00    -0.206 F 
ATOM     79  C   UNL A   1      49.947  27.758  27.146  1.00  0.00     0.059 A 
ATOM     80  C   UNL A   1      48.952  27.852  24.933  1.00  0.00     0.059 A 
ATOM     81  F   UNL A   1      46.772  28.677  24.670  1.00  0.00    -0.206 F 
ATOM     82  C   UNL A   1      50.030  27.559  25.766  1.00  0.00     0.060 A 
BRANCH  82  83
ATOM     83  S   UNL A   1      51.566  26.908  25.077  1.00  0.00     0.124 S 
ATOM     84  O   UNL A   1      51.751  25.696  25.870  1.00  0.00    -0.237 OA
ATOM     85  O   UNL A   1      51.217  26.699  23.675  1.00  0.00    -0.237 OA
ATOM     86  O   UNL A   1      52.531  27.974  25.327  1.00  0.00    -0.744 OA
ENDBRANCH  82  83
ENDBRANCH  61  75
BRANCH  62  87
ATOM     87  C   UNL A   1      39.019  31.762  30.797  1.00  0.00     0.058 A 
ATOM     88  C   UNL A   1      38.838  31.830  32.186  1.00  0.00     0.135 A 
ATOM     89  C   UNL A   1      37.953  32.165  29.978  1.00  0.00     0.135 A 
ATOM     90  F   UNL A   1      39.825  31.449  33.010  1.00  0.00    -0.206 F 
ATOM     91  C   UNL A   1      37.641  32.267  32.743  1.00  0.00     0.059 A 
ATOM     92  C   UNL A   1      36.755  32.628  30.512  1.00  0.00     0.059 A 
ATOM     93  F   UNL A   1      38.080  32.129  28.642  1.00  0.00    -0.206 F 
ATOM     94  C   UNL A   1      36.605  32.667  31.897  1.00  0.00     0.060 A 
BRANCH  94  95
ATOM     95  S   UNL A   1      35.073  33.283  32.628  1.00  0.00     0.124 S 
ATOM     96  O   UNL A   1      34.067  32.614  31.812  1.00  0.00    -0.237 OA
ATOM     97  O   UNL A   1      35.184  32.825  34.010  1.00  0.00    -0.237 OA
ATOM     98  O   UNL A   1      35.174  34.729  32.447  1.00  0.00    -0.744 OA
ENDBRANCH  94  95
ENDBRANCH  62  87
BRANCH  74  99
ATOM     99  C   UNL A   1      45.071  34.882  29.311  1.00  0.00     0.058 A 
ATOM    100  C   UNL A   1      44.899  35.820  28.281  1.00  0.00     0.135 A 
ATOM    101  C   UNL A   1      45.689  35.313  30.496  1.00  0.00     0.135 A 
ATOM    102  F   UNL A   1      44.315  35.459  27.128  1.00  0.00    -0.206 F 
ATOM    103  C   UNL A   1      45.369  37.124  28.402  1.00  0.00     0.059 A 
ATOM    104  C   UNL A   1      46.141  36.619  30.649  1.00  0.00     0.059 A 
ATOM    105  F   UNL A   1      45.861  34.460  31.518  1.00  0.00    -0.206 F 
ATOM    106  C   UNL A   1      45.998  37.511  29.587  1.00  0.00     0.060 A 
BRANCH 106 107
ATOM    107  S   UNL A   1      46.621  39.199  29.729  1.00  0.00     0.124 S 
ATOM    108  O   UNL A   1      47.219  39.178  31.060  1.00  0.00    -0.237 OA
ATOM    109  O   UNL A   1      47.558  39.286  28.614  1.00  0.00    -0.237 OA
ATOM    110  O   UNL A   1      45.418  40.016  29.593  1.00  0.00    -0.744 OA
ENDBRANCH 106 107
ENDBRANCH  74  99
ENDBRANCH  48  49
ENDBRANCH  41  43
ENDBRANCH  40  41
ENDBRANCH  39  40
ENDBRANCH  38  39
ENDBRANCH  37  38
ENDBRANCH   1  37
TORSDOF 25
ENDMDL
