MODEL 1
REMARK VINA RESULT:     -13.6      0.000      0.000
REMARK SMILES O=C(C[C@]12CSc3[nH]c(=O)sc3[C@H]1c1cc(Cl)ccc1OC2=O)OCCOCCOC(=O)c1ccc(-c2c3nc(c(-c4c(F)cc(S(=O)(=O)[O-])cc4F)c4ccc([nH]4)c(-c4c(F)cc(S(=O)(=O)[O-])cc4F)c4nc(c(-c5c(F)cc(S(=O)(=O)[O-])cc5F)c5ccc2[nH]5)C=C4)C=C3)cc1
REMARK SMILES IDX 28 1 27 2 26 3 25 4 24 5 2 6 1 7 3 8 4 9 5 10 13 11 22 12
REMARK SMILES IDX 6 13 12 14 14 15 21 16 23 17 7 18 11 19 15 20 20 21 8 22
REMARK SMILES IDX 9 23 16 24 19 25 10 27 17 28 18 29 29 30 30 31 31 32 32 33
REMARK SMILES IDX 33 34 34 35 98 36 35 37 97 38 36 39 37 40 38 41 91 42 39 43
REMARK SMILES IDX 96 44 90 45 92 46 40 47 95 48 89 49 88 50 41 52 75 53 54 54
REMARK SMILES IDX 74 55 55 56 58 57 73 58 93 59 56 60 57 61 72 63 94 64 59 65
REMARK SMILES IDX 42 66 43 67 52 68 44 69 45 70 51 71 53 72 46 73 47 74 48 75
REMARK SMILES IDX 49 76 50 77 76 78 77 79 86 80 78 81 79 82 85 83 87 84 80 85
REMARK SMILES IDX 81 86 82 87 83 88 84 89 60 90 61 91 70 92 62 93 63 94 69 95
REMARK SMILES IDX 71 96 64 97 65 98 66 99 67 100 68 101
REMARK H PARENT 8 26 92 51 58 62
REMARK Flexibility Score: inf
ROOT
ATOM      1  C   UNL A   1      41.151  20.063  26.536  1.00  0.00     0.202 C 
ENDROOT
BRANCH   1   2
ATOM      2  O   UNL A   1      40.450  21.210  26.092  1.00  0.00    -0.374 OA
BRANCH   2   3
ATOM      3  C   UNL A   1      39.035  21.424  26.017  1.00  0.00     0.202 C 
BRANCH   3   4
ATOM      4  C   UNL A   1      38.480  22.974  25.893  1.00  0.00     0.261 C 
BRANCH   4   5
ATOM      5  O   UNL A   1      36.889  23.218  25.310  1.00  0.00    -0.463 OA
BRANCH   5   6
ATOM      6  C   UNL A   1      35.680  22.936  23.944  1.00  0.00     0.307 C 
ATOM      7  O   UNL A   1      35.418  23.531  22.895  1.00  0.00    -0.252 OA
BRANCH   6   8
ATOM      8  C   UNL A   1      34.947  21.721  24.173  1.00  0.00     0.143 C 
BRANCH   8   9
ATOM      9  C   UNL A   1      33.847  22.654  24.123  1.00  0.00     0.100 C 
ATOM     10  C   UNL A   1      34.466  24.012  24.368  1.00  0.00     0.097 C 
ATOM     11  C   UNL A   1      32.949  21.687  25.523  1.00  0.00     0.085 C 
ATOM     12  C   UNL A   1      33.178  22.539  22.299  1.00  0.00     0.319 C 
ATOM     13  S   UNL A   1      33.993  24.805  25.884  1.00  0.00    -0.106 SA
ATOM     14  C   UNL A   1      31.953  22.985  25.982  1.00  0.00     0.049 A 
ATOM     15  C   UNL A   1      32.590  19.890  24.805  1.00  0.00     0.006 A 
ATOM     16  O   UNL A   1      32.496  20.971  21.992  1.00  0.00    -0.426 OA
ATOM     17  O   UNL A   1      33.265  23.397  21.446  1.00  0.00    -0.251 OA
ATOM     18  C   UNL A   1      32.394  24.268  25.997  1.00  0.00     0.090 A 
ATOM     19  S   UNL A   1      30.247  23.120  26.534  1.00  0.00    -0.077 S 
ATOM     20  C   UNL A   1      32.953  18.736  25.464  1.00  0.00     0.028 A 
ATOM     21  C   UNL A   1      32.207  19.595  23.119  1.00  0.00     0.134 A 
ATOM     22  N   UNL A   1      31.483  25.257  26.234  1.00  0.00    -0.307 N 
ATOM     23  C   UNL A   1      30.219  24.872  26.530  1.00  0.00     0.305 A 
ATOM     24  C   UNL A   1      32.997  17.531  24.676  1.00  0.00     0.041 A 
ATOM     25  C   UNL A   1      32.295  18.413  22.419  1.00  0.00     0.049 A 
ATOM     26  H   UNL A   1      31.735  26.208  26.191  1.00  0.00     0.171 HD
ATOM     27  O   UNL A   1      29.266  25.581  26.793  1.00  0.00    -0.257 OA
ATOM     28  Cl  UNL A   1      33.515  16.085  25.494  1.00  0.00    -0.084 Cl
ATOM     29  C   UNL A   1      32.727  17.380  23.246  1.00  0.00     0.024 A 
ENDBRANCH   8   9
ENDBRANCH   6   8
ENDBRANCH   5   6
ENDBRANCH   4   5
ENDBRANCH   3   4
ENDBRANCH   2   3
ENDBRANCH   1   2
BRANCH   1  30
ATOM     30  C   UNL A   1      42.597  19.727  26.157  1.00  0.00     0.261 C 
BRANCH  30  31
ATOM     31  O   UNL A   1      43.046  20.402  24.986  1.00  0.00    -0.460 OA
BRANCH  31  32
ATOM     32  C   UNL A   1      44.332  20.832  25.005  1.00  0.00     0.338 C 
ATOM     33  O   UNL A   1      45.277  20.312  24.440  1.00  0.00    -0.246 OA
BRANCH  32  34
ATOM     34  C   UNL A   1      44.298  22.236  25.496  1.00  0.00     0.060 A 
ATOM     35  C   UNL A   1      45.017  22.641  26.631  1.00  0.00     0.016 A 
ATOM     36  C   UNL A   1      43.232  23.014  25.020  1.00  0.00     0.016 A 
ATOM     37  C   UNL A   1      44.562  23.745  27.362  1.00  0.00     0.010 A 
ATOM     38  C   UNL A   1      42.774  24.106  25.761  1.00  0.00     0.010 A 
ATOM     39  C   UNL A   1      43.397  24.444  26.966  1.00  0.00    -0.014 A 
BRANCH  39  40
ATOM     40  C   UNL A   1      43.067  25.707  27.657  1.00  0.00     0.031 A 
ATOM     41  C   UNL A   1      44.136  26.706  27.374  1.00  0.00     0.074 A 
ATOM     42  C   UNL A   1      41.940  26.083  28.313  1.00  0.00     0.049 A 
ATOM     43  N   UNL A   1      44.996  27.206  28.198  1.00  0.00    -0.248 NA
ATOM     44  C   UNL A   1      44.420  26.997  25.956  1.00  0.00     0.031 C 
ATOM     45  C   UNL A   1      40.675  25.366  28.458  1.00  0.00     0.029 A 
ATOM     46  N   UNL A   1      41.665  27.266  28.961  1.00  0.00    -0.354 N 
ATOM     47  C   UNL A   1      45.791  28.050  27.428  1.00  0.00     0.074 A 
ATOM     48  C   UNL A   1      45.536  27.716  26.054  1.00  0.00     0.031 C 
ATOM     49  C   UNL A   1      39.724  26.187  28.965  1.00  0.00     0.029 A 
ATOM     50  C   UNL A   1      40.316  27.477  29.268  1.00  0.00     0.049 A 
ATOM     51  H   UNL A   1      42.367  27.917  29.191  1.00  0.00     0.167 HD
ATOM     52  C   UNL A   1      46.410  29.133  27.967  1.00  0.00     0.037 A 
ATOM     53  C   UNL A   1      39.713  28.625  29.698  1.00  0.00     0.037 A 
ATOM     54  C   UNL A   1      46.503  29.023  29.399  1.00  0.00     0.049 A 
ATOM     55  C   UNL A   1      40.779  29.486  30.264  1.00  0.00     0.074 A 
ATOM     56  C   UNL A   1      47.112  28.142  30.272  1.00  0.00     0.029 A 
ATOM     57  N   UNL A   1      45.592  29.723  30.150  1.00  0.00    -0.354 N 
ATOM     58  N   UNL A   1      41.440  29.201  31.350  1.00  0.00    -0.248 NA
ATOM     59  C   UNL A   1      41.423  30.420  29.357  1.00  0.00     0.031 C 
ATOM     60  C   UNL A   1      46.210  28.024  31.369  1.00  0.00     0.029 A 
ATOM     61  C   UNL A   1      45.138  28.885  31.135  1.00  0.00     0.049 A 
ATOM     62  H   UNL A   1      45.316  30.656  30.008  1.00  0.00     0.167 HD
ATOM     63  C   UNL A   1      42.748  29.548  31.057  1.00  0.00     0.074 A 
ATOM     64  C   UNL A   1      42.666  30.343  29.832  1.00  0.00     0.031 C 
ATOM     65  C   UNL A   1      43.797  28.930  31.673  1.00  0.00     0.037 A 
BRANCH  52  66
ATOM     66  C   UNL A   1      46.581  30.441  27.232  1.00  0.00     0.058 A 
ATOM     67  C   UNL A   1      47.859  31.027  27.160  1.00  0.00     0.135 A 
ATOM     68  C   UNL A   1      45.507  31.272  26.836  1.00  0.00     0.135 A 
ATOM     69  F   UNL A   1      48.950  30.335  27.525  1.00  0.00    -0.206 F 
ATOM     70  C   UNL A   1      48.049  32.357  26.787  1.00  0.00     0.059 A 
ATOM     71  C   UNL A   1      45.680  32.581  26.406  1.00  0.00     0.059 A 
ATOM     72  F   UNL A   1      44.227  30.896  26.938  1.00  0.00    -0.206 F 
ATOM     73  C   UNL A   1      46.950  33.128  26.422  1.00  0.00     0.060 A 
BRANCH  73  74
ATOM     74  S   UNL A   1      47.181  34.869  26.026  1.00  0.00     0.124 S 
ATOM     75  O   UNL A   1      48.151  34.794  24.939  1.00  0.00    -0.237 OA
ATOM     76  O   UNL A   1      45.829  35.272  25.652  1.00  0.00    -0.237 OA
ATOM     77  O   UNL A   1      47.676  35.436  27.276  1.00  0.00    -0.744 OA
ENDBRANCH  73  74
ENDBRANCH  52  66
BRANCH  53  78
ATOM     78  C   UNL A   1      38.377  29.197  29.325  1.00  0.00     0.058 A 
ATOM     79  C   UNL A   1      37.448  29.619  30.304  1.00  0.00     0.135 A 
ATOM     80  C   UNL A   1      38.112  29.637  28.015  1.00  0.00     0.135 A 
ATOM     81  F   UNL A   1      37.614  29.267  31.589  1.00  0.00    -0.206 F 
ATOM     82  C   UNL A   1      36.371  30.472  30.011  1.00  0.00     0.059 A 
ATOM     83  C   UNL A   1      37.044  30.480  27.697  1.00  0.00     0.059 A 
ATOM     84  F   UNL A   1      38.945  29.339  27.008  1.00  0.00    -0.206 F 
ATOM     85  C   UNL A   1      36.193  30.921  28.704  1.00  0.00     0.060 A 
BRANCH  85  86
ATOM     86  S   UNL A   1      34.933  32.175  28.345  1.00  0.00     0.124 S 
ATOM     87  O   UNL A   1      35.718  33.217  27.692  1.00  0.00    -0.237 OA
ATOM     88  O   UNL A   1      34.006  31.444  27.487  1.00  0.00    -0.237 OA
ATOM     89  O   UNL A   1      34.413  32.522  29.664  1.00  0.00    -0.744 OA
ENDBRANCH  85  86
ENDBRANCH  53  78
BRANCH  65  90
ATOM     90  C   UNL A   1      43.520  28.076  32.885  1.00  0.00     0.058 A 
ATOM     91  C   UNL A   1      43.474  26.669  32.891  1.00  0.00     0.135 A 
ATOM     92  C   UNL A   1      43.461  28.723  34.128  1.00  0.00     0.135 A 
ATOM     93  F   UNL A   1      43.613  25.971  31.753  1.00  0.00    -0.206 F 
ATOM     94  C   UNL A   1      43.351  25.941  34.081  1.00  0.00     0.059 A 
ATOM     95  C   UNL A   1      43.371  28.020  35.325  1.00  0.00     0.059 A 
ATOM     96  F   UNL A   1      43.552  30.062  34.194  1.00  0.00    -0.206 F 
ATOM     97  C   UNL A   1      43.308  26.629  35.296  1.00  0.00     0.060 A 
BRANCH  97  98
ATOM     98  S   UNL A   1      43.234  25.706  36.849  1.00  0.00     0.124 S 
ATOM     99  O   UNL A   1      42.168  24.743  36.591  1.00  0.00    -0.237 OA
ATOM    100  O   UNL A   1      44.581  25.156  36.959  1.00  0.00    -0.237 OA
ATOM    101  O   UNL A   1      42.913  26.731  37.841  1.00  0.00    -0.744 OA
ENDBRANCH  97  98
ENDBRANCH  65  90
ENDBRANCH  39  40
ENDBRANCH  32  34
ENDBRANCH  31  32
ENDBRANCH  30  31
ENDBRANCH   1  30
TORSDOF 18
ENDMDL
MODEL 2
REMARK VINA RESULT:     -13.4      1.671      2.118
REMARK SMILES O=C(C[C@]12CSc3[nH]c(=O)sc3[C@H]1c1cc(Cl)ccc1OC2=O)OCCOCCOC(=O)c1ccc(-c2c3nc(c(-c4c(F)cc(S(=O)(=O)[O-])cc4F)c4ccc([nH]4)c(-c4c(F)cc(S(=O)(=O)[O-])cc4F)c4nc(c(-c5c(F)cc(S(=O)(=O)[O-])cc5F)c5ccc2[nH]5)C=C4)C=C3)cc1
REMARK SMILES IDX 28 1 27 2 26 3 25 4 24 5 2 6 1 7 3 8 4 9 5 10 13 11 22 12
REMARK SMILES IDX 6 13 12 14 14 15 21 16 23 17 7 18 11 19 15 20 20 21 8 22
REMARK SMILES IDX 9 23 16 24 19 25 10 27 17 28 18 29 29 30 30 31 31 32 32 33
REMARK SMILES IDX 33 34 34 35 98 36 35 37 97 38 36 39 37 40 38 41 91 42 39 43
REMARK SMILES IDX 96 44 90 45 92 46 40 47 95 48 89 49 88 50 41 52 75 53 54 54
REMARK SMILES IDX 74 55 55 56 58 57 73 58 93 59 56 60 57 61 72 63 94 64 59 65
REMARK SMILES IDX 42 66 43 67 52 68 44 69 45 70 51 71 53 72 46 73 47 74 48 75
REMARK SMILES IDX 49 76 50 77 76 78 77 79 86 80 78 81 79 82 85 83 87 84 80 85
REMARK SMILES IDX 81 86 82 87 83 88 84 89 60 90 61 91 70 92 62 93 63 94 69 95
REMARK SMILES IDX 71 96 64 97 65 98 66 99 67 100 68 101
REMARK H PARENT 8 26 92 51 58 62
REMARK Flexibility Score: inf
ROOT
ATOM      1  C   UNL A   1      40.888  21.308  26.529  1.00  0.00     0.202 C 
ENDROOT
BRANCH   1   2
ATOM      2  O   UNL A   1      39.743  22.097  26.264  1.00  0.00    -0.374 OA
BRANCH   2   3
ATOM      3  C   UNL A   1      39.404  23.389  26.783  1.00  0.00     0.202 C 
BRANCH   3   4
ATOM      4  C   UNL A   1      38.021  24.115  26.245  1.00  0.00     0.261 C 
BRANCH   4   5
ATOM      5  O   UNL A   1      36.831  23.135  25.503  1.00  0.00    -0.463 OA
BRANCH   5   6
ATOM      6  C   UNL A   1      35.694  22.898  24.068  1.00  0.00     0.307 C 
ATOM      7  O   UNL A   1      35.482  23.532  23.030  1.00  0.00    -0.252 OA
BRANCH   6   8
ATOM      8  C   UNL A   1      34.958  21.673  24.215  1.00  0.00     0.143 C 
BRANCH   8   9
ATOM      9  C   UNL A   1      33.857  22.604  24.160  1.00  0.00     0.100 C 
ATOM     10  C   UNL A   1      34.470  23.962  24.423  1.00  0.00     0.097 C 
ATOM     11  C   UNL A   1      32.946  21.625  25.543  1.00  0.00     0.085 C 
ATOM     12  C   UNL A   1      33.206  22.503  22.329  1.00  0.00     0.319 C 
ATOM     13  S   UNL A   1      33.980  24.741  25.940  1.00  0.00    -0.106 SA
ATOM     14  C   UNL A   1      31.943  22.917  26.002  1.00  0.00     0.049 A 
ATOM     15  C   UNL A   1      32.598  19.833  24.808  1.00  0.00     0.006 A 
ATOM     16  O   UNL A   1      32.531  20.936  22.002  1.00  0.00    -0.426 OA
ATOM     17  O   UNL A   1      33.301  23.368  21.484  1.00  0.00    -0.251 OA
ATOM     18  C   UNL A   1      32.381  24.201  26.033  1.00  0.00     0.090 A 
ATOM     19  S   UNL A   1      30.231  23.045  26.538  1.00  0.00    -0.077 S 
ATOM     20  C   UNL A   1      32.955  18.674  25.461  1.00  0.00     0.028 A 
ATOM     21  C   UNL A   1      32.232  19.551  23.116  1.00  0.00     0.134 A 
ATOM     22  N   UNL A   1      31.467  25.187  26.268  1.00  0.00    -0.307 N 
ATOM     23  C   UNL A   1      30.200  24.797  26.548  1.00  0.00     0.305 A 
ATOM     24  C   UNL A   1      33.010  17.476  24.663  1.00  0.00     0.041 A 
ATOM     25  C   UNL A   1      32.329  18.374  22.407  1.00  0.00     0.049 A 
ATOM     26  H   UNL A   1      31.717  26.139  26.235  1.00  0.00     0.171 HD
ATOM     27  O   UNL A   1      29.243  25.502  26.807  1.00  0.00    -0.257 OA
ATOM     28  Cl  UNL A   1      33.523  16.024  25.476  1.00  0.00    -0.084 Cl
ATOM     29  C   UNL A   1      32.755  17.335  23.230  1.00  0.00     0.024 A 
ENDBRANCH   8   9
ENDBRANCH   6   8
ENDBRANCH   5   6
ENDBRANCH   4   5
ENDBRANCH   3   4
ENDBRANCH   2   3
ENDBRANCH   1   2
BRANCH   1  30
ATOM     30  C   UNL A   1      42.313  21.676  26.105  1.00  0.00     0.261 C 
BRANCH  30  31
ATOM     31  O   UNL A   1      42.361  22.658  25.075  1.00  0.00    -0.460 OA
BRANCH  31  32
ATOM     32  C   UNL A   1      43.560  23.263  24.888  1.00  0.00     0.338 C 
ATOM     33  O   UNL A   1      44.411  22.948  24.076  1.00  0.00    -0.246 OA
BRANCH  32  34
ATOM     34  C   UNL A   1      43.472  24.587  25.561  1.00  0.00     0.060 A 
ATOM     35  C   UNL A   1      44.168  24.862  26.748  1.00  0.00     0.016 A 
ATOM     36  C   UNL A   1      42.382  25.384  25.179  1.00  0.00     0.016 A 
ATOM     37  C   UNL A   1      43.668  25.842  27.613  1.00  0.00     0.010 A 
ATOM     38  C   UNL A   1      41.880  26.351  26.053  1.00  0.00     0.010 A 
ATOM     39  C   UNL A   1      42.481  26.547  27.300  1.00  0.00    -0.014 A 
BRANCH  39  40
ATOM     40  C   UNL A   1      42.101  27.694  28.148  1.00  0.00     0.031 A 
ATOM     41  C   UNL A   1      43.178  28.722  28.082  1.00  0.00     0.074 A 
ATOM     42  C   UNL A   1      40.934  27.971  28.784  1.00  0.00     0.049 A 
ATOM     43  N   UNL A   1      43.982  29.093  29.022  1.00  0.00    -0.248 NA
ATOM     44  C   UNL A   1      43.545  29.219  26.743  1.00  0.00     0.031 C 
ATOM     45  C   UNL A   1      39.667  27.242  28.743  1.00  0.00     0.029 A 
ATOM     46  N   UNL A   1      40.611  29.045  29.581  1.00  0.00    -0.354 N 
ATOM     47  C   UNL A   1      44.817  30.041  28.435  1.00  0.00     0.074 A 
ATOM     48  C   UNL A   1      44.647  29.914  27.014  1.00  0.00     0.031 C 
ATOM     49  C   UNL A   1      38.682  27.981  29.307  1.00  0.00     0.029 A 
ATOM     50  C   UNL A   1      39.244  29.210  29.833  1.00  0.00     0.049 A 
ATOM     51  H   UNL A   1      41.293  29.653  29.947  1.00  0.00     0.167 HD
ATOM     52  C   UNL A   1      45.394  31.030  29.165  1.00  0.00     0.037 A 
ATOM     53  C   UNL A   1      38.608  30.283  30.391  1.00  0.00     0.037 A 
ATOM     54  C   UNL A   1      45.401  30.710  30.568  1.00  0.00     0.049 A 
ATOM     55  C   UNL A   1      39.631  31.049  31.142  1.00  0.00     0.074 A 
ATOM     56  C   UNL A   1      45.962  29.708  31.336  1.00  0.00     0.029 A 
ATOM     57  N   UNL A   1      44.441  31.292  31.357  1.00  0.00    -0.354 N 
ATOM     58  N   UNL A   1      40.228  30.605  32.212  1.00  0.00    -0.248 NA
ATOM     59  C   UNL A   1      40.322  32.105  30.424  1.00  0.00     0.031 C 
ATOM     60  C   UNL A   1      44.996  29.431  32.348  1.00  0.00     0.029 A 
ATOM     61  C   UNL A   1      43.934  30.318  32.178  1.00  0.00     0.049 A 
ATOM     62  H   UNL A   1      44.167  32.237  31.338  1.00  0.00     0.167 HD
ATOM     63  C   UNL A   1      41.548  30.990  32.054  1.00  0.00     0.074 A 
ATOM     64  C   UNL A   1      41.535  31.958  30.957  1.00  0.00     0.031 C 
ATOM     65  C   UNL A   1      42.563  30.285  32.634  1.00  0.00     0.037 A 
BRANCH  52  66
ATOM     66  C   UNL A   1      45.599  32.432  28.644  1.00  0.00     0.058 A 
ATOM     67  C   UNL A   1      46.894  32.984  28.647  1.00  0.00     0.135 A 
ATOM     68  C   UNL A   1      44.548  33.348  28.399  1.00  0.00     0.135 A 
ATOM     69  F   UNL A   1      47.966  32.211  28.882  1.00  0.00    -0.206 F 
ATOM     70  C   UNL A   1      47.123  34.350  28.485  1.00  0.00     0.059 A 
ATOM     71  C   UNL A   1      44.759  34.703  28.179  1.00  0.00     0.059 A 
ATOM     72  F   UNL A   1      43.258  32.999  28.459  1.00  0.00    -0.206 F 
ATOM     73  C   UNL A   1      46.045  35.202  28.262  1.00  0.00     0.060 A 
BRANCH  73  74
ATOM     74  S   UNL A   1      46.328  36.976  28.143  1.00  0.00     0.124 S 
ATOM     75  O   UNL A   1      46.931  37.262  29.440  1.00  0.00    -0.237 OA
ATOM     76  O   UNL A   1      47.219  37.059  26.990  1.00  0.00    -0.237 OA
ATOM     77  O   UNL A   1      44.989  37.517  27.935  1.00  0.00    -0.744 OA
ENDBRANCH  73  74
ENDBRANCH  52  66
BRANCH  53  78
ATOM     78  C   UNL A   1      37.293  30.906  30.026  1.00  0.00     0.058 A 
ATOM     79  C   UNL A   1      36.451  31.493  30.999  1.00  0.00     0.135 A 
ATOM     80  C   UNL A   1      36.982  31.224  28.691  1.00  0.00     0.135 A 
ATOM     81  F   UNL A   1      36.669  31.267  32.305  1.00  0.00    -0.206 F 
ATOM     82  C   UNL A   1      35.417  32.384  30.670  1.00  0.00     0.059 A 
ATOM     83  C   UNL A   1      35.954  32.103  28.338  1.00  0.00     0.059 A 
ATOM     84  F   UNL A   1      37.735  30.764  27.682  1.00  0.00    -0.206 F 
ATOM     85  C   UNL A   1      35.194  32.706  29.332  1.00  0.00     0.060 A 
BRANCH  85  86
ATOM     86  S   UNL A   1      33.999  34.001  28.903  1.00  0.00     0.124 S 
ATOM     87  O   UNL A   1      33.135  33.315  27.949  1.00  0.00    -0.237 OA
ATOM     88  O   UNL A   1      33.401  34.310  30.197  1.00  0.00    -0.237 OA
ATOM     89  O   UNL A   1      34.833  35.059  28.339  1.00  0.00    -0.744 OA
ENDBRANCH  85  86
ENDBRANCH  53  78
BRANCH  65  90
ATOM     90  C   UNL A   1      42.219  29.262  33.688  1.00  0.00     0.058 A 
ATOM     91  C   UNL A   1      41.914  27.911  33.435  1.00  0.00     0.135 A 
ATOM     92  C   UNL A   1      42.369  29.643  35.029  1.00  0.00     0.135 A 
ATOM     93  F   UNL A   1      41.840  27.445  32.178  1.00  0.00    -0.206 F 
ATOM     94  C   UNL A   1      41.743  26.988  34.474  1.00  0.00     0.059 A 
ATOM     95  C   UNL A   1      42.236  28.737  36.075  1.00  0.00     0.059 A 
ATOM     96  F   UNL A   1      42.712  30.906  35.334  1.00  0.00    -0.206 F 
ATOM     97  C   UNL A   1      41.915  27.412  35.794  1.00  0.00     0.060 A 
BRANCH  97  98
ATOM     98  S   UNL A   1      41.781  26.218  37.145  1.00  0.00     0.124 S 
ATOM     99  O   UNL A   1      42.936  26.549  37.973  1.00  0.00    -0.237 OA
ATOM    100  O   UNL A   1      40.474  26.527  37.716  1.00  0.00    -0.237 OA
ATOM    101  O   UNL A   1      41.858  24.925  36.467  1.00  0.00    -0.744 OA
ENDBRANCH  97  98
ENDBRANCH  65  90
ENDBRANCH  39  40
ENDBRANCH  32  34
ENDBRANCH  31  32
ENDBRANCH  30  31
ENDBRANCH   1  30
TORSDOF 18
ENDMDL
MODEL 3
REMARK VINA RESULT:     -13.3      1.942      3.108
REMARK SMILES O=C(C[C@]12CSc3[nH]c(=O)sc3[C@H]1c1cc(Cl)ccc1OC2=O)OCCOCCOC(=O)c1ccc(-c2c3nc(c(-c4c(F)cc(S(=O)(=O)[O-])cc4F)c4ccc([nH]4)c(-c4c(F)cc(S(=O)(=O)[O-])cc4F)c4nc(c(-c5c(F)cc(S(=O)(=O)[O-])cc5F)c5ccc2[nH]5)C=C4)C=C3)cc1
REMARK SMILES IDX 28 1 27 2 26 3 25 4 24 5 2 6 1 7 3 8 4 9 5 10 13 11 22 12
REMARK SMILES IDX 6 13 12 14 14 15 21 16 23 17 7 18 11 19 15 20 20 21 8 22
REMARK SMILES IDX 9 23 16 24 19 25 10 27 17 28 18 29 29 30 30 31 31 32 32 33
REMARK SMILES IDX 33 34 34 35 98 36 35 37 97 38 36 39 37 40 38 41 91 42 39 43
REMARK SMILES IDX 96 44 90 45 92 46 40 47 95 48 89 49 88 50 41 52 75 53 54 54
REMARK SMILES IDX 74 55 55 56 58 57 73 58 93 59 56 60 57 61 72 63 94 64 59 65
REMARK SMILES IDX 42 66 43 67 52 68 44 69 45 70 51 71 53 72 46 73 47 74 48 75
REMARK SMILES IDX 49 76 50 77 76 78 77 79 86 80 78 81 79 82 85 83 87 84 80 85
REMARK SMILES IDX 81 86 82 87 83 88 84 89 60 90 61 91 70 92 62 93 63 94 69 95
REMARK SMILES IDX 71 96 64 97 65 98 66 99 67 100 68 101
REMARK H PARENT 8 26 92 51 58 62
REMARK Flexibility Score: inf
ROOT
ATOM      1  C   UNL A   1      41.264  20.443  26.795  1.00  0.00     0.202 C 
ENDROOT
BRANCH   1   2
ATOM      2  O   UNL A   1      40.604  21.561  26.231  1.00  0.00    -0.374 OA
BRANCH   2   3
ATOM      3  C   UNL A   1      39.287  22.055  26.502  1.00  0.00     0.202 C 
BRANCH   3   4
ATOM      4  C   UNL A   1      38.763  23.389  25.680  1.00  0.00     0.261 C 
BRANCH   4   5
ATOM      5  O   UNL A   1      37.099  23.783  25.756  1.00  0.00    -0.463 OA
BRANCH   5   6
ATOM      6  C   UNL A   1      35.477  23.499  26.590  1.00  0.00     0.307 C 
ATOM      7  O   UNL A   1      35.147  23.052  27.692  1.00  0.00    -0.252 OA
BRANCH   6   8
ATOM      8  C   UNL A   1      34.403  23.964  25.756  1.00  0.00     0.143 C 
BRANCH   8   9
ATOM      9  C   UNL A   1      33.971  22.602  25.959  1.00  0.00     0.100 C 
ATOM     10  C   UNL A   1      35.215  21.849  26.379  1.00  0.00     0.097 C 
ATOM     11  C   UNL A   1      33.311  22.530  24.154  1.00  0.00     0.085 C 
ATOM     12  C   UNL A   1      32.708  22.693  27.437  1.00  0.00     0.319 C 
ATOM     13  S   UNL A   1      35.792  20.626  25.230  1.00  0.00    -0.106 SA
ATOM     14  C   UNL A   1      33.329  20.834  24.058  1.00  0.00     0.049 A 
ATOM     15  C   UNL A   1      31.883  23.879  24.038  1.00  0.00     0.006 A 
ATOM     16  O   UNL A   1      31.290  23.586  26.980  1.00  0.00    -0.426 OA
ATOM     17  O   UNL A   1      32.880  22.257  28.557  1.00  0.00    -0.251 OA
ATOM     18  C   UNL A   1      34.310  20.086  24.623  1.00  0.00     0.090 A 
ATOM     19  S   UNL A   1      32.254  19.610  23.295  1.00  0.00    -0.077 S 
ATOM     20  C   UNL A   1      31.850  24.851  23.063  1.00  0.00     0.028 A 
ATOM     21  C   UNL A   1      30.809  24.249  25.375  1.00  0.00     0.134 A 
ATOM     22  N   UNL A   1      34.162  18.728  24.624  1.00  0.00    -0.307 N 
ATOM     23  C   UNL A   1      33.086  18.226  23.973  1.00  0.00     0.305 A 
ATOM     24  C   UNL A   1      31.003  25.989  23.316  1.00  0.00     0.041 A 
ATOM     25  C   UNL A   1      30.040  25.375  25.565  1.00  0.00     0.049 A 
ATOM     26  H   UNL A   1      34.809  18.141  25.079  1.00  0.00     0.171 HD
ATOM     27  O   UNL A   1      32.778  17.057  23.833  1.00  0.00    -0.257 OA
ATOM     28  Cl  UNL A   1      31.011  27.246  22.112  1.00  0.00    -0.084 Cl
ATOM     29  C   UNL A   1      30.184  26.258  24.498  1.00  0.00     0.024 A 
ENDBRANCH   8   9
ENDBRANCH   6   8
ENDBRANCH   5   6
ENDBRANCH   4   5
ENDBRANCH   3   4
ENDBRANCH   2   3
ENDBRANCH   1   2
BRANCH   1  30
ATOM     30  C   UNL A   1      42.508  19.777  26.200  1.00  0.00     0.261 C 
BRANCH  30  31
ATOM     31  O   UNL A   1      42.992  20.428  25.029  1.00  0.00    -0.460 OA
BRANCH  31  32
ATOM     32  C   UNL A   1      44.283  20.840  25.069  1.00  0.00     0.338 C 
ATOM     33  O   UNL A   1      45.226  20.322  24.498  1.00  0.00    -0.246 OA
BRANCH  32  34
ATOM     34  C   UNL A   1      44.264  22.230  25.597  1.00  0.00     0.060 A 
ATOM     35  C   UNL A   1      44.851  22.563  26.827  1.00  0.00     0.016 A 
ATOM     36  C   UNL A   1      43.314  23.082  25.014  1.00  0.00     0.016 A 
ATOM     37  C   UNL A   1      44.368  23.673  27.529  1.00  0.00     0.010 A 
ATOM     38  C   UNL A   1      42.826  24.180  25.725  1.00  0.00     0.010 A 
ATOM     39  C   UNL A   1      43.304  24.451  27.010  1.00  0.00    -0.014 A 
BRANCH  39  40
ATOM     40  C   UNL A   1      42.959  25.713  27.694  1.00  0.00     0.031 A 
ATOM     41  C   UNL A   1      44.024  26.718  27.421  1.00  0.00     0.074 A 
ATOM     42  C   UNL A   1      41.822  26.083  28.336  1.00  0.00     0.049 A 
ATOM     43  N   UNL A   1      44.871  27.226  28.253  1.00  0.00    -0.248 NA
ATOM     44  C   UNL A   1      44.322  27.007  26.005  1.00  0.00     0.031 C 
ATOM     45  C   UNL A   1      40.559  25.358  28.468  1.00  0.00     0.029 A 
ATOM     46  N   UNL A   1      41.531  27.266  28.978  1.00  0.00    -0.354 N 
ATOM     47  C   UNL A   1      45.669  28.073  27.490  1.00  0.00     0.074 A 
ATOM     48  C   UNL A   1      45.432  27.733  26.114  1.00  0.00     0.031 C 
ATOM     49  C   UNL A   1      39.598  26.175  28.962  1.00  0.00     0.029 A 
ATOM     50  C   UNL A   1      40.177  27.468  29.269  1.00  0.00     0.049 A 
ATOM     51  H   UNL A   1      42.226  27.922  29.214  1.00  0.00     0.167 HD
ATOM     52  C   UNL A   1      46.275  29.161  28.033  1.00  0.00     0.037 A 
ATOM     53  C   UNL A   1      39.562  28.614  29.689  1.00  0.00     0.037 A 
ATOM     54  C   UNL A   1      46.352  29.056  29.467  1.00  0.00     0.049 A 
ATOM     55  C   UNL A   1      40.615  29.483  30.265  1.00  0.00     0.074 A 
ATOM     56  C   UNL A   1      46.956  28.181  30.349  1.00  0.00     0.029 A 
ATOM     57  N   UNL A   1      45.428  29.752  30.205  1.00  0.00    -0.354 N 
ATOM     58  N   UNL A   1      41.266  29.205  31.359  1.00  0.00    -0.248 NA
ATOM     59  C   UNL A   1      41.264  30.419  29.363  1.00  0.00     0.031 C 
ATOM     60  C   UNL A   1      46.043  28.060  31.436  1.00  0.00     0.029 A 
ATOM     61  C   UNL A   1      44.968  28.913  31.187  1.00  0.00     0.049 A 
ATOM     62  H   UNL A   1      45.147  30.683  30.057  1.00  0.00     0.167 HD
ATOM     63  C   UNL A   1      42.575  29.561  31.081  1.00  0.00     0.074 A 
ATOM     64  C   UNL A   1      42.502  30.352  29.852  1.00  0.00     0.031 C 
ATOM     65  C   UNL A   1      43.621  28.951  31.709  1.00  0.00     0.037 A 
BRANCH  52  66
ATOM     66  C   UNL A   1      46.446  30.468  27.297  1.00  0.00     0.058 A 
ATOM     67  C   UNL A   1      47.721  31.062  27.237  1.00  0.00     0.135 A 
ATOM     68  C   UNL A   1      45.371  31.292  26.888  1.00  0.00     0.135 A 
ATOM     69  F   UNL A   1      48.812  30.377  27.615  1.00  0.00    -0.206 F 
ATOM     70  C   UNL A   1      47.907  32.392  26.862  1.00  0.00     0.059 A 
ATOM     71  C   UNL A   1      45.541  32.601  26.456  1.00  0.00     0.059 A 
ATOM     72  F   UNL A   1      44.093  30.909  26.977  1.00  0.00    -0.206 F 
ATOM     73  C   UNL A   1      46.807  33.156  26.484  1.00  0.00     0.060 A 
BRANCH  73  74
ATOM     74  S   UNL A   1      47.032  34.897  26.086  1.00  0.00     0.124 S 
ATOM     75  O   UNL A   1      45.672  35.294  25.739  1.00  0.00    -0.237 OA
ATOM     76  O   UNL A   1      47.554  35.425  27.342  1.00  0.00    -0.237 OA
ATOM     77  O   UNL A   1      47.984  34.869  24.979  1.00  0.00    -0.744 OA
ENDBRANCH  73  74
ENDBRANCH  52  66
BRANCH  53  78
ATOM     78  C   UNL A   1      38.227  29.176  29.299  1.00  0.00     0.058 A 
ATOM     79  C   UNL A   1      37.248  29.510  30.265  1.00  0.00     0.135 A 
ATOM     80  C   UNL A   1      38.002  29.694  28.010  1.00  0.00     0.135 A 
ATOM     81  F   UNL A   1      37.374  29.079  31.530  1.00  0.00    -0.206 F 
ATOM     82  C   UNL A   1      36.161  30.353  29.983  1.00  0.00     0.059 A 
ATOM     83  C   UNL A   1      36.924  30.530  27.704  1.00  0.00     0.059 A 
ATOM     84  F   UNL A   1      38.882  29.483  27.022  1.00  0.00    -0.206 F 
ATOM     85  C   UNL A   1      36.023  30.883  28.701  1.00  0.00     0.060 A 
BRANCH  85  86
ATOM     86  S   UNL A   1      34.745  32.126  28.372  1.00  0.00     0.124 S 
ATOM     87  O   UNL A   1      35.479  33.123  27.601  1.00  0.00    -0.237 OA
ATOM     88  O   UNL A   1      33.749  31.357  27.634  1.00  0.00    -0.237 OA
ATOM     89  O   UNL A   1      34.333  32.552  29.707  1.00  0.00    -0.744 OA
ENDBRANCH  85  86
ENDBRANCH  53  78
BRANCH  65  90
ATOM     90  C   UNL A   1      43.335  28.098  32.921  1.00  0.00     0.058 A 
ATOM     91  C   UNL A   1      43.399  26.692  32.955  1.00  0.00     0.135 A 
ATOM     92  C   UNL A   1      43.148  28.759  34.144  1.00  0.00     0.135 A 
ATOM     93  F   UNL A   1      43.663  25.988  31.843  1.00  0.00    -0.206 F 
ATOM     94  C   UNL A   1      43.259  25.977  34.151  1.00  0.00     0.059 A 
ATOM     95  C   UNL A   1      43.038  28.072  35.348  1.00  0.00     0.059 A 
ATOM     96  F   UNL A   1      43.130  30.102  34.186  1.00  0.00    -0.206 F 
ATOM     97  C   UNL A   1      43.086  26.680  35.346  1.00  0.00     0.060 A 
BRANCH  97  98
ATOM     98  S   UNL A   1      42.986  25.780  36.911  1.00  0.00     0.124 S 
ATOM     99  O   UNL A   1      43.876  24.648  36.679  1.00  0.00    -0.237 OA
ATOM    100  O   UNL A   1      43.447  26.770  37.879  1.00  0.00    -0.237 OA
ATOM    101  O   UNL A   1      41.569  25.439  37.018  1.00  0.00    -0.744 OA
ENDBRANCH  97  98
ENDBRANCH  65  90
ENDBRANCH  39  40
ENDBRANCH  32  34
ENDBRANCH  31  32
ENDBRANCH  30  31
ENDBRANCH   1  30
TORSDOF 18
ENDMDL
