MODEL 1
REMARK VINA RESULT:     -10.9      0.000      0.000
REMARK SMILES Cc1cc(C(=O)N[C@H]2C=C[C@@H](C(=O)OCCOCCOC(=O)c3ccc(-c4c5nc(c(-c6c(F)cc(S(=O)(=O)[O-])cc6F)c6ccc([nH]6)c(-c6c(F)cc(S(=O)(=O)[O-])cc6F)c6nc(c(-c7c(F)cc(S(=O)(=O)[O-])cc7F)c7ccc4[nH]7)C=C6)C=C5)cc3)C2)no1
REMARK SMILES IDX 18 1 17 2 16 3 15 4 14 5 12 6 13 7 11 8 8 9 9 10 89 11 10 12
REMARK SMILES IDX 7 13 5 14 6 15 4 17 1 18 2 19 3 20 91 21 90 22 19 23 20 24
REMARK SMILES IDX 21 25 22 26 23 27 24 28 88 29 25 30 87 31 26 32 27 33 28 34
REMARK SMILES IDX 81 35 29 36 86 37 80 38 82 39 30 40 85 41 79 42 78 43 31 45
REMARK SMILES IDX 65 46 44 47 64 48 45 49 48 50 63 51 83 52 46 53 47 54 62 56
REMARK SMILES IDX 84 57 49 58 32 59 33 60 42 61 34 62 35 63 41 64 43 65 36 66
REMARK SMILES IDX 37 67 38 68 39 69 40 70 66 71 67 72 76 73 68 74 69 75 75 76
REMARK SMILES IDX 77 77 70 78 71 79 72 80 73 81 74 82 50 83 51 84 60 85 52 86
REMARK SMILES IDX 53 87 59 88 61 89 54 90 55 91 56 92 57 93 58 94
REMARK H PARENT 7 16 82 44 48 55
REMARK Flexibility Score: inf
ROOT
ATOM      1  C   UNL A   1      43.040  21.980  25.882  1.00  0.00     0.202 C 
ENDROOT
BRANCH   1   2
ATOM      2  O   UNL A   1      41.824  21.387  25.424  1.00  0.00    -0.374 OA
BRANCH   2   3
ATOM      3  C   UNL A   1      40.959  20.796  26.393  1.00  0.00     0.202 C 
BRANCH   3   4
ATOM      4  C   UNL A   1      39.503  21.261  26.388  1.00  0.00     0.261 C 
BRANCH   4   5
ATOM      5  O   UNL A   1      39.413  22.674  26.167  1.00  0.00    -0.463 OA
BRANCH   5   6
ATOM      6  C   UNL A   1      38.154  23.165  26.055  1.00  0.00     0.312 C 
ATOM      7  O   UNL A   1      37.768  24.239  26.504  1.00  0.00    -0.252 OA
BRANCH   6   8
ATOM      8  C   UNL A   1      37.221  22.222  25.324  1.00  0.00     0.124 C 
ATOM      9  C   UNL A   1      34.976  21.636  24.694  1.00  0.00     0.106 C 
ATOM     10  C   UNL A   1      35.582  22.582  23.706  1.00  0.00    -0.006 C 
ATOM     11  C   UNL A   1      35.838  21.917  25.931  1.00  0.00     0.048 C 
ATOM     12  C   UNL A   1      36.854  22.847  24.016  1.00  0.00    -0.014 C 
BRANCH   9  13
ATOM     13  N   UNL A   1      33.559  21.831  24.855  1.00  0.00    -0.344 N 
ATOM     14  C   UNL A   1      32.597  20.871  25.133  1.00  0.00     0.273 C 
ATOM     15  O   UNL A   1      31.449  21.239  25.373  1.00  0.00    -0.267 OA
ATOM     16  H   UNL A   1      33.235  22.755  24.756  1.00  0.00     0.164 HD
BRANCH  14  17
ATOM     17  C   UNL A   1      32.985  19.457  25.064  1.00  0.00     0.171 A 
ATOM     18  C   UNL A   1      34.042  16.354  23.440  1.00  0.00     0.091 C 
ATOM     19  C   UNL A   1      33.641  17.510  24.262  1.00  0.00     0.134 A 
ATOM     20  C   UNL A   1      33.991  18.836  24.271  1.00  0.00     0.082 A 
ATOM     21  O   UNL A   1      32.649  17.306  25.165  1.00  0.00    -0.361 OA
ATOM     22  N   UNL A   1      32.254  18.521  25.693  1.00  0.00    -0.074 NA
ENDBRANCH  14  17
ENDBRANCH   9  13
ENDBRANCH   6   8
ENDBRANCH   5   6
ENDBRANCH   4   5
ENDBRANCH   3   4
ENDBRANCH   2   3
ENDBRANCH   1   2
BRANCH   1  23
ATOM     23  C   UNL A   1      43.217  23.487  25.669  1.00  0.00     0.261 C 
BRANCH  23  24
ATOM     24  O   UNL A   1      42.013  24.229  25.941  1.00  0.00    -0.460 OA
BRANCH  24  25
ATOM     25  C   UNL A   1      42.135  25.569  25.791  1.00  0.00     0.338 C 
ATOM     26  O   UNL A   1      42.114  26.194  24.737  1.00  0.00    -0.246 OA
BRANCH  25  27
ATOM     27  C   UNL A   1      42.115  26.243  27.100  1.00  0.00     0.060 A 
ATOM     28  C   UNL A   1      41.059  25.931  27.967  1.00  0.00     0.016 A 
ATOM     29  C   UNL A   1      43.043  27.230  27.438  1.00  0.00     0.016 A 
ATOM     30  C   UNL A   1      40.895  26.644  29.152  1.00  0.00     0.010 A 
ATOM     31  C   UNL A   1      42.871  27.951  28.625  1.00  0.00     0.010 A 
ATOM     32  C   UNL A   1      41.774  27.688  29.467  1.00  0.00    -0.014 A 
BRANCH  32  33
ATOM     33  C   UNL A   1      41.452  28.587  30.603  1.00  0.00     0.031 A 
ATOM     34  C   UNL A   1      42.251  28.475  31.875  1.00  0.00     0.074 A 
ATOM     35  C   UNL A   1      40.487  29.517  30.488  1.00  0.00     0.049 A 
ATOM     36  N   UNL A   1      42.136  29.152  32.987  1.00  0.00    -0.248 NA
ATOM     37  C   UNL A   1      43.321  27.464  31.895  1.00  0.00     0.031 C 
ATOM     38  C   UNL A   1      39.663  29.735  29.300  1.00  0.00     0.029 A 
ATOM     39  N   UNL A   1      40.031  30.446  31.389  1.00  0.00    -0.354 N 
ATOM     40  C   UNL A   1      43.104  28.641  33.844  1.00  0.00     0.074 A 
ATOM     41  C   UNL A   1      43.788  27.586  33.130  1.00  0.00     0.031 C 
ATOM     42  C   UNL A   1      38.786  30.723  29.553  1.00  0.00     0.029 A 
ATOM     43  C   UNL A   1      38.972  31.189  30.925  1.00  0.00     0.049 A 
ATOM     44  H   UNL A   1      40.425  30.568  32.282  1.00  0.00     0.167 HD
ATOM     45  C   UNL A   1      43.399  29.025  35.109  1.00  0.00     0.037 A 
ATOM     46  C   UNL A   1      38.222  32.121  31.547  1.00  0.00     0.037 A 
ATOM     47  C   UNL A   1      42.729  30.090  35.807  1.00  0.00     0.049 A 
ATOM     48  C   UNL A   1      38.553  32.509  32.965  1.00  0.00     0.074 A 
ATOM     49  C   UNL A   1      42.992  30.587  37.073  1.00  0.00     0.029 A 
ATOM     50  N   UNL A   1      41.658  30.816  35.307  1.00  0.00    -0.354 N 
ATOM     51  N   UNL A   1      39.506  32.054  33.744  1.00  0.00    -0.248 NA
ATOM     52  C   UNL A   1      37.713  33.543  33.586  1.00  0.00     0.031 C 
ATOM     53  C   UNL A   1      42.048  31.579  37.357  1.00  0.00     0.029 A 
ATOM     54  C   UNL A   1      41.230  31.736  36.250  1.00  0.00     0.049 A 
ATOM     55  H   UNL A   1      41.261  30.695  34.415  1.00  0.00     0.167 HD
ATOM     56  C   UNL A   1      39.393  32.761  34.938  1.00  0.00     0.074 A 
ATOM     57  C   UNL A   1      38.291  33.685  34.771  1.00  0.00     0.031 C 
ATOM     58  C   UNL A   1      40.135  32.656  36.067  1.00  0.00     0.037 A 
BRANCH  45  59
ATOM     59  C   UNL A   1      44.481  28.277  35.837  1.00  0.00     0.058 A 
ATOM     60  C   UNL A   1      45.805  28.740  35.876  1.00  0.00     0.135 A 
ATOM     61  C   UNL A   1      44.171  27.114  36.560  1.00  0.00     0.135 A 
ATOM     62  F   UNL A   1      46.159  29.836  35.188  1.00  0.00    -0.206 F 
ATOM     63  C   UNL A   1      46.788  28.070  36.599  1.00  0.00     0.059 A 
ATOM     64  C   UNL A   1      45.133  26.441  37.309  1.00  0.00     0.059 A 
ATOM     65  F   UNL A   1      42.921  26.626  36.552  1.00  0.00    -0.206 F 
ATOM     66  C   UNL A   1      46.441  26.922  37.316  1.00  0.00     0.060 A 
BRANCH  66  67
ATOM     67  S   UNL A   1      47.719  26.082  38.274  1.00  0.00     0.124 S 
ATOM     68  O   UNL A   1      48.920  26.792  37.841  1.00  0.00    -0.237 OA
ATOM     69  O   UNL A   1      47.296  26.335  39.647  1.00  0.00    -0.237 OA
ATOM     70  O   UNL A   1      47.618  24.695  37.835  1.00  0.00    -0.744 OA
ENDBRANCH  66  67
ENDBRANCH  45  59
BRANCH  46  71
ATOM     71  C   UNL A   1      37.065  32.736  30.842  1.00  0.00     0.058 A 
ATOM     72  C   UNL A   1      37.241  33.775  29.917  1.00  0.00     0.135 A 
ATOM     73  C   UNL A   1      35.754  32.302  31.097  1.00  0.00     0.135 A 
ATOM     74  F   UNL A   1      38.473  34.232  29.647  1.00  0.00    -0.206 F 
ATOM     75  C   UNL A   1      36.159  34.378  29.284  1.00  0.00     0.059 A 
ATOM     76  C   UNL A   1      34.658  32.871  30.457  1.00  0.00     0.059 A 
ATOM     77  F   UNL A   1      35.533  31.304  31.965  1.00  0.00    -0.206 F 
ATOM     78  C   UNL A   1      34.870  33.918  29.562  1.00  0.00     0.060 A 
BRANCH  78  79
ATOM     79  S   UNL A   1      33.473  34.683  28.710  1.00  0.00     0.124 S 
ATOM     80  O   UNL A   1      34.099  35.855  28.112  1.00  0.00    -0.237 OA
ATOM     81  O   UNL A   1      33.066  33.632  27.782  1.00  0.00    -0.237 OA
ATOM     82  O   UNL A   1      32.528  34.952  29.791  1.00  0.00    -0.744 OA
ENDBRANCH  78  79
ENDBRANCH  46  71
BRANCH  58  83
ATOM     83  C   UNL A   1      39.804  33.583  37.205  1.00  0.00     0.058 A 
ATOM     84  C   UNL A   1      38.886  33.227  38.205  1.00  0.00     0.135 A 
ATOM     85  C   UNL A   1      40.449  34.825  37.319  1.00  0.00     0.135 A 
ATOM     86  F   UNL A   1      38.239  32.053  38.141  1.00  0.00    -0.206 F 
ATOM     87  C   UNL A   1      38.600  34.081  39.267  1.00  0.00     0.059 A 
ATOM     88  C   UNL A   1      40.199  35.683  38.387  1.00  0.00     0.059 A 
ATOM     89  F   UNL A   1      41.345  35.210  36.397  1.00  0.00    -0.206 F 
ATOM     90  C   UNL A   1      39.261  35.308  39.348  1.00  0.00     0.060 A 
BRANCH  90  91
ATOM     91  S   UNL A   1      38.901  36.397  40.741  1.00  0.00     0.124 S 
ATOM     92  O   UNL A   1      40.196  36.452  41.412  1.00  0.00    -0.237 OA
ATOM     93  O   UNL A   1      38.478  37.627  40.079  1.00  0.00    -0.237 OA
ATOM     94  O   UNL A   1      37.849  35.688  41.464  1.00  0.00    -0.744 OA
ENDBRANCH  90  91
ENDBRANCH  58  83
ENDBRANCH  32  33
ENDBRANCH  25  27
ENDBRANCH  24  25
ENDBRANCH  23  24
ENDBRANCH   1  23
TORSDOF 19
ENDMDL
MODEL 2
REMARK VINA RESULT:     -10.7      6.672     12.041
REMARK SMILES Cc1cc(C(=O)N[C@H]2C=C[C@@H](C(=O)OCCOCCOC(=O)c3ccc(-c4c5nc(c(-c6c(F)cc(S(=O)(=O)[O-])cc6F)c6ccc([nH]6)c(-c6c(F)cc(S(=O)(=O)[O-])cc6F)c6nc(c(-c7c(F)cc(S(=O)(=O)[O-])cc7F)c7ccc4[nH]7)C=C6)C=C5)cc3)C2)no1
REMARK SMILES IDX 18 1 17 2 16 3 15 4 14 5 12 6 13 7 11 8 8 9 9 10 89 11 10 12
REMARK SMILES IDX 7 13 5 14 6 15 4 17 1 18 2 19 3 20 91 21 90 22 19 23 20 24
REMARK SMILES IDX 21 25 22 26 23 27 24 28 88 29 25 30 87 31 26 32 27 33 28 34
REMARK SMILES IDX 81 35 29 36 86 37 80 38 82 39 30 40 85 41 79 42 78 43 31 45
REMARK SMILES IDX 65 46 44 47 64 48 45 49 48 50 63 51 83 52 46 53 47 54 62 56
REMARK SMILES IDX 84 57 49 58 32 59 33 60 42 61 34 62 35 63 41 64 43 65 36 66
REMARK SMILES IDX 37 67 38 68 39 69 40 70 66 71 67 72 76 73 68 74 69 75 75 76
REMARK SMILES IDX 77 77 70 78 71 79 72 80 73 81 74 82 50 83 51 84 60 85 52 86
REMARK SMILES IDX 53 87 59 88 61 89 54 90 55 91 56 92 57 93 58 94
REMARK H PARENT 7 16 82 44 48 55
REMARK Flexibility Score: inf
ROOT
ATOM      1  C   UNL A   1      34.622  32.375  28.616  1.00  0.00     0.202 C 
ENDROOT
BRANCH   1   2
ATOM      2  O   UNL A   1      34.387  31.521  27.497  1.00  0.00    -0.374 OA
BRANCH   2   3
ATOM      3  C   UNL A   1      33.051  31.082  27.255  1.00  0.00     0.202 C 
BRANCH   3   4
ATOM      4  C   UNL A   1      32.864  30.015  26.175  1.00  0.00     0.261 C 
BRANCH   4   5
ATOM      5  O   UNL A   1      31.497  29.593  26.099  1.00  0.00    -0.463 OA
BRANCH   5   6
ATOM      6  C   UNL A   1      31.111  29.091  24.899  1.00  0.00     0.312 C 
ATOM      7  O   UNL A   1      30.636  29.744  23.976  1.00  0.00    -0.252 OA
BRANCH   6   8
ATOM      8  C   UNL A   1      31.297  27.591  24.805  1.00  0.00     0.124 C 
ATOM      9  C   UNL A   1      30.602  25.391  25.480  1.00  0.00     0.106 C 
ATOM     10  C   UNL A   1      29.823  25.859  24.292  1.00  0.00    -0.006 C 
ATOM     11  C   UNL A   1      31.075  26.728  26.063  1.00  0.00     0.048 C 
ATOM     12  C   UNL A   1      30.262  27.049  23.872  1.00  0.00    -0.014 C 
BRANCH   9  13
ATOM     13  N   UNL A   1      29.825  24.559  26.363  1.00  0.00    -0.344 N 
ATOM     14  C   UNL A   1      30.188  23.339  26.915  1.00  0.00     0.273 C 
ATOM     15  O   UNL A   1      29.450  22.832  27.758  1.00  0.00    -0.267 OA
ATOM     16  H   UNL A   1      28.932  24.896  26.601  1.00  0.00     0.164 HD
BRANCH  14  17
ATOM     17  C   UNL A   1      31.402  22.683  26.417  1.00  0.00     0.171 A 
ATOM     18  C   UNL A   1      33.433  19.911  25.162  1.00  0.00     0.091 C 
ATOM     19  C   UNL A   1      32.769  21.140  25.630  1.00  0.00     0.134 A 
ATOM     20  C   UNL A   1      31.545  21.711  25.387  1.00  0.00     0.082 A 
ATOM     21  O   UNL A   1      33.416  21.866  26.577  1.00  0.00    -0.361 OA
ATOM     22  N   UNL A   1      32.575  22.854  27.052  1.00  0.00    -0.074 NA
ENDBRANCH  14  17
ENDBRANCH   9  13
ENDBRANCH   6   8
ENDBRANCH   5   6
ENDBRANCH   4   5
ENDBRANCH   3   4
ENDBRANCH   2   3
ENDBRANCH   1   2
BRANCH   1  23
ATOM     23  C   UNL A   1      35.491  31.830  29.754  1.00  0.00     0.261 C 
BRANCH  23  24
ATOM     24  O   UNL A   1      36.005  30.514  29.474  1.00  0.00    -0.460 OA
BRANCH  24  25
ATOM     25  C   UNL A   1      36.787  29.999  30.453  1.00  0.00     0.338 C 
ATOM     26  O   UNL A   1      36.410  29.426  31.468  1.00  0.00    -0.246 OA
BRANCH  25  27
ATOM     27  C   UNL A   1      38.206  30.043  30.061  1.00  0.00     0.060 A 
ATOM     28  C   UNL A   1      38.498  29.968  28.693  1.00  0.00     0.016 A 
ATOM     29  C   UNL A   1      39.233  30.056  31.007  1.00  0.00     0.016 A 
ATOM     30  C   UNL A   1      39.818  29.849  28.266  1.00  0.00     0.010 A 
ATOM     31  C   UNL A   1      40.559  29.927  30.576  1.00  0.00     0.010 A 
ATOM     32  C   UNL A   1      40.853  29.783  29.207  1.00  0.00    -0.014 A 
BRANCH  32  33
ATOM     33  C   UNL A   1      42.220  29.421  28.755  1.00  0.00     0.031 A 
ATOM     34  C   UNL A   1      42.492  28.009  28.306  1.00  0.00     0.074 A 
ATOM     35  C   UNL A   1      43.194  30.348  28.708  1.00  0.00     0.049 A 
ATOM     36  N   UNL A   1      43.608  27.476  27.881  1.00  0.00    -0.248 NA
ATOM     37  C   UNL A   1      41.356  27.073  28.343  1.00  0.00     0.031 C 
ATOM     38  C   UNL A   1      43.044  31.749  29.096  1.00  0.00     0.029 A 
ATOM     39  N   UNL A   1      44.506  30.243  28.324  1.00  0.00    -0.354 N 
ATOM     40  C   UNL A   1      43.315  26.144  27.614  1.00  0.00     0.074 A 
ATOM     41  C   UNL A   1      41.921  25.943  27.942  1.00  0.00     0.031 C 
ATOM     42  C   UNL A   1      44.226  32.372  28.948  1.00  0.00     0.029 A 
ATOM     43  C   UNL A   1      45.220  31.408  28.478  1.00  0.00     0.049 A 
ATOM     44  H   UNL A   1      44.901  29.414  27.970  1.00  0.00     0.167 HD
ATOM     45  C   UNL A   1      44.134  25.179  27.134  1.00  0.00     0.037 A 
ATOM     46  C   UNL A   1      46.530  31.660  28.288  1.00  0.00     0.037 A 
ATOM     47  C   UNL A   1      45.516  25.390  26.790  1.00  0.00     0.049 A 
ATOM     48  C   UNL A   1      47.427  30.561  27.779  1.00  0.00     0.074 A 
ATOM     49  C   UNL A   1      46.414  24.486  26.247  1.00  0.00     0.029 A 
ATOM     50  N   UNL A   1      46.205  26.581  26.966  1.00  0.00    -0.354 N 
ATOM     51  N   UNL A   1      47.123  29.319  27.482  1.00  0.00    -0.248 NA
ATOM     52  C   UNL A   1      48.843  30.898  27.573  1.00  0.00     0.031 C 
ATOM     53  C   UNL A   1      47.658  25.117  26.140  1.00  0.00     0.029 A 
ATOM     54  C   UNL A   1      47.523  26.428  26.568  1.00  0.00     0.049 A 
ATOM     55  H   UNL A   1      45.814  27.412  27.320  1.00  0.00     0.167 HD
ATOM     56  C   UNL A   1      48.304  28.735  27.033  1.00  0.00     0.074 A 
ATOM     57  C   UNL A   1      49.322  29.763  27.082  1.00  0.00     0.031 C 
ATOM     58  C   UNL A   1      48.524  27.463  26.616  1.00  0.00     0.037 A 
BRANCH  45  59
ATOM     59  C   UNL A   1      43.571  23.795  26.968  1.00  0.00     0.058 A 
ATOM     60  C   UNL A   1      43.454  22.908  28.049  1.00  0.00     0.135 A 
ATOM     61  C   UNL A   1      43.081  23.377  25.721  1.00  0.00     0.135 A 
ATOM     62  F   UNL A   1      43.922  23.249  29.259  1.00  0.00    -0.206 F 
ATOM     63  C   UNL A   1      42.880  21.649  27.896  1.00  0.00     0.059 A 
ATOM     64  C   UNL A   1      42.482  22.133  25.550  1.00  0.00     0.059 A 
ATOM     65  F   UNL A   1      43.173  24.186  24.653  1.00  0.00    -0.206 F 
ATOM     66  C   UNL A   1      42.393  21.272  26.642  1.00  0.00     0.060 A 
BRANCH  66  67
ATOM     67  S   UNL A   1      41.622  19.649  26.467  1.00  0.00     0.124 S 
ATOM     68  O   UNL A   1      42.321  19.120  25.298  1.00  0.00    -0.237 OA
ATOM     69  O   UNL A   1      41.945  19.011  27.738  1.00  0.00    -0.237 OA
ATOM     70  O   UNL A   1      40.212  19.962  26.265  1.00  0.00    -0.744 OA
ENDBRANCH  66  67
ENDBRANCH  45  59
BRANCH  46  71
ATOM     71  C   UNL A   1      47.083  33.005  28.602  1.00  0.00     0.058 A 
ATOM     72  C   UNL A   1      47.157  34.012  27.628  1.00  0.00     0.135 A 
ATOM     73  C   UNL A   1      47.563  33.303  29.887  1.00  0.00     0.135 A 
ATOM     74  F   UNL A   1      46.719  33.773  26.382  1.00  0.00    -0.206 F 
ATOM     75  C   UNL A   1      47.706  35.258  27.909  1.00  0.00     0.059 A 
ATOM     76  C   UNL A   1      48.094  34.550  30.200  1.00  0.00     0.059 A 
ATOM     77  F   UNL A   1      47.505  32.378  30.858  1.00  0.00    -0.206 F 
ATOM     78  C   UNL A   1      48.173  35.518  29.200  1.00  0.00     0.060 A 
BRANCH  78  79
ATOM     79  S   UNL A   1      48.854  37.150  29.565  1.00  0.00     0.124 S 
ATOM     80  O   UNL A   1      47.689  37.839  30.108  1.00  0.00    -0.237 OA
ATOM     81  O   UNL A   1      49.912  36.834  30.520  1.00  0.00    -0.237 OA
ATOM     82  O   UNL A   1      49.317  37.619  28.262  1.00  0.00    -0.744 OA
ENDBRANCH  78  79
ENDBRANCH  46  71
BRANCH  58  83
ATOM     83  C   UNL A   1      49.912  27.116  26.149  1.00  0.00     0.058 A 
ATOM     84  C   UNL A   1      50.893  26.645  27.035  1.00  0.00     0.135 A 
ATOM     85  C   UNL A   1      50.248  27.213  24.790  1.00  0.00     0.135 A 
ATOM     86  F   UNL A   1      50.625  26.538  28.346  1.00  0.00    -0.206 F 
ATOM     87  C   UNL A   1      52.169  26.305  26.594  1.00  0.00     0.059 A 
ATOM     88  C   UNL A   1      51.508  26.852  24.321  1.00  0.00     0.059 A 
ATOM     89  F   UNL A   1      49.344  27.646  23.897  1.00  0.00    -0.206 F 
ATOM     90  C   UNL A   1      52.467  26.414  25.234  1.00  0.00     0.060 A 
BRANCH  90  91
ATOM     91  S   UNL A   1      54.116  25.947  24.668  1.00  0.00     0.124 S 
ATOM     92  O   UNL A   1      54.964  26.659  25.619  1.00  0.00    -0.237 OA
ATOM     93  O   UNL A   1      54.096  24.494  24.801  1.00  0.00    -0.237 OA
ATOM     94  O   UNL A   1      54.158  26.444  23.295  1.00  0.00    -0.744 OA
ENDBRANCH  90  91
ENDBRANCH  58  83
ENDBRANCH  32  33
ENDBRANCH  25  27
ENDBRANCH  24  25
ENDBRANCH  23  24
ENDBRANCH   1  23
TORSDOF 19
ENDMDL
MODEL 3
REMARK VINA RESULT:     -10.7      2.960      4.293
REMARK SMILES Cc1cc(C(=O)N[C@H]2C=C[C@@H](C(=O)OCCOCCOC(=O)c3ccc(-c4c5nc(c(-c6c(F)cc(S(=O)(=O)[O-])cc6F)c6ccc([nH]6)c(-c6c(F)cc(S(=O)(=O)[O-])cc6F)c6nc(c(-c7c(F)cc(S(=O)(=O)[O-])cc7F)c7ccc4[nH]7)C=C6)C=C5)cc3)C2)no1
REMARK SMILES IDX 18 1 17 2 16 3 15 4 14 5 12 6 13 7 11 8 8 9 9 10 89 11 10 12
REMARK SMILES IDX 7 13 5 14 6 15 4 17 1 18 2 19 3 20 91 21 90 22 19 23 20 24
REMARK SMILES IDX 21 25 22 26 23 27 24 28 88 29 25 30 87 31 26 32 27 33 28 34
REMARK SMILES IDX 81 35 29 36 86 37 80 38 82 39 30 40 85 41 79 42 78 43 31 45
REMARK SMILES IDX 65 46 44 47 64 48 45 49 48 50 63 51 83 52 46 53 47 54 62 56
REMARK SMILES IDX 84 57 49 58 32 59 33 60 42 61 34 62 35 63 41 64 43 65 36 66
REMARK SMILES IDX 37 67 38 68 39 69 40 70 66 71 67 72 76 73 68 74 69 75 75 76
REMARK SMILES IDX 77 77 70 78 71 79 72 80 73 81 74 82 50 83 51 84 60 85 52 86
REMARK SMILES IDX 53 87 59 88 61 89 54 90 55 91 56 92 57 93 58 94
REMARK H PARENT 7 16 82 44 48 55
REMARK Flexibility Score: inf
ROOT
ATOM      1  C   UNL A   1      38.534  21.934  25.919  1.00  0.00     0.202 C 
ENDROOT
BRANCH   1   2
ATOM      2  O   UNL A   1      37.814  22.358  24.762  1.00  0.00    -0.374 OA
BRANCH   2   3
ATOM      3  C   UNL A   1      36.630  21.643  24.409  1.00  0.00     0.202 C 
BRANCH   3   4
ATOM      4  C   UNL A   1      35.327  22.108  25.059  1.00  0.00     0.261 C 
BRANCH   4   5
ATOM      5  O   UNL A   1      34.783  23.241  24.371  1.00  0.00    -0.463 OA
BRANCH   5   6
ATOM      6  C   UNL A   1      34.981  24.438  24.978  1.00  0.00     0.312 C 
ATOM      7  O   UNL A   1      35.807  24.661  25.858  1.00  0.00    -0.252 OA
BRANCH   6   8
ATOM      8  C   UNL A   1      34.038  25.511  24.476  1.00  0.00     0.124 C 
ATOM      9  C   UNL A   1      31.790  26.341  24.285  1.00  0.00     0.106 C 
ATOM     10  C   UNL A   1      32.429  26.811  25.553  1.00  0.00    -0.006 C 
ATOM     11  C   UNL A   1      32.640  25.104  23.971  1.00  0.00     0.048 C 
ATOM     12  C   UNL A   1      33.702  26.412  25.622  1.00  0.00    -0.014 C 
BRANCH   9  13
ATOM     13  N   UNL A   1      30.375  26.114  24.425  1.00  0.00    -0.344 N 
ATOM     14  C   UNL A   1      29.339  26.841  23.857  1.00  0.00     0.273 C 
ATOM     15  O   UNL A   1      28.190  26.420  23.975  1.00  0.00    -0.267 OA
ATOM     16  H   UNL A   1      30.112  25.353  24.992  1.00  0.00     0.164 HD
BRANCH  14  17
ATOM     17  C   UNL A   1      29.661  28.111  23.197  1.00  0.00     0.171 A 
ATOM     18  C   UNL A   1      29.070  31.544  22.081  1.00  0.00     0.091 C 
ATOM     19  C   UNL A   1      29.489  30.185  22.464  1.00  0.00     0.134 A 
ATOM     20  C   UNL A   1      29.369  29.442  23.611  1.00  0.00     0.082 A 
ATOM     21  O   UNL A   1      30.039  29.414  21.492  1.00  0.00    -0.361 OA
ATOM     22  N   UNL A   1      30.177  28.120  21.956  1.00  0.00    -0.074 NA
ENDBRANCH  14  17
ENDBRANCH   9  13
ENDBRANCH   6   8
ENDBRANCH   5   6
ENDBRANCH   4   5
ENDBRANCH   3   4
ENDBRANCH   2   3
ENDBRANCH   1   2
BRANCH   1  23
ATOM     23  C   UNL A   1      39.662  22.841  26.423  1.00  0.00     0.261 C 
BRANCH  23  24
ATOM     24  O   UNL A   1      39.233  24.204  26.609  1.00  0.00    -0.460 OA
BRANCH  24  25
ATOM     25  C   UNL A   1      40.211  25.126  26.444  1.00  0.00     0.338 C 
ATOM     26  O   UNL A   1      40.789  25.403  25.399  1.00  0.00    -0.246 OA
BRANCH  25  27
ATOM     27  C   UNL A   1      40.388  25.921  27.671  1.00  0.00     0.060 A 
ATOM     28  C   UNL A   1      39.380  25.840  28.640  1.00  0.00     0.016 A 
ATOM     29  C   UNL A   1      41.459  26.803  27.831  1.00  0.00     0.016 A 
ATOM     30  C   UNL A   1      39.410  26.681  29.750  1.00  0.00     0.010 A 
ATOM     31  C   UNL A   1      41.481  27.653  28.942  1.00  0.00     0.010 A 
ATOM     32  C   UNL A   1      40.437  27.623  29.885  1.00  0.00    -0.014 A 
BRANCH  32  33
ATOM     33  C   UNL A   1      40.329  28.664  30.937  1.00  0.00     0.031 A 
ATOM     34  C   UNL A   1      41.213  28.570  32.153  1.00  0.00     0.074 A 
ATOM     35  C   UNL A   1      39.483  29.701  30.792  1.00  0.00     0.049 A 
ATOM     36  N   UNL A   1      41.279  29.362  33.192  1.00  0.00    -0.248 NA
ATOM     37  C   UNL A   1      42.144  27.430  32.207  1.00  0.00     0.031 C 
ATOM     38  C   UNL A   1      38.595  29.910  29.649  1.00  0.00     0.029 A 
ATOM     39  N   UNL A   1      39.227  30.765  31.617  1.00  0.00    -0.354 N 
ATOM     40  C   UNL A   1      42.244  28.811  34.028  1.00  0.00     0.074 A 
ATOM     41  C   UNL A   1      42.725  27.609  33.385  1.00  0.00     0.031 C 
ATOM     42  C   UNL A   1      37.876  31.027  29.856  1.00  0.00     0.029 A 
ATOM     43  C   UNL A   1      38.235  31.596  31.153  1.00  0.00     0.049 A 
ATOM     44  H   UNL A   1      39.708  30.921  32.462  1.00  0.00     0.167 HD
ATOM     45  C   UNL A   1      42.691  29.273  35.219  1.00  0.00     0.037 A 
ATOM     46  C   UNL A   1      37.665  32.677  31.722  1.00  0.00     0.037 A 
ATOM     47  C   UNL A   1      42.224  30.482  35.845  1.00  0.00     0.049 A 
ATOM     48  C   UNL A   1      38.161  33.154  33.063  1.00  0.00     0.074 A 
ATOM     49  C   UNL A   1      42.654  31.060  37.027  1.00  0.00     0.029 A 
ATOM     50  N   UNL A   1      41.214  31.294  35.347  1.00  0.00    -0.354 N 
ATOM     51  N   UNL A   1      39.112  32.652  33.817  1.00  0.00    -0.248 NA
ATOM     52  C   UNL A   1      37.515  34.347  33.628  1.00  0.00     0.031 C 
ATOM     53  C   UNL A   1      41.871  32.194  37.269  1.00  0.00     0.029 A 
ATOM     54  C   UNL A   1      40.989  32.351  36.213  1.00  0.00     0.049 A 
ATOM     55  H   UNL A   1      40.731  31.141  34.503  1.00  0.00     0.167 HD
ATOM     56  C   UNL A   1      39.191  33.481  34.932  1.00  0.00     0.074 A 
ATOM     57  C   UNL A   1      38.205  34.525  34.746  1.00  0.00     0.031 C 
ATOM     58  C   UNL A   1      40.008  33.388  36.011  1.00  0.00     0.037 A 
BRANCH  45  59
ATOM     59  C   UNL A   1      43.727  28.461  35.945  1.00  0.00     0.058 A 
ATOM     60  C   UNL A   1      43.379  27.382  36.772  1.00  0.00     0.135 A 
ATOM     61  C   UNL A   1      45.093  28.727  35.755  1.00  0.00     0.135 A 
ATOM     62  F   UNL A   1      42.088  27.096  37.002  1.00  0.00    -0.206 F 
ATOM     63  C   UNL A   1      44.348  26.602  37.395  1.00  0.00     0.059 A 
ATOM     64  C   UNL A   1      46.080  27.945  36.349  1.00  0.00     0.059 A 
ATOM     65  F   UNL A   1      45.480  29.750  34.978  1.00  0.00    -0.206 F 
ATOM     66  C   UNL A   1      45.697  26.890  37.175  1.00  0.00     0.060 A 
BRANCH  66  67
ATOM     67  S   UNL A   1      46.943  25.849  37.965  1.00  0.00     0.124 S 
ATOM     68  O   UNL A   1      46.382  25.690  39.303  1.00  0.00    -0.237 OA
ATOM     69  O   UNL A   1      46.928  24.655  37.127  1.00  0.00    -0.237 OA
ATOM     70  O   UNL A   1      48.158  26.652  37.885  1.00  0.00    -0.744 OA
ENDBRANCH  66  67
ENDBRANCH  45  59
BRANCH  46  71
ATOM     71  C   UNL A   1      36.540  33.371  31.040  1.00  0.00     0.058 A 
ATOM     72  C   UNL A   1      35.221  33.259  31.504  1.00  0.00     0.135 A 
ATOM     73  C   UNL A   1      36.766  34.152  29.895  1.00  0.00     0.135 A 
ATOM     74  F   UNL A   1      34.953  32.517  32.589  1.00  0.00    -0.206 F 
ATOM     75  C   UNL A   1      34.163  33.877  30.846  1.00  0.00     0.059 A 
ATOM     76  C   UNL A   1      35.728  34.801  29.234  1.00  0.00     0.059 A 
ATOM     77  F   UNL A   1      38.011  34.300  29.416  1.00  0.00    -0.206 F 
ATOM     78  C   UNL A   1      34.427  34.646  29.711  1.00  0.00     0.060 A 
BRANCH  78  79
ATOM     79  S   UNL A   1      33.052  35.473  28.883  1.00  0.00     0.124 S 
ATOM     80  O   UNL A   1      32.263  35.938  30.017  1.00  0.00    -0.237 OA
ATOM     81  O   UNL A   1      33.734  36.508  28.112  1.00  0.00    -0.237 OA
ATOM     82  O   UNL A   1      32.450  34.407  28.087  1.00  0.00    -0.744 OA
ENDBRANCH  78  79
ENDBRANCH  46  71
BRANCH  58  83
ATOM     83  C   UNL A   1      39.895  34.458  37.062  1.00  0.00     0.058 A 
ATOM     84  C   UNL A   1      40.598  35.669  36.962  1.00  0.00     0.135 A 
ATOM     85  C   UNL A   1      39.035  34.288  38.159  1.00  0.00     0.135 A 
ATOM     86  F   UNL A   1      41.436  35.881  35.935  1.00  0.00    -0.206 F 
ATOM     87  C   UNL A   1      40.473  36.664  37.927  1.00  0.00     0.059 A 
ATOM     88  C   UNL A   1      38.874  35.280  39.122  1.00  0.00     0.059 A 
ATOM     89  F   UNL A   1      38.330  33.154  38.297  1.00  0.00    -0.206 F 
ATOM     90  C   UNL A   1      39.608  36.459  39.005  1.00  0.00     0.060 A 
BRANCH  90  91
ATOM     91  S   UNL A   1      39.434  37.766  40.238  1.00  0.00     0.124 S 
ATOM     92  O   UNL A   1      38.302  38.520  39.708  1.00  0.00    -0.237 OA
ATOM     93  O   UNL A   1      39.178  37.012  41.461  1.00  0.00    -0.237 OA
ATOM     94  O   UNL A   1      40.722  38.451  40.190  1.00  0.00    -0.744 OA
ENDBRANCH  90  91
ENDBRANCH  58  83
ENDBRANCH  32  33
ENDBRANCH  25  27
ENDBRANCH  24  25
ENDBRANCH  23  24
ENDBRANCH   1  23
TORSDOF 19
ENDMDL
