MODEL 1
REMARK VINA RESULT:     -12.0      0.000      0.000
REMARK SMILES CS(=O)(=O)c1ccc(/C=C(/C(=O)OCCOCCOC(=O)c2ccc(-c3c4nc(c(-c5c(F)cc(S(=O)(=O)[O-])cc5F)c5ccc([nH]5)c(-c5c(F)cc(S(=O)(=O)[O-])cc5F)c5nc(c(-c6c(F)cc(S(=O)(=O)[O-])cc6F)c6ccc3[nH]6)C=C5)C=C4)cc2)c2ccc(O)cc2)cc1
REMARK SMILES IDX 17 1 16 2 15 3 14 4 13 5 11 6 12 7 10 8 9 9 8 10 5 11 6 12
REMARK SMILES IDX 96 13 7 14 95 15 2 16 1 17 3 18 4 19 88 20 89 21 94 22 90 23
REMARK SMILES IDX 93 24 91 25 92 26 18 28 19 29 20 30 21 31 22 32 23 33 87 34
REMARK SMILES IDX 24 35 86 36 25 37 26 38 27 39 80 40 28 41 85 42 79 43 81 44
REMARK SMILES IDX 29 45 84 46 78 47 77 48 30 50 64 51 43 52 63 53 44 54 47 55
REMARK SMILES IDX 62 56 82 57 45 58 46 59 61 61 83 62 48 63 31 64 32 65 41 66
REMARK SMILES IDX 33 67 34 68 40 69 42 70 35 71 36 72 37 73 38 74 39 75 65 76
REMARK SMILES IDX 66 77 75 78 67 79 68 80 74 81 76 82 69 83 70 84 71 85 72 86
REMARK SMILES IDX 73 87 49 88 50 89 59 90 51 91 52 92 58 93 60 94 53 95 54 96
REMARK SMILES IDX 55 97 56 98 57 99
REMARK H PARENT 92 27 81 49 47 60
REMARK Flexibility Score: inf
ROOT
ATOM      1  C   UNL A   1      38.221  22.636  25.675  1.00  0.00     0.202 C 
ENDROOT
BRANCH   1   2
ATOM      2  O   UNL A   1      37.161  23.268  26.383  1.00  0.00    -0.374 OA
BRANCH   2   3
ATOM      3  C   UNL A   1      35.899  23.380  25.724  1.00  0.00     0.202 C 
BRANCH   3   4
ATOM      4  C   UNL A   1      34.633  23.281  26.583  1.00  0.00     0.261 C 
BRANCH   4   5
ATOM      5  O   UNL A   1      33.435  23.367  25.788  1.00  0.00    -0.460 OA
BRANCH   5   6
ATOM      6  C   UNL A   1      32.384  23.964  26.407  1.00  0.00     0.338 C 
ATOM      7  O   UNL A   1      31.915  23.638  27.489  1.00  0.00    -0.246 OA
BRANCH   6   8
ATOM      8  C   UNL A   1      31.919  25.189  25.678  1.00  0.00     0.067 C 
ATOM      9  C   UNL A   1      31.156  25.084  24.563  1.00  0.00     0.024 C 
BRANCH   9  10
ATOM     10  C   UNL A   1      30.416  26.161  23.853  1.00  0.00    -0.025 A 
ATOM     11  C   UNL A   1      28.966  28.392  22.931  1.00  0.00     0.067 A 
ATOM     12  C   UNL A   1      30.311  28.258  22.602  1.00  0.00     0.021 A 
ATOM     13  C   UNL A   1      28.308  27.371  23.616  1.00  0.00     0.021 A 
ATOM     14  C   UNL A   1      31.017  27.131  23.037  1.00  0.00     0.009 A 
ATOM     15  C   UNL A   1      29.032  26.260  24.069  1.00  0.00     0.009 A 
BRANCH  11  16
ATOM     16  S   UNL A   1      28.101  29.890  22.528  1.00  0.00     0.175 S 
ATOM     17  C   UNL A   1      29.086  31.196  23.223  1.00  0.00     0.163 C 
ATOM     18  O   UNL A   1      26.848  29.883  23.259  1.00  0.00    -0.224 OA
ATOM     19  O   UNL A   1      28.130  30.022  21.085  1.00  0.00    -0.224 OA
ENDBRANCH  11  16
ENDBRANCH   9  10
BRANCH   8  20
ATOM     20  C   UNL A   1      32.281  26.480  26.296  1.00  0.00    -0.011 A 
ATOM     21  C   UNL A   1      33.565  27.012  26.087  1.00  0.00     0.013 A 
ATOM     22  C   UNL A   1      31.348  27.212  27.038  1.00  0.00     0.013 A 
ATOM     23  C   UNL A   1      33.897  28.272  26.577  1.00  0.00     0.047 A 
ATOM     24  C   UNL A   1      31.679  28.479  27.523  1.00  0.00     0.047 A 
ATOM     25  C   UNL A   1      32.947  29.001  27.277  1.00  0.00     0.115 A 
BRANCH  25  26
ATOM     26  O   UNL A   1      33.295  30.250  27.699  1.00  0.00    -0.508 OA
ATOM     27  H   UNL A   1      34.195  30.455  27.861  1.00  0.00     0.293 HD
ENDBRANCH  25  26
ENDBRANCH   8  20
ENDBRANCH   6   8
ENDBRANCH   5   6
ENDBRANCH   4   5
ENDBRANCH   3   4
ENDBRANCH   2   3
ENDBRANCH   1   2
BRANCH   1  28
ATOM     28  C   UNL A   1      39.543  22.372  26.408  1.00  0.00     0.261 C 
BRANCH  28  29
ATOM     29  O   UNL A   1      39.775  23.268  27.502  1.00  0.00    -0.460 OA
BRANCH  29  30
ATOM     30  C   UNL A   1      40.794  24.136  27.299  1.00  0.00     0.338 C 
ATOM     31  O   UNL A   1      41.694  24.039  26.473  1.00  0.00    -0.246 OA
BRANCH  30  32
ATOM     32  C   UNL A   1      40.580  25.351  28.100  1.00  0.00     0.060 A 
ATOM     33  C   UNL A   1      41.667  26.219  28.264  1.00  0.00     0.016 A 
ATOM     34  C   UNL A   1      39.356  25.615  28.717  1.00  0.00     0.016 A 
ATOM     35  C   UNL A   1      41.547  27.335  29.085  1.00  0.00     0.010 A 
ATOM     36  C   UNL A   1      39.242  26.730  29.551  1.00  0.00     0.010 A 
ATOM     37  C   UNL A   1      40.346  27.576  29.763  1.00  0.00    -0.014 A 
BRANCH  37  38
ATOM     38  C   UNL A   1      40.288  28.635  30.798  1.00  0.00     0.031 A 
ATOM     39  C   UNL A   1      41.207  28.542  31.984  1.00  0.00     0.074 A 
ATOM     40  C   UNL A   1      39.440  29.671  30.670  1.00  0.00     0.049 A 
ATOM     41  N   UNL A   1      41.289  29.320  33.031  1.00  0.00    -0.248 NA
ATOM     42  C   UNL A   1      42.159  27.419  31.992  1.00  0.00     0.031 C 
ATOM     43  C   UNL A   1      38.532  29.883  29.543  1.00  0.00     0.029 A 
ATOM     44  N   UNL A   1      39.199  30.734  31.501  1.00  0.00    -0.354 N 
ATOM     45  C   UNL A   1      42.292  28.778  33.826  1.00  0.00     0.074 A 
ATOM     46  C   UNL A   1      42.770  27.588  33.155  1.00  0.00     0.031 C 
ATOM     47  C   UNL A   1      37.821  31.003  29.761  1.00  0.00     0.029 A 
ATOM     48  C   UNL A   1      38.198  31.564  31.058  1.00  0.00     0.049 A 
ATOM     49  H   UNL A   1      39.696  30.888  32.337  1.00  0.00     0.167 HD
ATOM     50  C   UNL A   1      42.775  29.237  35.005  1.00  0.00     0.037 A 
ATOM     51  C   UNL A   1      37.633  32.637  31.644  1.00  0.00     0.037 A 
ATOM     52  C   UNL A   1      42.292  30.424  35.664  1.00  0.00     0.049 A 
ATOM     53  C   UNL A   1      38.140  33.090  32.989  1.00  0.00     0.074 A 
ATOM     54  C   UNL A   1      42.726  30.987  36.850  1.00  0.00     0.029 A 
ATOM     55  N   UNL A   1      41.259  31.225  35.197  1.00  0.00    -0.354 N 
ATOM     56  N   UNL A   1      39.104  32.584  33.721  1.00  0.00    -0.248 NA
ATOM     57  C   UNL A   1      37.485  34.263  33.586  1.00  0.00     0.031 C 
ATOM     58  C   UNL A   1      41.921  32.096  37.128  1.00  0.00     0.029 A 
ATOM     59  C   UNL A   1      41.023  32.261  36.086  1.00  0.00     0.049 A 
ATOM     60  H   UNL A   1      40.766  31.079  34.356  1.00  0.00     0.167 HD
ATOM     61  C   UNL A   1      39.190  33.391  34.851  1.00  0.00     0.074 A 
ATOM     62  C   UNL A   1      38.187  34.426  34.699  1.00  0.00     0.031 C 
ATOM     63  C   UNL A   1      40.024  33.287  35.917  1.00  0.00     0.037 A 
BRANCH  50  64
ATOM     64  C   UNL A   1      43.862  28.440  35.674  1.00  0.00     0.058 A 
ATOM     65  C   UNL A   1      43.573  27.399  36.571  1.00  0.00     0.135 A 
ATOM     66  C   UNL A   1      45.212  28.700  35.386  1.00  0.00     0.135 A 
ATOM     67  F   UNL A   1      42.301  27.121  36.897  1.00  0.00    -0.206 F 
ATOM     68  C   UNL A   1      44.585  26.661  37.179  1.00  0.00     0.059 A 
ATOM     69  C   UNL A   1      46.238  27.955  35.959  1.00  0.00     0.059 A 
ATOM     70  F   UNL A   1      45.545  29.686  34.539  1.00  0.00    -0.206 F 
ATOM     71  C   UNL A   1      45.915  26.947  36.865  1.00  0.00     0.060 A 
BRANCH  71  72
ATOM     72  S   UNL A   1      47.214  25.975  37.655  1.00  0.00     0.124 S 
ATOM     73  O   UNL A   1      47.309  26.622  38.961  1.00  0.00    -0.237 OA
ATOM     74  O   UNL A   1      46.643  24.631  37.654  1.00  0.00    -0.237 OA
ATOM     75  O   UNL A   1      48.364  26.164  36.777  1.00  0.00    -0.744 OA
ENDBRANCH  71  72
ENDBRANCH  50  64
BRANCH  51  76
ATOM     76  C   UNL A   1      36.514  33.348  30.970  1.00  0.00     0.058 A 
ATOM     77  C   UNL A   1      35.194  33.227  31.431  1.00  0.00     0.135 A 
ATOM     78  C   UNL A   1      36.742  34.167  29.853  1.00  0.00     0.135 A 
ATOM     79  F   UNL A   1      34.923  32.447  32.489  1.00  0.00    -0.206 F 
ATOM     80  C   UNL A   1      34.139  33.880  30.803  1.00  0.00     0.059 A 
ATOM     81  C   UNL A   1      35.708  34.853  29.224  1.00  0.00     0.059 A 
ATOM     82  F   UNL A   1      37.988  34.325  29.379  1.00  0.00    -0.206 F 
ATOM     83  C   UNL A   1      34.408  34.695  29.701  1.00  0.00     0.060 A 
BRANCH  83  84
ATOM     84  S   UNL A   1      33.039  35.583  28.925  1.00  0.00     0.124 S 
ATOM     85  O   UNL A   1      32.399  34.521  28.158  1.00  0.00    -0.237 OA
ATOM     86  O   UNL A   1      32.297  36.072  30.084  1.00  0.00    -0.237 OA
ATOM     87  O   UNL A   1      33.710  36.613  28.141  1.00  0.00    -0.744 OA
ENDBRANCH  83  84
ENDBRANCH  51  76
BRANCH  63  88
ATOM     88  C   UNL A   1      39.915  34.339  36.988  1.00  0.00     0.058 A 
ATOM     89  C   UNL A   1      40.611  35.555  36.906  1.00  0.00     0.135 A 
ATOM     90  C   UNL A   1      39.059  34.148  38.086  1.00  0.00     0.135 A 
ATOM     91  F   UNL A   1      41.447  35.787  35.882  1.00  0.00    -0.206 F 
ATOM     92  C   UNL A   1      40.483  36.533  37.886  1.00  0.00     0.059 A 
ATOM     93  C   UNL A   1      38.891  35.126  39.061  1.00  0.00     0.059 A 
ATOM     94  F   UNL A   1      38.359  33.008  38.207  1.00  0.00    -0.206 F 
ATOM     95  C   UNL A   1      39.618  36.310  38.961  1.00  0.00     0.060 A 
BRANCH  95  96
ATOM     96  S   UNL A   1      39.437  37.601  40.209  1.00  0.00     0.124 S 
ATOM     97  O   UNL A   1      38.913  36.844  41.341  1.00  0.00    -0.237 OA
ATOM     98  O   UNL A   1      40.805  38.091  40.352  1.00  0.00    -0.237 OA
ATOM     99  O   UNL A   1      38.503  38.540  39.595  1.00  0.00    -0.744 OA
ENDBRANCH  95  96
ENDBRANCH  63  88
ENDBRANCH  37  38
ENDBRANCH  30  32
ENDBRANCH  29  30
ENDBRANCH  28  29
ENDBRANCH   1  28
TORSDOF 21
ENDMDL
MODEL 2
REMARK VINA RESULT:     -11.5      6.287     10.674
REMARK SMILES CS(=O)(=O)c1ccc(/C=C(/C(=O)OCCOCCOC(=O)c2ccc(-c3c4nc(c(-c5c(F)cc(S(=O)(=O)[O-])cc5F)c5ccc([nH]5)c(-c5c(F)cc(S(=O)(=O)[O-])cc5F)c5nc(c(-c6c(F)cc(S(=O)(=O)[O-])cc6F)c6ccc3[nH]6)C=C5)C=C4)cc2)c2ccc(O)cc2)cc1
REMARK SMILES IDX 17 1 16 2 15 3 14 4 13 5 11 6 12 7 10 8 9 9 8 10 5 11 6 12
REMARK SMILES IDX 96 13 7 14 95 15 2 16 1 17 3 18 4 19 88 20 89 21 94 22 90 23
REMARK SMILES IDX 93 24 91 25 92 26 18 28 19 29 20 30 21 31 22 32 23 33 87 34
REMARK SMILES IDX 24 35 86 36 25 37 26 38 27 39 80 40 28 41 85 42 79 43 81 44
REMARK SMILES IDX 29 45 84 46 78 47 77 48 30 50 64 51 43 52 63 53 44 54 47 55
REMARK SMILES IDX 62 56 82 57 45 58 46 59 61 61 83 62 48 63 31 64 32 65 41 66
REMARK SMILES IDX 33 67 34 68 40 69 42 70 35 71 36 72 37 73 38 74 39 75 65 76
REMARK SMILES IDX 66 77 75 78 67 79 68 80 74 81 76 82 69 83 70 84 71 85 72 86
REMARK SMILES IDX 73 87 49 88 50 89 59 90 51 91 52 92 58 93 60 94 53 95 54 96
REMARK SMILES IDX 55 97 56 98 57 99
REMARK H PARENT 92 27 81 49 47 60
REMARK Flexibility Score: inf
ROOT
ATOM      1  C   UNL A   1      38.113  20.980  25.302  1.00  0.00     0.202 C 
ENDROOT
BRANCH   1   2
ATOM      2  O   UNL A   1      36.809  21.334  25.749  1.00  0.00    -0.374 OA
BRANCH   2   3
ATOM      3  C   UNL A   1      36.425  22.706  25.648  1.00  0.00     0.202 C 
BRANCH   3   4
ATOM      4  C   UNL A   1      34.987  23.015  25.214  1.00  0.00     0.261 C 
BRANCH   4   5
ATOM      5  O   UNL A   1      34.565  24.323  25.642  1.00  0.00    -0.460 OA
BRANCH   5   6
ATOM      6  C   UNL A   1      33.250  24.416  25.970  1.00  0.00     0.338 C 
ATOM      7  O   UNL A   1      32.664  23.706  26.775  1.00  0.00    -0.246 OA
BRANCH   6   8
ATOM      8  C   UNL A   1      32.590  25.600  25.327  1.00  0.00     0.067 C 
ATOM      9  C   UNL A   1      31.848  25.454  24.203  1.00  0.00     0.024 C 
BRANCH   9  10
ATOM     10  C   UNL A   1      30.940  26.446  23.568  1.00  0.00    -0.025 A 
ATOM     11  C   UNL A   1      29.182  28.505  22.794  1.00  0.00     0.067 A 
ATOM     12  C   UNL A   1      30.506  28.531  22.368  1.00  0.00     0.021 A 
ATOM     13  C   UNL A   1      28.696  27.408  23.503  1.00  0.00     0.021 A 
ATOM     14  C   UNL A   1      31.366  27.489  22.730  1.00  0.00     0.009 A 
ATOM     15  C   UNL A   1      29.574  26.383  23.883  1.00  0.00     0.009 A 
BRANCH  11  16
ATOM     16  S   UNL A   1      28.125  29.898  22.482  1.00  0.00     0.175 S 
ATOM     17  C   UNL A   1      28.955  31.285  23.219  1.00  0.00     0.163 C 
ATOM     18  O   UNL A   1      26.902  29.698  23.237  1.00  0.00    -0.224 OA
ATOM     19  O   UNL A   1      28.099  30.099  21.047  1.00  0.00    -0.224 OA
ENDBRANCH  11  16
ENDBRANCH   9  10
BRANCH   8  20
ATOM     20  C   UNL A   1      32.741  26.884  26.040  1.00  0.00    -0.011 A 
ATOM     21  C   UNL A   1      33.895  27.660  25.830  1.00  0.00     0.013 A 
ATOM     22  C   UNL A   1      31.730  27.370  26.875  1.00  0.00     0.013 A 
ATOM     23  C   UNL A   1      34.016  28.918  26.414  1.00  0.00     0.047 A 
ATOM     24  C   UNL A   1      31.849  28.635  27.455  1.00  0.00     0.047 A 
ATOM     25  C   UNL A   1      32.987  29.402  27.208  1.00  0.00     0.115 A 
BRANCH  25  26
ATOM     26  O   UNL A   1      33.122  30.657  27.721  1.00  0.00    -0.508 OA
ATOM     27  H   UNL A   1      32.373  31.105  28.065  1.00  0.00     0.293 HD
ENDBRANCH  25  26
ENDBRANCH   8  20
ENDBRANCH   6   8
ENDBRANCH   5   6
ENDBRANCH   4   5
ENDBRANCH   3   4
ENDBRANCH   2   3
ENDBRANCH   1   2
BRANCH   1  28
ATOM     28  C   UNL A   1      39.322  21.409  26.143  1.00  0.00     0.261 C 
BRANCH  28  29
ATOM     29  O   UNL A   1      39.964  20.317  26.814  1.00  0.00    -0.460 OA
BRANCH  29  30
ATOM     30  C   UNL A   1      41.213  20.049  26.363  1.00  0.00     0.338 C 
ATOM     31  O   UNL A   1      41.579  19.054  25.748  1.00  0.00    -0.246 OA
BRANCH  30  32
ATOM     32  C   UNL A   1      42.072  21.228  26.550  1.00  0.00     0.060 A 
ATOM     33  C   UNL A   1      42.329  21.641  27.864  1.00  0.00     0.016 A 
ATOM     34  C   UNL A   1      42.578  21.945  25.464  1.00  0.00     0.016 A 
ATOM     35  C   UNL A   1      43.060  22.801  28.097  1.00  0.00     0.010 A 
ATOM     36  C   UNL A   1      43.302  23.116  25.701  1.00  0.00     0.010 A 
ATOM     37  C   UNL A   1      43.518  23.565  27.017  1.00  0.00    -0.014 A 
BRANCH  37  38
ATOM     38  C   UNL A   1      44.104  24.904  27.263  1.00  0.00     0.031 A 
ATOM     39  C   UNL A   1      43.205  26.018  27.720  1.00  0.00     0.074 A 
ATOM     40  C   UNL A   1      45.423  25.114  27.097  1.00  0.00     0.049 A 
ATOM     41  N   UNL A   1      43.488  27.274  27.941  1.00  0.00    -0.248 NA
ATOM     42  C   UNL A   1      41.794  25.669  27.958  1.00  0.00     0.031 C 
ATOM     43  C   UNL A   1      46.395  24.098  26.695  1.00  0.00     0.029 A 
ATOM     44  N   UNL A   1      46.167  26.256  27.237  1.00  0.00    -0.354 N 
ATOM     45  C   UNL A   1      42.295  27.868  28.333  1.00  0.00     0.074 A 
ATOM     46  C   UNL A   1      41.276  26.841  28.292  1.00  0.00     0.031 C 
ATOM     47  C   UNL A   1      47.609  24.668  26.608  1.00  0.00     0.029 A 
ATOM     48  C   UNL A   1      47.492  26.093  26.911  1.00  0.00     0.049 A 
ATOM     49  H   UNL A   1      45.789  27.113  27.543  1.00  0.00     0.167 HD
ATOM     50  C   UNL A   1      42.071  29.152  28.702  1.00  0.00     0.037 A 
ATOM     51  C   UNL A   1      48.489  26.997  26.840  1.00  0.00     0.037 A 
ATOM     52  C   UNL A   1      43.094  30.166  28.740  1.00  0.00     0.049 A 
ATOM     53  C   UNL A   1      48.202  28.434  27.188  1.00  0.00     0.074 A 
ATOM     54  C   UNL A   1      42.978  31.492  29.117  1.00  0.00     0.029 A 
ATOM     55  N   UNL A   1      44.420  29.970  28.378  1.00  0.00    -0.354 N 
ATOM     56  N   UNL A   1      47.075  28.980  27.580  1.00  0.00    -0.248 NA
ATOM     57  C   UNL A   1      49.324  29.379  27.089  1.00  0.00     0.031 C 
ATOM     58  C   UNL A   1      44.219  32.110  28.931  1.00  0.00     0.029 A 
ATOM     59  C   UNL A   1      45.124  31.156  28.496  1.00  0.00     0.049 A 
ATOM     60  H   UNL A   1      44.803  29.112  28.081  1.00  0.00     0.167 HD
ATOM     61  C   UNL A   1      47.357  30.325  27.800  1.00  0.00     0.074 A 
ATOM     62  C   UNL A   1      48.765  30.506  27.509  1.00  0.00     0.031 C 
ATOM     63  C   UNL A   1      46.528  31.318  28.207  1.00  0.00     0.037 A 
BRANCH  50  64
ATOM     64  C   UNL A   1      40.664  29.541  29.065  1.00  0.00     0.058 A 
ATOM     65  C   UNL A   1      40.293  29.831  30.388  1.00  0.00     0.135 A 
ATOM     66  C   UNL A   1      39.681  29.659  28.070  1.00  0.00     0.135 A 
ATOM     67  F   UNL A   1      41.187  29.715  31.383  1.00  0.00    -0.206 F 
ATOM     68  C   UNL A   1      38.991  30.198  30.714  1.00  0.00     0.059 A 
ATOM     69  C   UNL A   1      38.381  30.054  28.368  1.00  0.00     0.059 A 
ATOM     70  F   UNL A   1      39.980  29.391  26.789  1.00  0.00    -0.206 F 
ATOM     71  C   UNL A   1      38.042  30.308  29.697  1.00  0.00     0.060 A 
BRANCH  71  72
ATOM     72  S   UNL A   1      36.360  30.793  30.135  1.00  0.00     0.124 S 
ATOM     73  O   UNL A   1      35.952  29.688  30.998  1.00  0.00    -0.237 OA
ATOM     74  O   UNL A   1      36.569  32.074  30.804  1.00  0.00    -0.237 OA
ATOM     75  O   UNL A   1      35.678  30.866  28.847  1.00  0.00    -0.744 OA
ENDBRANCH  71  72
ENDBRANCH  50  64
BRANCH  51  76
ATOM     76  C   UNL A   1      49.847  26.571  26.407  1.00  0.00     0.058 A 
ATOM     77  C   UNL A   1      50.215  26.583  25.054  1.00  0.00     0.135 A 
ATOM     78  C   UNL A   1      50.807  26.147  27.341  1.00  0.00     0.135 A 
ATOM     79  F   UNL A   1      49.329  26.970  24.122  1.00  0.00    -0.206 F 
ATOM     80  C   UNL A   1      51.479  26.179  24.637  1.00  0.00     0.059 A 
ATOM     81  C   UNL A   1      52.086  25.764  26.953  1.00  0.00     0.059 A 
ATOM     82  F   UNL A   1      50.509  26.127  28.649  1.00  0.00    -0.206 F 
ATOM     83  C   UNL A   1      52.410  25.775  25.597  1.00  0.00     0.060 A 
BRANCH  83  84
ATOM     84  S   UNL A   1      54.067  25.304  25.052  1.00  0.00     0.124 S 
ATOM     85  O   UNL A   1      54.158  25.988  23.768  1.00  0.00    -0.237 OA
ATOM     86  O   UNL A   1      54.903  25.837  26.122  1.00  0.00    -0.237 OA
ATOM     87  O   UNL A   1      53.996  23.848  24.988  1.00  0.00    -0.744 OA
ENDBRANCH  83  84
ENDBRANCH  51  76
BRANCH  63  88
ATOM     88  C   UNL A   1      47.126  32.686  28.399  1.00  0.00     0.058 A 
ATOM     89  C   UNL A   1      47.705  33.078  29.616  1.00  0.00     0.135 A 
ATOM     90  C   UNL A   1      47.169  33.598  27.331  1.00  0.00     0.135 A 
ATOM     91  F   UNL A   1      47.688  32.248  30.671  1.00  0.00    -0.206 F 
ATOM     92  C   UNL A   1      48.282  34.334  29.776  1.00  0.00     0.059 A 
ATOM     93  C   UNL A   1      47.768  34.847  27.459  1.00  0.00     0.059 A 
ATOM     94  F   UNL A   1      46.640  33.271  26.140  1.00  0.00    -0.206 F 
ATOM     95  C   UNL A   1      48.310  35.212  28.690  1.00  0.00     0.060 A 
BRANCH  95  96
ATOM     96  S   UNL A   1      49.089  36.826  28.902  1.00  0.00     0.124 S 
ATOM     97  O   UNL A   1      50.366  36.628  28.224  1.00  0.00    -0.237 OA
ATOM     98  O   UNL A   1      48.147  37.718  28.232  1.00  0.00    -0.237 OA
ATOM     99  O   UNL A   1      49.165  36.980  30.351  1.00  0.00    -0.744 OA
ENDBRANCH  95  96
ENDBRANCH  63  88
ENDBRANCH  37  38
ENDBRANCH  30  32
ENDBRANCH  29  30
ENDBRANCH  28  29
ENDBRANCH   1  28
TORSDOF 21
ENDMDL
MODEL 3
REMARK VINA RESULT:     -11.4      3.004      3.599
REMARK SMILES CS(=O)(=O)c1ccc(/C=C(/C(=O)OCCOCCOC(=O)c2ccc(-c3c4nc(c(-c5c(F)cc(S(=O)(=O)[O-])cc5F)c5ccc([nH]5)c(-c5c(F)cc(S(=O)(=O)[O-])cc5F)c5nc(c(-c6c(F)cc(S(=O)(=O)[O-])cc6F)c6ccc3[nH]6)C=C5)C=C4)cc2)c2ccc(O)cc2)cc1
REMARK SMILES IDX 17 1 16 2 15 3 14 4 13 5 11 6 12 7 10 8 9 9 8 10 5 11 6 12
REMARK SMILES IDX 96 13 7 14 95 15 2 16 1 17 3 18 4 19 88 20 89 21 94 22 90 23
REMARK SMILES IDX 93 24 91 25 92 26 18 28 19 29 20 30 21 31 22 32 23 33 87 34
REMARK SMILES IDX 24 35 86 36 25 37 26 38 27 39 80 40 28 41 85 42 79 43 81 44
REMARK SMILES IDX 29 45 84 46 78 47 77 48 30 50 64 51 43 52 63 53 44 54 47 55
REMARK SMILES IDX 62 56 82 57 45 58 46 59 61 61 83 62 48 63 31 64 32 65 41 66
REMARK SMILES IDX 33 67 34 68 40 69 42 70 35 71 36 72 37 73 38 74 39 75 65 76
REMARK SMILES IDX 66 77 75 78 67 79 68 80 74 81 76 82 69 83 70 84 71 85 72 86
REMARK SMILES IDX 73 87 49 88 50 89 59 90 51 91 52 92 58 93 60 94 53 95 54 96
REMARK SMILES IDX 55 97 56 98 57 99
REMARK H PARENT 92 27 81 49 47 60
REMARK Flexibility Score: inf
ROOT
ATOM      1  C   UNL A   1      36.640  20.995  25.504  1.00  0.00     0.202 C 
ENDROOT
BRANCH   1   2
ATOM      2  O   UNL A   1      35.387  21.656  25.363  1.00  0.00    -0.374 OA
BRANCH   2   3
ATOM      3  C   UNL A   1      34.210  20.848  25.348  1.00  0.00     0.202 C 
BRANCH   3   4
ATOM      4  C   UNL A   1      32.863  21.544  25.577  1.00  0.00     0.261 C 
BRANCH   4   5
ATOM      5  O   UNL A   1      32.936  22.957  25.314  1.00  0.00    -0.460 OA
BRANCH   5   6
ATOM      6  C   UNL A   1      32.166  23.727  26.127  1.00  0.00     0.338 C 
ATOM      7  O   UNL A   1      31.920  23.496  27.303  1.00  0.00    -0.246 OA
BRANCH   6   8
ATOM      8  C   UNL A   1      31.738  25.001  25.461  1.00  0.00     0.067 C 
ATOM      9  C   UNL A   1      30.961  24.975  24.352  1.00  0.00     0.024 C 
BRANCH   9  10
ATOM     10  C   UNL A   1      30.253  26.111  23.703  1.00  0.00    -0.025 A 
ATOM     11  C   UNL A   1      28.898  28.445  22.900  1.00  0.00     0.067 A 
ATOM     12  C   UNL A   1      30.214  28.236  22.496  1.00  0.00     0.021 A 
ATOM     13  C   UNL A   1      28.215  27.453  23.601  1.00  0.00     0.021 A 
ATOM     14  C   UNL A   1      30.869  27.059  22.872  1.00  0.00     0.009 A 
ATOM     15  C   UNL A   1      28.892  26.291  23.995  1.00  0.00     0.009 A 
BRANCH  11  16
ATOM     16  S   UNL A   1      28.110  30.003  22.571  1.00  0.00     0.175 S 
ATOM     17  C   UNL A   1      29.110  31.215  23.400  1.00  0.00     0.163 C 
ATOM     18  O   UNL A   1      26.825  29.994  23.246  1.00  0.00    -0.224 OA
ATOM     19  O   UNL A   1      28.208  30.236  21.144  1.00  0.00    -0.224 OA
ENDBRANCH  11  16
ENDBRANCH   9  10
BRANCH   8  20
ATOM     20  C   UNL A   1      32.152  26.247  26.136  1.00  0.00    -0.011 A 
ATOM     21  C   UNL A   1      33.449  26.748  25.928  1.00  0.00     0.013 A 
ATOM     22  C   UNL A   1      31.256  26.969  26.931  1.00  0.00     0.013 A 
ATOM     23  C   UNL A   1      33.829  27.972  26.474  1.00  0.00     0.047 A 
ATOM     24  C   UNL A   1      31.636  28.199  27.473  1.00  0.00     0.047 A 
ATOM     25  C   UNL A   1      32.916  28.694  27.228  1.00  0.00     0.115 A 
BRANCH  25  26
ATOM     26  O   UNL A   1      33.311  29.908  27.704  1.00  0.00    -0.508 OA
ATOM     27  H   UNL A   1      34.057  30.337  27.331  1.00  0.00     0.293 HD
ENDBRANCH  25  26
ENDBRANCH   8  20
ENDBRANCH   6   8
ENDBRANCH   5   6
ENDBRANCH   4   5
ENDBRANCH   3   4
ENDBRANCH   2   3
ENDBRANCH   1   2
BRANCH   1  28
ATOM     28  C   UNL A   1      37.917  21.741  25.096  1.00  0.00     0.261 C 
BRANCH  28  29
ATOM     29  O   UNL A   1      38.139  22.941  25.847  1.00  0.00    -0.460 OA
BRANCH  29  30
ATOM     30  C   UNL A   1      39.379  23.035  26.383  1.00  0.00     0.338 C 
ATOM     31  O   UNL A   1      40.303  22.241  26.254  1.00  0.00    -0.246 OA
BRANCH  30  32
ATOM     32  C   UNL A   1      39.547  24.352  27.017  1.00  0.00     0.060 A 
ATOM     33  C   UNL A   1      40.325  25.302  26.342  1.00  0.00     0.016 A 
ATOM     34  C   UNL A   1      38.997  24.638  28.268  1.00  0.00     0.016 A 
ATOM     35  C   UNL A   1      40.592  26.531  26.936  1.00  0.00     0.010 A 
ATOM     36  C   UNL A   1      39.277  25.869  28.868  1.00  0.00     0.010 A 
ATOM     37  C   UNL A   1      40.101  26.806  28.218  1.00  0.00    -0.014 A 
BRANCH  37  38
ATOM     38  C   UNL A   1      40.562  28.018  28.935  1.00  0.00     0.031 A 
ATOM     39  C   UNL A   1      41.963  28.051  29.479  1.00  0.00     0.074 A 
ATOM     40  C   UNL A   1      39.747  29.079  29.080  1.00  0.00     0.049 A 
ATOM     41  N   UNL A   1      42.557  28.979  30.182  1.00  0.00    -0.248 NA
ATOM     42  C   UNL A   1      42.807  26.879  29.193  1.00  0.00     0.031 C 
ATOM     43  C   UNL A   1      38.384  29.172  28.560  1.00  0.00     0.029 A 
ATOM     44  N   UNL A   1      39.947  30.275  29.718  1.00  0.00    -0.354 N 
ATOM     45  C   UNL A   1      43.838  28.501  30.433  1.00  0.00     0.074 A 
ATOM     46  C   UNL A   1      43.927  27.189  29.831  1.00  0.00     0.031 C 
ATOM     47  C   UNL A   1      37.863  30.360  28.912  1.00  0.00     0.029 A 
ATOM     48  C   UNL A   1      38.843  31.093  29.713  1.00  0.00     0.049 A 
ATOM     49  H   UNL A   1      40.801  30.526  30.141  1.00  0.00     0.167 HD
ATOM     50  C   UNL A   1      44.850  29.108  31.097  1.00  0.00     0.037 A 
ATOM     51  C   UNL A   1      38.638  32.284  30.309  1.00  0.00     0.037 A 
ATOM     52  C   UNL A   1      44.751  30.416  31.692  1.00  0.00     0.049 A 
ATOM     53  C   UNL A   1      39.757  32.909  31.102  1.00  0.00     0.074 A 
ATOM     54  C   UNL A   1      45.722  31.130  32.370  1.00  0.00     0.029 A 
ATOM     55  N   UNL A   1      43.608  31.204  31.689  1.00  0.00    -0.354 N 
ATOM     56  N   UNL A   1      40.971  32.459  31.313  1.00  0.00    -0.248 NA
ATOM     57  C   UNL A   1      39.478  34.206  31.735  1.00  0.00     0.031 C 
ATOM     58  C   UNL A   1      45.152  32.323  32.824  1.00  0.00     0.029 A 
ATOM     59  C   UNL A   1      43.842  32.382  32.377  1.00  0.00     0.049 A 
ATOM     60  H   UNL A   1      42.755  30.961  31.259  1.00  0.00     0.167 HD
ATOM     61  C   UNL A   1      41.610  33.429  32.080  1.00  0.00     0.074 A 
ATOM     62  C   UNL A   1      40.651  34.495  32.285  1.00  0.00     0.031 C 
ATOM     63  C   UNL A   1      42.876  33.437  32.568  1.00  0.00     0.037 A 
BRANCH  50  64
ATOM     64  C   UNL A   1      46.143  28.353  31.243  1.00  0.00     0.058 A 
ATOM     65  C   UNL A   1      46.386  27.501  32.333  1.00  0.00     0.135 A 
ATOM     66  C   UNL A   1      47.140  28.456  30.259  1.00  0.00     0.135 A 
ATOM     67  F   UNL A   1      45.477  27.380  33.312  1.00  0.00    -0.206 F 
ATOM     68  C   UNL A   1      47.582  26.800  32.455  1.00  0.00     0.059 A 
ATOM     69  C   UNL A   1      48.331  27.741  30.345  1.00  0.00     0.059 A 
ATOM     70  F   UNL A   1      46.962  29.258  29.198  1.00  0.00    -0.206 F 
ATOM     71  C   UNL A   1      48.548  26.926  31.455  1.00  0.00     0.060 A 
BRANCH  71  72
ATOM     72  S   UNL A   1      50.090  26.003  31.624  1.00  0.00     0.124 S 
ATOM     73  O   UNL A   1      49.989  25.060  30.514  1.00  0.00    -0.237 OA
ATOM     74  O   UNL A   1      51.097  27.049  31.477  1.00  0.00    -0.237 OA
ATOM     75  O   UNL A   1      49.991  25.414  32.956  1.00  0.00    -0.744 OA
ENDBRANCH  71  72
ENDBRANCH  50  64
BRANCH  51  76
ATOM     76  C   UNL A   1      37.316  32.955  30.191  1.00  0.00     0.058 A 
ATOM     77  C   UNL A   1      36.360  32.861  31.212  1.00  0.00     0.135 A 
ATOM     78  C   UNL A   1      36.985  33.710  29.054  1.00  0.00     0.135 A 
ATOM     79  F   UNL A   1      36.625  32.141  32.314  1.00  0.00    -0.206 F 
ATOM     80  C   UNL A   1      35.117  33.478  31.108  1.00  0.00     0.059 A 
ATOM     81  C   UNL A   1      35.760  34.360  28.938  1.00  0.00     0.059 A 
ATOM     82  F   UNL A   1      37.869  33.842  28.053  1.00  0.00    -0.206 F 
ATOM     83  C   UNL A   1      34.829  34.230  29.967  1.00  0.00     0.060 A 
BRANCH  83  84
ATOM     84  S   UNL A   1      33.234  35.072  29.865  1.00  0.00     0.124 S 
ATOM     85  O   UNL A   1      32.539  34.264  28.871  1.00  0.00    -0.237 OA
ATOM     86  O   UNL A   1      32.743  34.963  31.235  1.00  0.00    -0.237 OA
ATOM     87  O   UNL A   1      33.595  36.421  29.443  1.00  0.00    -0.744 OA
ENDBRANCH  83  84
ENDBRANCH  51  76
BRANCH  63  88
ATOM     88  C   UNL A   1      43.313  34.652  33.342  1.00  0.00     0.058 A 
ATOM     89  C   UNL A   1      43.790  35.806  32.702  1.00  0.00     0.135 A 
ATOM     90  C   UNL A   1      43.201  34.679  34.742  1.00  0.00     0.135 A 
ATOM     91  F   UNL A   1      43.923  35.832  31.366  1.00  0.00    -0.206 F 
ATOM     92  C   UNL A   1      44.165  36.935  33.423  1.00  0.00     0.059 A 
ATOM     93  C   UNL A   1      43.540  35.808  35.481  1.00  0.00     0.059 A 
ATOM     94  F   UNL A   1      42.738  33.606  35.405  1.00  0.00    -0.206 F 
ATOM     95  C   UNL A   1      44.034  36.927  34.814  1.00  0.00     0.060 A 
BRANCH  95  96
ATOM     96  S   UNL A   1      44.494  38.410  35.735  1.00  0.00     0.124 S 
ATOM     97  O   UNL A   1      43.931  38.125  37.051  1.00  0.00    -0.237 OA
ATOM     98  O   UNL A   1      45.952  38.390  35.651  1.00  0.00    -0.237 OA
ATOM     99  O   UNL A   1      43.844  39.486  34.994  1.00  0.00    -0.744 OA
ENDBRANCH  95  96
ENDBRANCH  63  88
ENDBRANCH  37  38
ENDBRANCH  30  32
ENDBRANCH  29  30
ENDBRANCH  28  29
ENDBRANCH   1  28
TORSDOF 21
ENDMDL
