MODEL 1
REMARK VINA RESULT:     -10.4      0.000      0.000
REMARK SMILES Cc1c([C@H]2[C@H](C(=O)OCCOCCOC(=O)c3ccc(-c4c5nc(c(-c6c(F)cc(S(=O)(=O)[O-])cc6F)c6ccc([nH]6)c(-c6c(F)cc(S(=O)(=O)[O-])cc6F)c6nc(c(-c7c(F)cc(S(=O)(=O)[O-])cc7F)c7ccc4[nH]7)C=C6)C=C5)cc3)OCC(=O)N2CC(C)C)cnn1C
REMARK SMILES IDX 12 1 11 2 10 3 9 4 8 5 6 6 7 7 5 8 4 9 87 10 83 11 85 12
REMARK SMILES IDX 84 13 86 14 3 15 1 16 2 17 94 18 92 19 93 20 95 21 88 22
REMARK SMILES IDX 89 23 90 24 91 25 13 26 14 27 15 28 16 29 17 30 18 31 82 32
REMARK SMILES IDX 19 33 81 34 20 35 21 36 22 37 75 38 23 39 80 40 74 41 76 42
REMARK SMILES IDX 24 43 79 44 73 45 72 46 25 48 59 49 38 50 58 51 39 52 42 53
REMARK SMILES IDX 57 54 77 55 40 56 41 57 56 59 78 60 43 61 26 62 27 63 36 64
REMARK SMILES IDX 28 65 29 66 35 67 37 68 30 69 31 70 32 71 33 72 34 73 60 74
REMARK SMILES IDX 61 75 70 76 62 77 63 78 69 79 71 80 64 81 65 82 66 83 67 84
REMARK SMILES IDX 68 85 44 86 45 87 54 88 46 89 47 90 53 91 55 92 48 93 49 94
REMARK SMILES IDX 50 95 51 96 52 97
REMARK H PARENT 76 47 42 58
REMARK Flexibility Score: inf
ROOT
ATOM      1  C   UNL A   1      31.686  28.226  27.652  1.00  0.00     0.202 C 
ENDROOT
BRANCH   1   2
ATOM      2  O   UNL A   1      30.972  27.030  27.359  1.00  0.00    -0.374 OA
BRANCH   2   3
ATOM      3  C   UNL A   1      30.696  26.754  25.987  1.00  0.00     0.202 C 
BRANCH   3   4
ATOM      4  C   UNL A   1      30.285  25.323  25.626  1.00  0.00     0.261 C 
BRANCH   4   5
ATOM      5  O   UNL A   1      30.274  24.433  26.759  1.00  0.00    -0.461 OA
BRANCH   5   6
ATOM      6  C   UNL A   1      31.246  23.483  26.748  1.00  0.00     0.337 C 
ATOM      7  O   UNL A   1      31.695  22.935  27.751  1.00  0.00    -0.249 OA
BRANCH   6   8
ATOM      8  C   UNL A   1      31.758  23.149  25.345  1.00  0.00     0.255 C 
ATOM      9  C   UNL A   1      33.287  23.353  25.131  1.00  0.00     0.159 C 
ATOM     10  N   UNL A   1      34.103  22.128  25.218  1.00  0.00    -0.330 N 
ATOM     11  O   UNL A   1      31.287  21.929  24.784  1.00  0.00    -0.354 OA
ATOM     12  C   UNL A   1      33.524  20.863  25.211  1.00  0.00     0.249 C 
ATOM     13  C   UNL A   1      31.993  20.814  25.286  1.00  0.00     0.261 C 
ATOM     14  O   UNL A   1      34.187  19.827  25.239  1.00  0.00    -0.272 OA
BRANCH   9  15
ATOM     15  C   UNL A   1      33.468  24.063  23.811  1.00  0.00     0.019 A 
ATOM     16  C   UNL A   1      34.069  26.477  24.616  1.00  0.00     0.067 C 
ATOM     17  C   UNL A   1      33.749  25.414  23.628  1.00  0.00     0.040 A 
ATOM     18  N   UNL A   1      33.565  25.653  22.289  1.00  0.00    -0.273 N 
ATOM     19  C   UNL A   1      33.216  23.582  22.506  1.00  0.00     0.141 A 
ATOM     20  N   UNL A   1      33.307  24.540  21.582  1.00  0.00    -0.181 NA
ATOM     21  C   UNL A   1      33.479  26.938  21.636  1.00  0.00     0.174 C 
ENDBRANCH   9  15
BRANCH  10  22
ATOM     22  C   UNL A   1      35.556  22.221  25.440  1.00  0.00     0.123 C 
BRANCH  22  23
ATOM     23  C   UNL A   1      36.418  21.750  24.249  1.00  0.00     0.002 C 
ATOM     24  C   UNL A   1      36.779  22.918  23.328  1.00  0.00     0.009 C 
ATOM     25  C   UNL A   1      37.720  21.100  24.735  1.00  0.00     0.009 C 
ENDBRANCH  22  23
ENDBRANCH  10  22
ENDBRANCH   6   8
ENDBRANCH   5   6
ENDBRANCH   4   5
ENDBRANCH   3   4
ENDBRANCH   2   3
ENDBRANCH   1   2
BRANCH   1  26
ATOM     26  C   UNL A   1      32.839  28.617  26.716  1.00  0.00     0.261 C 
BRANCH  26  27
ATOM     27  O   UNL A   1      34.110  28.658  27.389  1.00  0.00    -0.460 OA
BRANCH  27  28
ATOM     28  C   UNL A   1      34.594  29.907  27.594  1.00  0.00     0.338 C 
ATOM     29  O   UNL A   1      33.972  30.958  27.518  1.00  0.00    -0.246 OA
BRANCH  28  30
ATOM     30  C   UNL A   1      35.963  29.841  28.132  1.00  0.00     0.060 A 
ATOM     31  C   UNL A   1      37.016  30.126  27.252  1.00  0.00     0.016 A 
ATOM     32  C   UNL A   1      36.222  29.431  29.441  1.00  0.00     0.016 A 
ATOM     33  C   UNL A   1      38.335  29.954  27.662  1.00  0.00     0.010 A 
ATOM     34  C   UNL A   1      37.548  29.246  29.847  1.00  0.00     0.010 A 
ATOM     35  C   UNL A   1      38.607  29.471  28.949  1.00  0.00    -0.014 A 
BRANCH  35  36
ATOM     36  C   UNL A   1      39.989  29.056  29.290  1.00  0.00     0.031 A 
ATOM     37  C   UNL A   1      40.871  30.020  30.037  1.00  0.00     0.074 A 
ATOM     38  C   UNL A   1      40.436  27.828  28.973  1.00  0.00     0.049 A 
ATOM     39  N   UNL A   1      42.112  29.880  30.421  1.00  0.00    -0.248 NA
ATOM     40  C   UNL A   1      40.273  31.316  30.399  1.00  0.00     0.031 C 
ATOM     41  C   UNL A   1      39.657  26.797  28.287  1.00  0.00     0.029 A 
ATOM     42  N   UNL A   1      41.658  27.243  29.184  1.00  0.00    -0.354 N 
ATOM     43  C   UNL A   1      42.449  31.070  31.057  1.00  0.00     0.074 A 
ATOM     44  C   UNL A   1      41.288  31.929  30.991  1.00  0.00     0.031 C 
ATOM     45  C   UNL A   1      40.425  25.705  28.128  1.00  0.00     0.029 A 
ATOM     46  C   UNL A   1      41.756  25.971  28.671  1.00  0.00     0.049 A 
ATOM     47  H   UNL A   1      42.395  27.690  29.660  1.00  0.00     0.167 HD
ATOM     48  C   UNL A   1      43.619  31.411  31.647  1.00  0.00     0.037 A 
ATOM     49  C   UNL A   1      42.807  25.129  28.628  1.00  0.00     0.037 A 
ATOM     50  C   UNL A   1      44.768  30.545  31.718  1.00  0.00     0.049 A 
ATOM     51  C   UNL A   1      44.117  25.555  29.240  1.00  0.00     0.074 A 
ATOM     52  C   UNL A   1      45.989  30.784  32.323  1.00  0.00     0.029 A 
ATOM     53  N   UNL A   1      44.838  29.277  31.160  1.00  0.00    -0.354 N 
ATOM     54  N   UNL A   1      44.412  26.671  29.865  1.00  0.00    -0.248 NA
ATOM     55  C   UNL A   1      45.238  24.609  29.141  1.00  0.00     0.031 C 
ATOM     56  C   UNL A   1      46.816  29.680  32.089  1.00  0.00     0.029 A 
ATOM     57  C   UNL A   1      46.092  28.732  31.382  1.00  0.00     0.049 A 
ATOM     58  H   UNL A   1      44.106  28.831  30.678  1.00  0.00     0.167 HD
ATOM     59  C   UNL A   1      45.740  26.548  30.260  1.00  0.00     0.074 A 
ATOM     60  C   UNL A   1      46.189  25.246  29.809  1.00  0.00     0.031 C 
ATOM     61  C   UNL A   1      46.518  27.429  30.936  1.00  0.00     0.037 A 
BRANCH  48  62
ATOM     62  C   UNL A   1      43.730  32.789  32.237  1.00  0.00     0.058 A 
ATOM     63  C   UNL A   1      43.614  33.017  33.616  1.00  0.00     0.135 A 
ATOM     64  C   UNL A   1      43.997  33.893  31.410  1.00  0.00     0.135 A 
ATOM     65  F   UNL A   1      43.339  32.001  34.449  1.00  0.00    -0.206 F 
ATOM     66  C   UNL A   1      43.739  34.294  34.154  1.00  0.00     0.059 A 
ATOM     67  C   UNL A   1      44.151  35.175  31.929  1.00  0.00     0.059 A 
ATOM     68  F   UNL A   1      44.113  33.732  30.083  1.00  0.00    -0.206 F 
ATOM     69  C   UNL A   1      44.008  35.367  33.302  1.00  0.00     0.060 A 
BRANCH  69  70
ATOM     70  S   UNL A   1      44.179  37.017  34.016  1.00  0.00     0.124 S 
ATOM     71  O   UNL A   1      44.282  36.708  35.439  1.00  0.00    -0.237 OA
ATOM     72  O   UNL A   1      45.402  37.505  33.385  1.00  0.00    -0.237 OA
ATOM     73  O   UNL A   1      42.953  37.694  33.608  1.00  0.00    -0.744 OA
ENDBRANCH  69  70
ENDBRANCH  48  62
BRANCH  49  74
ATOM     74  C   UNL A   1      42.674  23.800  27.974  1.00  0.00     0.058 A 
ATOM     75  C   UNL A   1      42.719  23.671  26.578  1.00  0.00     0.135 A 
ATOM     76  C   UNL A   1      42.484  22.634  28.731  1.00  0.00     0.135 A 
ATOM     77  F   UNL A   1      42.888  24.758  25.810  1.00  0.00    -0.206 F 
ATOM     78  C   UNL A   1      42.564  22.437  25.954  1.00  0.00     0.059 A 
ATOM     79  C   UNL A   1      42.352  21.385  28.132  1.00  0.00     0.059 A 
ATOM     80  F   UNL A   1      42.442  22.701  30.071  1.00  0.00    -0.206 F 
ATOM     81  C   UNL A   1      42.382  21.299  26.741  1.00  0.00     0.060 A 
BRANCH  81  82
ATOM     82  S   UNL A   1      42.218  19.697  25.923  1.00  0.00     0.124 S 
ATOM     83  O   UNL A   1      43.213  19.805  24.863  1.00  0.00    -0.237 OA
ATOM     84  O   UNL A   1      42.534  18.767  27.003  1.00  0.00    -0.237 OA
ATOM     85  O   UNL A   1      40.825  19.686  25.486  1.00  0.00    -0.744 OA
ENDBRANCH  81  82
ENDBRANCH  49  74
BRANCH  61  86
ATOM     86  C   UNL A   1      47.921  27.004  31.269  1.00  0.00     0.058 A 
ATOM     87  C   UNL A   1      48.246  26.439  32.512  1.00  0.00     0.135 A 
ATOM     88  C   UNL A   1      48.942  27.112  30.311  1.00  0.00     0.135 A 
ATOM     89  F   UNL A   1      47.309  26.318  33.466  1.00  0.00    -0.206 F 
ATOM     90  C   UNL A   1      49.539  26.017  32.801  1.00  0.00     0.059 A 
ATOM     91  C   UNL A   1      50.236  26.673  30.568  1.00  0.00     0.059 A 
ATOM     92  F   UNL A   1      48.682  27.634  29.101  1.00  0.00    -0.206 F 
ATOM     93  C   UNL A   1      50.528  26.137  31.822  1.00  0.00     0.060 A 
BRANCH  93  94
ATOM     94  S   UNL A   1      52.196  25.554  32.197  1.00  0.00     0.124 S 
ATOM     95  O   UNL A   1      52.007  24.108  32.205  1.00  0.00    -0.237 OA
ATOM     96  O   UNL A   1      52.972  26.085  31.080  1.00  0.00    -0.237 OA
ATOM     97  O   UNL A   1      52.483  26.158  33.495  1.00  0.00    -0.744 OA
ENDBRANCH  93  94
ENDBRANCH  61  86
ENDBRANCH  35  36
ENDBRANCH  28  30
ENDBRANCH  27  28
ENDBRANCH  26  27
ENDBRANCH   1  26
TORSDOF 20
ENDMDL
MODEL 2
REMARK VINA RESULT:     -10.2      3.647      9.132
REMARK SMILES Cc1c([C@H]2[C@H](C(=O)OCCOCCOC(=O)c3ccc(-c4c5nc(c(-c6c(F)cc(S(=O)(=O)[O-])cc6F)c6ccc([nH]6)c(-c6c(F)cc(S(=O)(=O)[O-])cc6F)c6nc(c(-c7c(F)cc(S(=O)(=O)[O-])cc7F)c7ccc4[nH]7)C=C6)C=C5)cc3)OCC(=O)N2CC(C)C)cnn1C
REMARK SMILES IDX 12 1 11 2 10 3 9 4 8 5 6 6 7 7 5 8 4 9 87 10 83 11 85 12
REMARK SMILES IDX 84 13 86 14 3 15 1 16 2 17 94 18 92 19 93 20 95 21 88 22
REMARK SMILES IDX 89 23 90 24 91 25 13 26 14 27 15 28 16 29 17 30 18 31 82 32
REMARK SMILES IDX 19 33 81 34 20 35 21 36 22 37 75 38 23 39 80 40 74 41 76 42
REMARK SMILES IDX 24 43 79 44 73 45 72 46 25 48 59 49 38 50 58 51 39 52 42 53
REMARK SMILES IDX 57 54 77 55 40 56 41 57 56 59 78 60 43 61 26 62 27 63 36 64
REMARK SMILES IDX 28 65 29 66 35 67 37 68 30 69 31 70 32 71 33 72 34 73 60 74
REMARK SMILES IDX 61 75 70 76 62 77 63 78 69 79 71 80 64 81 65 82 66 83 67 84
REMARK SMILES IDX 68 85 44 86 45 87 54 88 46 89 47 90 53 91 55 92 48 93 49 94
REMARK SMILES IDX 50 95 51 96 52 97
REMARK H PARENT 76 47 42 58
REMARK Flexibility Score: inf
ROOT
ATOM      1  C   UNL A   1      39.201  21.830  26.137  1.00  0.00     0.202 C 
ENDROOT
BRANCH   1   2
ATOM      2  O   UNL A   1      37.850  22.249  25.966  1.00  0.00    -0.374 OA
BRANCH   2   3
ATOM      3  C   UNL A   1      36.914  21.267  25.527  1.00  0.00     0.202 C 
BRANCH   3   4
ATOM      4  C   UNL A   1      35.427  21.635  25.591  1.00  0.00     0.261 C 
BRANCH   4   5
ATOM      5  O   UNL A   1      35.172  22.834  26.349  1.00  0.00    -0.461 OA
BRANCH   5   6
ATOM      6  C   UNL A   1      34.849  23.923  25.603  1.00  0.00     0.337 C 
ATOM      7  O   UNL A   1      35.588  24.440  24.770  1.00  0.00    -0.249 OA
BRANCH   6   8
ATOM      8  C   UNL A   1      33.453  24.475  25.903  1.00  0.00     0.255 C 
ATOM      9  C   UNL A   1      32.933  25.545  24.897  1.00  0.00     0.159 C 
ATOM     10  N   UNL A   1      32.010  25.043  23.865  1.00  0.00    -0.330 N 
ATOM     11  O   UNL A   1      32.460  23.511  26.233  1.00  0.00    -0.354 OA
ATOM     12  C   UNL A   1      31.432  23.780  23.954  1.00  0.00     0.249 C 
ATOM     13  C   UNL A   1      31.942  22.876  25.083  1.00  0.00     0.261 C 
ATOM     14  O   UNL A   1      30.625  23.357  23.128  1.00  0.00    -0.272 OA
BRANCH   9  15
ATOM     15  C   UNL A   1      32.327  26.667  25.705  1.00  0.00     0.019 A 
ATOM     16  C   UNL A   1      33.594  28.735  24.727  1.00  0.00     0.067 C 
ATOM     17  C   UNL A   1      32.673  28.015  25.645  1.00  0.00     0.040 A 
ATOM     18  N   UNL A   1      32.059  28.604  26.721  1.00  0.00    -0.273 N 
ATOM     19  C   UNL A   1      31.438  26.588  26.801  1.00  0.00     0.141 A 
ATOM     20  N   UNL A   1      31.253  27.767  27.395  1.00  0.00    -0.181 NA
ATOM     21  C   UNL A   1      32.307  29.924  27.251  1.00  0.00     0.174 C 
ENDBRANCH   9  15
BRANCH  10  22
ATOM     22  C   UNL A   1      31.770  25.826  22.641  1.00  0.00     0.123 C 
BRANCH  22  23
ATOM     23  C   UNL A   1      32.967  25.873  21.666  1.00  0.00     0.002 C 
ATOM     24  C   UNL A   1      32.528  25.572  20.231  1.00  0.00     0.009 C 
ATOM     25  C   UNL A   1      33.639  27.252  21.686  1.00  0.00     0.009 C 
ENDBRANCH  22  23
ENDBRANCH  10  22
ENDBRANCH   6   8
ENDBRANCH   5   6
ENDBRANCH   4   5
ENDBRANCH   3   4
ENDBRANCH   2   3
ENDBRANCH   1   2
BRANCH   1  26
ATOM     26  C   UNL A   1      39.552  20.383  25.764  1.00  0.00     0.261 C 
BRANCH  26  27
ATOM     27  O   UNL A   1      40.420  19.758  26.725  1.00  0.00    -0.460 OA
BRANCH  27  28
ATOM     28  C   UNL A   1      41.698  19.596  26.302  1.00  0.00     0.338 C 
ATOM     29  O   UNL A   1      42.160  18.628  25.713  1.00  0.00    -0.246 OA
BRANCH  28  30
ATOM     30  C   UNL A   1      42.453  20.850  26.467  1.00  0.00     0.060 A 
ATOM     31  C   UNL A   1      42.567  21.368  27.764  1.00  0.00     0.016 A 
ATOM     32  C   UNL A   1      42.968  21.549  25.374  1.00  0.00     0.016 A 
ATOM     33  C   UNL A   1      43.153  22.614  27.969  1.00  0.00     0.010 A 
ATOM     34  C   UNL A   1      43.545  22.806  25.580  1.00  0.00     0.010 A 
ATOM     35  C   UNL A   1      43.606  23.359  26.872  1.00  0.00    -0.014 A 
BRANCH  35  36
ATOM     36  C   UNL A   1      43.996  24.776  27.071  1.00  0.00     0.031 A 
ATOM     37  C   UNL A   1      45.433  25.169  26.853  1.00  0.00     0.074 A 
ATOM     38  C   UNL A   1      43.079  25.701  27.402  1.00  0.00     0.049 A 
ATOM     39  N   UNL A   1      46.001  26.338  26.986  1.00  0.00    -0.248 NA
ATOM     40  C   UNL A   1      46.351  24.099  26.427  1.00  0.00     0.031 C 
ATOM     41  C   UNL A   1      41.653  25.444  27.598  1.00  0.00     0.029 A 
ATOM     42  N   UNL A   1      43.214  27.046  27.636  1.00  0.00    -0.354 N 
ATOM     43  C   UNL A   1      47.343  26.145  26.676  1.00  0.00     0.074 A 
ATOM     44  C   UNL A   1      47.508  24.742  26.365  1.00  0.00     0.031 C 
ATOM     45  C   UNL A   1      41.044  26.596  27.931  1.00  0.00     0.029 A 
ATOM     46  C   UNL A   1      42.041  27.663  28.000  1.00  0.00     0.049 A 
ATOM     47  H   UNL A   1      44.070  27.525  27.549  1.00  0.00     0.167 HD
ATOM     48  C   UNL A   1      48.343  27.057  26.647  1.00  0.00     0.037 A 
ATOM     49  C   UNL A   1      41.806  28.938  28.368  1.00  0.00     0.037 A 
ATOM     50  C   UNL A   1      48.168  28.455  26.948  1.00  0.00     0.049 A 
ATOM     51  C   UNL A   1      42.948  29.921  28.384  1.00  0.00     0.074 A 
ATOM     52  C   UNL A   1      49.110  29.467  26.915  1.00  0.00     0.029 A 
ATOM     53  N   UNL A   1      46.971  29.035  27.342  1.00  0.00    -0.354 N 
ATOM     54  N   UNL A   1      44.205  29.732  28.058  1.00  0.00    -0.248 NA
ATOM     55  C   UNL A   1      42.641  31.291  28.819  1.00  0.00     0.031 C 
ATOM     56  C   UNL A   1      48.496  30.650  27.337  1.00  0.00     0.029 A 
ATOM     57  C   UNL A   1      47.158  30.386  27.584  1.00  0.00     0.049 A 
ATOM     58  H   UNL A   1      46.116  28.557  27.437  1.00  0.00     0.167 HD
ATOM     59  C   UNL A   1      44.831  30.964  28.220  1.00  0.00     0.074 A 
ATOM     60  C   UNL A   1      43.812  31.893  28.664  1.00  0.00     0.031 C 
ATOM     61  C   UNL A   1      46.128  31.299  28.015  1.00  0.00     0.037 A 
BRANCH  48  62
ATOM     62  C   UNL A   1      49.725  26.571  26.309  1.00  0.00     0.058 A 
ATOM     63  C   UNL A   1      50.581  26.034  27.283  1.00  0.00     0.135 A 
ATOM     64  C   UNL A   1      50.182  26.607  24.981  1.00  0.00     0.135 A 
ATOM     65  F   UNL A   1      50.202  25.994  28.569  1.00  0.00    -0.206 F 
ATOM     66  C   UNL A   1      51.850  25.567  26.956  1.00  0.00     0.059 A 
ATOM     67  C   UNL A   1      51.438  26.123  24.628  1.00  0.00     0.059 A 
ATOM     68  F   UNL A   1      49.405  27.114  24.012  1.00  0.00    -0.206 F 
ATOM     69  C   UNL A   1      52.270  25.615  25.625  1.00  0.00     0.060 A 
BRANCH  69  70
ATOM     70  S   UNL A   1      53.915  24.995  25.214  1.00  0.00     0.124 S 
ATOM     71  O   UNL A   1      54.663  25.335  26.420  1.00  0.00    -0.237 OA
ATOM     72  O   UNL A   1      53.669  23.572  25.002  1.00  0.00    -0.237 OA
ATOM     73  O   UNL A   1      54.275  25.751  24.018  1.00  0.00    -0.744 OA
ENDBRANCH  69  70
ENDBRANCH  48  62
BRANCH  49  74
ATOM     74  C   UNL A   1      40.435  29.362  28.761  1.00  0.00     0.058 A 
ATOM     75  C   UNL A   1      40.104  29.584  30.105  1.00  0.00     0.135 A 
ATOM     76  C   UNL A   1      39.427  29.540  27.801  1.00  0.00     0.135 A 
ATOM     77  F   UNL A   1      41.030  29.415  31.062  1.00  0.00    -0.206 F 
ATOM     78  C   UNL A   1      38.817  29.950  30.488  1.00  0.00     0.059 A 
ATOM     79  C   UNL A   1      38.140  29.931  28.157  1.00  0.00     0.059 A 
ATOM     80  F   UNL A   1      39.695  29.350  26.501  1.00  0.00    -0.206 F 
ATOM     81  C   UNL A   1      37.841  30.122  29.504  1.00  0.00     0.060 A 
BRANCH  81  82
ATOM     82  S   UNL A   1      36.184  30.633  30.008  1.00  0.00     0.124 S 
ATOM     83  O   UNL A   1      35.371  30.110  28.917  1.00  0.00    -0.237 OA
ATOM     84  O   UNL A   1      36.034  29.961  31.296  1.00  0.00    -0.237 OA
ATOM     85  O   UNL A   1      36.290  32.087  30.079  1.00  0.00    -0.744 OA
ENDBRANCH  81  82
ENDBRANCH  49  74
BRANCH  61  86
ATOM     86  C   UNL A   1      46.518  32.735  28.228  1.00  0.00     0.058 A 
ATOM     87  C   UNL A   1      47.049  33.183  29.449  1.00  0.00     0.135 A 
ATOM     88  C   UNL A   1      46.410  33.663  27.180  1.00  0.00     0.135 A 
ATOM     89  F   UNL A   1      47.167  32.338  30.485  1.00  0.00    -0.206 F 
ATOM     90  C   UNL A   1      47.438  34.506  29.628  1.00  0.00     0.059 A 
ATOM     91  C   UNL A   1      46.817  34.985  27.328  1.00  0.00     0.059 A 
ATOM     92  F   UNL A   1      45.920  33.283  25.989  1.00  0.00    -0.206 F 
ATOM     93  C   UNL A   1      47.320  35.400  28.561  1.00  0.00     0.060 A 
BRANCH  93  94
ATOM     94  S   UNL A   1      47.860  37.107  28.794  1.00  0.00     0.124 S 
ATOM     95  O   UNL A   1      47.239  37.771  27.654  1.00  0.00    -0.237 OA
ATOM     96  O   UNL A   1      47.301  37.437  30.102  1.00  0.00    -0.237 OA
ATOM     97  O   UNL A   1      49.317  37.011  28.749  1.00  0.00    -0.744 OA
ENDBRANCH  93  94
ENDBRANCH  61  86
ENDBRANCH  35  36
ENDBRANCH  28  30
ENDBRANCH  27  28
ENDBRANCH  26  27
ENDBRANCH   1  26
TORSDOF 20
ENDMDL
MODEL 3
REMARK VINA RESULT:     -10.1      4.532      9.830
REMARK SMILES Cc1c([C@H]2[C@H](C(=O)OCCOCCOC(=O)c3ccc(-c4c5nc(c(-c6c(F)cc(S(=O)(=O)[O-])cc6F)c6ccc([nH]6)c(-c6c(F)cc(S(=O)(=O)[O-])cc6F)c6nc(c(-c7c(F)cc(S(=O)(=O)[O-])cc7F)c7ccc4[nH]7)C=C6)C=C5)cc3)OCC(=O)N2CC(C)C)cnn1C
REMARK SMILES IDX 12 1 11 2 10 3 9 4 8 5 6 6 7 7 5 8 4 9 87 10 83 11 85 12
REMARK SMILES IDX 84 13 86 14 3 15 1 16 2 17 94 18 92 19 93 20 95 21 88 22
REMARK SMILES IDX 89 23 90 24 91 25 13 26 14 27 15 28 16 29 17 30 18 31 82 32
REMARK SMILES IDX 19 33 81 34 20 35 21 36 22 37 75 38 23 39 80 40 74 41 76 42
REMARK SMILES IDX 24 43 79 44 73 45 72 46 25 48 59 49 38 50 58 51 39 52 42 53
REMARK SMILES IDX 57 54 77 55 40 56 41 57 56 59 78 60 43 61 26 62 27 63 36 64
REMARK SMILES IDX 28 65 29 66 35 67 37 68 30 69 31 70 32 71 33 72 34 73 60 74
REMARK SMILES IDX 61 75 70 76 62 77 63 78 69 79 71 80 64 81 65 82 66 83 67 84
REMARK SMILES IDX 68 85 44 86 45 87 54 88 46 89 47 90 53 91 55 92 48 93 49 94
REMARK SMILES IDX 50 95 51 96 52 97
REMARK H PARENT 76 47 42 58
REMARK Flexibility Score: inf
ROOT
ATOM      1  C   UNL A   1      40.923  21.967  26.623  1.00  0.00     0.202 C 
ENDROOT
BRANCH   1   2
ATOM      2  O   UNL A   1      39.664  22.592  26.852  1.00  0.00    -0.374 OA
BRANCH   2   3
ATOM      3  C   UNL A   1      38.595  22.250  25.973  1.00  0.00     0.202 C 
BRANCH   3   4
ATOM      4  C   UNL A   1      37.443  23.252  25.844  1.00  0.00     0.261 C 
BRANCH   4   5
ATOM      5  O   UNL A   1      36.232  22.660  25.333  1.00  0.00    -0.461 OA
BRANCH   5   6
ATOM      6  C   UNL A   1      35.333  23.544  24.826  1.00  0.00     0.337 C 
ATOM      7  O   UNL A   1      35.228  24.713  25.186  1.00  0.00    -0.249 OA
BRANCH   6   8
ATOM      8  C   UNL A   1      34.430  22.944  23.745  1.00  0.00     0.255 C 
ATOM      9  C   UNL A   1      32.959  22.678  24.183  1.00  0.00     0.159 C 
ATOM     10  N   UNL A   1      31.986  23.706  23.775  1.00  0.00    -0.330 N 
ATOM     11  O   UNL A   1      34.515  23.545  22.458  1.00  0.00    -0.354 OA
ATOM     12  C   UNL A   1      32.306  24.684  22.838  1.00  0.00     0.249 C 
ATOM     13  C   UNL A   1      33.771  24.743  22.389  1.00  0.00     0.261 C 
ATOM     14  O   UNL A   1      31.496  25.525  22.451  1.00  0.00    -0.272 OA
BRANCH   9  15
ATOM     15  C   UNL A   1      32.580  21.306  23.683  1.00  0.00     0.019 A 
ATOM     16  C   UNL A   1      33.258  19.818  25.723  1.00  0.00     0.067 C 
ATOM     17  C   UNL A   1      32.773  20.097  24.346  1.00  0.00     0.040 A 
ATOM     18  N   UNL A   1      32.522  19.119  23.416  1.00  0.00    -0.273 N 
ATOM     19  C   UNL A   1      32.134  20.926  22.396  1.00  0.00     0.141 A 
ATOM     20  N   UNL A   1      32.070  19.602  22.248  1.00  0.00    -0.181 NA
ATOM     21  C   UNL A   1      32.829  17.712  23.527  1.00  0.00     0.174 C 
ENDBRANCH   9  15
BRANCH  10  22
ATOM     22  C   UNL A   1      30.679  23.797  24.447  1.00  0.00     0.123 C 
BRANCH  22  23
ATOM     23  C   UNL A   1      30.738  24.336  25.894  1.00  0.00     0.002 C 
ATOM     24  C   UNL A   1      29.918  25.621  26.042  1.00  0.00     0.009 C 
ATOM     25  C   UNL A   1      30.197  23.302  26.889  1.00  0.00     0.009 C 
ENDBRANCH  22  23
ENDBRANCH  10  22
ENDBRANCH   6   8
ENDBRANCH   5   6
ENDBRANCH   4   5
ENDBRANCH   3   4
ENDBRANCH   2   3
ENDBRANCH   1   2
BRANCH   1  26
ATOM     26  C   UNL A   1      42.095  22.861  26.193  1.00  0.00     0.261 C 
BRANCH  26  27
ATOM     27  O   UNL A   1      41.745  24.256  26.161  1.00  0.00    -0.460 OA
BRANCH  27  28
ATOM     28  C   UNL A   1      42.731  25.089  26.575  1.00  0.00     0.338 C 
ATOM     29  O   UNL A   1      43.865  25.169  26.121  1.00  0.00    -0.246 OA
BRANCH  28  30
ATOM     30  C   UNL A   1      42.202  26.063  27.544  1.00  0.00     0.060 A 
ATOM     31  C   UNL A   1      42.934  27.242  27.739  1.00  0.00     0.016 A 
ATOM     32  C   UNL A   1      41.062  25.800  28.306  1.00  0.00     0.016 A 
ATOM     33  C   UNL A   1      42.559  28.140  28.734  1.00  0.00     0.010 A 
ATOM     34  C   UNL A   1      40.694  26.697  29.314  1.00  0.00     0.010 A 
ATOM     35  C   UNL A   1      41.461  27.851  29.555  1.00  0.00    -0.014 A 
BRANCH  35  36
ATOM     36  C   UNL A   1      41.220  28.680  30.761  1.00  0.00     0.031 A 
ATOM     37  C   UNL A   1      40.097  29.681  30.740  1.00  0.00     0.074 A 
ATOM     38  C   UNL A   1      41.967  28.516  31.868  1.00  0.00     0.049 A 
ATOM     39  N   UNL A   1      39.717  30.521  31.667  1.00  0.00    -0.248 NA
ATOM     40  C   UNL A   1      39.292  29.742  29.508  1.00  0.00     0.031 C 
ATOM     41  C   UNL A   1      43.054  27.550  32.017  1.00  0.00     0.029 A 
ATOM     42  N   UNL A   1      41.924  29.164  33.076  1.00  0.00    -0.354 N 
ATOM     43  C   UNL A   1      38.643  31.220  31.128  1.00  0.00     0.074 A 
ATOM     44  C   UNL A   1      38.441  30.719  29.787  1.00  0.00     0.031 C 
ATOM     45  C   UNL A   1      43.581  27.674  33.248  1.00  0.00     0.029 A 
ATOM     46  C   UNL A   1      42.889  28.748  33.960  1.00  0.00     0.049 A 
ATOM     47  H   UNL A   1      41.262  29.861  33.290  1.00  0.00     0.167 HD
ATOM     48  C   UNL A   1      37.890  32.186  31.705  1.00  0.00     0.037 A 
ATOM     49  C   UNL A   1      43.192  29.197  35.194  1.00  0.00     0.037 A 
ATOM     50  C   UNL A   1      38.090  32.672  33.045  1.00  0.00     0.049 A 
ATOM     51  C   UNL A   1      42.375  30.314  35.791  1.00  0.00     0.074 A 
ATOM     52  C   UNL A   1      37.360  33.625  33.733  1.00  0.00     0.029 A 
ATOM     53  N   UNL A   1      39.098  32.246  33.898  1.00  0.00    -0.354 N 
ATOM     54  N   UNL A   1      41.342  30.944  35.282  1.00  0.00    -0.248 NA
ATOM     55  C   UNL A   1      42.766  30.784  37.128  1.00  0.00     0.031 C 
ATOM     56  C   UNL A   1      37.956  33.812  34.985  1.00  0.00     0.029 A 
ATOM     57  C   UNL A   1      39.026  32.938  35.096  1.00  0.00     0.049 A 
ATOM     58  H   UNL A   1      39.765  31.555  33.684  1.00  0.00     0.167 HD
ATOM     59  C   UNL A   1      40.941  31.861  36.249  1.00  0.00     0.074 A 
ATOM     60  C   UNL A   1      41.839  31.698  37.375  1.00  0.00     0.031 C 
ATOM     61  C   UNL A   1      39.922  32.754  36.211  1.00  0.00     0.037 A 
BRANCH  48  62
ATOM     62  C   UNL A   1      36.797  32.807  30.879  1.00  0.00     0.058 A 
ATOM     63  C   UNL A   1      37.067  33.772  29.897  1.00  0.00     0.135 A 
ATOM     64  C   UNL A   1      35.463  32.400  31.049  1.00  0.00     0.135 A 
ATOM     65  F   UNL A   1      38.321  34.211  29.707  1.00  0.00    -0.206 F 
ATOM     66  C   UNL A   1      36.051  34.325  29.124  1.00  0.00     0.059 A 
ATOM     67  C   UNL A   1      34.435  32.922  30.271  1.00  0.00     0.059 A 
ATOM     68  F   UNL A   1      35.149  31.484  31.978  1.00  0.00    -0.206 F 
ATOM     69  C   UNL A   1      34.738  33.894  29.318  1.00  0.00     0.060 A 
BRANCH  69  70
ATOM     70  S   UNL A   1      33.431  34.613  28.300  1.00  0.00     0.124 S 
ATOM     71  O   UNL A   1      32.896  33.429  27.636  1.00  0.00    -0.237 OA
ATOM     72  O   UNL A   1      32.560  35.227  29.298  1.00  0.00    -0.237 OA
ATOM     73  O   UNL A   1      34.147  35.547  27.437  1.00  0.00    -0.744 OA
ENDBRANCH  69  70
ENDBRANCH  48  62
BRANCH  49  74
ATOM     74  C   UNL A   1      44.325  28.599  35.950  1.00  0.00     0.058 A 
ATOM     75  C   UNL A   1      44.121  27.533  36.838  1.00  0.00     0.135 A 
ATOM     76  C   UNL A   1      45.632  29.091  35.809  1.00  0.00     0.135 A 
ATOM     77  F   UNL A   1      42.888  27.035  37.016  1.00  0.00    -0.206 F 
ATOM     78  C   UNL A   1      45.168  26.987  37.574  1.00  0.00     0.059 A 
ATOM     79  C   UNL A   1      46.700  28.545  36.515  1.00  0.00     0.059 A 
ATOM     80  F   UNL A   1      45.883  30.104  34.966  1.00  0.00    -0.206 F 
ATOM     81  C   UNL A   1      46.455  27.500  37.405  1.00  0.00     0.060 A 
BRANCH  81  82
ATOM     82  S   UNL A   1      47.813  26.760  38.338  1.00  0.00     0.124 S 
ATOM     83  O   UNL A   1      47.207  25.518  38.803  1.00  0.00    -0.237 OA
ATOM     84  O   UNL A   1      48.847  26.623  37.316  1.00  0.00    -0.237 OA
ATOM     85  O   UNL A   1      48.091  27.754  39.369  1.00  0.00    -0.744 OA
ENDBRANCH  81  82
ENDBRANCH  49  74
BRANCH  61  86
ATOM     86  C   UNL A   1      39.692  33.598  37.434  1.00  0.00     0.058 A 
ATOM     87  C   UNL A   1      38.755  33.235  38.415  1.00  0.00     0.135 A 
ATOM     88  C   UNL A   1      40.458  34.753  37.654  1.00  0.00     0.135 A 
ATOM     89  F   UNL A   1      37.992  32.143  38.251  1.00  0.00    -0.206 F 
ATOM     90  C   UNL A   1      38.571  34.002  39.561  1.00  0.00     0.059 A 
ATOM     91  C   UNL A   1      40.309  35.521  38.805  1.00  0.00     0.059 A 
ATOM     92  F   UNL A   1      41.376  35.137  36.753  1.00  0.00    -0.206 F 
ATOM     93  C   UNL A   1      39.354  35.144  39.747  1.00  0.00     0.060 A 
BRANCH  93  94
ATOM     94  S   UNL A   1      39.130  36.113  41.255  1.00  0.00     0.124 S 
ATOM     95  O   UNL A   1      39.001  37.463  40.719  1.00  0.00    -0.237 OA
ATOM     96  O   UNL A   1      37.914  35.536  41.820  1.00  0.00    -0.237 OA
ATOM     97  O   UNL A   1      40.351  35.850  42.011  1.00  0.00    -0.744 OA
ENDBRANCH  93  94
ENDBRANCH  61  86
ENDBRANCH  35  36
ENDBRANCH  28  30
ENDBRANCH  27  28
ENDBRANCH  26  27
ENDBRANCH   1  26
TORSDOF 20
ENDMDL
