MODEL 1
REMARK VINA RESULT:     -11.9      0.000      0.000
REMARK SMILES O=C(CC1(C(=O)OCCOCCOC(=O)c2ccc(-c3c4nc(c(-c5c(F)cc(S(=O)(=O)[O-])cc5F)c5ccc([nH]5)c(-c5c(F)cc(S(=O)(=O)[O-])cc5F)c5nc(c(-c6c(F)cc(S(=O)(=O)[O-])cc6F)c6ccc3[nH]6)C=C5)C=C4)cc2)CCCCC1)Nc1ccc(N2CCOC2=O)cc1
REMARK SMILES IDX 9 1 8 2 7 3 5 4 6 5 4 6 82 7 86 8 83 9 85 10 84 11 3 12 2 13
REMARK SMILES IDX 1 14 87 15 88 17 89 18 99 19 90 20 98 21 91 22 92 23 93 24
REMARK SMILES IDX 96 25 94 26 95 27 97 28 10 29 11 30 12 31 13 32 14 33 15 34
REMARK SMILES IDX 16 35 17 36 81 37 18 38 80 39 19 40 20 41 21 42 74 43 22 44
REMARK SMILES IDX 79 45 73 46 75 47 23 48 78 49 72 50 71 51 24 53 58 54 37 55
REMARK SMILES IDX 57 56 38 57 41 58 56 59 76 60 39 61 40 62 55 64 77 65 42 66
REMARK SMILES IDX 25 67 26 68 35 69 27 70 28 71 34 72 36 73 29 74 30 75 31 76
REMARK SMILES IDX 32 77 33 78 59 79 60 80 69 81 61 82 62 83 68 84 70 85 63 86
REMARK SMILES IDX 64 87 65 88 66 89 67 90 43 91 44 92 53 93 45 94 46 95 52 96
REMARK SMILES IDX 54 97 47 98 48 99 49 100 50 101 51 102
REMARK H PARENT 87 16 75 52 41 63
REMARK Flexibility Score: inf
ROOT
ATOM      1  C   UNL A   1      35.057  23.262  26.181  1.00  0.00     0.202 C 
ENDROOT
BRANCH   1   2
ATOM      2  C   UNL A   1      35.216  24.053  24.883  1.00  0.00     0.261 C 
BRANCH   2   3
ATOM      3  O   UNL A   1      34.086  24.909  24.659  1.00  0.00    -0.463 OA
BRANCH   3   4
ATOM      4  C   UNL A   1      33.733  25.086  23.364  1.00  0.00     0.312 C 
ATOM      5  O   UNL A   1      34.313  24.576  22.412  1.00  0.00    -0.252 OA
BRANCH   4   6
ATOM      6  C   UNL A   1      32.535  26.031  23.191  1.00  0.00     0.077 C 
ATOM      7  C   UNL A   1      33.004  27.067  22.140  1.00  0.00     0.019 C 
ATOM      8  C   UNL A   1      32.055  26.788  24.463  1.00  0.00     0.019 C 
ATOM      9  C   UNL A   1      34.010  28.078  22.703  1.00  0.00     0.001 C 
ATOM     10  C   UNL A   1      32.960  27.901  24.984  1.00  0.00     0.001 C 
ATOM     11  C   UNL A   1      33.410  28.841  23.878  1.00  0.00     0.000 C 
BRANCH   6  12
ATOM     12  C   UNL A   1      31.344  25.075  22.808  1.00  0.00     0.119 C 
BRANCH  12  13
ATOM     13  C   UNL A   1      31.255  23.735  23.508  1.00  0.00     0.225 C 
ATOM     14  O   UNL A   1      30.674  23.595  24.576  1.00  0.00    -0.275 OA
ATOM     15  N   UNL A   1      31.882  22.739  22.786  1.00  0.00    -0.326 N 
ATOM     16  H   UNL A   1      32.179  22.957  21.874  1.00  0.00     0.169 HD
BRANCH  15  17
ATOM     17  C   UNL A   1      32.128  21.445  23.253  1.00  0.00     0.041 A 
ATOM     18  C   UNL A   1      32.014  20.408  22.325  1.00  0.00     0.028 A 
ATOM     19  C   UNL A   1      32.474  21.172  24.572  1.00  0.00     0.028 A 
ATOM     20  C   UNL A   1      32.322  19.104  22.700  1.00  0.00     0.028 A 
ATOM     21  C   UNL A   1      32.670  19.849  24.971  1.00  0.00     0.028 A 
ATOM     22  C   UNL A   1      32.624  18.812  24.032  1.00  0.00     0.047 A 
BRANCH  22  23
ATOM     23  N   UNL A   1      32.907  17.495  24.418  1.00  0.00    -0.274 N 
ATOM     24  C   UNL A   1      32.555  16.958  25.691  1.00  0.00     0.171 C 
ATOM     25  C   UNL A   1      33.608  16.569  23.678  1.00  0.00     0.414 C 
ATOM     26  C   UNL A   1      32.773  15.481  25.477  1.00  0.00     0.257 C 
ATOM     27  O   UNL A   1      33.678  15.389  24.372  1.00  0.00    -0.447 OA
ATOM     28  O   UNL A   1      34.157  16.727  22.594  1.00  0.00    -0.224 OA
ENDBRANCH  22  23
ENDBRANCH  15  17
ENDBRANCH  12  13
ENDBRANCH   6  12
ENDBRANCH   4   6
ENDBRANCH   3   4
ENDBRANCH   2   3
ENDBRANCH   1   2
BRANCH   1  29
ATOM     29  O   UNL A   1      35.488  21.903  26.177  1.00  0.00    -0.374 OA
BRANCH  29  30
ATOM     30  C   UNL A   1      36.150  21.407  25.017  1.00  0.00     0.202 C 
BRANCH  30  31
ATOM     31  C   UNL A   1      37.664  21.169  25.093  1.00  0.00     0.261 C 
BRANCH  31  32
ATOM     32  O   UNL A   1      38.409  22.346  25.453  1.00  0.00    -0.460 OA
BRANCH  32  33
ATOM     33  C   UNL A   1      39.369  22.137  26.390  1.00  0.00     0.338 C 
ATOM     34  O   UNL A   1      39.993  21.108  26.585  1.00  0.00    -0.246 OA
BRANCH  33  35
ATOM     35  C   UNL A   1      39.719  23.408  27.053  1.00  0.00     0.060 A 
ATOM     36  C   UNL A   1      39.039  24.565  26.649  1.00  0.00     0.016 A 
ATOM     37  C   UNL A   1      40.767  23.482  27.970  1.00  0.00     0.016 A 
ATOM     38  C   UNL A   1      39.439  25.813  27.123  1.00  0.00     0.010 A 
ATOM     39  C   UNL A   1      41.173  24.736  28.435  1.00  0.00     0.010 A 
ATOM     40  C   UNL A   1      40.539  25.909  27.983  1.00  0.00    -0.014 A 
BRANCH  40  41
ATOM     41  C   UNL A   1      41.142  27.233  28.276  1.00  0.00     0.031 A 
ATOM     42  C   UNL A   1      42.627  27.401  28.096  1.00  0.00     0.074 A 
ATOM     43  C   UNL A   1      40.387  28.267  28.688  1.00  0.00     0.049 A 
ATOM     44  N   UNL A   1      43.393  28.413  28.410  1.00  0.00    -0.248 NA
ATOM     45  C   UNL A   1      43.346  26.270  27.483  1.00  0.00     0.031 C 
ATOM     46  C   UNL A   1      38.933  28.245  28.837  1.00  0.00     0.029 A 
ATOM     47  N   UNL A   1      40.747  29.534  29.074  1.00  0.00    -0.354 N 
ATOM     48  C   UNL A   1      44.682  28.038  28.048  1.00  0.00     0.074 A 
ATOM     49  C   UNL A   1      44.600  26.694  27.520  1.00  0.00     0.031 C 
ATOM     50  C   UNL A   1      38.525  29.439  29.300  1.00  0.00     0.029 A 
ATOM     51  C   UNL A   1      39.692  30.291  29.526  1.00  0.00     0.049 A 
ATOM     52  H   UNL A   1      41.672  29.867  29.032  1.00  0.00     0.167 HD
ATOM     53  C   UNL A   1      45.828  28.754  28.140  1.00  0.00     0.037 A 
ATOM     54  C   UNL A   1      39.679  31.516  30.088  1.00  0.00     0.037 A 
ATOM     55  C   UNL A   1      45.897  30.093  28.667  1.00  0.00     0.049 A 
ATOM     56  C   UNL A   1      40.980  32.258  30.271  1.00  0.00     0.074 A 
ATOM     57  C   UNL A   1      47.009  30.904  28.809  1.00  0.00     0.029 A 
ATOM     58  N   UNL A   1      44.810  30.817  29.136  1.00  0.00    -0.354 N 
ATOM     59  N   UNL A   1      42.194  31.892  29.935  1.00  0.00    -0.248 NA
ATOM     60  C   UNL A   1      40.909  33.581  30.911  1.00  0.00     0.031 C 
ATOM     61  C   UNL A   1      46.604  32.097  29.415  1.00  0.00     0.029 A 
ATOM     62  C   UNL A   1      45.229  32.057  29.588  1.00  0.00     0.049 A 
ATOM     63  H   UNL A   1      43.880  30.495  29.148  1.00  0.00     0.167 HD
ATOM     64  C   UNL A   1      43.023  32.956  30.280  1.00  0.00     0.074 A 
ATOM     65  C   UNL A   1      42.173  33.979  30.853  1.00  0.00     0.031 C 
ATOM     66  C   UNL A   1      44.365  33.079  30.128  1.00  0.00     0.037 A 
BRANCH  53  67
ATOM     67  C   UNL A   1      47.103  28.099  27.683  1.00  0.00     0.058 A 
ATOM     68  C   UNL A   1      47.510  28.127  26.340  1.00  0.00     0.135 A 
ATOM     69  C   UNL A   1      47.949  27.467  28.609  1.00  0.00     0.135 A 
ATOM     70  F   UNL A   1      46.732  28.701  25.409  1.00  0.00    -0.206 F 
ATOM     71  C   UNL A   1      48.697  27.530  25.927  1.00  0.00     0.059 A 
ATOM     72  C   UNL A   1      49.156  26.890  28.223  1.00  0.00     0.059 A 
ATOM     73  F   UNL A   1      47.608  27.407  29.907  1.00  0.00    -0.206 F 
ATOM     74  C   UNL A   1      49.515  26.916  26.877  1.00  0.00     0.060 A 
BRANCH  74  75
ATOM     75  S   UNL A   1      51.054  26.154  26.325  1.00  0.00     0.124 S 
ATOM     76  O   UNL A   1      50.893  24.787  26.811  1.00  0.00    -0.237 OA
ATOM     77  O   UNL A   1      50.983  26.323  24.876  1.00  0.00    -0.237 OA
ATOM     78  O   UNL A   1      52.085  26.940  26.995  1.00  0.00    -0.744 OA
ENDBRANCH  74  75
ENDBRANCH  53  67
BRANCH  54  79
ATOM     79  C   UNL A   1      38.394  32.119  30.541  1.00  0.00     0.058 A 
ATOM     80  C   UNL A   1      37.890  31.867  31.826  1.00  0.00     0.135 A 
ATOM     81  C   UNL A   1      37.636  32.942  29.693  1.00  0.00     0.135 A 
ATOM     82  F   UNL A   1      38.572  31.078  32.670  1.00  0.00    -0.206 F 
ATOM     83  C   UNL A   1      36.670  32.388  32.246  1.00  0.00     0.059 A 
ATOM     84  C   UNL A   1      36.427  33.499  30.101  1.00  0.00     0.059 A 
ATOM     85  F   UNL A   1      38.076  33.225  28.458  1.00  0.00    -0.206 F 
ATOM     86  C   UNL A   1      35.946  33.203  31.376  1.00  0.00     0.060 A 
BRANCH  86  87
ATOM     87  S   UNL A   1      34.379  33.899  31.943  1.00  0.00     0.124 S 
ATOM     88  O   UNL A   1      33.770  32.748  32.602  1.00  0.00    -0.237 OA
ATOM     89  O   UNL A   1      34.823  34.977  32.820  1.00  0.00    -0.237 OA
ATOM     90  O   UNL A   1      33.736  34.331  30.706  1.00  0.00    -0.744 OA
ENDBRANCH  86  87
ENDBRANCH  54  79
BRANCH  66  91
ATOM     91  C   UNL A   1      45.003  34.385  30.517  1.00  0.00     0.058 A 
ATOM     92  C   UNL A   1      45.548  34.599  31.792  1.00  0.00     0.135 A 
ATOM     93  C   UNL A   1      45.145  35.408  29.564  1.00  0.00     0.135 A 
ATOM     94  F   UNL A   1      45.433  33.658  32.744  1.00  0.00    -0.206 F 
ATOM     95  C   UNL A   1      46.201  35.785  32.113  1.00  0.00     0.059 A 
ATOM     96  C   UNL A   1      45.821  36.589  29.853  1.00  0.00     0.059 A 
ATOM     97  F   UNL A   1      44.651  35.252  28.325  1.00  0.00    -0.206 F 
ATOM     98  C   UNL A   1      46.340  36.771  31.133  1.00  0.00     0.060 A 
BRANCH  98  99
ATOM     99  S   UNL A   1      47.245  38.278  31.545  1.00  0.00     0.124 S 
ATOM    100  O   UNL A   1      46.902  39.145  30.421  1.00  0.00    -0.237 OA
ATOM    101  O   UNL A   1      46.663  38.647  32.831  1.00  0.00    -0.237 OA
ATOM    102  O   UNL A   1      48.636  37.838  31.595  1.00  0.00    -0.744 OA
ENDBRANCH  98  99
ENDBRANCH  66  91
ENDBRANCH  40  41
ENDBRANCH  33  35
ENDBRANCH  32  33
ENDBRANCH  31  32
ENDBRANCH  30  31
ENDBRANCH  29  30
ENDBRANCH   1  29
TORSDOF 21
ENDMDL
MODEL 2
REMARK VINA RESULT:     -11.8      2.697      8.802
REMARK SMILES O=C(CC1(C(=O)OCCOCCOC(=O)c2ccc(-c3c4nc(c(-c5c(F)cc(S(=O)(=O)[O-])cc5F)c5ccc([nH]5)c(-c5c(F)cc(S(=O)(=O)[O-])cc5F)c5nc(c(-c6c(F)cc(S(=O)(=O)[O-])cc6F)c6ccc3[nH]6)C=C5)C=C4)cc2)CCCCC1)Nc1ccc(N2CCOC2=O)cc1
REMARK SMILES IDX 9 1 8 2 7 3 5 4 6 5 4 6 82 7 86 8 83 9 85 10 84 11 3 12 2 13
REMARK SMILES IDX 1 14 87 15 88 17 89 18 99 19 90 20 98 21 91 22 92 23 93 24
REMARK SMILES IDX 96 25 94 26 95 27 97 28 10 29 11 30 12 31 13 32 14 33 15 34
REMARK SMILES IDX 16 35 17 36 81 37 18 38 80 39 19 40 20 41 21 42 74 43 22 44
REMARK SMILES IDX 79 45 73 46 75 47 23 48 78 49 72 50 71 51 24 53 58 54 37 55
REMARK SMILES IDX 57 56 38 57 41 58 56 59 76 60 39 61 40 62 55 64 77 65 42 66
REMARK SMILES IDX 25 67 26 68 35 69 27 70 28 71 34 72 36 73 29 74 30 75 31 76
REMARK SMILES IDX 32 77 33 78 59 79 60 80 69 81 61 82 62 83 68 84 70 85 63 86
REMARK SMILES IDX 64 87 65 88 66 89 67 90 43 91 44 92 53 93 45 94 46 95 52 96
REMARK SMILES IDX 54 97 47 98 48 99 49 100 50 101 51 102
REMARK H PARENT 87 16 75 52 41 63
REMARK Flexibility Score: inf
ROOT
ATOM      1  C   UNL A   1      32.971  30.390  27.317  1.00  0.00     0.202 C 
ENDROOT
BRANCH   1   2
ATOM      2  C   UNL A   1      33.734  29.654  26.217  1.00  0.00     0.261 C 
BRANCH   2   3
ATOM      3  O   UNL A   1      32.986  28.527  25.737  1.00  0.00    -0.463 OA
BRANCH   3   4
ATOM      4  C   UNL A   1      33.510  27.891  24.662  1.00  0.00     0.312 C 
ATOM      5  O   UNL A   1      34.331  28.384  23.898  1.00  0.00    -0.252 OA
BRANCH   4   6
ATOM      6  C   UNL A   1      32.943  26.477  24.465  1.00  0.00     0.077 C 
ATOM      7  C   UNL A   1      32.717  26.357  22.938  1.00  0.00     0.019 C 
ATOM      8  C   UNL A   1      31.609  26.152  25.197  1.00  0.00     0.019 C 
ATOM      9  C   UNL A   1      31.505  27.157  22.447  1.00  0.00     0.001 C 
ATOM     10  C   UNL A   1      30.348  26.820  24.657  1.00  0.00     0.001 C 
ATOM     11  C   UNL A   1      30.233  26.695  23.146  1.00  0.00     0.000 C 
BRANCH   6  12
ATOM     12  C   UNL A   1      34.016  25.537  25.131  1.00  0.00     0.119 C 
BRANCH  12  13
ATOM     13  C   UNL A   1      33.606  24.119  25.469  1.00  0.00     0.225 C 
ATOM     14  O   UNL A   1      33.223  23.801  26.588  1.00  0.00    -0.275 OA
ATOM     15  N   UNL A   1      33.708  23.283  24.375  1.00  0.00    -0.326 N 
ATOM     16  H   UNL A   1      33.885  23.697  23.501  1.00  0.00     0.169 HD
BRANCH  15  17
ATOM     17  C   UNL A   1      33.578  21.892  24.415  1.00  0.00     0.041 A 
ATOM     18  C   UNL A   1      34.734  21.159  24.688  1.00  0.00     0.028 A 
ATOM     19  C   UNL A   1      32.368  21.241  24.202  1.00  0.00     0.028 A 
ATOM     20  C   UNL A   1      34.664  19.775  24.822  1.00  0.00     0.028 A 
ATOM     21  C   UNL A   1      32.326  19.846  24.224  1.00  0.00     0.028 A 
ATOM     22  C   UNL A   1      33.465  19.108  24.563  1.00  0.00     0.047 A 
BRANCH  22  23
ATOM     23  N   UNL A   1      33.398  17.712  24.670  1.00  0.00    -0.274 N 
ATOM     24  C   UNL A   1      33.058  17.034  25.878  1.00  0.00     0.171 C 
ATOM     25  C   UNL A   1      33.708  16.809  23.679  1.00  0.00     0.414 C 
ATOM     26  C   UNL A   1      32.812  15.629  25.388  1.00  0.00     0.257 C 
ATOM     27  O   UNL A   1      33.515  15.535  24.145  1.00  0.00    -0.447 OA
ATOM     28  O   UNL A   1      34.148  17.039  22.558  1.00  0.00    -0.224 OA
ENDBRANCH  22  23
ENDBRANCH  15  17
ENDBRANCH  12  13
ENDBRANCH   6  12
ENDBRANCH   4   6
ENDBRANCH   3   4
ENDBRANCH   2   3
ENDBRANCH   1   2
BRANCH   1  29
ATOM     29  O   UNL A   1      33.233  31.782  27.478  1.00  0.00    -0.374 OA
BRANCH  29  30
ATOM     30  C   UNL A   1      34.553  32.185  27.833  1.00  0.00     0.202 C 
BRANCH  30  31
ATOM     31  C   UNL A   1      34.890  32.325  29.324  1.00  0.00     0.261 C 
BRANCH  31  32
ATOM     32  O   UNL A   1      35.625  31.205  29.850  1.00  0.00    -0.460 OA
BRANCH  32  33
ATOM     33  C   UNL A   1      36.734  31.544  30.556  1.00  0.00     0.338 C 
ATOM     34  O   UNL A   1      36.794  32.301  31.510  1.00  0.00    -0.246 OA
BRANCH  33  35
ATOM     35  C   UNL A   1      37.878  30.712  30.138  1.00  0.00     0.060 A 
ATOM     36  C   UNL A   1      38.744  30.243  31.135  1.00  0.00     0.016 A 
ATOM     37  C   UNL A   1      38.159  30.491  28.790  1.00  0.00     0.016 A 
ATOM     38  C   UNL A   1      39.926  29.592  30.787  1.00  0.00     0.010 A 
ATOM     39  C   UNL A   1      39.351  29.847  28.443  1.00  0.00     0.010 A 
ATOM     40  C   UNL A   1      40.258  29.431  29.437  1.00  0.00    -0.014 A 
BRANCH  40  41
ATOM     41  C   UNL A   1      41.622  28.993  29.052  1.00  0.00     0.031 A 
ATOM     42  C   UNL A   1      42.729  30.014  29.044  1.00  0.00     0.074 A 
ATOM     43  C   UNL A   1      41.876  27.714  28.721  1.00  0.00     0.049 A 
ATOM     44  N   UNL A   1      43.961  29.900  28.622  1.00  0.00    -0.248 NA
ATOM     45  C   UNL A   1      42.397  31.346  29.579  1.00  0.00     0.031 C 
ATOM     46  C   UNL A   1      40.903  26.623  28.755  1.00  0.00     0.029 A 
ATOM     47  N   UNL A   1      43.031  27.123  28.275  1.00  0.00    -0.354 N 
ATOM     48  C   UNL A   1      44.547  31.144  28.826  1.00  0.00     0.074 A 
ATOM     49  C   UNL A   1      43.527  32.007  29.380  1.00  0.00     0.031 C 
ATOM     50  C   UNL A   1      41.499  25.497  28.328  1.00  0.00     0.029 A 
ATOM     51  C   UNL A   1      42.878  25.797  27.947  1.00  0.00     0.049 A 
ATOM     52  H   UNL A   1      43.887  27.603  28.197  1.00  0.00     0.167 HD
ATOM     53  C   UNL A   1      45.823  31.528  28.583  1.00  0.00     0.037 A 
ATOM     54  C   UNL A   1      43.743  24.937  27.372  1.00  0.00     0.037 A 
ATOM     55  C   UNL A   1      46.831  30.660  28.032  1.00  0.00     0.049 A 
ATOM     56  C   UNL A   1      45.131  25.413  27.018  1.00  0.00     0.074 A 
ATOM     57  C   UNL A   1      48.151  30.952  27.740  1.00  0.00     0.029 A 
ATOM     58  N   UNL A   1      46.630  29.330  27.690  1.00  0.00    -0.354 N 
ATOM     59  N   UNL A   1      45.672  26.593  27.206  1.00  0.00    -0.248 NA
ATOM     60  C   UNL A   1      46.025  24.440  26.373  1.00  0.00     0.031 C 
ATOM     61  C   UNL A   1      48.734  29.815  27.172  1.00  0.00     0.029 A 
ATOM     62  C   UNL A   1      47.797  28.794  27.171  1.00  0.00     0.049 A 
ATOM     63  H   UNL A   1      45.782  28.840  27.798  1.00  0.00     0.167 HD
ATOM     64  C   UNL A   1      46.982  26.490  26.746  1.00  0.00     0.074 A 
ATOM     65  C   UNL A   1      47.151  25.135  26.268  1.00  0.00     0.031 C 
ATOM     66  C   UNL A   1      47.959  27.431  26.728  1.00  0.00     0.037 A 
BRANCH  53  67
ATOM     67  C   UNL A   1      46.196  32.953  28.887  1.00  0.00     0.058 A 
ATOM     68  C   UNL A   1      46.001  33.986  27.955  1.00  0.00     0.135 A 
ATOM     69  C   UNL A   1      46.720  33.299  30.144  1.00  0.00     0.135 A 
ATOM     70  F   UNL A   1      45.521  33.711  26.732  1.00  0.00    -0.206 F 
ATOM     71  C   UNL A   1      46.337  35.304  28.249  1.00  0.00     0.059 A 
ATOM     72  C   UNL A   1      47.034  34.615  30.470  1.00  0.00     0.059 A 
ATOM     73  F   UNL A   1      46.930  32.352  31.073  1.00  0.00    -0.206 F 
ATOM     74  C   UNL A   1      46.850  35.609  29.510  1.00  0.00     0.060 A 
BRANCH  74  75
ATOM     75  S   UNL A   1      47.273  37.325  29.877  1.00  0.00     0.124 S 
ATOM     76  O   UNL A   1      46.911  37.987  28.627  1.00  0.00    -0.237 OA
ATOM     77  O   UNL A   1      46.413  37.619  31.020  1.00  0.00    -0.237 OA
ATOM     78  O   UNL A   1      48.702  37.270  30.167  1.00  0.00    -0.744 OA
ENDBRANCH  74  75
ENDBRANCH  53  67
BRANCH  54  79
ATOM     79  C   UNL A   1      43.324  23.539  27.074  1.00  0.00     0.058 A 
ATOM     80  C   UNL A   1      42.973  23.152  25.771  1.00  0.00     0.135 A 
ATOM     81  C   UNL A   1      43.248  22.569  28.086  1.00  0.00     0.135 A 
ATOM     82  F   UNL A   1      43.019  24.045  24.772  1.00  0.00    -0.206 F 
ATOM     83  C   UNL A   1      42.537  21.862  25.487  1.00  0.00     0.059 A 
ATOM     84  C   UNL A   1      42.844  21.263  27.820  1.00  0.00     0.059 A 
ATOM     85  F   UNL A   1      43.583  22.881  29.346  1.00  0.00    -0.206 F 
ATOM     86  C   UNL A   1      42.477  20.924  26.518  1.00  0.00     0.060 A 
BRANCH  86  87
ATOM     87  S   UNL A   1      41.940  19.244  26.131  1.00  0.00     0.124 S 
ATOM     88  O   UNL A   1      42.712  18.960  24.927  1.00  0.00    -0.237 OA
ATOM     89  O   UNL A   1      42.334  18.514  27.331  1.00  0.00    -0.237 OA
ATOM     90  O   UNL A   1      40.500  19.388  25.938  1.00  0.00    -0.744 OA
ENDBRANCH  86  87
ENDBRANCH  54  79
BRANCH  66  91
ATOM     91  C   UNL A   1      49.323  27.022  26.243  1.00  0.00     0.058 A 
ATOM     92  C   UNL A   1      50.265  26.415  27.088  1.00  0.00     0.135 A 
ATOM     93  C   UNL A   1      49.657  27.164  24.885  1.00  0.00     0.135 A 
ATOM     94  F   UNL A   1      50.000  26.262  28.396  1.00  0.00    -0.206 F 
ATOM     95  C   UNL A   1      51.494  25.975  26.608  1.00  0.00     0.059 A 
ATOM     96  C   UNL A   1      50.868  26.703  24.377  1.00  0.00     0.059 A 
ATOM     97  F   UNL A   1      48.790  27.730  24.031  1.00  0.00    -0.206 F 
ATOM     98  C   UNL A   1      51.783  26.115  25.248  1.00  0.00     0.060 A 
BRANCH  98  99
ATOM     99  S   UNL A   1      53.356  25.482  24.627  1.00  0.00     0.124 S 
ATOM    100  O   UNL A   1      54.312  26.354  25.302  1.00  0.00    -0.237 OA
ATOM    101  O   UNL A   1      53.332  24.095  25.081  1.00  0.00    -0.237 OA
ATOM    102  O   UNL A   1      53.251  25.665  23.183  1.00  0.00    -0.744 OA
ENDBRANCH  98  99
ENDBRANCH  66  91
ENDBRANCH  40  41
ENDBRANCH  33  35
ENDBRANCH  32  33
ENDBRANCH  31  32
ENDBRANCH  30  31
ENDBRANCH  29  30
ENDBRANCH   1  29
TORSDOF 21
ENDMDL
MODEL 3
REMARK VINA RESULT:     -11.8      5.005      9.026
REMARK SMILES O=C(CC1(C(=O)OCCOCCOC(=O)c2ccc(-c3c4nc(c(-c5c(F)cc(S(=O)(=O)[O-])cc5F)c5ccc([nH]5)c(-c5c(F)cc(S(=O)(=O)[O-])cc5F)c5nc(c(-c6c(F)cc(S(=O)(=O)[O-])cc6F)c6ccc3[nH]6)C=C5)C=C4)cc2)CCCCC1)Nc1ccc(N2CCOC2=O)cc1
REMARK SMILES IDX 9 1 8 2 7 3 5 4 6 5 4 6 82 7 86 8 83 9 85 10 84 11 3 12 2 13
REMARK SMILES IDX 1 14 87 15 88 17 89 18 99 19 90 20 98 21 91 22 92 23 93 24
REMARK SMILES IDX 96 25 94 26 95 27 97 28 10 29 11 30 12 31 13 32 14 33 15 34
REMARK SMILES IDX 16 35 17 36 81 37 18 38 80 39 19 40 20 41 21 42 74 43 22 44
REMARK SMILES IDX 79 45 73 46 75 47 23 48 78 49 72 50 71 51 24 53 58 54 37 55
REMARK SMILES IDX 57 56 38 57 41 58 56 59 76 60 39 61 40 62 55 64 77 65 42 66
REMARK SMILES IDX 25 67 26 68 35 69 27 70 28 71 34 72 36 73 29 74 30 75 31 76
REMARK SMILES IDX 32 77 33 78 59 79 60 80 69 81 61 82 62 83 68 84 70 85 63 86
REMARK SMILES IDX 64 87 65 88 66 89 67 90 43 91 44 92 53 93 45 94 46 95 52 96
REMARK SMILES IDX 54 97 47 98 48 99 49 100 50 101 51 102
REMARK H PARENT 87 16 75 52 41 63
REMARK Flexibility Score: inf
ROOT
ATOM      1  C   UNL A   1      36.920  23.736  25.183  1.00  0.00     0.202 C 
ENDROOT
BRANCH   1   2
ATOM      2  C   UNL A   1      35.533  23.558  24.566  1.00  0.00     0.261 C 
BRANCH   2   3
ATOM      3  O   UNL A   1      34.777  24.776  24.640  1.00  0.00    -0.463 OA
BRANCH   3   4
ATOM      4  C   UNL A   1      34.067  25.093  23.531  1.00  0.00     0.312 C 
ATOM      5  O   UNL A   1      34.398  24.795  22.389  1.00  0.00    -0.252 OA
BRANCH   4   6
ATOM      6  C   UNL A   1      32.802  25.907  23.839  1.00  0.00     0.077 C 
ATOM      7  C   UNL A   1      33.060  27.289  23.190  1.00  0.00     0.019 C 
ATOM      8  C   UNL A   1      32.455  26.115  25.342  1.00  0.00     0.019 C 
ATOM      9  C   UNL A   1      34.070  28.138  23.970  1.00  0.00     0.001 C 
ATOM     10  C   UNL A   1      33.354  27.063  26.131  1.00  0.00     0.001 C 
ATOM     11  C   UNL A   1      33.592  28.373  25.397  1.00  0.00     0.000 C 
BRANCH   6  12
ATOM     12  C   UNL A   1      31.630  25.027  23.265  1.00  0.00     0.119 C 
BRANCH  12  13
ATOM     13  C   UNL A   1      31.440  23.636  23.836  1.00  0.00     0.225 C 
ATOM     14  O   UNL A   1      30.664  23.411  24.756  1.00  0.00    -0.275 OA
ATOM     15  N   UNL A   1      32.222  22.705  23.183  1.00  0.00    -0.326 N 
ATOM     16  H   UNL A   1      32.686  22.994  22.365  1.00  0.00     0.169 HD
BRANCH  15  17
ATOM     17  C   UNL A   1      32.404  21.382  23.596  1.00  0.00     0.041 A 
ATOM     18  C   UNL A   1      31.986  20.384  22.714  1.00  0.00     0.028 A 
ATOM     19  C   UNL A   1      32.975  21.045  24.818  1.00  0.00     0.028 A 
ATOM     20  C   UNL A   1      32.209  19.045  23.024  1.00  0.00     0.028 A 
ATOM     21  C   UNL A   1      33.091  19.700  25.174  1.00  0.00     0.028 A 
ATOM     22  C   UNL A   1      32.737  18.695  24.268  1.00  0.00     0.047 A 
BRANCH  22  23
ATOM     23  N   UNL A   1      32.937  17.346  24.594  1.00  0.00    -0.274 N 
ATOM     24  C   UNL A   1      32.491  16.759  25.814  1.00  0.00     0.171 C 
ATOM     25  C   UNL A   1      33.634  16.428  23.841  1.00  0.00     0.414 C 
ATOM     26  C   UNL A   1      32.651  15.287  25.530  1.00  0.00     0.257 C 
ATOM     27  O   UNL A   1      33.611  15.210  24.470  1.00  0.00    -0.447 OA
ATOM     28  O   UNL A   1      34.249  16.617  22.798  1.00  0.00    -0.224 OA
ENDBRANCH  22  23
ENDBRANCH  15  17
ENDBRANCH  12  13
ENDBRANCH   6  12
ENDBRANCH   4   6
ENDBRANCH   3   4
ENDBRANCH   2   3
ENDBRANCH   1   2
BRANCH   1  29
ATOM     29  O   UNL A   1      37.366  22.733  26.091  1.00  0.00    -0.374 OA
BRANCH  29  30
ATOM     30  C   UNL A   1      38.549  22.005  25.768  1.00  0.00     0.202 C 
BRANCH  30  31
ATOM     31  C   UNL A   1      39.844  22.360  26.512  1.00  0.00     0.261 C 
BRANCH  31  32
ATOM     32  O   UNL A   1      39.721  23.524  27.348  1.00  0.00    -0.460 OA
BRANCH  32  33
ATOM     33  C   UNL A   1      40.751  24.401  27.243  1.00  0.00     0.338 C 
ATOM     34  O   UNL A   1      41.682  24.350  26.457  1.00  0.00    -0.246 OA
BRANCH  33  35
ATOM     35  C   UNL A   1      40.510  25.577  28.100  1.00  0.00     0.060 A 
ATOM     36  C   UNL A   1      41.579  26.455  28.322  1.00  0.00     0.016 A 
ATOM     37  C   UNL A   1      39.294  25.755  28.760  1.00  0.00     0.016 A 
ATOM     38  C   UNL A   1      41.456  27.489  29.249  1.00  0.00     0.010 A 
ATOM     39  C   UNL A   1      39.176  26.787  29.697  1.00  0.00     0.010 A 
ATOM     40  C   UNL A   1      40.267  27.632  29.975  1.00  0.00    -0.014 A 
BRANCH  40  41
ATOM     41  C   UNL A   1      40.215  28.543  31.145  1.00  0.00     0.031 A 
ATOM     42  C   UNL A   1      39.253  29.700  31.113  1.00  0.00     0.074 A 
ATOM     43  C   UNL A   1      41.002  28.343  32.218  1.00  0.00     0.049 A 
ATOM     44  N   UNL A   1      39.121  30.695  31.950  1.00  0.00    -0.248 NA
ATOM     45  C   UNL A   1      38.316  29.742  29.976  1.00  0.00     0.031 C 
ATOM     46  C   UNL A   1      41.924  27.224  32.394  1.00  0.00     0.029 A 
ATOM     47  N   UNL A   1      41.160  29.093  33.357  1.00  0.00    -0.354 N 
ATOM     48  C   UNL A   1      38.100  31.488  31.438  1.00  0.00     0.074 A 
ATOM     49  C   UNL A   1      37.669  30.876  30.200  1.00  0.00     0.031 C 
ATOM     50  C   UNL A   1      42.567  27.369  33.565  1.00  0.00     0.029 A 
ATOM     51  C   UNL A   1      42.136  28.615  34.198  1.00  0.00     0.049 A 
ATOM     52  H   UNL A   1      40.624  29.896  33.552  1.00  0.00     0.167 HD
ATOM     53  C   UNL A   1      37.566  32.619  31.958  1.00  0.00     0.037 A 
ATOM     54  C   UNL A   1      42.646  29.144  35.329  1.00  0.00     0.037 A 
ATOM     55  C   UNL A   1      38.003  33.218  33.193  1.00  0.00     0.049 A 
ATOM     56  C   UNL A   1      42.103  30.456  35.839  1.00  0.00     0.074 A 
ATOM     57  C   UNL A   1      37.533  34.367  33.804  1.00  0.00     0.029 A 
ATOM     58  N   UNL A   1      39.012  32.717  34.003  1.00  0.00    -0.354 N 
ATOM     59  N   UNL A   1      41.145  31.203  35.343  1.00  0.00    -0.248 NA
ATOM     60  C   UNL A   1      42.711  30.998  37.064  1.00  0.00     0.031 C 
ATOM     61  C   UNL A   1      38.293  34.590  34.956  1.00  0.00     0.029 A 
ATOM     62  C   UNL A   1      39.192  33.545  35.099  1.00  0.00     0.049 A 
ATOM     63  H   UNL A   1      39.524  31.896  33.825  1.00  0.00     0.167 HD
ATOM     64  C   UNL A   1      41.006  32.276  36.218  1.00  0.00     0.074 A 
ATOM     65  C   UNL A   1      41.978  32.084  37.274  1.00  0.00     0.031 C 
ATOM     66  C   UNL A   1      40.144  33.322  36.159  1.00  0.00     0.037 A 
BRANCH  53  67
ATOM     67  C   UNL A   1      36.467  33.294  31.185  1.00  0.00     0.058 A 
ATOM     68  C   UNL A   1      35.127  33.240  31.602  1.00  0.00     0.135 A 
ATOM     69  C   UNL A   1      36.763  34.040  30.031  1.00  0.00     0.135 A 
ATOM     70  F   UNL A   1      34.784  32.528  32.686  1.00  0.00    -0.206 F 
ATOM     71  C   UNL A   1      34.117  33.879  30.889  1.00  0.00     0.059 A 
ATOM     72  C   UNL A   1      35.773  34.712  29.320  1.00  0.00     0.059 A 
ATOM     73  F   UNL A   1      38.026  34.123  29.585  1.00  0.00    -0.206 F 
ATOM     74  C   UNL A   1      34.451  34.615  29.750  1.00  0.00     0.060 A 
BRANCH  74  75
ATOM     75  S   UNL A   1      33.129  35.443  28.842  1.00  0.00     0.124 S 
ATOM     76  O   UNL A   1      32.545  34.331  28.099  1.00  0.00    -0.237 OA
ATOM     77  O   UNL A   1      32.306  35.987  29.918  1.00  0.00    -0.237 OA
ATOM     78  O   UNL A   1      33.836  36.433  28.036  1.00  0.00    -0.744 OA
ENDBRANCH  74  75
ENDBRANCH  53  67
BRANCH  54  79
ATOM     79  C   UNL A   1      43.746  28.447  36.052  1.00  0.00     0.058 A 
ATOM     80  C   UNL A   1      43.474  27.401  36.947  1.00  0.00     0.135 A 
ATOM     81  C   UNL A   1      45.087  28.825  35.878  1.00  0.00     0.135 A 
ATOM     82  F   UNL A   1      42.208  27.011  37.155  1.00  0.00    -0.206 F 
ATOM     83  C   UNL A   1      44.488  26.771  37.662  1.00  0.00     0.059 A 
ATOM     84  C   UNL A   1      46.121  28.190  36.559  1.00  0.00     0.059 A 
ATOM     85  F   UNL A   1      45.405  29.812  35.027  1.00  0.00    -0.206 F 
ATOM     86  C   UNL A   1      45.809  27.173  37.461  1.00  0.00     0.060 A 
BRANCH  86  87
ATOM     87  S   UNL A   1      47.119  26.327  38.371  1.00  0.00     0.124 S 
ATOM     88  O   UNL A   1      47.578  25.353  37.386  1.00  0.00    -0.237 OA
ATOM     89  O   UNL A   1      48.039  27.420  38.667  1.00  0.00    -0.237 OA
ATOM     90  O   UNL A   1      46.421  25.774  39.527  1.00  0.00    -0.744 OA
ENDBRANCH  86  87
ENDBRANCH  54  79
BRANCH  66  91
ATOM     91  C   UNL A   1      40.153  34.309  37.295  1.00  0.00     0.058 A 
ATOM     92  C   UNL A   1      40.917  35.486  37.255  1.00  0.00     0.135 A 
ATOM     93  C   UNL A   1      39.313  34.111  38.404  1.00  0.00     0.135 A 
ATOM     94  F   UNL A   1      41.743  35.722  36.223  1.00  0.00    -0.206 F 
ATOM     95  C   UNL A   1      40.857  36.425  38.281  1.00  0.00     0.059 A 
ATOM     96  C   UNL A   1      39.214  35.051  39.424  1.00  0.00     0.059 A 
ATOM     97  F   UNL A   1      38.553  33.007  38.488  1.00  0.00    -0.206 F 
ATOM     98  C   UNL A   1      39.995  36.203  39.357  1.00  0.00     0.060 A 
BRANCH  98  99
ATOM     99  S   UNL A   1      39.880  37.460  40.648  1.00  0.00     0.124 S 
ATOM    100  O   UNL A   1      39.113  36.760  41.674  1.00  0.00    -0.237 OA
ATOM    101  O   UNL A   1      41.283  37.708  40.964  1.00  0.00    -0.237 OA
ATOM    102  O   UNL A   1      39.186  38.563  39.989  1.00  0.00    -0.744 OA
ENDBRANCH  98  99
ENDBRANCH  66  91
ENDBRANCH  40  41
ENDBRANCH  33  35
ENDBRANCH  32  33
ENDBRANCH  31  32
ENDBRANCH  30  31
ENDBRANCH  29  30
ENDBRANCH   1  29
TORSDOF 21
ENDMDL
