MODEL 1
REMARK VINA RESULT:      -9.8      0.000      0.000
REMARK SMILES CC[C@@](C)([NH2+][C@H]1CC[C@H](C)[C@H](C)C1)C(=O)OCCOCCOC(=O)c1ccc(-c2c3nc(c(-c4c(F)cc(S(=O)(=O)[O-])cc4F)c4ccc([nH]4)c(-c4c(F)cc(S(=O)(=O)[O-])cc4F)c4nc(c(-c5c(F)cc(S(=O)(=O)[O-])cc5F)c5ccc2[nH]5)C=C4)C=C3)cc1
REMARK SMILES IDX 20 1 19 2 18 3 17 4 16 5 14 6 15 7 3 8 4 9 2 10 1 11 5 12
REMARK SMILES IDX 6 15 7 16 13 17 8 18 11 19 9 20 12 21 10 22 21 23 22 24
REMARK SMILES IDX 23 25 24 26 25 27 26 28 90 29 27 30 89 31 28 32 29 33 30 34
REMARK SMILES IDX 83 35 31 36 88 37 82 38 84 39 32 40 87 41 81 42 80 43 33 45
REMARK SMILES IDX 67 46 46 47 66 48 47 49 50 50 65 51 85 52 48 53 49 54 64 56
REMARK SMILES IDX 86 57 51 58 34 59 35 60 44 61 36 62 37 63 43 64 45 65 38 66
REMARK SMILES IDX 39 67 40 68 41 69 42 70 68 71 69 72 78 73 70 74 71 75 77 76
REMARK SMILES IDX 79 77 72 78 73 79 74 80 75 81 76 82 52 83 53 84 62 85 54 86
REMARK SMILES IDX 55 87 61 88 63 89 56 90 57 91 58 92 59 93 60 94
REMARK H PARENT 5 13 5 14 84 44 50 55
REMARK Flexibility Score: inf
ROOT
ATOM      1  C   UNL A   1      32.883  29.740  25.708  1.00  0.00     0.202 C 
ENDROOT
BRANCH   1   2
ATOM      2  O   UNL A   1      31.706  29.044  25.289  1.00  0.00    -0.374 OA
BRANCH   2   3
ATOM      3  C   UNL A   1      31.328  29.195  23.920  1.00  0.00     0.202 C 
BRANCH   3   4
ATOM      4  C   UNL A   1      31.109  27.904  23.134  1.00  0.00     0.261 C 
BRANCH   4   5
ATOM      5  O   UNL A   1      32.172  26.980  23.409  1.00  0.00    -0.459 OA
BRANCH   5   6
ATOM      6  C   UNL A   1      31.800  25.690  23.613  1.00  0.00     0.367 C 
ATOM      7  O   UNL A   1      31.085  25.065  22.833  1.00  0.00    -0.245 OA
BRANCH   6   8
ATOM      8  C   UNL A   1      32.330  25.080  24.947  1.00  0.00     0.191 C 
ATOM      9  C   UNL A   1      33.626  25.829  25.293  1.00  0.00     0.092 C 
BRANCH   8  10
ATOM     10  C   UNL A   1      31.259  25.286  26.065  1.00  0.00     0.077 C 
ATOM     11  C   UNL A   1      30.465  24.062  26.513  1.00  0.00     0.011 C 
ENDBRANCH   8  10
BRANCH   8  12
ATOM     12  N   UNL A   1      32.520  23.587  24.912  1.00  0.00    -0.330 N 
ATOM     13  H   UNL A   1      32.163  23.251  24.018  1.00  0.00     0.347 HD
ATOM     14  H   UNL A   1      32.020  23.234  25.728  1.00  0.00     0.347 HD
BRANCH  12  15
ATOM     15  C   UNL A   1      33.894  23.096  25.055  1.00  0.00     0.183 C 
ATOM     16  C   UNL A   1      33.976  21.866  25.972  1.00  0.00     0.065 C 
ATOM     17  C   UNL A   1      34.440  22.687  23.679  1.00  0.00     0.068 C 
ATOM     18  C   UNL A   1      35.431  21.431  26.145  1.00  0.00     0.010 C 
ATOM     19  C   UNL A   1      35.921  22.273  23.766  1.00  0.00    -0.006 C 
ATOM     20  C   UNL A   1      36.121  21.141  24.803  1.00  0.00    -0.011 C 
ATOM     21  C   UNL A   1      36.800  23.508  24.013  1.00  0.00     0.008 C 
ATOM     22  C   UNL A   1      37.597  20.806  25.029  1.00  0.00     0.008 C 
ENDBRANCH  12  15
ENDBRANCH   8  12
ENDBRANCH   6   8
ENDBRANCH   5   6
ENDBRANCH   4   5
ENDBRANCH   3   4
ENDBRANCH   2   3
ENDBRANCH   1   2
BRANCH   1  23
ATOM     23  C   UNL A   1      32.743  30.685  26.910  1.00  0.00     0.261 C 
BRANCH  23  24
ATOM     24  O   UNL A   1      33.526  30.262  28.040  1.00  0.00    -0.460 OA
BRANCH  24  25
ATOM     25  C   UNL A   1      34.522  31.101  28.408  1.00  0.00     0.338 C 
ATOM     26  O   UNL A   1      34.400  32.239  28.835  1.00  0.00    -0.246 OA
BRANCH  25  27
ATOM     27  C   UNL A   1      35.805  30.363  28.437  1.00  0.00     0.060 A 
ATOM     28  C   UNL A   1      36.213  29.809  29.658  1.00  0.00     0.016 A 
ATOM     29  C   UNL A   1      36.609  30.228  27.305  1.00  0.00     0.016 A 
ATOM     30  C   UNL A   1      37.455  29.184  29.769  1.00  0.00     0.010 A 
ATOM     31  C   UNL A   1      37.850  29.586  27.414  1.00  0.00     0.010 A 
ATOM     32  C   UNL A   1      38.307  29.115  28.660  1.00  0.00    -0.014 A 
BRANCH  32  33
ATOM     33  C   UNL A   1      39.743  28.778  28.860  1.00  0.00     0.031 A 
ATOM     34  C   UNL A   1      40.630  29.805  29.521  1.00  0.00     0.074 A 
ATOM     35  C   UNL A   1      40.249  27.574  28.529  1.00  0.00     0.049 A 
ATOM     36  N   UNL A   1      41.902  29.741  29.820  1.00  0.00    -0.248 NA
ATOM     37  C   UNL A   1      39.996  31.084  29.880  1.00  0.00     0.031 C 
ATOM     38  C   UNL A   1      39.502  26.478  27.915  1.00  0.00     0.029 A 
ATOM     39  N   UNL A   1      41.520  27.072  28.675  1.00  0.00    -0.354 N 
ATOM     40  C   UNL A   1      42.220  30.972  30.382  1.00  0.00     0.074 A 
ATOM     41  C   UNL A   1      41.024  31.783  30.331  1.00  0.00     0.031 C 
ATOM     42  C   UNL A   1      40.326  25.427  27.752  1.00  0.00     0.029 A 
ATOM     43  C   UNL A   1      41.664  25.782  28.222  1.00  0.00     0.049 A 
ATOM     44  H   UNL A   1      42.260  27.590  29.068  1.00  0.00     0.167 HD
ATOM     45  C   UNL A   1      43.393  31.391  30.916  1.00  0.00     0.037 A 
ATOM     46  C   UNL A   1      42.750  24.982  28.189  1.00  0.00     0.037 A 
ATOM     47  C   UNL A   1      44.579  30.581  30.987  1.00  0.00     0.049 A 
ATOM     48  C   UNL A   1      44.061  25.482  28.742  1.00  0.00     0.074 A 
ATOM     49  C   UNL A   1      45.808  30.902  31.537  1.00  0.00     0.029 A 
ATOM     50  N   UNL A   1      44.690  29.292  30.485  1.00  0.00    -0.354 N 
ATOM     51  N   UNL A   1      44.339  26.639  29.298  1.00  0.00    -0.248 NA
ATOM     52  C   UNL A   1      45.207  24.563  28.673  1.00  0.00     0.031 C 
ATOM     53  C   UNL A   1      46.678  29.832  31.312  1.00  0.00     0.029 A 
ATOM     54  C   UNL A   1      45.975  28.814  30.688  1.00  0.00     0.049 A 
ATOM     55  H   UNL A   1      43.963  28.792  30.050  1.00  0.00     0.167 HD
ATOM     56  C   UNL A   1      45.677  26.568  29.682  1.00  0.00     0.074 A 
ATOM     57  C   UNL A   1      46.151  25.256  29.295  1.00  0.00     0.031 C 
ATOM     58  C   UNL A   1      46.437  27.502  30.308  1.00  0.00     0.037 A 
BRANCH  45  59
ATOM     59  C   UNL A   1      43.449  32.805  31.434  1.00  0.00     0.058 A 
ATOM     60  C   UNL A   1      43.834  33.884  30.622  1.00  0.00     0.135 A 
ATOM     61  C   UNL A   1      43.126  33.079  32.773  1.00  0.00     0.135 A 
ATOM     62  F   UNL A   1      44.172  33.679  29.338  1.00  0.00    -0.206 F 
ATOM     63  C   UNL A   1      43.947  35.174  31.130  1.00  0.00     0.059 A 
ATOM     64  C   UNL A   1      43.195  34.368  33.293  1.00  0.00     0.059 A 
ATOM     65  F   UNL A   1      42.750  32.088  33.595  1.00  0.00    -0.206 F 
ATOM     66  C   UNL A   1      43.631  35.404  32.470  1.00  0.00     0.060 A 
BRANCH  66  67
ATOM     67  S   UNL A   1      43.812  37.077  33.124  1.00  0.00     0.124 S 
ATOM     68  O   UNL A   1      42.670  37.158  34.030  1.00  0.00    -0.237 OA
ATOM     69  O   UNL A   1      45.122  37.024  33.761  1.00  0.00    -0.237 OA
ATOM     70  O   UNL A   1      43.728  37.918  31.934  1.00  0.00    -0.744 OA
ENDBRANCH  66  67
ENDBRANCH  45  59
BRANCH  46  71
ATOM     71  C   UNL A   1      42.640  23.604  27.634  1.00  0.00     0.058 A 
ATOM     72  C   UNL A   1      42.434  22.499  28.473  1.00  0.00     0.135 A 
ATOM     73  C   UNL A   1      42.732  23.364  26.254  1.00  0.00     0.135 A 
ATOM     74  F   UNL A   1      42.359  22.671  29.802  1.00  0.00    -0.206 F 
ATOM     75  C   UNL A   1      42.326  21.206  27.968  1.00  0.00     0.059 A 
ATOM     76  C   UNL A   1      42.599  22.086  25.721  1.00  0.00     0.059 A 
ATOM     77  F   UNL A   1      42.924  24.387  25.405  1.00  0.00    -0.206 F 
ATOM     78  C   UNL A   1      42.400  21.012  26.587  1.00  0.00     0.060 A 
BRANCH  78  79
ATOM     79  S   UNL A   1      42.182  19.340  25.938  1.00  0.00     0.124 S 
ATOM     80  O   UNL A   1      43.047  19.362  24.765  1.00  0.00    -0.237 OA
ATOM     81  O   UNL A   1      42.640  18.519  27.054  1.00  0.00    -0.237 OA
ATOM     82  O   UNL A   1      40.749  19.270  25.666  1.00  0.00    -0.744 OA
ENDBRANCH  78  79
ENDBRANCH  46  71
BRANCH  58  83
ATOM     83  C   UNL A   1      47.851  27.127  30.675  1.00  0.00     0.058 A 
ATOM     84  C   UNL A   1      48.164  26.458  31.867  1.00  0.00     0.135 A 
ATOM     85  C   UNL A   1      48.905  27.401  29.784  1.00  0.00     0.135 A 
ATOM     86  F   UNL A   1      47.200  26.171  32.756  1.00  0.00    -0.206 F 
ATOM     87  C   UNL A   1      49.475  26.102  32.179  1.00  0.00     0.059 A 
ATOM     88  C   UNL A   1      50.215  27.024  30.060  1.00  0.00     0.059 A 
ATOM     89  F   UNL A   1      48.662  28.024  28.620  1.00  0.00    -0.206 F 
ATOM     90  C   UNL A   1      50.494  26.389  31.269  1.00  0.00     0.060 A 
BRANCH  90  91
ATOM     91  S   UNL A   1      52.184  25.907  31.678  1.00  0.00     0.124 S 
ATOM     92  O   UNL A   1      52.006  24.511  32.069  1.00  0.00    -0.237 OA
ATOM     93  O   UNL A   1      52.885  26.126  30.416  1.00  0.00    -0.237 OA
ATOM     94  O   UNL A   1      52.548  26.819  32.758  1.00  0.00    -0.744 OA
ENDBRANCH  90  91
ENDBRANCH  58  83
ENDBRANCH  32  33
ENDBRANCH  25  27
ENDBRANCH  24  25
ENDBRANCH  23  24
ENDBRANCH   1  23
TORSDOF 20
ENDMDL
MODEL 2
REMARK VINA RESULT:      -9.8      2.761      3.423
REMARK SMILES CC[C@@](C)([NH2+][C@H]1CC[C@H](C)[C@H](C)C1)C(=O)OCCOCCOC(=O)c1ccc(-c2c3nc(c(-c4c(F)cc(S(=O)(=O)[O-])cc4F)c4ccc([nH]4)c(-c4c(F)cc(S(=O)(=O)[O-])cc4F)c4nc(c(-c5c(F)cc(S(=O)(=O)[O-])cc5F)c5ccc2[nH]5)C=C4)C=C3)cc1
REMARK SMILES IDX 20 1 19 2 18 3 17 4 16 5 14 6 15 7 3 8 4 9 2 10 1 11 5 12
REMARK SMILES IDX 6 15 7 16 13 17 8 18 11 19 9 20 12 21 10 22 21 23 22 24
REMARK SMILES IDX 23 25 24 26 25 27 26 28 90 29 27 30 89 31 28 32 29 33 30 34
REMARK SMILES IDX 83 35 31 36 88 37 82 38 84 39 32 40 87 41 81 42 80 43 33 45
REMARK SMILES IDX 67 46 46 47 66 48 47 49 50 50 65 51 85 52 48 53 49 54 64 56
REMARK SMILES IDX 86 57 51 58 34 59 35 60 44 61 36 62 37 63 43 64 45 65 38 66
REMARK SMILES IDX 39 67 40 68 41 69 42 70 68 71 69 72 78 73 70 74 71 75 77 76
REMARK SMILES IDX 79 77 72 78 73 79 74 80 75 81 76 82 52 83 53 84 62 85 54 86
REMARK SMILES IDX 55 87 61 88 63 89 56 90 57 91 58 92 59 93 60 94
REMARK H PARENT 5 13 5 14 84 44 50 55
REMARK Flexibility Score: inf
ROOT
ATOM      1  C   UNL A   1      31.796  29.651  25.938  1.00  0.00     0.202 C 
ENDROOT
BRANCH   1   2
ATOM      2  O   UNL A   1      31.319  29.706  24.591  1.00  0.00    -0.374 OA
BRANCH   2   3
ATOM      3  C   UNL A   1      31.029  28.455  23.965  1.00  0.00     0.202 C 
BRANCH   3   4
ATOM      4  C   UNL A   1      31.973  28.028  22.844  1.00  0.00     0.261 C 
BRANCH   4   5
ATOM      5  O   UNL A   1      31.785  26.635  22.552  1.00  0.00    -0.459 OA
BRANCH   5   6
ATOM      6  C   UNL A   1      32.893  25.855  22.639  1.00  0.00     0.367 C 
ATOM      7  O   UNL A   1      33.832  25.930  21.849  1.00  0.00    -0.245 OA
BRANCH   6   8
ATOM      8  C   UNL A   1      32.855  24.827  23.812  1.00  0.00     0.191 C 
ATOM      9  C   UNL A   1      33.691  25.427  24.953  1.00  0.00     0.092 C 
BRANCH   8  10
ATOM     10  C   UNL A   1      31.374  24.619  24.262  1.00  0.00     0.077 C 
ATOM     11  C   UNL A   1      31.032  23.315  24.975  1.00  0.00     0.011 C 
ENDBRANCH   8  10
BRANCH   8  12
ATOM     12  N   UNL A   1      33.306  23.442  23.433  1.00  0.00    -0.330 N 
ATOM     13  H   UNL A   1      33.519  23.447  22.437  1.00  0.00     0.347 HD
ATOM     14  H   UNL A   1      32.537  22.827  23.701  1.00  0.00     0.347 HD
BRANCH  12  15
ATOM     15  C   UNL A   1      34.481  22.919  24.137  1.00  0.00     0.183 C 
ATOM     16  C   UNL A   1      34.366  21.413  24.419  1.00  0.00     0.065 C 
ATOM     17  C   UNL A   1      35.735  23.134  23.275  1.00  0.00     0.068 C 
ATOM     18  C   UNL A   1      35.580  20.928  25.210  1.00  0.00     0.010 C 
ATOM     19  C   UNL A   1      37.010  22.704  24.024  1.00  0.00    -0.006 C 
ATOM     20  C   UNL A   1      36.906  21.234  24.497  1.00  0.00    -0.011 C 
ATOM     21  C   UNL A   1      37.322  23.702  25.149  1.00  0.00     0.008 C 
ATOM     22  C   UNL A   1      38.088  20.816  25.375  1.00  0.00     0.008 C 
ENDBRANCH  12  15
ENDBRANCH   8  12
ENDBRANCH   6   8
ENDBRANCH   5   6
ENDBRANCH   4   5
ENDBRANCH   3   4
ENDBRANCH   2   3
ENDBRANCH   1   2
BRANCH   1  23
ATOM     23  C   UNL A   1      33.246  30.096  26.181  1.00  0.00     0.261 C 
BRANCH  23  24
ATOM     24  O   UNL A   1      33.518  30.360  27.569  1.00  0.00    -0.460 OA
BRANCH  24  25
ATOM     25  C   UNL A   1      34.365  31.387  27.814  1.00  0.00     0.338 C 
ATOM     26  O   UNL A   1      34.065  32.559  27.985  1.00  0.00    -0.246 OA
BRANCH  25  27
ATOM     27  C   UNL A   1      35.722  30.856  28.075  1.00  0.00     0.060 A 
ATOM     28  C   UNL A   1      35.844  29.491  28.366  1.00  0.00     0.016 A 
ATOM     29  C   UNL A   1      36.854  31.672  28.060  1.00  0.00     0.016 A 
ATOM     30  C   UNL A   1      37.084  28.952  28.712  1.00  0.00     0.010 A 
ATOM     31  C   UNL A   1      38.101  31.126  28.393  1.00  0.00     0.010 A 
ATOM     32  C   UNL A   1      38.213  29.777  28.780  1.00  0.00    -0.014 A 
BRANCH  32  33
ATOM     33  C   UNL A   1      39.433  29.291  29.481  1.00  0.00     0.031 A 
ATOM     34  C   UNL A   1      39.781  29.907  30.815  1.00  0.00     0.074 A 
ATOM     35  C   UNL A   1      40.188  28.288  28.993  1.00  0.00     0.049 A 
ATOM     36  N   UNL A   1      40.776  29.642  31.623  1.00  0.00    -0.248 NA
ATOM     37  C   UNL A   1      38.891  30.977  31.294  1.00  0.00     0.031 C 
ATOM     38  C   UNL A   1      39.951  27.581  27.736  1.00  0.00     0.029 A 
ATOM     39  N   UNL A   1      41.309  27.684  29.511  1.00  0.00    -0.354 N 
ATOM     40  C   UNL A   1      40.640  30.523  32.690  1.00  0.00     0.074 A 
ATOM     41  C   UNL A   1      39.502  31.366  32.400  1.00  0.00     0.031 C 
ATOM     42  C   UNL A   1      40.889  26.628  27.588  1.00  0.00     0.029 A 
ATOM     43  C   UNL A   1      41.810  26.675  28.723  1.00  0.00     0.049 A 
ATOM     44  H   UNL A   1      41.715  27.950  30.367  1.00  0.00     0.167 HD
ATOM     45  C   UNL A   1      41.377  30.614  33.823  1.00  0.00     0.037 A 
ATOM     46  C   UNL A   1      42.888  25.881  28.898  1.00  0.00     0.037 A 
ATOM     47  C   UNL A   1      42.498  29.764  34.123  1.00  0.00     0.049 A 
ATOM     48  C   UNL A   1      43.728  26.030  30.142  1.00  0.00     0.074 A 
ATOM     49  C   UNL A   1      43.290  29.754  35.258  1.00  0.00     0.029 A 
ATOM     50  N   UNL A   1      42.992  28.777  33.282  1.00  0.00    -0.354 N 
ATOM     51  N   UNL A   1      43.569  26.847  31.157  1.00  0.00    -0.248 NA
ATOM     52  C   UNL A   1      44.891  25.138  30.270  1.00  0.00     0.031 C 
ATOM     53  C   UNL A   1      44.301  28.805  35.075  1.00  0.00     0.029 A 
ATOM     54  C   UNL A   1      44.097  28.172  33.860  1.00  0.00     0.049 A 
ATOM     55  H   UNL A   1      42.614  28.542  32.404  1.00  0.00     0.167 HD
ATOM     56  C   UNL A   1      44.584  26.537  32.060  1.00  0.00     0.074 A 
ATOM     57  C   UNL A   1      45.351  25.459  31.471  1.00  0.00     0.031 C 
ATOM     58  C   UNL A   1      44.849  27.091  33.272  1.00  0.00     0.037 A 
BRANCH  45  59
ATOM     59  C   UNL A   1      41.007  31.697  34.802  1.00  0.00     0.058 A 
ATOM     60  C   UNL A   1      40.019  31.512  35.784  1.00  0.00     0.135 A 
ATOM     61  C   UNL A   1      41.644  32.947  34.745  1.00  0.00     0.135 A 
ATOM     62  F   UNL A   1      39.364  30.343  35.874  1.00  0.00    -0.206 F 
ATOM     63  C   UNL A   1      39.640  32.543  36.638  1.00  0.00     0.059 A 
ATOM     64  C   UNL A   1      41.307  33.980  35.614  1.00  0.00     0.059 A 
ATOM     65  F   UNL A   1      42.596  33.181  33.829  1.00  0.00    -0.206 F 
ATOM     66  C   UNL A   1      40.286  33.777  36.540  1.00  0.00     0.060 A 
BRANCH  66  67
ATOM     67  S   UNL A   1      39.763  35.114  37.633  1.00  0.00     0.124 S 
ATOM     68  O   UNL A   1      38.515  34.578  38.169  1.00  0.00    -0.237 OA
ATOM     69  O   UNL A   1      40.872  35.199  38.576  1.00  0.00    -0.237 OA
ATOM     70  O   UNL A   1      39.619  36.253  36.732  1.00  0.00    -0.744 OA
ENDBRANCH  66  67
ENDBRANCH  45  59
BRANCH  46  71
ATOM     71  C   UNL A   1      43.224  24.850  27.877  1.00  0.00     0.058 A 
ATOM     72  C   UNL A   1      44.126  25.125  26.839  1.00  0.00     0.135 A 
ATOM     73  C   UNL A   1      42.656  23.567  27.923  1.00  0.00     0.135 A 
ATOM     74  F   UNL A   1      44.682  26.342  26.738  1.00  0.00    -0.206 F 
ATOM     75  C   UNL A   1      44.451  24.168  25.880  1.00  0.00     0.059 A 
ATOM     76  C   UNL A   1      42.986  22.585  26.994  1.00  0.00     0.059 A 
ATOM     77  F   UNL A   1      41.790  23.250  28.899  1.00  0.00    -0.206 F 
ATOM     78  C   UNL A   1      43.882  22.897  25.973  1.00  0.00     0.060 A 
BRANCH  78  79
ATOM     79  S   UNL A   1      44.371  21.642  24.769  1.00  0.00     0.124 S 
ATOM     80  O   UNL A   1      44.153  22.341  23.508  1.00  0.00    -0.237 OA
ATOM     81  O   UNL A   1      45.764  21.400  25.132  1.00  0.00    -0.237 OA
ATOM     82  O   UNL A   1      43.458  20.538  25.046  1.00  0.00    -0.744 OA
ENDBRANCH  78  79
ENDBRANCH  46  71
BRANCH  58  83
ATOM     83  C   UNL A   1      45.979  26.506  34.080  1.00  0.00     0.058 A 
ATOM     84  C   UNL A   1      45.794  25.424  34.955  1.00  0.00     0.135 A 
ATOM     85  C   UNL A   1      47.284  27.009  33.933  1.00  0.00     0.135 A 
ATOM     86  F   UNL A   1      44.571  24.902  35.137  1.00  0.00    -0.206 F 
ATOM     87  C   UNL A   1      46.854  24.884  35.679  1.00  0.00     0.059 A 
ATOM     88  C   UNL A   1      48.363  26.463  34.620  1.00  0.00     0.059 A 
ATOM     89  F   UNL A   1      47.523  28.033  33.098  1.00  0.00    -0.206 F 
ATOM     90  C   UNL A   1      48.136  25.410  35.505  1.00  0.00     0.060 A 
BRANCH  90  91
ATOM     91  S   UNL A   1      49.505  24.689  36.435  1.00  0.00     0.124 S 
ATOM     92  O   UNL A   1      48.958  23.386  36.801  1.00  0.00    -0.237 OA
ATOM     93  O   UNL A   1      50.578  24.671  35.447  1.00  0.00    -0.237 OA
ATOM     94  O   UNL A   1      49.694  25.623  37.541  1.00  0.00    -0.744 OA
ENDBRANCH  90  91
ENDBRANCH  58  83
ENDBRANCH  32  33
ENDBRANCH  25  27
ENDBRANCH  24  25
ENDBRANCH  23  24
ENDBRANCH   1  23
TORSDOF 20
ENDMDL
MODEL 3
REMARK VINA RESULT:      -9.7      4.619     10.653
REMARK SMILES CC[C@@](C)([NH2+][C@H]1CC[C@H](C)[C@H](C)C1)C(=O)OCCOCCOC(=O)c1ccc(-c2c3nc(c(-c4c(F)cc(S(=O)(=O)[O-])cc4F)c4ccc([nH]4)c(-c4c(F)cc(S(=O)(=O)[O-])cc4F)c4nc(c(-c5c(F)cc(S(=O)(=O)[O-])cc5F)c5ccc2[nH]5)C=C4)C=C3)cc1
REMARK SMILES IDX 20 1 19 2 18 3 17 4 16 5 14 6 15 7 3 8 4 9 2 10 1 11 5 12
REMARK SMILES IDX 6 15 7 16 13 17 8 18 11 19 9 20 12 21 10 22 21 23 22 24
REMARK SMILES IDX 23 25 24 26 25 27 26 28 90 29 27 30 89 31 28 32 29 33 30 34
REMARK SMILES IDX 83 35 31 36 88 37 82 38 84 39 32 40 87 41 81 42 80 43 33 45
REMARK SMILES IDX 67 46 46 47 66 48 47 49 50 50 65 51 85 52 48 53 49 54 64 56
REMARK SMILES IDX 86 57 51 58 34 59 35 60 44 61 36 62 37 63 43 64 45 65 38 66
REMARK SMILES IDX 39 67 40 68 41 69 42 70 68 71 69 72 78 73 70 74 71 75 77 76
REMARK SMILES IDX 79 77 72 78 73 79 74 80 75 81 76 82 52 83 53 84 62 85 54 86
REMARK SMILES IDX 55 87 61 88 63 89 56 90 57 91 58 92 59 93 60 94
REMARK H PARENT 5 13 5 14 84 44 50 55
REMARK Flexibility Score: inf
ROOT
ATOM      1  C   UNL A   1      39.485  21.653  26.372  1.00  0.00     0.202 C 
ENDROOT
BRANCH   1   2
ATOM      2  O   UNL A   1      38.500  22.470  25.733  1.00  0.00    -0.374 OA
BRANCH   2   3
ATOM      3  C   UNL A   1      37.594  21.805  24.850  1.00  0.00     0.202 C 
BRANCH   3   4
ATOM      4  C   UNL A   1      36.248  21.401  25.445  1.00  0.00     0.261 C 
BRANCH   4   5
ATOM      5  O   UNL A   1      35.228  22.312  25.008  1.00  0.00    -0.459 OA
BRANCH   5   6
ATOM      6  C   UNL A   1      33.951  21.862  25.100  1.00  0.00     0.367 C 
ATOM      7  O   UNL A   1      33.628  20.700  24.867  1.00  0.00    -0.245 OA
BRANCH   6   8
ATOM      8  C   UNL A   1      32.917  22.963  25.492  1.00  0.00     0.191 C 
ATOM      9  C   UNL A   1      31.757  22.859  24.491  1.00  0.00     0.092 C 
BRANCH   8  10
ATOM     10  C   UNL A   1      32.416  22.698  26.948  1.00  0.00     0.077 C 
ATOM     11  C   UNL A   1      33.431  22.173  27.958  1.00  0.00     0.011 C 
ENDBRANCH   8  10
BRANCH   8  12
ATOM     12  N   UNL A   1      33.492  24.353  25.565  1.00  0.00    -0.330 N 
ATOM     13  H   UNL A   1      34.325  24.374  24.977  1.00  0.00     0.347 HD
ATOM     14  H   UNL A   1      33.668  24.518  26.557  1.00  0.00     0.347 HD
BRANCH  12  15
ATOM     15  C   UNL A   1      32.617  25.449  25.139  1.00  0.00     0.183 C 
ATOM     16  C   UNL A   1      32.327  26.436  26.279  1.00  0.00     0.065 C 
ATOM     17  C   UNL A   1      33.293  26.235  24.005  1.00  0.00     0.068 C 
ATOM     18  C   UNL A   1      31.360  27.521  25.807  1.00  0.00     0.010 C 
ATOM     19  C   UNL A   1      32.360  27.326  23.447  1.00  0.00    -0.006 C 
ATOM     20  C   UNL A   1      31.880  28.274  24.573  1.00  0.00    -0.011 C 
ATOM     21  C   UNL A   1      31.220  26.683  22.643  1.00  0.00     0.008 C 
ATOM     22  C   UNL A   1      30.833  29.279  24.086  1.00  0.00     0.008 C 
ENDBRANCH  12  15
ENDBRANCH   8  12
ENDBRANCH   6   8
ENDBRANCH   5   6
ENDBRANCH   4   5
ENDBRANCH   3   4
ENDBRANCH   2   3
ENDBRANCH   1   2
BRANCH   1  23
ATOM     23  C   UNL A   1      40.866  22.282  26.607  1.00  0.00     0.261 C 
BRANCH  23  24
ATOM     24  O   UNL A   1      40.842  23.717  26.521  1.00  0.00    -0.460 OA
BRANCH  24  25
ATOM     25  C   UNL A   1      41.888  24.355  27.096  1.00  0.00     0.338 C 
ATOM     26  O   UNL A   1      43.074  24.156  26.883  1.00  0.00    -0.246 OA
BRANCH  25  27
ATOM     27  C   UNL A   1      41.392  25.511  27.877  1.00  0.00     0.060 A 
ATOM     28  C   UNL A   1      42.239  26.619  28.012  1.00  0.00     0.016 A 
ATOM     29  C   UNL A   1      40.136  25.513  28.485  1.00  0.00     0.016 A 
ATOM     30  C   UNL A   1      41.866  27.699  28.813  1.00  0.00     0.010 A 
ATOM     31  C   UNL A   1      39.756  26.604  29.278  1.00  0.00     0.010 A 
ATOM     32  C   UNL A   1      40.643  27.676  29.495  1.00  0.00    -0.014 A 
BRANCH  32  33
ATOM     33  C   UNL A   1      40.407  28.638  30.607  1.00  0.00     0.031 A 
ATOM     34  C   UNL A   1      41.295  28.552  31.824  1.00  0.00     0.074 A 
ATOM     35  C   UNL A   1      39.476  29.608  30.527  1.00  0.00     0.049 A 
ATOM     36  N   UNL A   1      41.299  29.285  32.908  1.00  0.00    -0.248 NA
ATOM     37  C   UNL A   1      42.307  27.483  31.822  1.00  0.00     0.031 C 
ATOM     38  C   UNL A   1      38.573  29.829  29.400  1.00  0.00     0.029 A 
ATOM     39  N   UNL A   1      39.147  30.601  31.420  1.00  0.00    -0.354 N 
ATOM     40  C   UNL A   1      42.297  28.754  33.718  1.00  0.00     0.074 A 
ATOM     41  C   UNL A   1      42.837  27.605  33.028  1.00  0.00     0.031 C 
ATOM     42  C   UNL A   1      37.801  30.900  29.663  1.00  0.00     0.029 A 
ATOM     43  C   UNL A   1      38.135  31.424  30.987  1.00  0.00     0.049 A 
ATOM     44  H   UNL A   1      39.594  30.711  32.290  1.00  0.00     0.167 HD
ATOM     45  C   UNL A   1      42.745  29.191  34.920  1.00  0.00     0.037 A 
ATOM     46  C   UNL A   1      37.545  32.479  31.589  1.00  0.00     0.037 A 
ATOM     47  C   UNL A   1      42.224  30.345  35.601  1.00  0.00     0.049 A 
ATOM     48  C   UNL A   1      38.023  32.922  32.950  1.00  0.00     0.074 A 
ATOM     49  C   UNL A   1      42.630  30.889  36.807  1.00  0.00     0.029 A 
ATOM     50  N   UNL A   1      41.175  31.131  35.142  1.00  0.00    -0.354 N 
ATOM     51  N   UNL A   1      38.988  32.428  33.691  1.00  0.00    -0.248 NA
ATOM     52  C   UNL A   1      37.337  34.074  33.554  1.00  0.00     0.031 C 
ATOM     53  C   UNL A   1      41.788  31.964  37.106  1.00  0.00     0.029 A 
ATOM     54  C   UNL A   1      40.904  32.138  36.054  1.00  0.00     0.049 A 
ATOM     55  H   UNL A   1      40.697  30.993  34.293  1.00  0.00     0.167 HD
ATOM     56  C   UNL A   1      39.051  33.236  34.825  1.00  0.00     0.074 A 
ATOM     57  C   UNL A   1      38.028  34.248  34.671  1.00  0.00     0.031 C 
ATOM     58  C   UNL A   1      39.889  33.150  35.890  1.00  0.00     0.037 A 
BRANCH  45  59
ATOM     59  C   UNL A   1      43.833  28.389  35.584  1.00  0.00     0.058 A 
ATOM     60  C   UNL A   1      45.195  28.617  35.325  1.00  0.00     0.135 A 
ATOM     61  C   UNL A   1      43.503  27.363  36.485  1.00  0.00     0.135 A 
ATOM     62  F   UNL A   1      45.569  29.573  34.459  1.00  0.00    -0.206 F 
ATOM     63  C   UNL A   1      46.187  27.824  35.893  1.00  0.00     0.059 A 
ATOM     64  C   UNL A   1      44.481  26.582  37.094  1.00  0.00     0.059 A 
ATOM     65  F   UNL A   1      42.219  27.100  36.772  1.00  0.00    -0.206 F 
ATOM     66  C   UNL A   1      45.818  26.804  36.772  1.00  0.00     0.060 A 
BRANCH  66  67
ATOM     67  S   UNL A   1      47.113  25.764  37.478  1.00  0.00     0.124 S 
ATOM     68  O   UNL A   1      47.474  24.934  36.333  1.00  0.00    -0.237 OA
ATOM     69  O   UNL A   1      48.112  26.744  37.890  1.00  0.00    -0.237 OA
ATOM     70  O   UNL A   1      46.434  25.067  38.567  1.00  0.00    -0.744 OA
ENDBRANCH  66  67
ENDBRANCH  45  59
BRANCH  46  71
ATOM     71  C   UNL A   1      36.450  33.213  30.896  1.00  0.00     0.058 A 
ATOM     72  C   UNL A   1      35.121  33.112  31.334  1.00  0.00     0.135 A 
ATOM     73  C   UNL A   1      36.710  34.034  29.789  1.00  0.00     0.135 A 
ATOM     74  F   UNL A   1      34.816  32.325  32.376  1.00  0.00    -0.206 F 
ATOM     75  C   UNL A   1      34.088  33.796  30.698  1.00  0.00     0.059 A 
ATOM     76  C   UNL A   1      35.700  34.750  29.153  1.00  0.00     0.059 A 
ATOM     77  F   UNL A   1      37.965  34.170  29.331  1.00  0.00    -0.206 F 
ATOM     78  C   UNL A   1      34.391  34.621  29.613  1.00  0.00     0.060 A 
BRANCH  78  79
ATOM     79  S   UNL A   1      33.053  35.562  28.845  1.00  0.00     0.124 S 
ATOM     80  O   UNL A   1      32.299  36.010  30.009  1.00  0.00    -0.237 OA
ATOM     81  O   UNL A   1      33.786  36.596  28.121  1.00  0.00    -0.237 OA
ATOM     82  O   UNL A   1      32.387  34.572  28.003  1.00  0.00    -0.744 OA
ENDBRANCH  78  79
ENDBRANCH  46  71
BRANCH  58  83
ATOM     83  C   UNL A   1      39.784  34.213  36.954  1.00  0.00     0.058 A 
ATOM     84  C   UNL A   1      40.362  35.483  36.805  1.00  0.00     0.135 A 
ATOM     85  C   UNL A   1      39.043  33.966  38.124  1.00  0.00     0.135 A 
ATOM     86  F   UNL A   1      41.081  35.775  35.710  1.00  0.00    -0.206 F 
ATOM     87  C   UNL A   1      40.238  36.459  37.792  1.00  0.00     0.059 A 
ATOM     88  C   UNL A   1      38.878  34.938  39.106  1.00  0.00     0.059 A 
ATOM     89  F   UNL A   1      38.454  32.775  38.313  1.00  0.00    -0.206 F 
ATOM     90  C   UNL A   1      39.493  36.177  38.938  1.00  0.00     0.060 A 
BRANCH  90  91
ATOM     91  S   UNL A   1      39.324  37.457  40.200  1.00  0.00     0.124 S 
ATOM     92  O   UNL A   1      40.683  37.988  40.265  1.00  0.00    -0.237 OA
ATOM     93  O   UNL A   1      38.324  38.343  39.614  1.00  0.00    -0.237 OA
ATOM     94  O   UNL A   1      38.884  36.718  41.379  1.00  0.00    -0.744 OA
ENDBRANCH  90  91
ENDBRANCH  58  83
ENDBRANCH  32  33
ENDBRANCH  25  27
ENDBRANCH  24  25
ENDBRANCH  23  24
ENDBRANCH   1  23
TORSDOF 20
ENDMDL
