MODEL 1
REMARK VINA RESULT:     -10.4      0.000      0.000
REMARK SMILES O=C(C[NH+]1CC[NH+](Cc2cc(Cl)ccc2[N+](=O)[O-])CC1)OCCOCCOC(=O)c1ccc(-c2c3nc(c(-c4c(F)cc(S(=O)(=O)[O-])cc4F)c4ccc([nH]4)c(-c4c(F)cc(S(=O)(=O)[O-])cc4F)c4nc(c(-c5c(F)cc(S(=O)(=O)[O-])cc5F)c5ccc2[nH]5)C=C4)C=C3)cc1
REMARK SMILES IDX 23 1 22 2 21 3 2 4 1 5 3 6 4 7 5 8 20 9 6 11 19 12 7 13 8 15
REMARK SMILES IDX 9 16 10 17 15 18 11 19 14 20 12 21 13 22 16 23 17 24 18 25
REMARK SMILES IDX 24 26 25 27 26 28 27 29 28 30 29 31 30 32 31 33 95 34 32 35
REMARK SMILES IDX 94 36 33 37 34 38 35 39 88 40 36 41 93 42 87 43 89 44 37 45
REMARK SMILES IDX 92 46 86 47 85 48 38 50 72 51 51 52 71 53 52 54 55 55 70 56
REMARK SMILES IDX 90 57 53 58 54 59 69 61 91 62 56 63 39 64 40 65 49 66 41 67
REMARK SMILES IDX 42 68 48 69 50 70 43 71 44 72 45 73 46 74 47 75 73 76 74 77
REMARK SMILES IDX 83 78 75 79 76 80 82 81 84 82 77 83 78 84 79 85 80 86 81 87
REMARK SMILES IDX 57 88 58 89 67 90 59 91 60 92 66 93 68 94 61 95 62 96 63 97
REMARK SMILES IDX 64 98 65 99
REMARK H PARENT 4 10 7 14 89 49 55 60
REMARK Flexibility Score: inf
ROOT
ATOM      1  C   UNL A   1      37.148  21.328  24.545  1.00  0.00     0.202 C 
ENDROOT
BRANCH   1   2
ATOM      2  C   UNL A   1      35.878  20.883  25.310  1.00  0.00     0.261 C 
BRANCH   2   3
ATOM      3  O   UNL A   1      34.812  20.079  24.690  1.00  0.00    -0.459 OA
BRANCH   3   4
ATOM      4  C   UNL A   1      33.473  19.940  24.627  1.00  0.00     0.361 C 
ATOM      5  O   UNL A   1      32.999  19.303  23.682  1.00  0.00    -0.245 OA
BRANCH   4   6
ATOM      6  C   UNL A   1      32.530  20.620  25.609  1.00  0.00     0.386 C 
BRANCH   6   7
ATOM      7  N   UNL A   1      31.768  21.770  25.129  1.00  0.00    -0.316 N 
ATOM      8  C   UNL A   1      30.775  22.446  25.957  1.00  0.00     0.325 C 
ATOM      9  C   UNL A   1      32.523  22.685  24.329  1.00  0.00     0.325 C 
ATOM     10  H   UNL A   1      31.133  21.224  24.548  1.00  0.00     0.348 HD
ATOM     11  C   UNL A   1      31.038  23.946  26.335  1.00  0.00     0.324 C 
ATOM     12  C   UNL A   1      33.055  23.920  25.057  1.00  0.00     0.324 C 
ATOM     13  N   UNL A   1      31.949  24.748  25.498  1.00  0.00    -0.322 N 
ATOM     14  H   UNL A   1      32.286  25.478  26.126  1.00  0.00     0.348 HD
BRANCH  13  15
ATOM     15  C   UNL A   1      31.397  25.654  24.474  1.00  0.00     0.306 C 
BRANCH  15  16
ATOM     16  C   UNL A   1      31.684  27.147  24.623  1.00  0.00     0.085 A 
ATOM     17  C   UNL A   1      32.680  27.494  25.568  1.00  0.00     0.037 A 
ATOM     18  C   UNL A   1      30.905  28.209  24.079  1.00  0.00     0.278 A 
ATOM     19  C   UNL A   1      32.808  28.803  26.043  1.00  0.00     0.042 A 
ATOM     20  C   UNL A   1      31.066  29.533  24.552  1.00  0.00     0.088 A 
ATOM     21  Cl  UNL A   1      33.903  29.135  27.327  1.00  0.00    -0.084 Cl
ATOM     22  C   UNL A   1      31.995  29.819  25.552  1.00  0.00     0.027 A 
BRANCH  18  23
ATOM     23  N   UNL A   1      29.803  27.999  23.122  1.00  0.00     0.063 N 
ATOM     24  O   UNL A   1      29.971  28.425  21.968  1.00  0.00    -0.258 OA
ATOM     25  O   UNL A   1      28.791  27.412  23.511  1.00  0.00    -0.258 OA
ENDBRANCH  18  23
ENDBRANCH  15  16
ENDBRANCH  13  15
ENDBRANCH   6   7
ENDBRANCH   4   6
ENDBRANCH   3   4
ENDBRANCH   2   3
ENDBRANCH   1   2
BRANCH   1  26
ATOM     26  O   UNL A   1      37.673  22.620  24.776  1.00  0.00    -0.374 OA
BRANCH  26  27
ATOM     27  C   UNL A   1      37.950  22.988  26.117  1.00  0.00     0.202 C 
BRANCH  27  28
ATOM     28  C   UNL A   1      39.417  23.072  26.542  1.00  0.00     0.261 C 
BRANCH  28  29
ATOM     29  O   UNL A   1      39.973  24.391  26.418  1.00  0.00    -0.460 OA
BRANCH  29  30
ATOM     30  C   UNL A   1      41.079  24.635  27.163  1.00  0.00     0.338 C 
ATOM     31  O   UNL A   1      42.191  24.145  27.010  1.00  0.00    -0.246 OA
BRANCH  30  32
ATOM     32  C   UNL A   1      40.815  25.767  28.073  1.00  0.00     0.060 A 
ATOM     33  C   UNL A   1      41.830  26.711  28.289  1.00  0.00     0.016 A 
ATOM     34  C   UNL A   1      39.589  25.879  28.731  1.00  0.00     0.016 A 
ATOM     35  C   UNL A   1      41.643  27.742  29.207  1.00  0.00     0.010 A 
ATOM     36  C   UNL A   1      39.409  26.899  29.665  1.00  0.00     0.010 A 
ATOM     37  C   UNL A   1      40.450  27.806  29.937  1.00  0.00    -0.014 A 
BRANCH  37  38
ATOM     38  C   UNL A   1      40.363  28.667  31.138  1.00  0.00     0.031 A 
ATOM     39  C   UNL A   1      39.367  29.795  31.123  1.00  0.00     0.074 A 
ATOM     40  C   UNL A   1      41.153  28.458  32.204  1.00  0.00     0.049 A 
ATOM     41  N   UNL A   1      39.182  30.752  31.991  1.00  0.00    -0.248 NA
ATOM     42  C   UNL A   1      38.463  29.852  29.960  1.00  0.00     0.031 C 
ATOM     43  C   UNL A   1      42.114  27.364  32.343  1.00  0.00     0.029 A 
ATOM     44  N   UNL A   1      41.286  29.174  33.366  1.00  0.00    -0.354 N 
ATOM     45  C   UNL A   1      38.155  31.534  31.475  1.00  0.00     0.074 A 
ATOM     46  C   UNL A   1      37.776  30.957  30.205  1.00  0.00     0.031 C 
ATOM     47  C   UNL A   1      42.755  27.497  33.517  1.00  0.00     0.029 A 
ATOM     48  C   UNL A   1      42.279  28.704  34.191  1.00  0.00     0.049 A 
ATOM     49  H   UNL A   1      40.724  29.951  33.588  1.00  0.00     0.167 HD
ATOM     50  C   UNL A   1      37.577  32.631  32.017  1.00  0.00     0.037 A 
ATOM     51  C   UNL A   1      42.765  29.213  35.340  1.00  0.00     0.037 A 
ATOM     52  C   UNL A   1      37.972  33.192  33.282  1.00  0.00     0.049 A 
ATOM     53  C   UNL A   1      42.161  30.481  35.889  1.00  0.00     0.074 A 
ATOM     54  C   UNL A   1      37.450  34.295  33.935  1.00  0.00     0.029 A 
ATOM     55  N   UNL A   1      38.994  32.699  34.082  1.00  0.00    -0.354 N 
ATOM     56  N   UNL A   1      41.179  31.206  35.403  1.00  0.00    -0.248 NA
ATOM     57  C   UNL A   1      42.725  31.000  37.142  1.00  0.00     0.031 C 
ATOM     58  C   UNL A   1      38.195  34.502  35.101  1.00  0.00     0.029 A 
ATOM     59  C   UNL A   1      39.137  33.490  35.208  1.00  0.00     0.049 A 
ATOM     60  H   UNL A   1      39.536  31.904  33.877  1.00  0.00     0.167 HD
ATOM     61  C   UNL A   1      40.988  32.248  36.306  1.00  0.00     0.074 A 
ATOM     62  C   UNL A   1      41.951  32.053  37.371  1.00  0.00     0.031 C 
ATOM     63  C   UNL A   1      40.098  33.270  36.262  1.00  0.00     0.037 A 
BRANCH  50  64
ATOM     64  C   UNL A   1      36.487  33.310  31.233  1.00  0.00     0.058 A 
ATOM     65  C   UNL A   1      35.136  33.222  31.609  1.00  0.00     0.135 A 
ATOM     66  C   UNL A   1      36.800  34.077  30.099  1.00  0.00     0.135 A 
ATOM     67  F   UNL A   1      34.776  32.483  32.671  1.00  0.00    -0.206 F 
ATOM     68  C   UNL A   1      34.135  33.851  30.877  1.00  0.00     0.059 A 
ATOM     69  C   UNL A   1      35.817  34.740  29.370  1.00  0.00     0.059 A 
ATOM     70  F   UNL A   1      38.073  34.189  29.689  1.00  0.00    -0.206 F 
ATOM     71  C   UNL A   1      34.486  34.611  29.759  1.00  0.00     0.060 A 
BRANCH  71  72
ATOM     72  S   UNL A   1      33.174  35.428  28.827  1.00  0.00     0.124 S 
ATOM     73  O   UNL A   1      32.373  36.011  29.899  1.00  0.00    -0.237 OA
ATOM     74  O   UNL A   1      33.920  36.377  28.006  1.00  0.00    -0.237 OA
ATOM     75  O   UNL A   1      32.541  34.333  28.097  1.00  0.00    -0.744 OA
ENDBRANCH  71  72
ENDBRANCH  50  64
BRANCH  51  76
ATOM     76  C   UNL A   1      43.890  28.534  36.039  1.00  0.00     0.058 A 
ATOM     77  C   UNL A   1      45.218  28.939  35.840  1.00  0.00     0.135 A 
ATOM     78  C   UNL A   1      43.661  27.468  36.924  1.00  0.00     0.135 A 
ATOM     79  F   UNL A   1      45.492  29.945  34.995  1.00  0.00    -0.206 F 
ATOM     80  C   UNL A   1      46.280  28.306  36.480  1.00  0.00     0.059 A 
ATOM     81  C   UNL A   1      44.703  26.837  37.598  1.00  0.00     0.059 A 
ATOM     82  F   UNL A   1      42.409  27.044  37.157  1.00  0.00    -0.206 F 
ATOM     83  C   UNL A   1      46.010  27.258  37.362  1.00  0.00     0.060 A 
BRANCH  83  84
ATOM     84  S   UNL A   1      47.392  26.474  38.220  1.00  0.00     0.124 S 
ATOM     85  O   UNL A   1      46.914  26.459  39.598  1.00  0.00    -0.237 OA
ATOM     86  O   UNL A   1      47.467  25.177  37.556  1.00  0.00    -0.237 OA
ATOM     87  O   UNL A   1      48.510  27.374  37.951  1.00  0.00    -0.744 OA
ENDBRANCH  83  84
ENDBRANCH  51  76
BRANCH  63  88
ATOM     88  C   UNL A   1      40.088  34.236  37.417  1.00  0.00     0.058 A 
ATOM     89  C   UNL A   1      40.843  35.418  37.402  1.00  0.00     0.135 A 
ATOM     90  C   UNL A   1      39.252  34.005  38.524  1.00  0.00     0.135 A 
ATOM     91  F   UNL A   1      41.661  35.685  36.371  1.00  0.00    -0.206 F 
ATOM     92  C   UNL A   1      40.786  36.329  38.451  1.00  0.00     0.059 A 
ATOM     93  C   UNL A   1      39.156  34.917  39.568  1.00  0.00     0.059 A 
ATOM     94  F   UNL A   1      38.499  32.896  38.582  1.00  0.00    -0.206 F 
ATOM     95  C   UNL A   1      39.934  36.072  39.528  1.00  0.00     0.060 A 
BRANCH  95  96
ATOM     96  S   UNL A   1      39.837  37.286  40.861  1.00  0.00     0.124 S 
ATOM     97  O   UNL A   1      41.246  37.466  41.199  1.00  0.00    -0.237 OA
ATOM     98  O   UNL A   1      39.192  38.419  40.204  1.00  0.00    -0.237 OA
ATOM     99  O   UNL A   1      39.030  36.614  41.875  1.00  0.00    -0.744 OA
ENDBRANCH  95  96
ENDBRANCH  63  88
ENDBRANCH  37  38
ENDBRANCH  30  32
ENDBRANCH  29  30
ENDBRANCH  28  29
ENDBRANCH  27  28
ENDBRANCH  26  27
ENDBRANCH   1  26
TORSDOF 21
ENDMDL
MODEL 2
REMARK VINA RESULT:      -9.8      6.525      8.643
REMARK SMILES O=C(C[NH+]1CC[NH+](Cc2cc(Cl)ccc2[N+](=O)[O-])CC1)OCCOCCOC(=O)c1ccc(-c2c3nc(c(-c4c(F)cc(S(=O)(=O)[O-])cc4F)c4ccc([nH]4)c(-c4c(F)cc(S(=O)(=O)[O-])cc4F)c4nc(c(-c5c(F)cc(S(=O)(=O)[O-])cc5F)c5ccc2[nH]5)C=C4)C=C3)cc1
REMARK SMILES IDX 23 1 22 2 21 3 2 4 1 5 3 6 4 7 5 8 20 9 6 11 19 12 7 13 8 15
REMARK SMILES IDX 9 16 10 17 15 18 11 19 14 20 12 21 13 22 16 23 17 24 18 25
REMARK SMILES IDX 24 26 25 27 26 28 27 29 28 30 29 31 30 32 31 33 95 34 32 35
REMARK SMILES IDX 94 36 33 37 34 38 35 39 88 40 36 41 93 42 87 43 89 44 37 45
REMARK SMILES IDX 92 46 86 47 85 48 38 50 72 51 51 52 71 53 52 54 55 55 70 56
REMARK SMILES IDX 90 57 53 58 54 59 69 61 91 62 56 63 39 64 40 65 49 66 41 67
REMARK SMILES IDX 42 68 48 69 50 70 43 71 44 72 45 73 46 74 47 75 73 76 74 77
REMARK SMILES IDX 83 78 75 79 76 80 82 81 84 82 77 83 78 84 79 85 80 86 81 87
REMARK SMILES IDX 57 88 58 89 67 90 59 91 60 92 66 93 68 94 61 95 62 96 63 97
REMARK SMILES IDX 64 98 65 99
REMARK H PARENT 4 10 7 14 89 49 55 60
REMARK Flexibility Score: inf
ROOT
ATOM      1  C   UNL A   1      37.012  20.509  24.722  1.00  0.00     0.202 C 
ENDROOT
BRANCH   1   2
ATOM      2  C   UNL A   1      35.552  20.656  25.216  1.00  0.00     0.261 C 
BRANCH   2   3
ATOM      3  O   UNL A   1      34.438  19.872  24.659  1.00  0.00    -0.459 OA
BRANCH   3   4
ATOM      4  C   UNL A   1      33.092  19.798  24.622  1.00  0.00     0.361 C 
ATOM      5  O   UNL A   1      32.569  19.224  23.663  1.00  0.00    -0.245 OA
BRANCH   4   6
ATOM      6  C   UNL A   1      32.204  20.479  25.653  1.00  0.00     0.386 C 
BRANCH   6   7
ATOM      7  N   UNL A   1      31.490  21.684  25.239  1.00  0.00    -0.316 N 
ATOM      8  C   UNL A   1      30.540  22.364  26.113  1.00  0.00     0.325 C 
ATOM      9  C   UNL A   1      32.276  22.601  24.472  1.00  0.00     0.325 C 
ATOM     10  H   UNL A   1      30.822  21.196  24.642  1.00  0.00     0.348 HD
ATOM     11  C   UNL A   1      30.876  23.831  26.557  1.00  0.00     0.324 C 
ATOM     12  C   UNL A   1      32.873  23.774  25.249  1.00  0.00     0.324 C 
ATOM     13  N   UNL A   1      31.812  24.629  25.746  1.00  0.00    -0.322 N 
ATOM     14  H   UNL A   1      32.190  25.313  26.401  1.00  0.00     0.348 HD
BRANCH  13  15
ATOM     15  C   UNL A   1      31.288  25.608  24.774  1.00  0.00     0.306 C 
BRANCH  15  16
ATOM     16  C   UNL A   1      32.174  26.803  24.427  1.00  0.00     0.085 A 
ATOM     17  C   UNL A   1      33.084  27.210  25.432  1.00  0.00     0.037 A 
ATOM     18  C   UNL A   1      32.017  27.665  23.304  1.00  0.00     0.278 A 
ATOM     19  C   UNL A   1      33.705  28.463  25.389  1.00  0.00     0.042 A 
ATOM     20  C   UNL A   1      32.674  28.918  23.262  1.00  0.00     0.088 A 
ATOM     21  Cl  UNL A   1      34.651  28.988  26.726  1.00  0.00    -0.084 Cl
ATOM     22  C   UNL A   1      33.490  29.324  24.318  1.00  0.00     0.027 A 
BRANCH  18  23
ATOM     23  N   UNL A   1      31.074  27.398  22.202  1.00  0.00     0.063 N 
ATOM     24  O   UNL A   1      31.378  26.493  21.408  1.00  0.00    -0.258 OA
ATOM     25  O   UNL A   1      30.045  28.073  22.133  1.00  0.00    -0.258 OA
ENDBRANCH  18  23
ENDBRANCH  15  16
ENDBRANCH  13  15
ENDBRANCH   6   7
ENDBRANCH   4   6
ENDBRANCH   3   4
ENDBRANCH   2   3
ENDBRANCH   1   2
BRANCH   1  26
ATOM     26  O   UNL A   1      37.782  21.673  24.494  1.00  0.00    -0.374 OA
BRANCH  26  27
ATOM     27  C   UNL A   1      38.217  22.407  25.627  1.00  0.00     0.202 C 
BRANCH  27  28
ATOM     28  C   UNL A   1      39.318  21.791  26.492  1.00  0.00     0.261 C 
BRANCH  28  29
ATOM     29  O   UNL A   1      40.236  20.972  25.750  1.00  0.00    -0.460 OA
BRANCH  29  30
ATOM     30  C   UNL A   1      41.315  20.525  26.440  1.00  0.00     0.338 C 
ATOM     31  O   UNL A   1      41.583  19.362  26.712  1.00  0.00    -0.246 OA
BRANCH  30  32
ATOM     32  C   UNL A   1      42.263  21.640  26.636  1.00  0.00     0.060 A 
ATOM     33  C   UNL A   1      42.740  21.901  27.930  1.00  0.00     0.016 A 
ATOM     34  C   UNL A   1      42.652  22.440  25.561  1.00  0.00     0.016 A 
ATOM     35  C   UNL A   1      43.567  22.997  28.163  1.00  0.00     0.010 A 
ATOM     36  C   UNL A   1      43.464  23.550  25.798  1.00  0.00     0.010 A 
ATOM     37  C   UNL A   1      43.887  23.856  27.104  1.00  0.00    -0.014 A 
BRANCH  37  38
ATOM     38  C   UNL A   1      44.466  25.189  27.382  1.00  0.00     0.031 A 
ATOM     39  C   UNL A   1      43.549  26.257  27.913  1.00  0.00     0.074 A 
ATOM     40  C   UNL A   1      45.765  25.445  27.156  1.00  0.00     0.049 A 
ATOM     41  N   UNL A   1      43.781  27.524  28.121  1.00  0.00    -0.248 NA
ATOM     42  C   UNL A   1      42.177  25.833  28.246  1.00  0.00     0.031 C 
ATOM     43  C   UNL A   1      46.751  24.470  26.692  1.00  0.00     0.029 A 
ATOM     44  N   UNL A   1      46.474  26.614  27.269  1.00  0.00    -0.354 N 
ATOM     45  C   UNL A   1      42.584  28.053  28.593  1.00  0.00     0.074 A 
ATOM     46  C   UNL A   1      41.620  26.977  28.613  1.00  0.00     0.031 C 
ATOM     47  C   UNL A   1      47.935  25.089  26.537  1.00  0.00     0.029 A 
ATOM     48  C   UNL A   1      47.779  26.508  26.852  1.00  0.00     0.049 A 
ATOM     49  H   UNL A   1      46.084  27.449  27.615  1.00  0.00     0.167 HD
ATOM     50  C   UNL A   1      42.319  29.322  28.979  1.00  0.00     0.037 A 
ATOM     51  C   UNL A   1      48.724  27.458  26.712  1.00  0.00     0.037 A 
ATOM     52  C   UNL A   1      43.292  30.382  28.948  1.00  0.00     0.049 A 
ATOM     53  C   UNL A   1      48.385  28.882  27.074  1.00  0.00     0.074 A 
ATOM     54  C   UNL A   1      43.139  31.704  29.326  1.00  0.00     0.029 A 
ATOM     55  N   UNL A   1      44.600  30.242  28.503  1.00  0.00    -0.354 N 
ATOM     56  N   UNL A   1      47.256  29.372  27.534  1.00  0.00    -0.248 NA
ATOM     57  C   UNL A   1      49.446  29.885  26.902  1.00  0.00     0.031 C 
ATOM     58  C   UNL A   1      44.335  32.375  29.055  1.00  0.00     0.029 A 
ATOM     59  C   UNL A   1      45.256  31.458  28.571  1.00  0.00     0.049 A 
ATOM     60  H   UNL A   1      45.001  29.400  28.186  1.00  0.00     0.167 HD
ATOM     61  C   UNL A   1      47.481  30.731  27.735  1.00  0.00     0.074 A 
ATOM     62  C   UNL A   1      48.856  30.983  27.354  1.00  0.00     0.031 C 
ATOM     63  C   UNL A   1      46.631  31.683  28.195  1.00  0.00     0.037 A 
BRANCH  50  64
ATOM     64  C   UNL A   1      40.920  29.639  29.435  1.00  0.00     0.058 A 
ATOM     65  C   UNL A   1      40.616  29.887  30.783  1.00  0.00     0.135 A 
ATOM     66  C   UNL A   1      39.871  29.715  28.504  1.00  0.00     0.135 A 
ATOM     67  F   UNL A   1      41.575  29.805  31.719  1.00  0.00    -0.206 F 
ATOM     68  C   UNL A   1      39.320  30.177  31.196  1.00  0.00     0.059 A 
ATOM     69  C   UNL A   1      38.572  30.033  28.891  1.00  0.00     0.059 A 
ATOM     70  F   UNL A   1      40.102  29.479  27.203  1.00  0.00    -0.206 F 
ATOM     71  C   UNL A   1      38.304  30.250  30.240  1.00  0.00     0.060 A 
BRANCH  71  72
ATOM     72  S   UNL A   1      36.629  30.636  30.793  1.00  0.00     0.124 S 
ATOM     73  O   UNL A   1      36.887  31.616  31.844  1.00  0.00    -0.237 OA
ATOM     74  O   UNL A   1      36.013  31.160  29.577  1.00  0.00    -0.237 OA
ATOM     75  O   UNL A   1      36.114  29.349  31.250  1.00  0.00    -0.744 OA
ENDBRANCH  71  72
ENDBRANCH  50  64
BRANCH  51  76
ATOM     76  C   UNL A   1      50.071  27.098  26.194  1.00  0.00     0.058 A 
ATOM     77  C   UNL A   1      50.370  27.184  24.826  1.00  0.00     0.135 A 
ATOM     78  C   UNL A   1      51.092  26.664  27.056  1.00  0.00     0.135 A 
ATOM     79  F   UNL A   1      49.426  27.581  23.958  1.00  0.00    -0.206 F 
ATOM     80  C   UNL A   1      51.623  26.840  24.328  1.00  0.00     0.059 A 
ATOM     81  C   UNL A   1      52.363  26.343  26.586  1.00  0.00     0.059 A 
ATOM     82  F   UNL A   1      50.864  26.571  28.375  1.00  0.00    -0.206 F 
ATOM     83  C   UNL A   1      52.615  26.426  25.218  1.00  0.00     0.060 A 
BRANCH  83  84
ATOM     84  S   UNL A   1      54.250  26.025  24.564  1.00  0.00     0.124 S 
ATOM     85  O   UNL A   1      54.039  26.176  23.128  1.00  0.00    -0.237 OA
ATOM     86  O   UNL A   1      55.088  27.039  25.196  1.00  0.00    -0.237 OA
ATOM     87  O   UNL A   1      54.474  24.659  25.028  1.00  0.00    -0.744 OA
ENDBRANCH  83  84
ENDBRANCH  51  76
BRANCH  63  88
ATOM     88  C   UNL A   1      47.170  33.079  28.356  1.00  0.00     0.058 A 
ATOM     89  C   UNL A   1      47.818  33.493  29.530  1.00  0.00     0.135 A 
ATOM     90  C   UNL A   1      47.098  33.992  27.289  1.00  0.00     0.135 A 
ATOM     91  F   UNL A   1      47.910  32.662  30.580  1.00  0.00    -0.206 F 
ATOM     92  C   UNL A   1      48.358  34.769  29.649  1.00  0.00     0.059 A 
ATOM     93  C   UNL A   1      47.659  35.261  27.375  1.00  0.00     0.059 A 
ATOM     94  F   UNL A   1      46.501  33.642  26.139  1.00  0.00    -0.206 F 
ATOM     95  C   UNL A   1      48.279  35.644  28.563  1.00  0.00     0.060 A 
BRANCH  95  96
ATOM     96  S   UNL A   1      49.025  37.282  28.716  1.00  0.00     0.124 S 
ATOM     97  O   UNL A   1      48.601  37.673  30.057  1.00  0.00    -0.237 OA
ATOM     98  O   UNL A   1      50.447  36.991  28.559  1.00  0.00    -0.237 OA
ATOM     99  O   UNL A   1      48.420  38.036  27.623  1.00  0.00    -0.744 OA
ENDBRANCH  95  96
ENDBRANCH  63  88
ENDBRANCH  37  38
ENDBRANCH  30  32
ENDBRANCH  29  30
ENDBRANCH  28  29
ENDBRANCH  27  28
ENDBRANCH  26  27
ENDBRANCH   1  26
TORSDOF 21
ENDMDL
MODEL 3
REMARK VINA RESULT:      -9.6      1.920      3.318
REMARK SMILES O=C(C[NH+]1CC[NH+](Cc2cc(Cl)ccc2[N+](=O)[O-])CC1)OCCOCCOC(=O)c1ccc(-c2c3nc(c(-c4c(F)cc(S(=O)(=O)[O-])cc4F)c4ccc([nH]4)c(-c4c(F)cc(S(=O)(=O)[O-])cc4F)c4nc(c(-c5c(F)cc(S(=O)(=O)[O-])cc5F)c5ccc2[nH]5)C=C4)C=C3)cc1
REMARK SMILES IDX 23 1 22 2 21 3 2 4 1 5 3 6 4 7 5 8 20 9 6 11 19 12 7 13 8 15
REMARK SMILES IDX 9 16 10 17 15 18 11 19 14 20 12 21 13 22 16 23 17 24 18 25
REMARK SMILES IDX 24 26 25 27 26 28 27 29 28 30 29 31 30 32 31 33 95 34 32 35
REMARK SMILES IDX 94 36 33 37 34 38 35 39 88 40 36 41 93 42 87 43 89 44 37 45
REMARK SMILES IDX 92 46 86 47 85 48 38 50 72 51 51 52 71 53 52 54 55 55 70 56
REMARK SMILES IDX 90 57 53 58 54 59 69 61 91 62 56 63 39 64 40 65 49 66 41 67
REMARK SMILES IDX 42 68 48 69 50 70 43 71 44 72 45 73 46 74 47 75 73 76 74 77
REMARK SMILES IDX 83 78 75 79 76 80 82 81 84 82 77 83 78 84 79 85 80 86 81 87
REMARK SMILES IDX 57 88 58 89 67 90 59 91 60 92 66 93 68 94 61 95 62 96 63 97
REMARK SMILES IDX 64 98 65 99
REMARK H PARENT 4 10 7 14 89 49 55 60
REMARK Flexibility Score: inf
ROOT
ATOM      1  C   UNL A   1      41.859  20.740  26.224  1.00  0.00     0.202 C 
ENDROOT
BRANCH   1   2
ATOM      2  C   UNL A   1      40.350  20.409  26.314  1.00  0.00     0.261 C 
BRANCH   2   3
ATOM      3  O   UNL A   1      39.298  21.429  26.173  1.00  0.00    -0.459 OA
BRANCH   3   4
ATOM      4  C   UNL A   1      39.047  22.741  26.352  1.00  0.00     0.361 C 
ATOM      5  O   UNL A   1      39.339  23.245  27.441  1.00  0.00    -0.245 OA
BRANCH   4   6
ATOM      6  C   UNL A   1      38.331  23.590  25.312  1.00  0.00     0.386 C 
BRANCH   6   7
ATOM      7  N   UNL A   1      36.996  23.167  24.898  1.00  0.00    -0.316 N 
ATOM      8  C   UNL A   1      36.614  21.762  24.821  1.00  0.00     0.325 C 
ATOM      9  C   UNL A   1      35.936  23.993  25.390  1.00  0.00     0.325 C 
ATOM     10  H   UNL A   1      37.151  23.335  23.904  1.00  0.00     0.348 HD
ATOM     11  C   UNL A   1      35.469  21.263  25.773  1.00  0.00     0.324 C 
ATOM     12  C   UNL A   1      35.215  23.475  26.634  1.00  0.00     0.324 C 
ATOM     13  N   UNL A   1      34.516  22.243  26.323  1.00  0.00    -0.322 N 
ATOM     14  H   UNL A   1      34.176  21.806  27.180  1.00  0.00     0.348 HD
BRANCH  13  15
ATOM     15  C   UNL A   1      33.194  22.413  25.692  1.00  0.00     0.306 C 
BRANCH  15  16
ATOM     16  C   UNL A   1      32.884  23.767  25.056  1.00  0.00     0.085 A 
ATOM     17  C   UNL A   1      32.347  24.749  25.923  1.00  0.00     0.037 A 
ATOM     18  C   UNL A   1      32.872  24.055  23.661  1.00  0.00     0.278 A 
ATOM     19  C   UNL A   1      31.715  25.893  25.425  1.00  0.00     0.042 A 
ATOM     20  C   UNL A   1      32.253  25.232  23.175  1.00  0.00     0.088 A 
ATOM     21  Cl  UNL A   1      30.913  26.959  26.511  1.00  0.00    -0.084 Cl
ATOM     22  C   UNL A   1      31.652  26.130  24.057  1.00  0.00     0.027 A 
BRANCH  18  23
ATOM     23  N   UNL A   1      33.354  23.113  22.634  1.00  0.00     0.063 N 
ATOM     24  O   UNL A   1      34.448  23.368  22.105  1.00  0.00    -0.258 OA
ATOM     25  O   UNL A   1      32.658  22.132  22.365  1.00  0.00    -0.258 OA
ENDBRANCH  18  23
ENDBRANCH  15  16
ENDBRANCH  13  15
ENDBRANCH   6   7
ENDBRANCH   4   6
ENDBRANCH   3   4
ENDBRANCH   2   3
ENDBRANCH   1   2
BRANCH   1  26
ATOM     26  O   UNL A   1      42.276  22.086  26.336  1.00  0.00    -0.374 OA
BRANCH  26  27
ATOM     27  C   UNL A   1      43.110  22.605  25.314  1.00  0.00     0.202 C 
BRANCH  27  28
ATOM     28  C   UNL A   1      43.088  24.117  25.080  1.00  0.00     0.261 C 
BRANCH  28  29
ATOM     29  O   UNL A   1      42.260  24.827  26.014  1.00  0.00    -0.460 OA
BRANCH  29  30
ATOM     30  C   UNL A   1      42.310  26.180  25.933  1.00  0.00     0.338 C 
ATOM     31  O   UNL A   1      42.195  26.860  24.921  1.00  0.00    -0.246 OA
BRANCH  30  32
ATOM     32  C   UNL A   1      42.303  26.751  27.294  1.00  0.00     0.060 A 
ATOM     33  C   UNL A   1      41.573  26.095  28.298  1.00  0.00     0.016 A 
ATOM     34  C   UNL A   1      42.982  27.937  27.572  1.00  0.00     0.016 A 
ATOM     35  C   UNL A   1      41.476  26.653  29.570  1.00  0.00     0.010 A 
ATOM     36  C   UNL A   1      42.867  28.507  28.840  1.00  0.00     0.010 A 
ATOM     37  C   UNL A   1      42.079  27.889  29.828  1.00  0.00    -0.014 A 
BRANCH  37  38
ATOM     38  C   UNL A   1      41.711  28.654  31.041  1.00  0.00     0.031 A 
ATOM     39  C   UNL A   1      40.529  29.581  30.955  1.00  0.00     0.074 A 
ATOM     40  C   UNL A   1      42.414  28.536  32.179  1.00  0.00     0.049 A 
ATOM     41  N   UNL A   1      40.082  30.441  31.829  1.00  0.00    -0.248 NA
ATOM     42  C   UNL A   1      39.753  29.536  29.702  1.00  0.00     0.031 C 
ATOM     43  C   UNL A   1      43.542  27.629  32.386  1.00  0.00     0.029 A 
ATOM     44  N   UNL A   1      42.292  29.201  33.373  1.00  0.00    -0.354 N 
ATOM     45  C   UNL A   1      38.984  31.049  31.230  1.00  0.00     0.074 A 
ATOM     46  C   UNL A   1      38.851  30.482  29.907  1.00  0.00     0.031 C 
ATOM     47  C   UNL A   1      44.025  27.813  33.628  1.00  0.00     0.029 A 
ATOM     48  C   UNL A   1      43.266  28.875  34.285  1.00  0.00     0.049 A 
ATOM     49  H   UNL A   1      41.575  29.850  33.557  1.00  0.00     0.167 HD
ATOM     50  C   UNL A   1      38.160  31.993  31.742  1.00  0.00     0.037 A 
ATOM     51  C   UNL A   1      43.529  29.402  35.497  1.00  0.00     0.037 A 
ATOM     52  C   UNL A   1      38.312  32.548  33.061  1.00  0.00     0.049 A 
ATOM     53  C   UNL A   1      42.646  30.507  36.019  1.00  0.00     0.074 A 
ATOM     54  C   UNL A   1      37.530  33.501  33.689  1.00  0.00     0.029 A 
ATOM     55  N   UNL A   1      39.322  32.207  33.951  1.00  0.00    -0.354 N 
ATOM     56  N   UNL A   1      41.601  31.067  35.453  1.00  0.00    -0.248 NA
ATOM     57  C   UNL A   1      42.973  31.053  37.343  1.00  0.00     0.031 C 
ATOM     58  C   UNL A   1      38.101  33.777  34.936  1.00  0.00     0.029 A 
ATOM     59  C   UNL A   1      39.199  32.949  35.112  1.00  0.00     0.049 A 
ATOM     60  H   UNL A   1      40.021  31.535  33.781  1.00  0.00     0.167 HD
ATOM     61  C   UNL A   1      41.129  32.007  36.365  1.00  0.00     0.074 A 
ATOM     62  C   UNL A   1      41.997  31.933  37.522  1.00  0.00     0.031 C 
ATOM     63  C   UNL A   1      40.072  32.851  36.258  1.00  0.00     0.037 A 
BRANCH  50  64
ATOM     64  C   UNL A   1      37.048  32.503  30.866  1.00  0.00     0.058 A 
ATOM     65  C   UNL A   1      37.248  33.537  29.937  1.00  0.00     0.135 A 
ATOM     66  C   UNL A   1      35.767  31.933  30.943  1.00  0.00     0.135 A 
ATOM     67  F   UNL A   1      38.446  34.134  29.837  1.00  0.00    -0.206 F 
ATOM     68  C   UNL A   1      36.214  34.004  29.134  1.00  0.00     0.059 A 
ATOM     69  C   UNL A   1      34.724  32.363  30.126  1.00  0.00     0.059 A 
ATOM     70  F   UNL A   1      35.516  30.947  31.819  1.00  0.00    -0.206 F 
ATOM     71  C   UNL A   1      34.954  33.408  29.234  1.00  0.00     0.060 A 
BRANCH  71  72
ATOM     72  S   UNL A   1      33.626  34.020  28.176  1.00  0.00     0.124 S 
ATOM     73  O   UNL A   1      32.731  34.632  29.155  1.00  0.00    -0.237 OA
ATOM     74  O   UNL A   1      34.330  34.947  27.296  1.00  0.00    -0.237 OA
ATOM     75  O   UNL A   1      33.117  32.812  27.533  1.00  0.00    -0.744 OA
ENDBRANCH  71  72
ENDBRANCH  50  64
BRANCH  51  76
ATOM     76  C   UNL A   1      44.684  28.903  36.292  1.00  0.00     0.058 A 
ATOM     77  C   UNL A   1      44.551  27.804  37.153  1.00  0.00     0.135 A 
ATOM     78  C   UNL A   1      45.947  29.512  36.205  1.00  0.00     0.135 A 
ATOM     79  F   UNL A   1      43.363  27.194  37.283  1.00  0.00    -0.206 F 
ATOM     80  C   UNL A   1      45.621  27.334  37.910  1.00  0.00     0.059 A 
ATOM     81  C   UNL A   1      47.040  29.042  36.928  1.00  0.00     0.059 A 
ATOM     82  F   UNL A   1      46.133  30.562  35.390  1.00  0.00    -0.206 F 
ATOM     83  C   UNL A   1      46.864  27.958  37.785  1.00  0.00     0.060 A 
BRANCH  83  84
ATOM     84  S   UNL A   1      48.255  27.311  38.738  1.00  0.00     0.124 S 
ATOM     85  O   UNL A   1      48.900  26.438  37.763  1.00  0.00    -0.237 OA
ATOM     86  O   UNL A   1      48.981  28.528  39.084  1.00  0.00    -0.237 OA
ATOM     87  O   UNL A   1      47.609  26.634  39.860  1.00  0.00    -0.744 OA
ENDBRANCH  83  84
ENDBRANCH  51  76
BRANCH  63  88
ATOM     88  C   UNL A   1      39.765  33.736  37.436  1.00  0.00     0.058 A 
ATOM     89  C   UNL A   1      38.898  33.330  38.462  1.00  0.00     0.135 A 
ATOM     90  C   UNL A   1      40.405  34.980  37.572  1.00  0.00     0.135 A 
ATOM     91  F   UNL A   1      38.257  32.152  38.380  1.00  0.00    -0.206 F 
ATOM     92  C   UNL A   1      38.661  34.133  39.572  1.00  0.00     0.059 A 
ATOM     93  C   UNL A   1      40.207  35.784  38.689  1.00  0.00     0.059 A 
ATOM     94  F   UNL A   1      41.254  35.411  36.626  1.00  0.00    -0.206 F 
ATOM     95  C   UNL A   1      39.326  35.356  39.680  1.00  0.00     0.060 A 
BRANCH  95  96
ATOM     96  S   UNL A   1      39.043  36.368  41.148  1.00  0.00     0.124 S 
ATOM     97  O   UNL A   1      37.921  35.673  41.772  1.00  0.00    -0.237 OA
ATOM     98  O   UNL A   1      40.321  36.266  41.847  1.00  0.00    -0.237 OA
ATOM     99  O   UNL A   1      38.738  37.686  40.601  1.00  0.00    -0.744 OA
ENDBRANCH  95  96
ENDBRANCH  63  88
ENDBRANCH  37  38
ENDBRANCH  30  32
ENDBRANCH  29  30
ENDBRANCH  28  29
ENDBRANCH  27  28
ENDBRANCH  26  27
ENDBRANCH   1  26
TORSDOF 21
ENDMDL
