MODEL 1
REMARK VINA RESULT:     -10.7      0.000      0.000
REMARK SMILES O=C(C[C@@H](NS(=O)(=O)c1ccc(Cl)cc1)c1ccc(F)cc1)OCCOCCOC(=O)c1ccc(-c2c3nc(c(-c4c(F)cc(S(=O)(=O)[O-])cc4F)c4ccc([nH]4)c(-c4c(F)cc(S(=O)(=O)[O-])cc4F)c4nc(c(-c5c(F)cc(S(=O)(=O)[O-])cc5F)c5ccc2[nH]5)C=C4)C=C3)cc1
REMARK SMILES IDX 25 1 24 2 23 3 2 4 1 5 3 6 4 7 5 8 6 10 7 11 8 12 9 13 10 14
REMARK SMILES IDX 15 15 11 16 14 17 12 18 13 19 16 20 17 21 22 22 18 23 21 24
REMARK SMILES IDX 19 25 20 26 26 27 27 28 28 29 29 30 30 31 31 32 32 33 33 34
REMARK SMILES IDX 97 35 34 36 96 37 35 38 36 39 37 40 90 41 38 42 95 43 89 44
REMARK SMILES IDX 91 45 39 46 94 47 88 48 87 49 40 51 74 52 53 53 73 54 54 55
REMARK SMILES IDX 57 56 72 57 92 58 55 59 56 60 71 62 93 63 58 64 41 65 42 66
REMARK SMILES IDX 51 67 43 68 44 69 50 70 52 71 45 72 46 73 47 74 48 75 49 76
REMARK SMILES IDX 75 77 76 78 85 79 77 80 78 81 84 82 86 83 79 84 80 85 81 86
REMARK SMILES IDX 82 87 83 88 59 89 60 90 69 91 61 92 62 93 68 94 70 95 63 96
REMARK SMILES IDX 64 97 65 98 66 99 67 100
REMARK H PARENT 5 9 91 50 57 61
REMARK Flexibility Score: inf
ROOT
ATOM      1  C   UNL A   1      34.634  21.409  24.535  1.00  0.00     0.202 C 
ENDROOT
BRANCH   1   2
ATOM      2  C   UNL A   1      33.161  21.768  24.736  1.00  0.00     0.261 C 
BRANCH   2   3
ATOM      3  O   UNL A   1      32.608  22.093  26.048  1.00  0.00    -0.463 OA
BRANCH   3   4
ATOM      4  C   UNL A   1      32.430  23.221  26.756  1.00  0.00     0.307 C 
ATOM      5  O   UNL A   1      31.591  23.259  27.654  1.00  0.00    -0.252 OA
BRANCH   4   6
ATOM      6  C   UNL A   1      33.340  24.383  26.538  1.00  0.00     0.147 C 
BRANCH   6   7
ATOM      7  C   UNL A   1      32.829  25.399  25.505  1.00  0.00     0.111 C 
BRANCH   7   8
ATOM      8  N   UNL A   1      31.496  24.993  25.001  1.00  0.00    -0.203 NA
ATOM      9  H   UNL A   1      30.808  25.524  25.536  1.00  0.00     0.142 HD
BRANCH   8  10
ATOM     10  S   UNL A   1      31.099  25.189  23.375  1.00  0.00     0.241 S 
ATOM     11  O   UNL A   1      32.337  25.370  22.646  1.00  0.00    -0.207 OA
ATOM     12  O   UNL A   1      30.185  24.113  23.080  1.00  0.00    -0.207 OA
BRANCH  10  13
ATOM     13  C   UNL A   1      30.163  26.687  23.283  1.00  0.00     0.082 A 
ATOM     14  C   UNL A   1      28.831  26.659  23.708  1.00  0.00     0.023 A 
ATOM     15  C   UNL A   1      30.711  27.844  22.726  1.00  0.00     0.023 A 
ATOM     16  C   UNL A   1      28.030  27.789  23.540  1.00  0.00     0.022 A 
ATOM     17  C   UNL A   1      29.899  28.967  22.542  1.00  0.00     0.022 A 
ATOM     18  C   UNL A   1      28.563  28.931  22.941  1.00  0.00     0.041 A 
ATOM     19  Cl  UNL A   1      27.554  30.298  22.675  1.00  0.00    -0.084 Cl
ENDBRANCH  10  13
ENDBRANCH   8  10
ENDBRANCH   7   8
BRANCH   7  20
ATOM     20  C   UNL A   1      32.812  26.798  26.128  1.00  0.00    -0.029 A 
ATOM     21  C   UNL A   1      31.673  27.323  26.774  1.00  0.00     0.008 A 
ATOM     22  C   UNL A   1      33.945  27.622  26.012  1.00  0.00     0.008 A 
ATOM     23  C   UNL A   1      31.675  28.616  27.302  1.00  0.00     0.039 A 
ATOM     24  C   UNL A   1      33.935  28.925  26.516  1.00  0.00     0.039 A 
ATOM     25  C   UNL A   1      32.804  29.408  27.160  1.00  0.00     0.123 A 
ATOM     26  F   UNL A   1      32.797  30.657  27.644  1.00  0.00    -0.207 F 
ENDBRANCH   7  20
ENDBRANCH   6   7
ENDBRANCH   4   6
ENDBRANCH   3   4
ENDBRANCH   2   3
ENDBRANCH   1   2
BRANCH   1  27
ATOM     27  O   UNL A   1      35.469  22.366  23.891  1.00  0.00    -0.374 OA
BRANCH  27  28
ATOM     28  C   UNL A   1      36.881  22.187  23.949  1.00  0.00     0.202 C 
BRANCH  28  29
ATOM     29  C   UNL A   1      37.442  22.094  25.365  1.00  0.00     0.261 C 
BRANCH  29  30
ATOM     30  O   UNL A   1      38.108  23.319  25.707  1.00  0.00    -0.460 OA
BRANCH  30  31
ATOM     31  C   UNL A   1      39.332  23.205  26.274  1.00  0.00     0.338 C 
ATOM     32  O   UNL A   1      40.147  22.319  26.096  1.00  0.00    -0.246 OA
BRANCH  31  33
ATOM     33  C   UNL A   1      39.614  24.454  27.010  1.00  0.00     0.060 A 
ATOM     34  C   UNL A   1      40.475  25.392  26.427  1.00  0.00     0.016 A 
ATOM     35  C   UNL A   1      39.029  24.704  28.256  1.00  0.00     0.016 A 
ATOM     36  C   UNL A   1      40.761  26.582  27.095  1.00  0.00     0.010 A 
ATOM     37  C   UNL A   1      39.325  25.888  28.926  1.00  0.00     0.010 A 
ATOM     38  C   UNL A   1      40.203  26.826  28.357  1.00  0.00    -0.014 A 
BRANCH  38  39
ATOM     39  C   UNL A   1      40.593  28.016  29.143  1.00  0.00     0.031 A 
ATOM     40  C   UNL A   1      41.867  27.974  29.935  1.00  0.00     0.074 A 
ATOM     41  C   UNL A   1      39.789  29.093  29.185  1.00  0.00     0.049 A 
ATOM     42  N   UNL A   1      42.331  28.841  30.794  1.00  0.00    -0.248 NA
ATOM     43  C   UNL A   1      42.731  26.797  29.739  1.00  0.00     0.031 C 
ATOM     44  C   UNL A   1      38.541  29.243  28.435  1.00  0.00     0.029 A 
ATOM     45  N   UNL A   1      39.887  30.252  29.911  1.00  0.00    -0.354 N 
ATOM     46  C   UNL A   1      43.536  28.317  31.245  1.00  0.00     0.074 A 
ATOM     47  C   UNL A   1      43.728  27.048  30.578  1.00  0.00     0.031 C 
ATOM     48  C   UNL A   1      37.975  30.417  28.763  1.00  0.00     0.029 A 
ATOM     49  C   UNL A   1      38.800  31.082  29.770  1.00  0.00     0.049 A 
ATOM     50  H   UNL A   1      40.662  30.469  30.477  1.00  0.00     0.167 HD
ATOM     51  C   UNL A   1      44.402  28.855  32.132  1.00  0.00     0.037 A 
ATOM     52  C   UNL A   1      38.490  32.227  30.411  1.00  0.00     0.037 A 
ATOM     53  C   UNL A   1      44.203  30.120  32.785  1.00  0.00     0.049 A 
ATOM     54  C   UNL A   1      39.436  32.766  31.451  1.00  0.00     0.074 A 
ATOM     55  C   UNL A   1      45.044  30.770  33.670  1.00  0.00     0.029 A 
ATOM     56  N   UNL A   1      43.083  30.922  32.630  1.00  0.00    -0.354 N 
ATOM     57  N   UNL A   1      40.589  32.278  31.844  1.00  0.00    -0.248 NA
ATOM     58  C   UNL A   1      39.040  34.000  32.145  1.00  0.00     0.031 C 
ATOM     59  C   UNL A   1      44.414  31.946  34.085  1.00  0.00     0.029 A 
ATOM     60  C   UNL A   1      43.197  32.046  33.428  1.00  0.00     0.049 A 
ATOM     61  H   UNL A   1      42.320  30.721  32.041  1.00  0.00     0.167 HD
ATOM     62  C   UNL A   1      41.060  33.151  32.819  1.00  0.00     0.074 A 
ATOM     63  C   UNL A   1      40.074  34.203  32.952  1.00  0.00     0.031 C 
ATOM     64  C   UNL A   1      42.205  33.085  33.540  1.00  0.00     0.037 A 
BRANCH  51  65
ATOM     65  C   UNL A   1      45.650  28.089  32.460  1.00  0.00     0.058 A 
ATOM     66  C   UNL A   1      46.788  28.204  31.648  1.00  0.00     0.135 A 
ATOM     67  C   UNL A   1      45.682  27.167  33.517  1.00  0.00     0.135 A 
ATOM     68  F   UNL A   1      46.809  29.083  30.634  1.00  0.00    -0.206 F 
ATOM     69  C   UNL A   1      47.907  27.405  31.852  1.00  0.00     0.059 A 
ATOM     70  C   UNL A   1      46.797  26.369  33.750  1.00  0.00     0.059 A 
ATOM     71  F   UNL A   1      44.626  27.041  34.337  1.00  0.00    -0.206 F 
ATOM     72  C   UNL A   1      47.898  26.481  32.900  1.00  0.00     0.060 A 
BRANCH  72  73
ATOM     73  S   UNL A   1      49.352  25.440  33.142  1.00  0.00     0.124 S 
ATOM     74  O   UNL A   1      50.168  26.263  34.027  1.00  0.00    -0.237 OA
ATOM     75  O   UNL A   1      48.772  24.240  33.741  1.00  0.00    -0.237 OA
ATOM     76  O   UNL A   1      49.871  25.263  31.788  1.00  0.00    -0.744 OA
ENDBRANCH  72  73
ENDBRANCH  51  65
BRANCH  52  77
ATOM     77  C   UNL A   1      37.207  32.917  30.120  1.00  0.00     0.058 A 
ATOM     78  C   UNL A   1      36.058  32.665  30.888  1.00  0.00     0.135 A 
ATOM     79  C   UNL A   1      37.099  33.838  29.069  1.00  0.00     0.135 A 
ATOM     80  F   UNL A   1      36.107  31.789  31.904  1.00  0.00    -0.206 F 
ATOM     81  C   UNL A   1      34.847  33.290  30.616  1.00  0.00     0.059 A 
ATOM     82  C   UNL A   1      35.903  34.493  28.790  1.00  0.00     0.059 A 
ATOM     83  F   UNL A   1      38.175  34.124  28.318  1.00  0.00    -0.206 F 
ATOM     84  C   UNL A   1      34.779  34.202  29.561  1.00  0.00     0.060 A 
BRANCH  84  85
ATOM     85  S   UNL A   1      33.203  35.018  29.232  1.00  0.00     0.124 S 
ATOM     86  O   UNL A   1      32.569  34.969  30.545  1.00  0.00    -0.237 OA
ATOM     87  O   UNL A   1      33.628  36.340  28.781  1.00  0.00    -0.237 OA
ATOM     88  O   UNL A   1      32.596  34.175  28.206  1.00  0.00    -0.744 OA
ENDBRANCH  84  85
ENDBRANCH  52  77
BRANCH  64  89
ATOM     89  C   UNL A   1      42.472  34.172  34.540  1.00  0.00     0.058 A 
ATOM     90  C   UNL A   1      43.327  35.239  34.219  1.00  0.00     0.135 A 
ATOM     91  C   UNL A   1      41.985  34.087  35.853  1.00  0.00     0.135 A 
ATOM     92  F   UNL A   1      43.821  35.360  32.977  1.00  0.00    -0.206 F 
ATOM     93  C   UNL A   1      43.719  36.165  35.178  1.00  0.00     0.059 A 
ATOM     94  C   UNL A   1      42.349  35.015  36.823  1.00  0.00     0.059 A 
ATOM     95  F   UNL A   1      41.155  33.091  36.201  1.00  0.00    -0.206 F 
ATOM     96  C   UNL A   1      43.236  36.037  36.481  1.00  0.00     0.060 A 
BRANCH  96  97
ATOM     97  S   UNL A   1      43.786  37.225  37.724  1.00  0.00     0.124 S 
ATOM     98  O   UNL A   1      42.735  37.114  38.729  1.00  0.00    -0.237 OA
ATOM     99  O   UNL A   1      45.089  36.691  38.107  1.00  0.00    -0.237 OA
ATOM    100  O   UNL A   1      43.825  38.488  36.993  1.00  0.00    -0.744 OA
ENDBRANCH  96  97
ENDBRANCH  64  89
ENDBRANCH  38  39
ENDBRANCH  31  33
ENDBRANCH  30  31
ENDBRANCH  29  30
ENDBRANCH  28  29
ENDBRANCH  27  28
ENDBRANCH   1  27
TORSDOF 22
ENDMDL
MODEL 2
REMARK VINA RESULT:     -10.2      2.745      3.836
REMARK SMILES O=C(C[C@@H](NS(=O)(=O)c1ccc(Cl)cc1)c1ccc(F)cc1)OCCOCCOC(=O)c1ccc(-c2c3nc(c(-c4c(F)cc(S(=O)(=O)[O-])cc4F)c4ccc([nH]4)c(-c4c(F)cc(S(=O)(=O)[O-])cc4F)c4nc(c(-c5c(F)cc(S(=O)(=O)[O-])cc5F)c5ccc2[nH]5)C=C4)C=C3)cc1
REMARK SMILES IDX 25 1 24 2 23 3 2 4 1 5 3 6 4 7 5 8 6 10 7 11 8 12 9 13 10 14
REMARK SMILES IDX 15 15 11 16 14 17 12 18 13 19 16 20 17 21 22 22 18 23 21 24
REMARK SMILES IDX 19 25 20 26 26 27 27 28 28 29 29 30 30 31 31 32 32 33 33 34
REMARK SMILES IDX 97 35 34 36 96 37 35 38 36 39 37 40 90 41 38 42 95 43 89 44
REMARK SMILES IDX 91 45 39 46 94 47 88 48 87 49 40 51 74 52 53 53 73 54 54 55
REMARK SMILES IDX 57 56 72 57 92 58 55 59 56 60 71 62 93 63 58 64 41 65 42 66
REMARK SMILES IDX 51 67 43 68 44 69 50 70 52 71 45 72 46 73 47 74 48 75 49 76
REMARK SMILES IDX 75 77 76 78 85 79 77 80 78 81 84 82 86 83 79 84 80 85 81 86
REMARK SMILES IDX 82 87 83 88 59 89 60 90 69 91 61 92 62 93 68 94 70 95 63 96
REMARK SMILES IDX 64 97 65 98 66 99 67 100
REMARK H PARENT 5 9 91 50 57 61
REMARK Flexibility Score: inf
ROOT
ATOM      1  C   UNL A   1      37.480  21.409  24.647  1.00  0.00     0.202 C 
ENDROOT
BRANCH   1   2
ATOM      2  C   UNL A   1      36.157  20.881  25.205  1.00  0.00     0.261 C 
BRANCH   2   3
ATOM      3  O   UNL A   1      34.875  21.151  24.561  1.00  0.00    -0.463 OA
BRANCH   3   4
ATOM      4  C   UNL A   1      33.762  20.439  24.315  1.00  0.00     0.307 C 
ATOM      5  O   UNL A   1      33.612  19.332  24.830  1.00  0.00    -0.252 OA
BRANCH   4   6
ATOM      6  C   UNL A   1      32.654  21.048  23.524  1.00  0.00     0.147 C 
BRANCH   6   7
ATOM      7  C   UNL A   1      31.985  22.254  24.199  1.00  0.00     0.111 C 
BRANCH   7   8
ATOM      8  N   UNL A   1      32.346  22.304  25.636  1.00  0.00    -0.203 NA
ATOM      9  H   UNL A   1      33.252  22.768  25.694  1.00  0.00     0.142 HD
BRANCH   8  10
ATOM     10  S   UNL A   1      31.338  23.073  26.746  1.00  0.00     0.241 S 
ATOM     11  O   UNL A   1      29.993  22.585  26.519  1.00  0.00    -0.207 OA
ATOM     12  O   UNL A   1      32.002  22.931  28.018  1.00  0.00    -0.207 OA
BRANCH  10  13
ATOM     13  C   UNL A   1      31.391  24.793  26.336  1.00  0.00     0.082 A 
ATOM     14  C   UNL A   1      30.228  25.388  25.836  1.00  0.00     0.023 A 
ATOM     15  C   UNL A   1      32.581  25.519  26.430  1.00  0.00     0.023 A 
ATOM     16  C   UNL A   1      30.266  26.710  25.393  1.00  0.00     0.022 A 
ATOM     17  C   UNL A   1      32.618  26.836  25.966  1.00  0.00     0.022 A 
ATOM     18  C   UNL A   1      31.465  27.422  25.442  1.00  0.00     0.041 A 
ATOM     19  Cl  UNL A   1      31.524  29.029  24.833  1.00  0.00    -0.084 Cl
ENDBRANCH  10  13
ENDBRANCH   8  10
ENDBRANCH   7   8
BRANCH   7  20
ATOM     20  C   UNL A   1      32.376  23.537  23.460  1.00  0.00    -0.029 A 
ATOM     21  C   UNL A   1      33.694  24.041  23.465  1.00  0.00     0.008 A 
ATOM     22  C   UNL A   1      31.387  24.280  22.792  1.00  0.00     0.008 A 
ATOM     23  C   UNL A   1      34.014  25.232  22.811  1.00  0.00     0.039 A 
ATOM     24  C   UNL A   1      31.704  25.487  22.162  1.00  0.00     0.039 A 
ATOM     25  C   UNL A   1      33.013  25.949  22.172  1.00  0.00     0.123 A 
ATOM     26  F   UNL A   1      33.315  27.104  21.566  1.00  0.00    -0.207 F 
ENDBRANCH   7  20
ENDBRANCH   6   7
ENDBRANCH   4   6
ENDBRANCH   3   4
ENDBRANCH   2   3
ENDBRANCH   1   2
BRANCH   1  27
ATOM     27  O   UNL A   1      38.654  21.219  25.429  1.00  0.00    -0.374 OA
BRANCH  27  28
ATOM     28  C   UNL A   1      38.957  22.169  26.446  1.00  0.00     0.202 C 
BRANCH  28  29
ATOM     29  C   UNL A   1      40.344  22.794  26.325  1.00  0.00     0.261 C 
BRANCH  29  30
ATOM     30  O   UNL A   1      40.238  24.225  26.362  1.00  0.00    -0.460 OA
BRANCH  30  31
ATOM     31  C   UNL A   1      41.402  24.917  26.394  1.00  0.00     0.338 C 
ATOM     32  O   UNL A   1      42.294  24.898  25.565  1.00  0.00    -0.246 OA
BRANCH  31  33
ATOM     33  C   UNL A   1      41.335  25.873  27.518  1.00  0.00     0.060 A 
ATOM     34  C   UNL A   1      40.295  25.740  28.446  1.00  0.00     0.016 A 
ATOM     35  C   UNL A   1      42.293  26.882  27.662  1.00  0.00     0.016 A 
ATOM     36  C   UNL A   1      40.205  26.627  29.519  1.00  0.00     0.010 A 
ATOM     37  C   UNL A   1      42.195  27.772  28.729  1.00  0.00     0.010 A 
ATOM     38  C   UNL A   1      41.144  27.658  29.653  1.00  0.00    -0.014 A 
BRANCH  38  39
ATOM     39  C   UNL A   1      40.994  28.688  30.704  1.00  0.00     0.031 A 
ATOM     40  C   UNL A   1      41.835  28.586  31.942  1.00  0.00     0.074 A 
ATOM     41  C   UNL A   1      40.079  29.664  30.569  1.00  0.00     0.049 A 
ATOM     42  N   UNL A   1      41.774  29.291  33.040  1.00  0.00    -0.248 NA
ATOM     43  C   UNL A   1      42.882  27.548  31.949  1.00  0.00     0.031 C 
ATOM     44  C   UNL A   1      39.227  29.866  29.397  1.00  0.00     0.029 A 
ATOM     45  N   UNL A   1      39.695  30.652  31.439  1.00  0.00    -0.354 N 
ATOM     46  C   UNL A   1      42.767  28.784  33.869  1.00  0.00     0.074 A 
ATOM     47  C   UNL A   1      43.408  27.700  33.158  1.00  0.00     0.031 C 
ATOM     48  C   UNL A   1      38.398  30.897  29.633  1.00  0.00     0.029 A 
ATOM     49  C   UNL A   1      38.636  31.403  30.983  1.00  0.00     0.049 A 
ATOM     50  H   UNL A   1      40.134  30.810  32.305  1.00  0.00     0.167 HD
ATOM     51  C   UNL A   1      43.111  29.194  35.110  1.00  0.00     0.037 A 
ATOM     52  C   UNL A   1      37.919  32.362  31.603  1.00  0.00     0.037 A 
ATOM     53  C   UNL A   1      42.469  30.277  35.805  1.00  0.00     0.049 A 
ATOM     54  C   UNL A   1      38.273  32.748  33.015  1.00  0.00     0.074 A 
ATOM     55  C   UNL A   1      42.773  30.796  37.051  1.00  0.00     0.029 A 
ATOM     56  N   UNL A   1      41.392  31.001  35.319  1.00  0.00    -0.354 N 
ATOM     57  N   UNL A   1      39.236  32.285  33.776  1.00  0.00    -0.248 NA
ATOM     58  C   UNL A   1      37.442  33.776  33.659  1.00  0.00     0.031 C 
ATOM     59  C   UNL A   1      41.851  31.805  37.338  1.00  0.00     0.029 A 
ATOM     60  C   UNL A   1      40.998  31.941  36.254  1.00  0.00     0.049 A 
ATOM     61  H   UNL A   1      40.969  30.865  34.441  1.00  0.00     0.167 HD
ATOM     62  C   UNL A   1      39.134  32.972  34.981  1.00  0.00     0.074 A 
ATOM     63  C   UNL A   1      38.023  33.891  34.846  1.00  0.00     0.031 C 
ATOM     64  C   UNL A   1      39.891  32.850  36.097  1.00  0.00     0.037 A 
BRANCH  51  65
ATOM     65  C   UNL A   1      44.228  28.480  35.810  1.00  0.00     0.058 A 
ATOM     66  C   UNL A   1      45.562  28.844  35.572  1.00  0.00     0.135 A 
ATOM     67  C   UNL A   1      43.983  27.373  36.635  1.00  0.00     0.135 A 
ATOM     68  F   UNL A   1      45.847  29.906  34.802  1.00  0.00    -0.206 F 
ATOM     69  C   UNL A   1      46.618  28.112  36.103  1.00  0.00     0.059 A 
ATOM     70  C   UNL A   1      45.023  26.635  37.191  1.00  0.00     0.059 A 
ATOM     71  F   UNL A   1      42.722  27.004  36.913  1.00  0.00    -0.206 F 
ATOM     72  C   UNL A   1      46.339  27.001  36.903  1.00  0.00     0.060 A 
BRANCH  72  73
ATOM     73  S   UNL A   1      47.720  26.051  37.571  1.00  0.00     0.124 S 
ATOM     74  O   UNL A   1      47.715  24.870  36.715  1.00  0.00    -0.237 OA
ATOM     75  O   UNL A   1      48.842  26.969  37.382  1.00  0.00    -0.237 OA
ATOM     76  O   UNL A   1      47.335  25.826  38.960  1.00  0.00    -0.744 OA
ENDBRANCH  72  73
ENDBRANCH  51  65
BRANCH  52  77
ATOM     77  C   UNL A   1      36.765  32.991  30.909  1.00  0.00     0.058 A 
ATOM     78  C   UNL A   1      36.962  33.956  29.908  1.00  0.00     0.135 A 
ATOM     79  C   UNL A   1      35.446  32.646  31.232  1.00  0.00     0.135 A 
ATOM     80  F   UNL A   1      38.206  34.325  29.563  1.00  0.00    -0.206 F 
ATOM     81  C   UNL A   1      35.892  34.566  29.263  1.00  0.00     0.059 A 
ATOM     82  C   UNL A   1      34.358  33.226  30.585  1.00  0.00     0.059 A 
ATOM     83  F   UNL A   1      35.209  31.715  32.170  1.00  0.00    -0.206 F 
ATOM     84  C   UNL A   1      34.593  34.196  29.612  1.00  0.00     0.060 A 
BRANCH  84  85
ATOM     85  S   UNL A   1      33.215  34.985  28.752  1.00  0.00     0.124 S 
ATOM     86  O   UNL A   1      32.344  35.346  29.866  1.00  0.00    -0.237 OA
ATOM     87  O   UNL A   1      33.871  36.097  28.072  1.00  0.00    -0.237 OA
ATOM     88  O   UNL A   1      32.715  33.928  27.878  1.00  0.00    -0.744 OA
ENDBRANCH  84  85
ENDBRANCH  52  77
BRANCH  64  89
ATOM     89  C   UNL A   1      39.561  33.726  37.271  1.00  0.00     0.058 A 
ATOM     90  C   UNL A   1      40.153  34.992  37.403  1.00  0.00     0.135 A 
ATOM     91  C   UNL A   1      38.763  33.256  38.325  1.00  0.00     0.135 A 
ATOM     92  F   UNL A   1      40.929  35.482  36.423  1.00  0.00    -0.206 F 
ATOM     93  C   UNL A   1      39.993  35.749  38.558  1.00  0.00     0.059 A 
ATOM     94  C   UNL A   1      38.573  34.006  39.481  1.00  0.00     0.059 A 
ATOM     95  F   UNL A   1      38.167  32.056  38.237  1.00  0.00    -0.206 F 
ATOM     96  C   UNL A   1      39.213  35.241  39.597  1.00  0.00     0.060 A 
BRANCH  96  97
ATOM     97  S   UNL A   1      39.047  36.219  41.106  1.00  0.00     0.124 S 
ATOM     98  O   UNL A   1      37.850  35.640  41.707  1.00  0.00    -0.237 OA
ATOM     99  O   UNL A   1      40.302  35.938  41.795  1.00  0.00    -0.237 OA
ATOM    100  O   UNL A   1      38.904  37.585  40.611  1.00  0.00    -0.744 OA
ENDBRANCH  96  97
ENDBRANCH  64  89
ENDBRANCH  38  39
ENDBRANCH  31  33
ENDBRANCH  30  31
ENDBRANCH  29  30
ENDBRANCH  28  29
ENDBRANCH  27  28
ENDBRANCH   1  27
TORSDOF 22
ENDMDL
MODEL 3
REMARK VINA RESULT:     -10.0      2.726      3.386
REMARK SMILES O=C(C[C@@H](NS(=O)(=O)c1ccc(Cl)cc1)c1ccc(F)cc1)OCCOCCOC(=O)c1ccc(-c2c3nc(c(-c4c(F)cc(S(=O)(=O)[O-])cc4F)c4ccc([nH]4)c(-c4c(F)cc(S(=O)(=O)[O-])cc4F)c4nc(c(-c5c(F)cc(S(=O)(=O)[O-])cc5F)c5ccc2[nH]5)C=C4)C=C3)cc1
REMARK SMILES IDX 25 1 24 2 23 3 2 4 1 5 3 6 4 7 5 8 6 10 7 11 8 12 9 13 10 14
REMARK SMILES IDX 15 15 11 16 14 17 12 18 13 19 16 20 17 21 22 22 18 23 21 24
REMARK SMILES IDX 19 25 20 26 26 27 27 28 28 29 29 30 30 31 31 32 32 33 33 34
REMARK SMILES IDX 97 35 34 36 96 37 35 38 36 39 37 40 90 41 38 42 95 43 89 44
REMARK SMILES IDX 91 45 39 46 94 47 88 48 87 49 40 51 74 52 53 53 73 54 54 55
REMARK SMILES IDX 57 56 72 57 92 58 55 59 56 60 71 62 93 63 58 64 41 65 42 66
REMARK SMILES IDX 51 67 43 68 44 69 50 70 52 71 45 72 46 73 47 74 48 75 49 76
REMARK SMILES IDX 75 77 76 78 85 79 77 80 78 81 84 82 86 83 79 84 80 85 81 86
REMARK SMILES IDX 82 87 83 88 59 89 60 90 69 91 61 92 62 93 68 94 70 95 63 96
REMARK SMILES IDX 64 97 65 98 66 99 67 100
REMARK H PARENT 5 9 91 50 57 61
REMARK Flexibility Score: inf
ROOT
ATOM      1  C   UNL A   1      33.313  21.232  24.481  1.00  0.00     0.202 C 
ENDROOT
BRANCH   1   2
ATOM      2  C   UNL A   1      32.469  22.418  24.952  1.00  0.00     0.261 C 
BRANCH   2   3
ATOM      3  O   UNL A   1      32.692  23.776  24.466  1.00  0.00    -0.463 OA
BRANCH   3   4
ATOM      4  C   UNL A   1      33.331  24.863  24.931  1.00  0.00     0.307 C 
ATOM      5  O   UNL A   1      34.433  25.171  24.479  1.00  0.00    -0.252 OA
BRANCH   4   6
ATOM      6  C   UNL A   1      32.645  25.768  25.899  1.00  0.00     0.147 C 
BRANCH   6   7
ATOM      7  C   UNL A   1      32.057  27.038  25.267  1.00  0.00     0.111 C 
BRANCH   7   8
ATOM      8  N   UNL A   1      30.577  26.966  25.248  1.00  0.00    -0.203 NA
ATOM      9  H   UNL A   1      30.236  27.873  25.568  1.00  0.00     0.142 HD
BRANCH   8  10
ATOM     10  S   UNL A   1      29.755  26.619  23.818  1.00  0.00     0.241 S 
ATOM     11  O   UNL A   1      30.681  25.929  22.944  1.00  0.00    -0.207 OA
ATOM     12  O   UNL A   1      28.508  26.027  24.236  1.00  0.00    -0.207 OA
BRANCH  10  13
ATOM     13  C   UNL A   1      29.356  28.184  23.098  1.00  0.00     0.082 A 
ATOM     14  C   UNL A   1      28.018  28.592  23.107  1.00  0.00     0.023 A 
ATOM     15  C   UNL A   1      30.334  28.956  22.466  1.00  0.00     0.023 A 
ATOM     16  C   UNL A   1      27.650  29.763  22.444  1.00  0.00     0.022 A 
ATOM     17  C   UNL A   1      29.957  30.118  21.788  1.00  0.00     0.022 A 
ATOM     18  C   UNL A   1      28.618  30.510  21.772  1.00  0.00     0.041 A 
ATOM     19  Cl  UNL A   1      28.150  31.918  20.902  1.00  0.00    -0.084 Cl
ENDBRANCH  10  13
ENDBRANCH   8  10
ENDBRANCH   7   8
BRANCH   7  20
ATOM     20  C   UNL A   1      32.568  28.269  26.022  1.00  0.00    -0.029 A 
ATOM     21  C   UNL A   1      31.842  29.478  26.074  1.00  0.00     0.008 A 
ATOM     22  C   UNL A   1      33.827  28.226  26.646  1.00  0.00     0.008 A 
ATOM     23  C   UNL A   1      32.348  30.595  26.741  1.00  0.00     0.039 A 
ATOM     24  C   UNL A   1      34.344  29.355  27.288  1.00  0.00     0.039 A 
ATOM     25  C   UNL A   1      33.599  30.525  27.334  1.00  0.00     0.123 A 
ATOM     26  F   UNL A   1      34.096  31.605  27.952  1.00  0.00    -0.207 F 
ENDBRANCH   7  20
ENDBRANCH   6   7
ENDBRANCH   4   6
ENDBRANCH   3   4
ENDBRANCH   2   3
ENDBRANCH   1   2
BRANCH   1  27
ATOM     27  O   UNL A   1      34.375  20.797  25.323  1.00  0.00    -0.374 OA
BRANCH  27  28
ATOM     28  C   UNL A   1      35.650  21.417  25.187  1.00  0.00     0.202 C 
BRANCH  28  29
ATOM     29  C   UNL A   1      35.937  22.494  26.230  1.00  0.00     0.261 C 
BRANCH  29  30
ATOM     30  O   UNL A   1      37.035  23.311  25.798  1.00  0.00    -0.460 OA
BRANCH  30  31
ATOM     31  C   UNL A   1      38.274  22.902  26.163  1.00  0.00     0.338 C 
ATOM     32  O   UNL A   1      38.768  21.803  25.990  1.00  0.00    -0.246 OA
BRANCH  31  33
ATOM     33  C   UNL A   1      39.023  24.082  26.640  1.00  0.00     0.060 A 
ATOM     34  C   UNL A   1      38.888  24.462  27.981  1.00  0.00     0.016 A 
ATOM     35  C   UNL A   1      39.860  24.800  25.779  1.00  0.00     0.016 A 
ATOM     36  C   UNL A   1      39.584  25.570  28.463  1.00  0.00     0.010 A 
ATOM     37  C   UNL A   1      40.545  25.913  26.259  1.00  0.00     0.010 A 
ATOM     38  C   UNL A   1      40.400  26.312  27.598  1.00  0.00    -0.014 A 
BRANCH  38  39
ATOM     39  C   UNL A   1      41.042  27.565  28.049  1.00  0.00     0.031 A 
ATOM     40  C   UNL A   1      42.540  27.641  28.078  1.00  0.00     0.074 A 
ATOM     41  C   UNL A   1      40.290  28.595  28.477  1.00  0.00     0.049 A 
ATOM     42  N   UNL A   1      43.308  28.580  28.561  1.00  0.00    -0.248 NA
ATOM     43  C   UNL A   1      43.272  26.506  27.489  1.00  0.00     0.031 C 
ATOM     44  C   UNL A   1      38.827  28.631  28.469  1.00  0.00     0.029 A 
ATOM     45  N   UNL A   1      40.654  29.797  29.028  1.00  0.00    -0.354 N 
ATOM     46  C   UNL A   1      44.611  28.153  28.341  1.00  0.00     0.074 A 
ATOM     47  C   UNL A   1      44.534  26.861  27.694  1.00  0.00     0.031 C 
ATOM     48  C   UNL A   1      38.417  29.787  29.019  1.00  0.00     0.029 A 
ATOM     49  C   UNL A   1      39.585  30.554  29.448  1.00  0.00     0.049 A 
ATOM     50  H   UNL A   1      41.589  30.090  29.113  1.00  0.00     0.167 HD
ATOM     51  C   UNL A   1      45.764  28.788  28.649  1.00  0.00     0.037 A 
ATOM     52  C   UNL A   1      39.557  31.713  30.136  1.00  0.00     0.037 A 
ATOM     53  C   UNL A   1      45.826  30.074  29.286  1.00  0.00     0.049 A 
ATOM     54  C   UNL A   1      40.856  32.363  30.534  1.00  0.00     0.074 A 
ATOM     55  C   UNL A   1      46.948  30.820  29.603  1.00  0.00     0.029 A 
ATOM     56  N   UNL A   1      44.726  30.801  29.712  1.00  0.00    -0.354 N 
ATOM     57  N   UNL A   1      42.082  31.966  30.289  1.00  0.00    -0.248 NA
ATOM     58  C   UNL A   1      40.774  33.610  31.309  1.00  0.00     0.031 C 
ATOM     59  C   UNL A   1      46.527  31.979  30.260  1.00  0.00     0.029 A 
ATOM     60  C   UNL A   1      45.142  31.973  30.318  1.00  0.00     0.049 A 
ATOM     61  H   UNL A   1      43.787  30.524  29.602  1.00  0.00     0.167 HD
ATOM     62  C   UNL A   1      42.914  32.917  30.869  1.00  0.00     0.074 A 
ATOM     63  C   UNL A   1      42.055  33.917  31.468  1.00  0.00     0.031 C 
ATOM     64  C   UNL A   1      44.268  32.958  30.903  1.00  0.00     0.037 A 
BRANCH  51  65
ATOM     65  C   UNL A   1      47.059  28.115  28.306  1.00  0.00     0.058 A 
ATOM     66  C   UNL A   1      47.705  28.394  27.092  1.00  0.00     0.135 A 
ATOM     67  C   UNL A   1      47.605  27.121  29.131  1.00  0.00     0.135 A 
ATOM     68  F   UNL A   1      47.229  29.347  26.276  1.00  0.00    -0.206 F 
ATOM     69  C   UNL A   1      48.833  27.686  26.692  1.00  0.00     0.059 A 
ATOM     70  C   UNL A   1      48.742  26.410  28.759  1.00  0.00     0.059 A 
ATOM     71  F   UNL A   1      47.036  26.837  30.314  1.00  0.00    -0.206 F 
ATOM     72  C   UNL A   1      49.338  26.687  27.527  1.00  0.00     0.060 A 
BRANCH  72  73
ATOM     73  S   UNL A   1      50.791  25.765  26.986  1.00  0.00     0.124 S 
ATOM     74  O   UNL A   1      50.498  24.423  27.478  1.00  0.00    -0.237 OA
ATOM     75  O   UNL A   1      50.741  25.937  25.536  1.00  0.00    -0.237 OA
ATOM     76  O   UNL A   1      51.894  26.453  27.650  1.00  0.00    -0.744 OA
ENDBRANCH  72  73
ENDBRANCH  51  65
BRANCH  52  77
ATOM     77  C   UNL A   1      38.255  32.311  30.530  1.00  0.00     0.058 A 
ATOM     78  C   UNL A   1      37.625  33.270  29.722  1.00  0.00     0.135 A 
ATOM     79  C   UNL A   1      37.617  31.940  31.722  1.00  0.00     0.135 A 
ATOM     80  F   UNL A   1      38.196  33.663  28.572  1.00  0.00    -0.206 F 
ATOM     81  C   UNL A   1      36.416  33.851  30.087  1.00  0.00     0.059 A 
ATOM     82  C   UNL A   1      36.395  32.491  32.099  1.00  0.00     0.059 A 
ATOM     83  F   UNL A   1      38.174  31.014  32.518  1.00  0.00    -0.206 F 
ATOM     84  C   UNL A   1      35.810  33.456  31.281  1.00  0.00     0.060 A 
BRANCH  84  85
ATOM     85  S   UNL A   1      34.231  34.207  31.732  1.00  0.00     0.124 S 
ATOM     86  O   UNL A   1      34.667  35.455  32.349  1.00  0.00    -0.237 OA
ATOM     87  O   UNL A   1      33.569  34.336  30.438  1.00  0.00    -0.237 OA
ATOM     88  O   UNL A   1      33.640  33.228  32.639  1.00  0.00    -0.744 OA
ENDBRANCH  84  85
ENDBRANCH  52  77
BRANCH  64  89
ATOM     89  C   UNL A   1      44.921  34.113  31.603  1.00  0.00     0.058 A 
ATOM     90  C   UNL A   1      45.283  35.267  30.888  1.00  0.00     0.135 A 
ATOM     91  C   UNL A   1      45.304  34.023  32.950  1.00  0.00     0.135 A 
ATOM     92  F   UNL A   1      44.942  35.396  29.596  1.00  0.00    -0.206 F 
ATOM     93  C   UNL A   1      46.034  36.277  31.477  1.00  0.00     0.059 A 
ATOM     94  C   UNL A   1      46.039  35.032  33.564  1.00  0.00     0.059 A 
ATOM     95  F   UNL A   1      44.970  32.944  33.675  1.00  0.00    -0.206 F 
ATOM     96  C   UNL A   1      46.419  36.144  32.811  1.00  0.00     0.060 A 
BRANCH  96  97
ATOM     97  S   UNL A   1      47.428  37.447  33.550  1.00  0.00     0.124 S 
ATOM     98  O   UNL A   1      46.532  38.595  33.480  1.00  0.00    -0.237 OA
ATOM     99  O   UNL A   1      47.682  36.920  34.888  1.00  0.00    -0.237 OA
ATOM    100  O   UNL A   1      48.596  37.507  32.677  1.00  0.00    -0.744 OA
ENDBRANCH  96  97
ENDBRANCH  64  89
ENDBRANCH  38  39
ENDBRANCH  31  33
ENDBRANCH  30  31
ENDBRANCH  29  30
ENDBRANCH  28  29
ENDBRANCH  27  28
ENDBRANCH   1  27
TORSDOF 22
ENDMDL
