MODEL 1
REMARK VINA RESULT:     -10.9      0.000      0.000
REMARK SMILES CCC(CC)(NC(=O)NC1CCC(C)(C)CC1)C(=O)OCCOCCOC(=O)c1ccc(-c2c3nc(c(-c4c(F)cc(S(=O)(=O)[O-])cc4F)c4ccc([nH]4)c(-c4c(F)cc(S(=O)(=O)[O-])cc4F)c4nc(c(-c5c(F)cc(S(=O)(=O)[O-])cc5F)c5ccc2[nH]5)C=C4)C=C3)cc1
REMARK SMILES IDX 24 1 23 2 22 3 21 4 20 5 18 6 19 7 3 8 2 9 1 10 4 11 5 12
REMARK SMILES IDX 6 13 7 14 8 16 9 17 10 19 11 20 17 21 12 22 16 23 13 24
REMARK SMILES IDX 14 25 15 26 25 27 26 28 27 29 28 30 29 31 30 32 94 33 31 34
REMARK SMILES IDX 93 35 32 36 33 37 34 38 87 39 35 40 92 41 86 42 88 43 36 44
REMARK SMILES IDX 91 45 85 46 84 47 37 49 71 50 50 51 70 52 51 53 54 54 69 55
REMARK SMILES IDX 89 56 52 57 53 58 68 60 90 61 55 62 38 63 39 64 48 65 40 66
REMARK SMILES IDX 41 67 47 68 49 69 42 70 43 71 44 72 45 73 46 74 72 75 73 76
REMARK SMILES IDX 82 77 74 78 75 79 81 80 83 81 76 82 77 83 78 84 79 85 80 86
REMARK SMILES IDX 56 87 57 88 66 89 58 90 59 91 65 92 67 93 60 94 61 95 62 96
REMARK SMILES IDX 63 97 64 98
REMARK H PARENT 6 15 9 18 88 48 54 59
REMARK Flexibility Score: inf
ROOT
ATOM      1  C   UNL A   1      38.142  22.465  25.694  1.00  0.00     0.202 C 
ENDROOT
BRANCH   1   2
ATOM      2  O   UNL A   1      38.112  21.041  25.545  1.00  0.00    -0.374 OA
BRANCH   2   3
ATOM      3  C   UNL A   1      36.896  20.535  24.997  1.00  0.00     0.202 C 
BRANCH   3   4
ATOM      4  C   UNL A   1      35.776  21.590  24.845  1.00  0.00     0.261 C 
BRANCH   4   5
ATOM      5  O   UNL A   1      34.718  21.491  25.828  1.00  0.00    -0.461 OA
BRANCH   5   6
ATOM      6  C   UNL A   1      33.754  22.445  25.808  1.00  0.00     0.331 C 
ATOM      7  O   UNL A   1      33.991  23.626  26.045  1.00  0.00    -0.249 OA
BRANCH   6   8
ATOM      8  C   UNL A   1      32.346  21.926  25.328  1.00  0.00     0.139 C 
BRANCH   8   9
ATOM      9  C   UNL A   1      32.500  20.354  25.369  1.00  0.00     0.037 C 
ATOM     10  C   UNL A   1      32.480  19.667  24.003  1.00  0.00     0.007 C 
ENDBRANCH   8   9
BRANCH   8  11
ATOM     11  C   UNL A   1      31.945  22.292  23.885  1.00  0.00     0.037 C 
ATOM     12  C   UNL A   1      33.049  22.964  23.061  1.00  0.00     0.007 C 
ENDBRANCH   8  11
BRANCH   8  13
ATOM     13  N   UNL A   1      31.274  22.255  26.340  1.00  0.00    -0.322 N 
ATOM     14  C   UNL A   1      30.426  23.207  26.735  1.00  0.00     0.315 C 
ATOM     15  H   UNL A   1      31.156  21.474  26.929  1.00  0.00     0.166 HD
ATOM     16  O   UNL A   1      29.672  22.896  27.665  1.00  0.00    -0.249 OA
ATOM     17  N   UNL A   1      30.324  24.454  26.267  1.00  0.00    -0.335 N 
ATOM     18  H   UNL A   1      29.616  24.974  26.711  1.00  0.00     0.165 HD
BRANCH  17  19
ATOM     19  C   UNL A   1      31.029  25.207  25.249  1.00  0.00     0.083 C 
ATOM     20  C   UNL A   1      30.138  25.547  24.056  1.00  0.00     0.025 C 
ATOM     21  C   UNL A   1      31.870  26.358  25.823  1.00  0.00     0.025 C 
ATOM     22  C   UNL A   1      29.722  26.988  23.916  1.00  0.00     0.008 C 
ATOM     23  C   UNL A   1      31.399  27.773  25.522  1.00  0.00     0.008 C 
ATOM     24  C   UNL A   1      30.917  27.934  24.071  1.00  0.00    -0.035 C 
ATOM     25  C   UNL A   1      30.412  29.347  23.787  1.00  0.00     0.011 C 
ATOM     26  C   UNL A   1      32.070  27.659  23.083  1.00  0.00     0.011 C 
ENDBRANCH  17  19
ENDBRANCH   8  13
ENDBRANCH   6   8
ENDBRANCH   5   6
ENDBRANCH   4   5
ENDBRANCH   3   4
ENDBRANCH   2   3
ENDBRANCH   1   2
BRANCH   1  27
ATOM     27  C   UNL A   1      39.362  22.972  26.467  1.00  0.00     0.261 C 
BRANCH  27  28
ATOM     28  O   UNL A   1      39.455  24.414  26.423  1.00  0.00    -0.460 OA
BRANCH  28  29
ATOM     29  C   UNL A   1      40.688  24.949  26.587  1.00  0.00     0.338 C 
ATOM     30  O   UNL A   1      41.657  24.777  25.863  1.00  0.00    -0.246 OA
BRANCH  29  31
ATOM     31  C   UNL A   1      40.711  25.869  27.755  1.00  0.00     0.060 A 
ATOM     32  C   UNL A   1      39.617  25.846  28.630  1.00  0.00     0.016 A 
ATOM     33  C   UNL A   1      41.765  26.760  27.994  1.00  0.00     0.016 A 
ATOM     34  C   UNL A   1      39.567  26.712  29.732  1.00  0.00     0.010 A 
ATOM     35  C   UNL A   1      41.710  27.630  29.098  1.00  0.00     0.010 A 
ATOM     36  C   UNL A   1      40.603  27.627  29.968  1.00  0.00    -0.014 A 
BRANCH  36  37
ATOM     37  C   UNL A   1      40.465  28.663  31.034  1.00  0.00     0.031 A 
ATOM     38  C   UNL A   1      41.251  28.516  32.302  1.00  0.00     0.074 A 
ATOM     39  C   UNL A   1      39.676  29.747  30.897  1.00  0.00     0.049 A 
ATOM     40  N   UNL A   1      41.291  29.316  33.334  1.00  0.00    -0.248 NA
ATOM     41  C   UNL A   1      42.124  27.337  32.410  1.00  0.00     0.031 C 
ATOM     42  C   UNL A   1      38.934  30.082  29.696  1.00  0.00     0.029 A 
ATOM     43  N   UNL A   1      39.351  30.761  31.770  1.00  0.00    -0.354 N 
ATOM     44  C   UNL A   1      42.214  28.761  34.204  1.00  0.00     0.074 A 
ATOM     45  C   UNL A   1      42.679  27.528  33.599  1.00  0.00     0.031 C 
ATOM     46  C   UNL A   1      38.186  31.173  29.921  1.00  0.00     0.029 A 
ATOM     47  C   UNL A   1      38.391  31.620  31.286  1.00  0.00     0.049 A 
ATOM     48  H   UNL A   1      39.767  30.863  32.656  1.00  0.00     0.167 HD
ATOM     49  C   UNL A   1      42.653  29.247  35.387  1.00  0.00     0.037 A 
ATOM     50  C   UNL A   1      37.730  32.649  31.853  1.00  0.00     0.037 A 
ATOM     51  C   UNL A   1      42.186  30.463  35.998  1.00  0.00     0.049 A 
ATOM     52  C   UNL A   1      38.126  33.086  33.229  1.00  0.00     0.074 A 
ATOM     53  C   UNL A   1      42.621  31.052  37.172  1.00  0.00     0.029 A 
ATOM     54  N   UNL A   1      41.162  31.260  35.509  1.00  0.00    -0.354 N 
ATOM     55  N   UNL A   1      39.070  32.597  33.995  1.00  0.00    -0.248 NA
ATOM     56  C   UNL A   1      37.402  34.226  33.809  1.00  0.00     0.031 C 
ATOM     57  C   UNL A   1      41.821  32.171  37.424  1.00  0.00     0.029 A 
ATOM     58  C   UNL A   1      40.916  32.305  36.385  1.00  0.00     0.049 A 
ATOM     59  H   UNL A   1      40.681  31.104  34.665  1.00  0.00     0.167 HD
ATOM     60  C   UNL A   1      39.081  33.394  35.131  1.00  0.00     0.074 A 
ATOM     61  C   UNL A   1      38.049  34.394  34.955  1.00  0.00     0.031 C 
ATOM     62  C   UNL A   1      39.888  33.301  36.213  1.00  0.00     0.037 A 
BRANCH  49  63
ATOM     63  C   UNL A   1      43.689  28.443  36.110  1.00  0.00     0.058 A 
ATOM     64  C   UNL A   1      45.056  28.735  35.992  1.00  0.00     0.135 A 
ATOM     65  C   UNL A   1      43.306  27.392  36.955  1.00  0.00     0.135 A 
ATOM     66  F   UNL A   1      45.470  29.720  35.179  1.00  0.00    -0.206 F 
ATOM     67  C   UNL A   1      46.014  27.997  36.678  1.00  0.00     0.059 A 
ATOM     68  C   UNL A   1      44.244  26.653  37.666  1.00  0.00     0.059 A 
ATOM     69  F   UNL A   1      42.009  27.072  37.091  1.00  0.00    -0.206 F 
ATOM     70  C   UNL A   1      45.597  26.958  37.512  1.00  0.00     0.060 A 
BRANCH  70  71
ATOM     71  S   UNL A   1      46.849  26.015  38.404  1.00  0.00     0.124 S 
ATOM     72  O   UNL A   1      46.347  26.087  39.773  1.00  0.00    -0.237 OA
ATOM     73  O   UNL A   1      46.765  24.704  37.767  1.00  0.00    -0.237 OA
ATOM     74  O   UNL A   1      48.080  26.756  38.146  1.00  0.00    -0.744 OA
ENDBRANCH  70  71
ENDBRANCH  49  63
BRANCH  50  75
ATOM     75  C   UNL A   1      36.619  33.330  31.129  1.00  0.00     0.058 A 
ATOM     76  C   UNL A   1      35.277  33.114  31.470  1.00  0.00     0.135 A 
ATOM     77  C   UNL A   1      36.886  34.195  30.054  1.00  0.00     0.135 A 
ATOM     78  F   UNL A   1      34.968  32.296  32.488  1.00  0.00    -0.206 F 
ATOM     79  C   UNL A   1      34.237  33.703  30.755  1.00  0.00     0.059 A 
ATOM     80  C   UNL A   1      35.865  34.810  29.335  1.00  0.00     0.059 A 
ATOM     81  F   UNL A   1      38.154  34.449  29.694  1.00  0.00    -0.206 F 
ATOM     82  C   UNL A   1      34.542  34.545  29.683  1.00  0.00     0.060 A 
BRANCH  82  83
ATOM     83  S   UNL A   1      33.185  35.309  28.765  1.00  0.00     0.124 S 
ATOM     84  O   UNL A   1      33.903  36.233  27.895  1.00  0.00    -0.237 OA
ATOM     85  O   UNL A   1      32.571  34.160  28.108  1.00  0.00    -0.237 OA
ATOM     86  O   UNL A   1      32.378  35.927  29.813  1.00  0.00    -0.744 OA
ENDBRANCH  82  83
ENDBRANCH  50  75
BRANCH  62  87
ATOM     87  C   UNL A   1      39.707  34.320  37.299  1.00  0.00     0.058 A 
ATOM     88  C   UNL A   1      38.975  34.029  38.459  1.00  0.00     0.135 A 
ATOM     89  C   UNL A   1      40.331  35.575  37.210  1.00  0.00     0.135 A 
ATOM     90  F   UNL A   1      38.346  32.849  38.583  1.00  0.00    -0.206 F 
ATOM     91  C   UNL A   1      38.866  34.948  39.496  1.00  0.00     0.059 A 
ATOM     92  C   UNL A   1      40.256  36.500  38.245  1.00  0.00     0.059 A 
ATOM     93  F   UNL A   1      41.042  35.900  36.119  1.00  0.00    -0.206 F 
ATOM     94  C   UNL A   1      39.518  36.178  39.384  1.00  0.00     0.060 A 
BRANCH  94  95
ATOM     95  S   UNL A   1      39.432  37.333  40.768  1.00  0.00     0.124 S 
ATOM     96  O   UNL A   1      40.829  37.732  40.906  1.00  0.00    -0.237 OA
ATOM     97  O   UNL A   1      38.527  38.360  40.262  1.00  0.00    -0.237 OA
ATOM     98  O   UNL A   1      38.900  36.519  41.857  1.00  0.00    -0.744 OA
ENDBRANCH  94  95
ENDBRANCH  62  87
ENDBRANCH  36  37
ENDBRANCH  29  31
ENDBRANCH  28  29
ENDBRANCH  27  28
ENDBRANCH   1  27
TORSDOF 21
ENDMDL
MODEL 2
REMARK VINA RESULT:     -10.9      6.738     12.285
REMARK SMILES CCC(CC)(NC(=O)NC1CCC(C)(C)CC1)C(=O)OCCOCCOC(=O)c1ccc(-c2c3nc(c(-c4c(F)cc(S(=O)(=O)[O-])cc4F)c4ccc([nH]4)c(-c4c(F)cc(S(=O)(=O)[O-])cc4F)c4nc(c(-c5c(F)cc(S(=O)(=O)[O-])cc5F)c5ccc2[nH]5)C=C4)C=C3)cc1
REMARK SMILES IDX 24 1 23 2 22 3 21 4 20 5 18 6 19 7 3 8 2 9 1 10 4 11 5 12
REMARK SMILES IDX 6 13 7 14 8 16 9 17 10 19 11 20 17 21 12 22 16 23 13 24
REMARK SMILES IDX 14 25 15 26 25 27 26 28 27 29 28 30 29 31 30 32 94 33 31 34
REMARK SMILES IDX 93 35 32 36 33 37 34 38 87 39 35 40 92 41 86 42 88 43 36 44
REMARK SMILES IDX 91 45 85 46 84 47 37 49 71 50 50 51 70 52 51 53 54 54 69 55
REMARK SMILES IDX 89 56 52 57 53 58 68 60 90 61 55 62 38 63 39 64 48 65 40 66
REMARK SMILES IDX 41 67 47 68 49 69 42 70 43 71 44 72 45 73 46 74 72 75 73 76
REMARK SMILES IDX 82 77 74 78 75 79 81 80 83 81 76 82 77 83 78 84 79 85 80 86
REMARK SMILES IDX 56 87 57 88 66 89 58 90 59 91 65 92 67 93 60 94 61 95 62 96
REMARK SMILES IDX 63 97 64 98
REMARK H PARENT 6 15 9 18 88 48 54 59
REMARK Flexibility Score: inf
ROOT
ATOM      1  C   UNL A   1      34.461  30.878  27.649  1.00  0.00     0.202 C 
ENDROOT
BRANCH   1   2
ATOM      2  O   UNL A   1      33.116  30.389  27.632  1.00  0.00    -0.374 OA
BRANCH   2   3
ATOM      3  C   UNL A   1      32.449  30.551  26.381  1.00  0.00     0.202 C 
BRANCH   3   4
ATOM      4  C   UNL A   1      32.988  29.649  25.248  1.00  0.00     0.261 C 
BRANCH   4   5
ATOM      5  O   UNL A   1      32.076  28.610  24.819  1.00  0.00    -0.461 OA
BRANCH   5   6
ATOM      6  C   UNL A   1      32.534  27.709  23.914  1.00  0.00     0.331 C 
ATOM      7  O   UNL A   1      33.679  27.266  23.946  1.00  0.00    -0.249 OA
BRANCH   6   8
ATOM      8  C   UNL A   1      31.435  27.191  22.912  1.00  0.00     0.139 C 
BRANCH   8   9
ATOM      9  C   UNL A   1      30.677  28.508  22.483  1.00  0.00     0.037 C 
ATOM     10  C   UNL A   1      29.201  28.564  22.881  1.00  0.00     0.007 C 
ENDBRANCH   8   9
BRANCH   8  11
ATOM     11  C   UNL A   1      30.372  26.243  23.503  1.00  0.00     0.037 C 
ATOM     12  C   UNL A   1      30.568  25.900  24.984  1.00  0.00     0.007 C 
ENDBRANCH   8  11
BRANCH   8  13
ATOM     13  N   UNL A   1      32.064  26.656  21.647  1.00  0.00    -0.322 N 
ATOM     14  C   UNL A   1      32.611  25.569  21.096  1.00  0.00     0.315 C 
ATOM     15  H   UNL A   1      32.076  27.379  20.978  1.00  0.00     0.166 HD
ATOM     16  O   UNL A   1      32.938  25.682  19.908  1.00  0.00    -0.249 OA
ATOM     17  N   UNL A   1      32.872  24.400  21.685  1.00  0.00    -0.335 N 
ATOM     18  H   UNL A   1      33.272  23.741  21.072  1.00  0.00     0.165 HD
BRANCH  17  19
ATOM     19  C   UNL A   1      32.695  23.888  23.030  1.00  0.00     0.083 C 
ATOM     20  C   UNL A   1      31.820  22.636  23.065  1.00  0.00     0.025 C 
ATOM     21  C   UNL A   1      34.005  23.828  23.831  1.00  0.00     0.025 C 
ATOM     22  C   UNL A   1      32.520  21.335  23.358  1.00  0.00     0.008 C 
ATOM     23  C   UNL A   1      34.555  22.446  24.151  1.00  0.00     0.008 C 
ATOM     24  C   UNL A   1      33.452  21.459  24.567  1.00  0.00    -0.035 C 
ATOM     25  C   UNL A   1      34.007  20.065  24.851  1.00  0.00     0.011 C 
ATOM     26  C   UNL A   1      32.752  21.939  25.855  1.00  0.00     0.011 C 
ENDBRANCH  17  19
ENDBRANCH   8  13
ENDBRANCH   6   8
ENDBRANCH   5   6
ENDBRANCH   4   5
ENDBRANCH   3   4
ENDBRANCH   2   3
ENDBRANCH   1   2
BRANCH   1  27
ATOM     27  C   UNL A   1      34.699  31.971  28.693  1.00  0.00     0.261 C 
BRANCH  27  28
ATOM     28  O   UNL A   1      36.102  32.092  29.023  1.00  0.00    -0.460 OA
BRANCH  28  29
ATOM     29  C   UNL A   1      36.559  31.312  30.030  1.00  0.00     0.338 C 
ATOM     30  O   UNL A   1      36.002  31.105  31.098  1.00  0.00    -0.246 OA
BRANCH  29  31
ATOM     31  C   UNL A   1      37.832  30.647  29.645  1.00  0.00     0.060 A 
ATOM     32  C   UNL A   1      38.835  30.534  30.617  1.00  0.00     0.016 A 
ATOM     33  C   UNL A   1      38.066  30.154  28.355  1.00  0.00     0.016 A 
ATOM     34  C   UNL A   1      40.067  29.945  30.305  1.00  0.00     0.010 A 
ATOM     35  C   UNL A   1      39.305  29.566  28.044  1.00  0.00     0.010 A 
ATOM     36  C   UNL A   1      40.325  29.472  29.011  1.00  0.00    -0.014 A 
BRANCH  36  37
ATOM     37  C   UNL A   1      41.693  29.007  28.635  1.00  0.00     0.031 A 
ATOM     38  C   UNL A   1      42.798  30.013  28.515  1.00  0.00     0.074 A 
ATOM     39  C   UNL A   1      41.987  27.710  28.420  1.00  0.00     0.049 A 
ATOM     40  N   UNL A   1      44.057  29.811  28.226  1.00  0.00    -0.248 NA
ATOM     41  C   UNL A   1      42.452  31.417  28.783  1.00  0.00     0.031 C 
ATOM     42  C   UNL A   1      41.057  26.612  28.594  1.00  0.00     0.029 A 
ATOM     43  N   UNL A   1      43.142  27.090  27.996  1.00  0.00    -0.354 N 
ATOM     44  C   UNL A   1      44.664  31.053  28.307  1.00  0.00     0.074 A 
ATOM     45  C   UNL A   1      43.626  32.013  28.628  1.00  0.00     0.031 C 
ATOM     46  C   UNL A   1      41.640  25.464  28.216  1.00  0.00     0.029 A 
ATOM     47  C   UNL A   1      42.992  25.741  27.768  1.00  0.00     0.049 A 
ATOM     48  H   UNL A   1      43.994  27.566  27.870  1.00  0.00     0.167 HD
ATOM     49  C   UNL A   1      45.972  31.361  28.153  1.00  0.00     0.037 A 
ATOM     50  C   UNL A   1      43.823  24.813  27.252  1.00  0.00     0.037 A 
ATOM     51  C   UNL A   1      47.004  30.415  27.822  1.00  0.00     0.049 A 
ATOM     52  C   UNL A   1      45.235  25.206  26.945  1.00  0.00     0.074 A 
ATOM     53  C   UNL A   1      48.364  30.641  27.701  1.00  0.00     0.029 A 
ATOM     54  N   UNL A   1      46.795  29.077  27.528  1.00  0.00    -0.354 N 
ATOM     55  N   UNL A   1      45.809  26.371  27.118  1.00  0.00    -0.248 NA
ATOM     56  C   UNL A   1      46.123  24.166  26.406  1.00  0.00     0.031 C 
ATOM     57  C   UNL A   1      48.969  29.453  27.276  1.00  0.00     0.029 A 
ATOM     58  C   UNL A   1      47.992  28.476  27.174  1.00  0.00     0.049 A 
ATOM     59  H   UNL A   1      45.923  28.620  27.564  1.00  0.00     0.167 HD
ATOM     60  C   UNL A   1      47.135  26.194  26.749  1.00  0.00     0.074 A 
ATOM     61  C   UNL A   1      47.279  24.813  26.339  1.00  0.00     0.031 C 
ATOM     62  C   UNL A   1      48.138  27.102  26.764  1.00  0.00     0.037 A 
BRANCH  49  63
ATOM     63  C   UNL A   1      46.357  32.798  28.327  1.00  0.00     0.058 A 
ATOM     64  C   UNL A   1      46.785  33.296  29.567  1.00  0.00     0.135 A 
ATOM     65  C   UNL A   1      46.328  33.675  27.234  1.00  0.00     0.135 A 
ATOM     66  F   UNL A   1      46.810  32.497  30.646  1.00  0.00    -0.206 F 
ATOM     67  C   UNL A   1      47.157  34.626  29.721  1.00  0.00     0.059 A 
ATOM     68  C   UNL A   1      46.714  35.004  27.360  1.00  0.00     0.059 A 
ATOM     69  F   UNL A   1      45.916  33.243  26.031  1.00  0.00    -0.206 F 
ATOM     70  C   UNL A   1      47.118  35.471  28.611  1.00  0.00     0.060 A 
BRANCH  70  71
ATOM     71  S   UNL A   1      47.614  37.193  28.823  1.00  0.00     0.124 S 
ATOM     72  O   UNL A   1      46.723  37.869  27.884  1.00  0.00    -0.237 OA
ATOM     73  O   UNL A   1      47.338  37.426  30.237  1.00  0.00    -0.237 OA
ATOM     74  O   UNL A   1      49.026  37.188  28.455  1.00  0.00    -0.744 OA
ENDBRANCH  70  71
ENDBRANCH  49  63
BRANCH  50  75
ATOM     75  C   UNL A   1      43.344  23.428  26.982  1.00  0.00     0.058 A 
ATOM     76  C   UNL A   1      43.187  22.490  28.012  1.00  0.00     0.135 A 
ATOM     77  C   UNL A   1      43.061  23.009  25.671  1.00  0.00     0.135 A 
ATOM     78  F   UNL A   1      43.446  22.841  29.282  1.00  0.00    -0.206 F 
ATOM     79  C   UNL A   1      42.798  21.179  27.753  1.00  0.00     0.059 A 
ATOM     80  C   UNL A   1      42.652  21.708  25.388  1.00  0.00     0.059 A 
ATOM     81  F   UNL A   1      43.180  23.869  24.649  1.00  0.00    -0.206 F 
ATOM     82  C   UNL A   1      42.539  20.795  26.435  1.00  0.00     0.060 A 
BRANCH  82  83
ATOM     83  S   UNL A   1      42.028  19.092  26.110  1.00  0.00     0.124 S 
ATOM     84  O   UNL A   1      42.910  18.726  25.008  1.00  0.00    -0.237 OA
ATOM     85  O   UNL A   1      42.298  18.440  27.387  1.00  0.00    -0.237 OA
ATOM     86  O   UNL A   1      40.615  19.225  25.770  1.00  0.00    -0.744 OA
ENDBRANCH  82  83
ENDBRANCH  50  75
BRANCH  62  87
ATOM     87  C   UNL A   1      49.499  26.635  26.339  1.00  0.00     0.058 A 
ATOM     88  C   UNL A   1      49.990  26.892  25.050  1.00  0.00     0.135 A 
ATOM     89  C   UNL A   1      50.347  25.987  27.251  1.00  0.00     0.135 A 
ATOM     90  F   UNL A   1      49.210  27.494  24.138  1.00  0.00    -0.206 F 
ATOM     91  C   UNL A   1      51.276  26.521  24.678  1.00  0.00     0.059 A 
ATOM     92  C   UNL A   1      51.645  25.628  26.908  1.00  0.00     0.059 A 
ATOM     93  F   UNL A   1      49.922  25.718  28.496  1.00  0.00    -0.206 F 
ATOM     94  C   UNL A   1      52.100  25.898  25.618  1.00  0.00     0.060 A 
BRANCH  94  95
ATOM     95  S   UNL A   1      53.795  25.489  25.147  1.00  0.00     0.124 S 
ATOM     96  O   UNL A   1      53.857  24.069  25.478  1.00  0.00    -0.237 OA
ATOM     97  O   UNL A   1      53.809  25.808  23.723  1.00  0.00    -0.237 OA
ATOM     98  O   UNL A   1      54.602  26.367  25.988  1.00  0.00    -0.744 OA
ENDBRANCH  94  95
ENDBRANCH  62  87
ENDBRANCH  36  37
ENDBRANCH  29  31
ENDBRANCH  28  29
ENDBRANCH  27  28
ENDBRANCH   1  27
TORSDOF 21
ENDMDL
MODEL 3
REMARK VINA RESULT:     -10.8      6.715     12.199
REMARK SMILES CCC(CC)(NC(=O)NC1CCC(C)(C)CC1)C(=O)OCCOCCOC(=O)c1ccc(-c2c3nc(c(-c4c(F)cc(S(=O)(=O)[O-])cc4F)c4ccc([nH]4)c(-c4c(F)cc(S(=O)(=O)[O-])cc4F)c4nc(c(-c5c(F)cc(S(=O)(=O)[O-])cc5F)c5ccc2[nH]5)C=C4)C=C3)cc1
REMARK SMILES IDX 24 1 23 2 22 3 21 4 20 5 18 6 19 7 3 8 2 9 1 10 4 11 5 12
REMARK SMILES IDX 6 13 7 14 8 16 9 17 10 19 11 20 17 21 12 22 16 23 13 24
REMARK SMILES IDX 14 25 15 26 25 27 26 28 27 29 28 30 29 31 30 32 94 33 31 34
REMARK SMILES IDX 93 35 32 36 33 37 34 38 87 39 35 40 92 41 86 42 88 43 36 44
REMARK SMILES IDX 91 45 85 46 84 47 37 49 71 50 50 51 70 52 51 53 54 54 69 55
REMARK SMILES IDX 89 56 52 57 53 58 68 60 90 61 55 62 38 63 39 64 48 65 40 66
REMARK SMILES IDX 41 67 47 68 49 69 42 70 43 71 44 72 45 73 46 74 72 75 73 76
REMARK SMILES IDX 82 77 74 78 75 79 81 80 83 81 76 82 77 83 78 84 79 85 80 86
REMARK SMILES IDX 56 87 57 88 66 89 58 90 59 91 65 92 67 93 60 94 61 95 62 96
REMARK SMILES IDX 63 97 64 98
REMARK H PARENT 6 15 9 18 88 48 54 59
REMARK Flexibility Score: inf
ROOT
ATOM      1  C   UNL A   1      33.696  30.958  27.516  1.00  0.00     0.202 C 
ENDROOT
BRANCH   1   2
ATOM      2  O   UNL A   1      33.793  29.626  27.001  1.00  0.00    -0.374 OA
BRANCH   2   3
ATOM      3  C   UNL A   1      32.540  28.958  26.863  1.00  0.00     0.202 C 
BRANCH   3   4
ATOM      4  C   UNL A   1      32.514  27.872  25.763  1.00  0.00     0.261 C 
BRANCH   4   5
ATOM      5  O   UNL A   1      32.887  26.548  26.215  1.00  0.00    -0.461 OA
BRANCH   5   6
ATOM      6  C   UNL A   1      31.914  25.605  26.262  1.00  0.00     0.331 C 
ATOM      7  O   UNL A   1      30.748  25.874  26.537  1.00  0.00    -0.249 OA
BRANCH   6   8
ATOM      8  C   UNL A   1      32.385  24.172  25.806  1.00  0.00     0.139 C 
BRANCH   8   9
ATOM      9  C   UNL A   1      31.046  23.473  25.347  1.00  0.00     0.037 C 
ATOM     10  C   UNL A   1      30.415  22.541  26.385  1.00  0.00     0.007 C 
ENDBRANCH   8   9
BRANCH   8  11
ATOM     11  C   UNL A   1      32.997  23.279  26.904  1.00  0.00     0.037 C 
ATOM     12  C   UNL A   1      34.525  23.338  27.003  1.00  0.00     0.007 C 
ENDBRANCH   8  11
BRANCH   8  13
ATOM     13  N   UNL A   1      33.244  24.254  24.566  1.00  0.00    -0.322 N 
ATOM     14  C   UNL A   1      33.831  23.523  23.615  1.00  0.00     0.315 C 
ATOM     15  H   UNL A   1      33.449  25.203  24.395  1.00  0.00     0.166 HD
ATOM     16  O   UNL A   1      34.419  24.165  22.737  1.00  0.00    -0.249 OA
ATOM     17  N   UNL A   1      33.882  22.192  23.526  1.00  0.00    -0.335 N 
ATOM     18  H   UNL A   1      34.365  21.878  22.728  1.00  0.00     0.165 HD
BRANCH  17  19
ATOM     19  C   UNL A   1      33.379  21.107  24.347  1.00  0.00     0.083 C 
ATOM     20  C   UNL A   1      32.261  20.327  23.659  1.00  0.00     0.025 C 
ATOM     21  C   UNL A   1      34.496  20.274  24.995  1.00  0.00     0.025 C 
ATOM     22  C   UNL A   1      32.605  18.942  23.179  1.00  0.00     0.008 C 
ATOM     23  C   UNL A   1      34.673  18.849  24.490  1.00  0.00     0.008 C 
ATOM     24  C   UNL A   1      33.331  18.137  24.262  1.00  0.00    -0.035 C 
ATOM     25  C   UNL A   1      33.517  16.721  23.721  1.00  0.00     0.011 C 
ATOM     26  C   UNL A   1      32.549  18.016  25.587  1.00  0.00     0.011 C 
ENDBRANCH  17  19
ENDBRANCH   8  13
ENDBRANCH   6   8
ENDBRANCH   5   6
ENDBRANCH   4   5
ENDBRANCH   3   4
ENDBRANCH   2   3
ENDBRANCH   1   2
BRANCH   1  27
ATOM     27  C   UNL A   1      34.927  31.397  28.312  1.00  0.00     0.261 C 
BRANCH  27  28
ATOM     28  O   UNL A   1      35.563  30.274  28.965  1.00  0.00    -0.460 OA
BRANCH  28  29
ATOM     29  C   UNL A   1      36.350  30.556  30.029  1.00  0.00     0.338 C 
ATOM     30  O   UNL A   1      35.976  30.920  31.134  1.00  0.00    -0.246 OA
BRANCH  29  31
ATOM     31  C   UNL A   1      37.779  30.289  29.713  1.00  0.00     0.060 A 
ATOM     32  C   UNL A   1      38.111  29.978  28.388  1.00  0.00     0.016 A 
ATOM     33  C   UNL A   1      38.786  30.317  30.686  1.00  0.00     0.016 A 
ATOM     34  C   UNL A   1      39.436  29.687  28.034  1.00  0.00     0.010 A 
ATOM     35  C   UNL A   1      40.114  30.020  30.328  1.00  0.00     0.010 A 
ATOM     36  C   UNL A   1      40.449  29.685  29.003  1.00  0.00    -0.014 A 
BRANCH  36  37
ATOM     37  C   UNL A   1      41.820  29.204  28.659  1.00  0.00     0.031 A 
ATOM     38  C   UNL A   1      42.941  30.196  28.571  1.00  0.00     0.074 A 
ATOM     39  C   UNL A   1      42.102  27.904  28.444  1.00  0.00     0.049 A 
ATOM     40  N   UNL A   1      44.204  29.978  28.312  1.00  0.00    -0.248 NA
ATOM     41  C   UNL A   1      42.607  31.603  28.837  1.00  0.00     0.031 C 
ATOM     42  C   UNL A   1      41.152  26.818  28.591  1.00  0.00     0.029 A 
ATOM     43  N   UNL A   1      43.258  27.271  28.046  1.00  0.00    -0.354 N 
ATOM     44  C   UNL A   1      44.825  31.211  28.414  1.00  0.00     0.074 A 
ATOM     45  C   UNL A   1      43.793  32.183  28.713  1.00  0.00     0.031 C 
ATOM     46  C   UNL A   1      41.730  25.664  28.221  1.00  0.00     0.029 A 
ATOM     47  C   UNL A   1      43.096  25.924  27.808  1.00  0.00     0.049 A 
ATOM     48  H   UNL A   1      44.119  27.735  27.943  1.00  0.00     0.167 HD
ATOM     49  C   UNL A   1      46.141  31.502  28.294  1.00  0.00     0.037 A 
ATOM     50  C   UNL A   1      43.927  24.988  27.309  1.00  0.00     0.037 A 
ATOM     51  C   UNL A   1      47.167  30.543  27.983  1.00  0.00     0.049 A 
ATOM     52  C   UNL A   1      45.351  25.363  27.038  1.00  0.00     0.074 A 
ATOM     53  C   UNL A   1      48.533  30.751  27.897  1.00  0.00     0.029 A 
ATOM     54  N   UNL A   1      46.948  29.209  27.678  1.00  0.00    -0.354 N 
ATOM     55  N   UNL A   1      45.937  26.518  27.231  1.00  0.00    -0.248 NA
ATOM     56  C   UNL A   1      46.237  24.313  26.517  1.00  0.00     0.031 C 
ATOM     57  C   UNL A   1      49.132  29.557  27.481  1.00  0.00     0.029 A 
ATOM     58  C   UNL A   1      48.146  28.594  27.350  1.00  0.00     0.049 A 
ATOM     59  H   UNL A   1      46.069  28.764  27.690  1.00  0.00     0.167 HD
ATOM     60  C   UNL A   1      47.268  26.326  26.894  1.00  0.00     0.074 A 
ATOM     61  C   UNL A   1      47.403  24.944  26.481  1.00  0.00     0.031 C 
ATOM     62  C   UNL A   1      48.283  27.220  26.938  1.00  0.00     0.037 A 
BRANCH  49  63
ATOM     63  C   UNL A   1      46.541  32.932  28.484  1.00  0.00     0.058 A 
ATOM     64  C   UNL A   1      46.905  33.429  29.744  1.00  0.00     0.135 A 
ATOM     65  C   UNL A   1      46.590  33.805  27.387  1.00  0.00     0.135 A 
ATOM     66  F   UNL A   1      46.854  32.635  30.825  1.00  0.00    -0.206 F 
ATOM     67  C   UNL A   1      47.292  34.753  29.914  1.00  0.00     0.059 A 
ATOM     68  C   UNL A   1      46.993  35.127  27.530  1.00  0.00     0.059 A 
ATOM     69  F   UNL A   1      46.241  33.374  26.164  1.00  0.00    -0.206 F 
ATOM     70  C   UNL A   1      47.332  35.594  28.800  1.00  0.00     0.060 A 
BRANCH  70  71
ATOM     71  S   UNL A   1      47.845  37.307  29.033  1.00  0.00     0.124 S 
ATOM     72  O   UNL A   1      48.164  37.703  27.664  1.00  0.00    -0.237 OA
ATOM     73  O   UNL A   1      46.649  37.916  29.606  1.00  0.00    -0.237 OA
ATOM     74  O   UNL A   1      48.986  37.200  29.937  1.00  0.00    -0.744 OA
ENDBRANCH  70  71
ENDBRANCH  49  63
BRANCH  50  75
ATOM     75  C   UNL A   1      43.435  23.610  27.021  1.00  0.00     0.058 A 
ATOM     76  C   UNL A   1      43.291  22.654  28.035  1.00  0.00     0.135 A 
ATOM     77  C   UNL A   1      43.128  23.218  25.707  1.00  0.00     0.135 A 
ATOM     78  F   UNL A   1      43.573  22.978  29.306  1.00  0.00    -0.206 F 
ATOM     79  C   UNL A   1      42.890  21.349  27.757  1.00  0.00     0.059 A 
ATOM     80  C   UNL A   1      42.708  21.924  25.406  1.00  0.00     0.059 A 
ATOM     81  F   UNL A   1      43.234  24.097  24.699  1.00  0.00    -0.206 F 
ATOM     82  C   UNL A   1      42.607  20.992  26.437  1.00  0.00     0.060 A 
BRANCH  82  83
ATOM     83  S   UNL A   1      42.082  19.298  26.088  1.00  0.00     0.124 S 
ATOM     84  O   UNL A   1      42.851  18.994  24.887  1.00  0.00    -0.237 OA
ATOM     85  O   UNL A   1      42.487  18.594  27.301  1.00  0.00    -0.237 OA
ATOM     86  O   UNL A   1      40.640  19.427  25.900  1.00  0.00    -0.744 OA
ENDBRANCH  82  83
ENDBRANCH  50  75
BRANCH  62  87
ATOM     87  C   UNL A   1      49.647  26.736  26.544  1.00  0.00     0.058 A 
ATOM     88  C   UNL A   1      50.453  26.017  27.437  1.00  0.00     0.135 A 
ATOM     89  C   UNL A   1      50.123  26.934  25.237  1.00  0.00     0.135 A 
ATOM     90  F   UNL A   1      50.049  25.817  28.702  1.00  0.00    -0.206 F 
ATOM     91  C   UNL A   1      51.688  25.509  27.051  1.00  0.00     0.059 A 
ATOM     92  C   UNL A   1      51.344  26.414  24.822  1.00  0.00     0.059 A 
ATOM     93  F   UNL A   1      49.388  27.617  24.346  1.00  0.00    -0.206 F 
ATOM     94  C   UNL A   1      52.120  25.704  25.737  1.00  0.00     0.060 A 
BRANCH  94  95
ATOM     95  S   UNL A   1      53.690  24.975  25.225  1.00  0.00     0.124 S 
ATOM     96  O   UNL A   1      53.832  25.502  23.871  1.00  0.00    -0.237 OA
ATOM     97  O   UNL A   1      54.620  25.510  26.214  1.00  0.00    -0.237 OA
ATOM     98  O   UNL A   1      53.444  23.539  25.318  1.00  0.00    -0.744 OA
ENDBRANCH  94  95
ENDBRANCH  62  87
ENDBRANCH  36  37
ENDBRANCH  29  31
ENDBRANCH  28  29
ENDBRANCH  27  28
ENDBRANCH   1  27
TORSDOF 21
ENDMDL
