MODEL 1
REMARK VINA RESULT:     -12.3      0.000      0.000
REMARK SMILES O=C(OCCOCCOC(=O)c1ccc(N2C(=O)C[C@H](c3c[nH]c4ccccc34)C2=O)cc1O)c1ccc(-c2c3nc(c(-c4c(F)cc(S(=O)(=O)[O-])cc4F)c4ccc([nH]4)c(-c4c(F)cc(S(=O)(=O)[O-])cc4F)c4nc(c(-c5c(F)cc(S(=O)(=O)[O-])cc5F)c5ccc2[nH]5)C=C4)C=C3)cc1
REMARK SMILES IDX 5 1 4 2 3 3 2 4 1 5 35 6 36 7 100 8 37 9 99 10 38 11 39 12
REMARK SMILES IDX 40 13 93 14 41 15 98 16 92 17 94 18 42 19 97 20 91 21 90 22
REMARK SMILES IDX 43 24 77 25 56 26 76 27 57 28 60 29 75 30 95 31 58 32 59 33
REMARK SMILES IDX 74 35 96 36 61 37 44 38 45 39 54 40 46 41 47 42 53 43 55 44
REMARK SMILES IDX 48 45 49 46 50 47 51 48 52 49 78 50 79 51 88 52 80 53 81 54
REMARK SMILES IDX 87 55 89 56 82 57 83 58 84 59 85 60 86 61 62 62 63 63 72 64
REMARK SMILES IDX 64 65 65 66 71 67 73 68 66 69 67 70 68 71 69 72 70 73 6 74
REMARK SMILES IDX 7 75 8 76 9 77 10 78 11 79 12 80 13 81 33 82 14 83 32 84
REMARK SMILES IDX 15 85 34 86 16 88 17 89 30 90 18 91 19 92 20 93 31 94 21 95
REMARK SMILES IDX 22 96 29 97 23 98 24 99 28 100 25 102 27 103 26 104
REMARK H PARENT 94 23 60 34 34 87 23 101
REMARK Flexibility Score: inf
ROOT
ATOM      1  C   UNL A   1      42.450  22.021  26.000  1.00  0.00     0.202 C 
ENDROOT
BRANCH   1   2
ATOM      2  C   UNL A   1      42.758  23.498  25.748  1.00  0.00     0.261 C 
BRANCH   2   3
ATOM      3  O   UNL A   1      41.654  24.318  26.162  1.00  0.00    -0.460 OA
BRANCH   3   4
ATOM      4  C   UNL A   1      41.558  25.668  26.136  1.00  0.00     0.338 C 
ATOM      5  O   UNL A   1      41.588  26.236  25.045  1.00  0.00    -0.246 OA
BRANCH   4   6
ATOM      6  C   UNL A   1      41.411  26.512  27.361  1.00  0.00     0.060 A 
ATOM      7  C   UNL A   1      40.506  26.268  28.395  1.00  0.00     0.016 A 
ATOM      8  C   UNL A   1      42.314  27.578  27.518  1.00  0.00     0.016 A 
ATOM      9  C   UNL A   1      40.440  27.083  29.513  1.00  0.00     0.010 A 
ATOM     10  C   UNL A   1      42.287  28.381  28.663  1.00  0.00     0.010 A 
ATOM     11  C   UNL A   1      41.331  28.140  29.656  1.00  0.00    -0.014 A 
BRANCH  11  12
ATOM     12  C   UNL A   1      41.146  29.024  30.817  1.00  0.00     0.031 A 
ATOM     13  C   UNL A   1      40.003  29.991  30.794  1.00  0.00     0.074 A 
ATOM     14  C   UNL A   1      41.891  28.825  31.919  1.00  0.00     0.049 A 
ATOM     15  N   UNL A   1      39.629  30.849  31.701  1.00  0.00    -0.248 NA
ATOM     16  C   UNL A   1      39.154  29.975  29.590  1.00  0.00     0.031 C 
ATOM     17  C   UNL A   1      42.934  27.802  32.055  1.00  0.00     0.029 A 
ATOM     18  N   UNL A   1      41.860  29.430  33.145  1.00  0.00    -0.354 N 
ATOM     19  C   UNL A   1      38.520  31.495  31.169  1.00  0.00     0.074 A 
ATOM     20  C   UNL A   1      38.280  30.932  29.861  1.00  0.00     0.031 C 
ATOM     21  C   UNL A   1      43.415  27.828  33.308  1.00  0.00     0.029 A 
ATOM     22  C   UNL A   1      42.767  28.910  34.039  1.00  0.00     0.049 A 
ATOM     23  H   UNL A   1      41.246  30.167  33.366  1.00  0.00     0.167 HD
ATOM     24  C   UNL A   1      37.781  32.478  31.732  1.00  0.00     0.037 A 
ATOM     25  C   UNL A   1      43.050  29.293  35.298  1.00  0.00     0.037 A 
ATOM     26  C   UNL A   1      38.057  33.013  33.037  1.00  0.00     0.049 A 
ATOM     27  C   UNL A   1      42.275  30.453  35.863  1.00  0.00     0.074 A 
ATOM     28  C   UNL A   1      37.438  34.059  33.695  1.00  0.00     0.029 A 
ATOM     29  N   UNL A   1      39.046  32.530  33.887  1.00  0.00    -0.354 N 
ATOM     30  N   UNL A   1      41.279  31.118  35.323  1.00  0.00    -0.248 NA
ATOM     31  C   UNL A   1      42.670  30.929  37.193  1.00  0.00     0.031 C 
ATOM     32  C   UNL A   1      38.082  34.235  34.925  1.00  0.00     0.029 A 
ATOM     33  C   UNL A   1      39.068  33.267  35.057  1.00  0.00     0.049 A 
ATOM     34  H   UNL A   1      39.643  31.774  33.685  1.00  0.00     0.167 HD
ATOM     35  C   UNL A   1      40.916  32.085  36.252  1.00  0.00     0.074 A 
ATOM     36  C   UNL A   1      41.790  31.903  37.396  1.00  0.00     0.031 C 
ATOM     37  C   UNL A   1      39.955  33.040  36.173  1.00  0.00     0.037 A 
BRANCH  24  38
ATOM     38  C   UNL A   1      36.686  33.073  30.892  1.00  0.00     0.058 A 
ATOM     39  C   UNL A   1      36.948  33.961  29.838  1.00  0.00     0.135 A 
ATOM     40  C   UNL A   1      35.342  32.794  31.192  1.00  0.00     0.135 A 
ATOM     41  F   UNL A   1      38.212  34.289  29.528  1.00  0.00    -0.206 F 
ATOM     42  C   UNL A   1      35.918  34.583  29.137  1.00  0.00     0.059 A 
ATOM     43  C   UNL A   1      34.296  33.385  30.490  1.00  0.00     0.059 A 
ATOM     44  F   UNL A   1      35.034  31.962  32.200  1.00  0.00    -0.206 F 
ATOM     45  C   UNL A   1      34.594  34.296  29.477  1.00  0.00     0.060 A 
BRANCH  45  46
ATOM     46  S   UNL A   1      33.267  35.145  28.596  1.00  0.00     0.124 S 
ATOM     47  O   UNL A   1      34.020  36.072  27.758  1.00  0.00    -0.237 OA
ATOM     48  O   UNL A   1      32.607  34.050  27.893  1.00  0.00    -0.237 OA
ATOM     49  O   UNL A   1      32.486  35.758  29.666  1.00  0.00    -0.744 OA
ENDBRANCH  45  46
ENDBRANCH  24  38
BRANCH  25  50
ATOM     50  C   UNL A   1      44.126  28.615  36.073  1.00  0.00     0.058 A 
ATOM     51  C   UNL A   1      43.851  27.517  36.901  1.00  0.00     0.135 A 
ATOM     52  C   UNL A   1      45.459  29.053  35.999  1.00  0.00     0.135 A 
ATOM     53  F   UNL A   1      42.595  27.061  37.016  1.00  0.00    -0.206 F 
ATOM     54  C   UNL A   1      44.852  26.889  37.639  1.00  0.00     0.059 A 
ATOM     55  C   UNL A   1      46.482  28.424  36.705  1.00  0.00     0.059 A 
ATOM     56  F   UNL A   1      45.784  30.094  35.217  1.00  0.00    -0.206 F 
ATOM     57  C   UNL A   1      46.166  27.351  37.534  1.00  0.00     0.060 A 
BRANCH  57  58
ATOM     58  S   UNL A   1      47.463  26.518  38.476  1.00  0.00     0.124 S 
ATOM     59  O   UNL A   1      47.249  25.125  38.102  1.00  0.00    -0.237 OA
ATOM     60  O   UNL A   1      48.674  27.141  37.952  1.00  0.00    -0.237 OA
ATOM     61  O   UNL A   1      47.143  26.855  39.860  1.00  0.00    -0.744 OA
ENDBRANCH  57  58
ENDBRANCH  25  50
BRANCH  37  62
ATOM     62  C   UNL A   1      39.789  33.928  37.369  1.00  0.00     0.058 A 
ATOM     63  C   UNL A   1      38.914  33.597  38.414  1.00  0.00     0.135 A 
ATOM     64  C   UNL A   1      40.558  35.096  37.492  1.00  0.00     0.135 A 
ATOM     65  F   UNL A   1      38.154  32.493  38.336  1.00  0.00    -0.206 F 
ATOM     66  C   UNL A   1      38.789  34.408  39.535  1.00  0.00     0.059 A 
ATOM     67  C   UNL A   1      40.468  35.907  38.616  1.00  0.00     0.059 A 
ATOM     68  F   UNL A   1      41.417  35.446  36.522  1.00  0.00    -0.206 F 
ATOM     69  C   UNL A   1      39.573  35.562  39.627  1.00  0.00     0.060 A 
BRANCH  69  70
ATOM     70  S   UNL A   1      39.432  36.587  41.104  1.00  0.00     0.124 S 
ATOM     71  O   UNL A   1      40.827  36.700  41.517  1.00  0.00    -0.237 OA
ATOM     72  O   UNL A   1      38.824  37.807  40.582  1.00  0.00    -0.237 OA
ATOM     73  O   UNL A   1      38.578  35.796  41.984  1.00  0.00    -0.744 OA
ENDBRANCH  69  70
ENDBRANCH  37  62
ENDBRANCH  11  12
ENDBRANCH   4   6
ENDBRANCH   3   4
ENDBRANCH   2   3
ENDBRANCH   1   2
BRANCH   1  74
ATOM     74  O   UNL A   1      41.941  21.729  27.302  1.00  0.00    -0.374 OA
BRANCH  74  75
ATOM     75  C   UNL A   1      40.529  21.497  27.384  1.00  0.00     0.202 C 
BRANCH  75  76
ATOM     76  C   UNL A   1      40.050  20.813  26.104  1.00  0.00     0.261 C 
BRANCH  76  77
ATOM     77  O   UNL A   1      38.848  21.473  25.683  1.00  0.00    -0.460 OA
BRANCH  77  78
ATOM     78  C   UNL A   1      37.965  20.689  25.019  1.00  0.00     0.341 C 
ATOM     79  O   UNL A   1      37.979  19.474  24.899  1.00  0.00    -0.246 OA
BRANCH  78  80
ATOM     80  C   UNL A   1      36.792  21.518  24.689  1.00  0.00     0.101 A 
ATOM     81  C   UNL A   1      37.034  22.816  24.218  1.00  0.00     0.022 A 
ATOM     82  C   UNL A   1      35.486  21.044  24.776  1.00  0.00     0.132 A 
ATOM     83  C   UNL A   1      35.978  23.621  23.793  1.00  0.00     0.028 A 
ATOM     84  C   UNL A   1      34.426  21.876  24.427  1.00  0.00     0.074 A 
ATOM     85  C   UNL A   1      34.661  23.172  23.937  1.00  0.00     0.055 A 
BRANCH  82  86
ATOM     86  O   UNL A   1      35.234  19.783  25.234  1.00  0.00    -0.507 OA
ATOM     87  H   UNL A   1      34.518  19.629  25.818  1.00  0.00     0.293 HD
ENDBRANCH  82  86
BRANCH  85  88
ATOM     88  N   UNL A   1      33.582  24.057  23.727  1.00  0.00    -0.250 N 
ATOM     89  C   UNL A   1      33.017  24.230  22.488  1.00  0.00     0.234 C 
ATOM     90  C   UNL A   1      32.892  24.723  24.715  1.00  0.00     0.241 C 
ATOM     91  O   UNL A   1      33.406  23.814  21.405  1.00  0.00    -0.274 OA
ATOM     92  C   UNL A   1      31.700  24.907  22.663  1.00  0.00     0.119 C 
ATOM     93  C   UNL A   1      31.756  25.487  24.069  1.00  0.00     0.121 C 
ATOM     94  O   UNL A   1      33.149  24.748  25.913  1.00  0.00    -0.273 OA
BRANCH  93  95
ATOM     95  C   UNL A   1      31.903  26.985  24.037  1.00  0.00    -0.010 A 
ATOM     96  C   UNL A   1      32.079  27.831  22.959  1.00  0.00     0.088 A 
ATOM     97  C   UNL A   1      31.859  27.823  25.207  1.00  0.00     0.003 A 
ATOM     98  N   UNL A   1      32.132  29.121  23.422  1.00  0.00    -0.361 N 
ATOM     99  C   UNL A   1      31.982  29.146  24.790  1.00  0.00     0.046 A 
ATOM    100  C   UNL A   1      31.699  27.565  26.585  1.00  0.00     0.010 A 
ATOM    101  H   UNL A   1      32.262  29.916  22.857  1.00  0.00     0.166 HD
ATOM    102  C   UNL A   1      31.946  30.226  25.681  1.00  0.00     0.026 A 
ATOM    103  C   UNL A   1      31.650  28.630  27.489  1.00  0.00     0.001 A 
ATOM    104  C   UNL A   1      31.772  29.941  27.041  1.00  0.00     0.002 A 
ENDBRANCH  93  95
ENDBRANCH  85  88
ENDBRANCH  78  80
ENDBRANCH  77  78
ENDBRANCH  76  77
ENDBRANCH  75  76
ENDBRANCH  74  75
ENDBRANCH   1  74
TORSDOF 20
ENDMDL
MODEL 2
REMARK VINA RESULT:     -12.3      1.195      2.093
REMARK SMILES O=C(OCCOCCOC(=O)c1ccc(N2C(=O)C[C@H](c3c[nH]c4ccccc34)C2=O)cc1O)c1ccc(-c2c3nc(c(-c4c(F)cc(S(=O)(=O)[O-])cc4F)c4ccc([nH]4)c(-c4c(F)cc(S(=O)(=O)[O-])cc4F)c4nc(c(-c5c(F)cc(S(=O)(=O)[O-])cc5F)c5ccc2[nH]5)C=C4)C=C3)cc1
REMARK SMILES IDX 5 1 4 2 3 3 2 4 1 5 35 6 36 7 100 8 37 9 99 10 38 11 39 12
REMARK SMILES IDX 40 13 93 14 41 15 98 16 92 17 94 18 42 19 97 20 91 21 90 22
REMARK SMILES IDX 43 24 77 25 56 26 76 27 57 28 60 29 75 30 95 31 58 32 59 33
REMARK SMILES IDX 74 35 96 36 61 37 44 38 45 39 54 40 46 41 47 42 53 43 55 44
REMARK SMILES IDX 48 45 49 46 50 47 51 48 52 49 78 50 79 51 88 52 80 53 81 54
REMARK SMILES IDX 87 55 89 56 82 57 83 58 84 59 85 60 86 61 62 62 63 63 72 64
REMARK SMILES IDX 64 65 65 66 71 67 73 68 66 69 67 70 68 71 69 72 70 73 6 74
REMARK SMILES IDX 7 75 8 76 9 77 10 78 11 79 12 80 13 81 33 82 14 83 32 84
REMARK SMILES IDX 15 85 34 86 16 88 17 89 30 90 18 91 19 92 20 93 31 94 21 95
REMARK SMILES IDX 22 96 29 97 23 98 24 99 28 100 25 102 27 103 26 104
REMARK H PARENT 94 23 60 34 34 87 23 101
REMARK Flexibility Score: inf
ROOT
ATOM      1  C   UNL A   1      40.292  21.612  26.431  1.00  0.00     0.202 C 
ENDROOT
BRANCH   1   2
ATOM      2  C   UNL A   1      40.041  22.983  27.063  1.00  0.00     0.261 C 
BRANCH   2   3
ATOM      3  O   UNL A   1      41.012  23.934  26.597  1.00  0.00    -0.460 OA
BRANCH   3   4
ATOM      4  C   UNL A   1      40.887  25.278  26.499  1.00  0.00     0.338 C 
ATOM      5  O   UNL A   1      40.814  25.778  25.378  1.00  0.00    -0.246 OA
BRANCH   4   6
ATOM      6  C   UNL A   1      40.826  26.193  27.679  1.00  0.00     0.060 A 
ATOM      7  C   UNL A   1      39.841  26.157  28.667  1.00  0.00     0.016 A 
ATOM      8  C   UNL A   1      41.890  27.096  27.847  1.00  0.00     0.016 A 
ATOM      9  C   UNL A   1      39.860  27.024  29.747  1.00  0.00     0.010 A 
ATOM     10  C   UNL A   1      41.944  27.946  28.957  1.00  0.00     0.010 A 
ATOM     11  C   UNL A   1      40.911  27.920  29.901  1.00  0.00    -0.014 A 
BRANCH  11  12
ATOM     12  C   UNL A   1      40.823  28.878  31.013  1.00  0.00     0.031 A 
ATOM     13  C   UNL A   1      39.735  29.906  30.976  1.00  0.00     0.074 A 
ATOM     14  C   UNL A   1      41.601  28.699  32.096  1.00  0.00     0.049 A 
ATOM     15  N   UNL A   1      39.446  30.834  31.844  1.00  0.00    -0.248 NA
ATOM     16  C   UNL A   1      38.838  29.870  29.808  1.00  0.00     0.031 C 
ATOM     17  C   UNL A   1      42.590  27.628  32.253  1.00  0.00     0.029 A 
ATOM     18  N   UNL A   1      41.653  29.374  33.285  1.00  0.00    -0.354 N 
ATOM     19  C   UNL A   1      38.353  31.511  31.318  1.00  0.00     0.074 A 
ATOM     20  C   UNL A   1      38.029  30.889  30.055  1.00  0.00     0.031 C 
ATOM     21  C   UNL A   1      43.123  27.698  33.484  1.00  0.00     0.029 A 
ATOM     22  C   UNL A   1      42.566  28.855  34.173  1.00  0.00     0.049 A 
ATOM     23  H   UNL A   1      41.090  30.157  33.485  1.00  0.00     0.167 HD
ATOM     24  C   UNL A   1      37.693  32.565  31.849  1.00  0.00     0.037 A 
ATOM     25  C   UNL A   1      42.921  29.292  35.396  1.00  0.00     0.037 A 
ATOM     26  C   UNL A   1      38.051  33.157  33.109  1.00  0.00     0.049 A 
ATOM     27  C   UNL A   1      42.235  30.525  35.920  1.00  0.00     0.074 A 
ATOM     28  C   UNL A   1      37.518  34.272  33.727  1.00  0.00     0.029 A 
ATOM     29  N   UNL A   1      39.046  32.667  33.948  1.00  0.00    -0.354 N 
ATOM     30  N   UNL A   1      41.255  31.214  35.379  1.00  0.00    -0.248 NA
ATOM     31  C   UNL A   1      42.709  31.053  37.203  1.00  0.00     0.031 C 
ATOM     32  C   UNL A   1      38.220  34.480  34.919  1.00  0.00     0.029 A 
ATOM     33  C   UNL A   1      39.156  33.467  35.071  1.00  0.00     0.049 A 
ATOM     34  H   UNL A   1      39.592  31.868  33.769  1.00  0.00     0.167 HD
ATOM     35  C   UNL A   1      40.984  32.251  36.263  1.00  0.00     0.074 A 
ATOM     36  C   UNL A   1      41.893  32.085  37.382  1.00  0.00     0.031 C 
ATOM     37  C   UNL A   1      40.075  33.253  36.163  1.00  0.00     0.037 A 
BRANCH  24  38
ATOM     38  C   UNL A   1      36.598  33.172  31.017  1.00  0.00     0.058 A 
ATOM     39  C   UNL A   1      36.865  33.938  29.871  1.00  0.00     0.135 A 
ATOM     40  C   UNL A   1      35.258  33.036  31.415  1.00  0.00     0.135 A 
ATOM     41  F   UNL A   1      38.129  34.129  29.464  1.00  0.00    -0.206 F 
ATOM     42  C   UNL A   1      35.845  34.579  29.172  1.00  0.00     0.059 A 
ATOM     43  C   UNL A   1      34.221  33.648  30.717  1.00  0.00     0.059 A 
ATOM     44  F   UNL A   1      34.948  32.327  32.511  1.00  0.00    -0.206 F 
ATOM     45  C   UNL A   1      34.527  34.436  29.609  1.00  0.00     0.060 A 
BRANCH  45  46
ATOM     46  S   UNL A   1      33.219  35.312  28.725  1.00  0.00     0.124 S 
ATOM     47  O   UNL A   1      33.990  36.264  27.931  1.00  0.00    -0.237 OA
ATOM     48  O   UNL A   1      32.575  34.239  27.975  1.00  0.00    -0.237 OA
ATOM     49  O   UNL A   1      32.415  35.894  29.795  1.00  0.00    -0.744 OA
ENDBRANCH  45  46
ENDBRANCH  24  38
BRANCH  25  50
ATOM     50  C   UNL A   1      43.989  28.598  36.168  1.00  0.00     0.058 A 
ATOM     51  C   UNL A   1      43.701  27.500  36.991  1.00  0.00     0.135 A 
ATOM     52  C   UNL A   1      45.326  29.024  36.098  1.00  0.00     0.135 A 
ATOM     53  F   UNL A   1      42.440  27.056  37.101  1.00  0.00    -0.206 F 
ATOM     54  C   UNL A   1      44.695  26.857  37.726  1.00  0.00     0.059 A 
ATOM     55  C   UNL A   1      46.341  28.380  36.802  1.00  0.00     0.059 A 
ATOM     56  F   UNL A   1      45.663  30.065  35.322  1.00  0.00    -0.206 F 
ATOM     57  C   UNL A   1      46.013  27.305  37.625  1.00  0.00     0.060 A 
BRANCH  57  58
ATOM     58  S   UNL A   1      47.300  26.454  38.564  1.00  0.00     0.124 S 
ATOM     59  O   UNL A   1      46.603  25.248  38.992  1.00  0.00    -0.237 OA
ATOM     60  O   UNL A   1      48.343  26.267  37.559  1.00  0.00    -0.237 OA
ATOM     61  O   UNL A   1      47.627  27.403  39.624  1.00  0.00    -0.744 OA
ENDBRANCH  57  58
ENDBRANCH  25  50
BRANCH  37  62
ATOM     62  C   UNL A   1      40.006  34.216  37.310  1.00  0.00     0.058 A 
ATOM     63  C   UNL A   1      40.737  35.413  37.310  1.00  0.00     0.135 A 
ATOM     64  C   UNL A   1      39.154  33.958  38.397  1.00  0.00     0.135 A 
ATOM     65  F   UNL A   1      41.570  35.697  36.296  1.00  0.00    -0.206 F 
ATOM     66  C   UNL A   1      40.643  36.316  38.362  1.00  0.00     0.059 A 
ATOM     67  C   UNL A   1      39.025  34.860  39.445  1.00  0.00     0.059 A 
ATOM     68  F   UNL A   1      38.426  32.831  38.433  1.00  0.00    -0.206 F 
ATOM     69  C   UNL A   1      39.781  36.030  39.425  1.00  0.00     0.060 A 
BRANCH  69  70
ATOM     70  S   UNL A   1      39.636  37.228  40.767  1.00  0.00     0.124 S 
ATOM     71  O   UNL A   1      38.892  38.303  40.121  1.00  0.00    -0.237 OA
ATOM     72  O   UNL A   1      38.910  36.473  41.783  1.00  0.00    -0.237 OA
ATOM     73  O   UNL A   1      41.025  37.534  41.097  1.00  0.00    -0.744 OA
ENDBRANCH  69  70
ENDBRANCH  37  62
ENDBRANCH  11  12
ENDBRANCH   4   6
ENDBRANCH   3   4
ENDBRANCH   2   3
ENDBRANCH   1   2
BRANCH   1  74
ATOM     74  O   UNL A   1      39.166  21.046  25.760  1.00  0.00    -0.374 OA
BRANCH  74  75
ATOM     75  C   UNL A   1      38.060  21.930  25.541  1.00  0.00     0.202 C 
BRANCH  75  76
ATOM     76  C   UNL A   1      36.878  21.137  24.981  1.00  0.00     0.261 C 
BRANCH  76  77
ATOM     77  O   UNL A   1      35.810  21.220  25.935  1.00  0.00    -0.460 OA
BRANCH  77  78
ATOM     78  C   UNL A   1      34.563  21.140  25.408  1.00  0.00     0.341 C 
ATOM     79  O   UNL A   1      33.873  20.145  25.258  1.00  0.00    -0.246 OA
BRANCH  78  80
ATOM     80  C   UNL A   1      34.037  22.512  25.297  1.00  0.00     0.101 A 
ATOM     81  C   UNL A   1      33.344  22.843  24.124  1.00  0.00     0.022 A 
ATOM     82  C   UNL A   1      34.156  23.449  26.320  1.00  0.00     0.132 A 
ATOM     83  C   UNL A   1      32.734  24.089  23.992  1.00  0.00     0.028 A 
ATOM     84  C   UNL A   1      33.615  24.722  26.156  1.00  0.00     0.074 A 
ATOM     85  C   UNL A   1      32.904  25.054  24.990  1.00  0.00     0.055 A 
BRANCH  82  86
ATOM     86  O   UNL A   1      34.828  23.142  27.468  1.00  0.00    -0.507 OA
ATOM     87  H   UNL A   1      35.426  23.759  27.841  1.00  0.00     0.293 HD
ENDBRANCH  82  86
BRANCH  85  88
ATOM     88  N   UNL A   1      32.488  26.385  24.769  1.00  0.00    -0.250 N 
ATOM     89  C   UNL A   1      32.941  27.118  23.701  1.00  0.00     0.234 C 
ATOM     90  C   UNL A   1      31.509  27.043  25.479  1.00  0.00     0.241 C 
ATOM     91  O   UNL A   1      33.829  26.842  22.906  1.00  0.00    -0.274 OA
ATOM     92  C   UNL A   1      32.052  28.304  23.534  1.00  0.00     0.119 C 
ATOM     93  C   UNL A   1      31.310  28.410  24.859  1.00  0.00     0.121 C 
ATOM     94  O   UNL A   1      30.912  26.641  26.470  1.00  0.00    -0.273 OA
BRANCH  93  95
ATOM     95  C   UNL A   1      31.801  29.580  25.668  1.00  0.00    -0.010 A 
ATOM     96  C   UNL A   1      31.196  30.798  25.915  1.00  0.00     0.088 A 
ATOM     97  C   UNL A   1      33.055  29.600  26.375  1.00  0.00     0.003 A 
ATOM     98  N   UNL A   1      32.016  31.533  26.733  1.00  0.00    -0.361 N 
ATOM     99  C   UNL A   1      33.149  30.817  27.045  1.00  0.00     0.046 A 
ATOM    100  C   UNL A   1      34.106  28.670  26.519  1.00  0.00     0.010 A 
ATOM    101  H   UNL A   1      31.822  32.444  27.051  1.00  0.00     0.166 HD
ATOM    102  C   UNL A   1      34.239  31.150  27.858  1.00  0.00     0.026 A 
ATOM    103  C   UNL A   1      35.198  28.979  27.336  1.00  0.00     0.001 A 
ATOM    104  C   UNL A   1      35.261  30.203  27.995  1.00  0.00     0.002 A 
ENDBRANCH  93  95
ENDBRANCH  85  88
ENDBRANCH  78  80
ENDBRANCH  77  78
ENDBRANCH  76  77
ENDBRANCH  75  76
ENDBRANCH  74  75
ENDBRANCH   1  74
TORSDOF 20
ENDMDL
MODEL 3
REMARK VINA RESULT:     -12.1      1.387      8.225
REMARK SMILES O=C(OCCOCCOC(=O)c1ccc(N2C(=O)C[C@H](c3c[nH]c4ccccc34)C2=O)cc1O)c1ccc(-c2c3nc(c(-c4c(F)cc(S(=O)(=O)[O-])cc4F)c4ccc([nH]4)c(-c4c(F)cc(S(=O)(=O)[O-])cc4F)c4nc(c(-c5c(F)cc(S(=O)(=O)[O-])cc5F)c5ccc2[nH]5)C=C4)C=C3)cc1
REMARK SMILES IDX 5 1 4 2 3 3 2 4 1 5 35 6 36 7 100 8 37 9 99 10 38 11 39 12
REMARK SMILES IDX 40 13 93 14 41 15 98 16 92 17 94 18 42 19 97 20 91 21 90 22
REMARK SMILES IDX 43 24 77 25 56 26 76 27 57 28 60 29 75 30 95 31 58 32 59 33
REMARK SMILES IDX 74 35 96 36 61 37 44 38 45 39 54 40 46 41 47 42 53 43 55 44
REMARK SMILES IDX 48 45 49 46 50 47 51 48 52 49 78 50 79 51 88 52 80 53 81 54
REMARK SMILES IDX 87 55 89 56 82 57 83 58 84 59 85 60 86 61 62 62 63 63 72 64
REMARK SMILES IDX 64 65 65 66 71 67 73 68 66 69 67 70 68 71 69 72 70 73 6 74
REMARK SMILES IDX 7 75 8 76 9 77 10 78 11 79 12 80 13 81 33 82 14 83 32 84
REMARK SMILES IDX 15 85 34 86 16 88 17 89 30 90 18 91 19 92 20 93 31 94 21 95
REMARK SMILES IDX 22 96 29 97 23 98 24 99 28 100 25 102 27 103 26 104
REMARK H PARENT 94 23 60 34 34 87 23 101
REMARK Flexibility Score: inf
ROOT
ATOM      1  C   UNL A   1      40.775  21.654  27.170  1.00  0.00     0.202 C 
ENDROOT
BRANCH   1   2
ATOM      2  C   UNL A   1      41.880  22.528  26.570  1.00  0.00     0.261 C 
BRANCH   2   3
ATOM      3  O   UNL A   1      41.334  23.766  26.089  1.00  0.00    -0.460 OA
BRANCH   3   4
ATOM      4  C   UNL A   1      41.877  25.003  26.158  1.00  0.00     0.338 C 
ATOM      5  O   UNL A   1      42.616  25.369  25.246  1.00  0.00    -0.246 OA
BRANCH   4   6
ATOM      6  C   UNL A   1      41.626  25.957  27.281  1.00  0.00     0.060 A 
ATOM      7  C   UNL A   1      42.282  27.177  27.454  1.00  0.00     0.016 A 
ATOM      8  C   UNL A   1      40.590  25.637  28.176  1.00  0.00     0.016 A 
ATOM      9  C   UNL A   1      41.981  28.023  28.509  1.00  0.00     0.010 A 
ATOM     10  C   UNL A   1      40.247  26.504  29.219  1.00  0.00     0.010 A 
ATOM     11  C   UNL A   1      40.961  27.694  29.394  1.00  0.00    -0.014 A 
BRANCH  11  12
ATOM     12  C   UNL A   1      40.757  28.585  30.547  1.00  0.00     0.031 A 
ATOM     13  C   UNL A   1      41.737  28.515  31.676  1.00  0.00     0.074 A 
ATOM     14  C   UNL A   1      39.811  29.540  30.478  1.00  0.00     0.049 A 
ATOM     15  N   UNL A   1      41.777  29.209  32.779  1.00  0.00    -0.248 NA
ATOM     16  C   UNL A   1      42.834  27.543  31.534  1.00  0.00     0.031 C 
ATOM     17  C   UNL A   1      38.909  29.750  29.341  1.00  0.00     0.029 A 
ATOM     18  N   UNL A   1      39.481  30.539  31.352  1.00  0.00    -0.354 N 
ATOM     19  C   UNL A   1      42.884  28.741  33.475  1.00  0.00     0.074 A 
ATOM     20  C   UNL A   1      43.490  27.703  32.673  1.00  0.00     0.031 C 
ATOM     21  C   UNL A   1      38.154  30.835  29.574  1.00  0.00     0.029 A 
ATOM     22  C   UNL A   1      38.469  31.353  30.899  1.00  0.00     0.049 A 
ATOM     23  H   UNL A   1      39.925  30.663  32.222  1.00  0.00     0.167 HD
ATOM     24  C   UNL A   1      43.338  29.144  34.684  1.00  0.00     0.037 A 
ATOM     25  C   UNL A   1      37.857  32.386  31.509  1.00  0.00     0.037 A 
ATOM     26  C   UNL A   1      42.702  30.179  35.452  1.00  0.00     0.049 A 
ATOM     27  C   UNL A   1      38.322  32.749  32.894  1.00  0.00     0.074 A 
ATOM     28  C   UNL A   1      43.010  30.633  36.720  1.00  0.00     0.029 A 
ATOM     29  N   UNL A   1      41.617  30.928  35.008  1.00  0.00    -0.354 N 
ATOM     30  N   UNL A   1      39.319  32.246  33.586  1.00  0.00    -0.248 NA
ATOM     31  C   UNL A   1      37.573  33.802  33.589  1.00  0.00     0.031 C 
ATOM     32  C   UNL A   1      42.084  31.626  37.059  1.00  0.00     0.029 A 
ATOM     33  C   UNL A   1      41.230  31.828  35.983  1.00  0.00     0.049 A 
ATOM     34  H   UNL A   1      41.186  30.829  34.128  1.00  0.00     0.167 HD
ATOM     35  C   UNL A   1      39.328  32.929  34.795  1.00  0.00     0.074 A 
ATOM     36  C   UNL A   1      38.247  33.895  34.730  1.00  0.00     0.031 C 
ATOM     37  C   UNL A   1      40.148  32.776  35.866  1.00  0.00     0.037 A 
BRANCH  24  38
ATOM     38  C   UNL A   1      44.509  28.396  35.256  1.00  0.00     0.058 A 
ATOM     39  C   UNL A   1      44.351  27.242  36.039  1.00  0.00     0.135 A 
ATOM     40  C   UNL A   1      45.813  28.883  35.066  1.00  0.00     0.135 A 
ATOM     41  F   UNL A   1      43.125  26.751  36.281  1.00  0.00    -0.206 F 
ATOM     42  C   UNL A   1      45.439  26.620  36.647  1.00  0.00     0.059 A 
ATOM     43  C   UNL A   1      46.917  28.265  35.644  1.00  0.00     0.059 A 
ATOM     44  F   UNL A   1      46.020  29.991  34.337  1.00  0.00    -0.206 F 
ATOM     45  C   UNL A   1      46.718  27.146  36.451  1.00  0.00     0.060 A 
BRANCH  45  46
ATOM     46  S   UNL A   1      48.115  26.362  37.284  1.00  0.00     0.124 S 
ATOM     47  O   UNL A   1      49.225  27.203  36.844  1.00  0.00    -0.237 OA
ATOM     48  O   UNL A   1      47.749  26.483  38.691  1.00  0.00    -0.237 OA
ATOM     49  O   UNL A   1      48.109  25.003  36.753  1.00  0.00    -0.744 OA
ENDBRANCH  45  46
ENDBRANCH  24  38
BRANCH  25  50
ATOM     50  C   UNL A   1      36.730  33.098  30.846  1.00  0.00     0.058 A 
ATOM     51  C   UNL A   1      36.957  34.044  29.836  1.00  0.00     0.135 A 
ATOM     52  C   UNL A   1      35.397  32.846  31.211  1.00  0.00     0.135 A 
ATOM     53  F   UNL A   1      38.210  34.330  29.453  1.00  0.00    -0.206 F 
ATOM     54  C   UNL A   1      35.907  34.725  29.222  1.00  0.00     0.059 A 
ATOM     55  C   UNL A   1      34.329  33.492  30.593  1.00  0.00     0.059 A 
ATOM     56  F   UNL A   1      35.118  31.946  32.166  1.00  0.00    -0.206 F 
ATOM     57  C   UNL A   1      34.595  34.442  29.608  1.00  0.00     0.060 A 
BRANCH  57  58
ATOM     58  S   UNL A   1      33.237  35.310  28.793  1.00  0.00     0.124 S 
ATOM     59  O   UNL A   1      33.956  36.279  27.976  1.00  0.00    -0.237 OA
ATOM     60  O   UNL A   1      32.571  34.232  28.069  1.00  0.00    -0.237 OA
ATOM     61  O   UNL A   1      32.477  35.867  29.909  1.00  0.00    -0.744 OA
ENDBRANCH  57  58
ENDBRANCH  25  50
BRANCH  37  62
ATOM     62  C   UNL A   1      39.918  33.696  37.027  1.00  0.00     0.058 A 
ATOM     63  C   UNL A   1      40.633  34.894  37.170  1.00  0.00     0.135 A 
ATOM     64  C   UNL A   1      38.927  33.397  37.977  1.00  0.00     0.135 A 
ATOM     65  F   UNL A   1      41.595  35.216  36.289  1.00  0.00    -0.206 F 
ATOM     66  C   UNL A   1      40.391  35.757  38.231  1.00  0.00     0.059 A 
ATOM     67  C   UNL A   1      38.650  34.259  39.030  1.00  0.00     0.059 A 
ATOM     68  F   UNL A   1      38.209  32.268  37.873  1.00  0.00    -0.206 F 
ATOM     69  C   UNL A   1      39.395  35.431  39.155  1.00  0.00     0.060 A 
BRANCH  69  70
ATOM     70  S   UNL A   1      39.061  36.578  40.507  1.00  0.00     0.124 S 
ATOM     71  O   UNL A   1      40.400  36.794  41.045  1.00  0.00    -0.237 OA
ATOM     72  O   UNL A   1      38.463  37.715  39.814  1.00  0.00    -0.237 OA
ATOM     73  O   UNL A   1      38.151  35.829  41.369  1.00  0.00    -0.744 OA
ENDBRANCH  69  70
ENDBRANCH  37  62
ENDBRANCH  11  12
ENDBRANCH   4   6
ENDBRANCH   3   4
ENDBRANCH   2   3
ENDBRANCH   1   2
BRANCH   1  74
ATOM     74  O   UNL A   1      39.966  20.970  26.213  1.00  0.00    -0.374 OA
BRANCH  74  75
ATOM     75  C   UNL A   1      38.741  21.620  25.850  1.00  0.00     0.202 C 
BRANCH  75  76
ATOM     76  C   UNL A   1      37.878  20.659  25.032  1.00  0.00     0.261 C 
BRANCH  76  77
ATOM     77  O   UNL A   1      36.864  21.435  24.381  1.00  0.00    -0.460 OA
BRANCH  77  78
ATOM     78  C   UNL A   1      35.592  21.141  24.749  1.00  0.00     0.341 C 
ATOM     79  O   UNL A   1      35.206  20.219  25.449  1.00  0.00    -0.246 OA
BRANCH  78  80
ATOM     80  C   UNL A   1      34.748  22.297  24.399  1.00  0.00     0.101 A 
ATOM     81  C   UNL A   1      33.615  22.051  23.610  1.00  0.00     0.022 A 
ATOM     82  C   UNL A   1      35.005  23.584  24.862  1.00  0.00     0.132 A 
ATOM     83  C   UNL A   1      32.718  23.079  23.323  1.00  0.00     0.028 A 
ATOM     84  C   UNL A   1      34.151  24.627  24.510  1.00  0.00     0.074 A 
ATOM     85  C   UNL A   1      33.005  24.385  23.735  1.00  0.00     0.055 A 
BRANCH  82  86
ATOM     86  O   UNL A   1      36.103  23.840  25.631  1.00  0.00    -0.507 OA
ATOM     87  H   UNL A   1      36.610  24.614  25.483  1.00  0.00     0.293 HD
ENDBRANCH  82  86
BRANCH  85  88
ATOM     88  N   UNL A   1      32.229  25.465  23.260  1.00  0.00    -0.250 N 
ATOM     89  C   UNL A   1      32.558  26.145  22.114  1.00  0.00     0.234 C 
ATOM     90  C   UNL A   1      31.018  25.866  23.778  1.00  0.00     0.241 C 
ATOM     91  O   UNL A   1      33.576  26.061  21.440  1.00  0.00    -0.274 OA
ATOM     92  C   UNL A   1      31.375  26.944  21.685  1.00  0.00     0.119 C 
ATOM     93  C   UNL A   1      30.483  26.992  22.918  1.00  0.00     0.121 C 
ATOM     94  O   UNL A   1      30.460  25.437  24.780  1.00  0.00    -0.273 OA
BRANCH  93  95
ATOM     95  C   UNL A   1      30.491  28.361  23.545  1.00  0.00    -0.010 A 
ATOM     96  C   UNL A   1      31.395  28.921  24.427  1.00  0.00     0.088 A 
ATOM     97  C   UNL A   1      29.498  29.370  23.287  1.00  0.00     0.003 A 
ATOM     98  N   UNL A   1      30.999  30.207  24.698  1.00  0.00    -0.361 N 
ATOM     99  C   UNL A   1      29.853  30.513  23.999  1.00  0.00     0.046 A 
ATOM    100  C   UNL A   1      28.338  29.412  22.484  1.00  0.00     0.010 A 
ATOM    101  H   UNL A   1      31.467  30.822  25.307  1.00  0.00     0.166 HD
ATOM    102  C   UNL A   1      29.111  31.699  23.944  1.00  0.00     0.026 A 
ATOM    103  C   UNL A   1      27.590  30.591  22.407  1.00  0.00     0.001 A 
ATOM    104  C   UNL A   1      27.973  31.717  23.129  1.00  0.00     0.002 A 
ENDBRANCH  93  95
ENDBRANCH  85  88
ENDBRANCH  78  80
ENDBRANCH  77  78
ENDBRANCH  76  77
ENDBRANCH  75  76
ENDBRANCH  74  75
ENDBRANCH   1  74
TORSDOF 20
ENDMDL
