MODEL 1
REMARK VINA RESULT:      -9.4      0.000      0.000
REMARK SMILES CS(=O)(=O)c1ccc(/C=C(/C(=O)OCCOCCOC(=O)c2ccc(-c3c4nc(c(-c5c(F)cc(S(=O)(=O)[O-])cc5F)c5ccc([nH]5)c(-c5c(F)cc(S(=O)(=O)[O-])cc5F)c5nc(c(-c6c(F)cc(S(=O)(=O)[O-])cc6F)c6ccc3[nH]6)C=C5)C=C4)cc2)c2cccc(-c3ccc(S(C)(=O)=O)cc3)c2)cc1
REMARK SMILES IDX 16 1 15 2 14 3 13 4 11 5 12 6 10 7 9 8 8 9 5 10 6 11 105 12
REMARK SMILES IDX 7 13 104 14 2 15 1 16 3 17 4 18 88 19 89 20 103 21 90 22
REMARK SMILES IDX 92 23 91 24 93 25 94 26 102 27 95 28 101 29 96 30 97 31
REMARK SMILES IDX 98 32 99 33 100 34 17 35 18 36 19 37 20 38 21 39 22 40 23 41
REMARK SMILES IDX 87 42 24 43 86 44 25 45 26 46 27 47 80 48 28 49 85 50 79 51
REMARK SMILES IDX 81 52 29 53 84 54 78 55 77 56 30 58 64 59 43 60 63 61 44 62
REMARK SMILES IDX 47 63 62 64 82 65 45 66 46 67 61 69 83 70 48 71 31 72 32 73
REMARK SMILES IDX 41 74 33 75 34 76 40 77 42 78 35 79 36 80 37 81 38 82 39 83
REMARK SMILES IDX 65 84 66 85 75 86 67 87 68 88 74 89 76 90 69 91 70 92 71 93
REMARK SMILES IDX 72 94 73 95 49 96 50 97 59 98 51 99 52 100 58 101 60 102
REMARK SMILES IDX 53 103 54 104 55 105 56 106 57 107
REMARK H PARENT 81 57 47 68
REMARK Flexibility Score: inf
ROOT
ATOM      1  O   UNL A   1      48.309  39.019  27.473  1.00  0.00    -0.374 OA
ENDROOT
BRANCH   1   2
ATOM      2  C   UNL A   1      48.250  38.307  26.239  1.00  0.00     0.202 C 
BRANCH   2   3
ATOM      3  C   UNL A   1      47.335  37.082  26.146  1.00  0.00     0.261 C 
BRANCH   3   4
ATOM      4  O   UNL A   1      46.022  37.352  26.661  1.00  0.00    -0.460 OA
BRANCH   4   5
ATOM      5  C   UNL A   1      45.166  36.303  26.568  1.00  0.00     0.338 C 
ATOM      6  O   UNL A   1      45.263  35.373  25.779  1.00  0.00    -0.246 OA
BRANCH   5   7
ATOM      7  C   UNL A   1      44.131  36.315  27.651  1.00  0.00     0.067 C 
ATOM      8  C   UNL A   1      44.048  35.293  28.538  1.00  0.00     0.024 C 
BRANCH   8   9
ATOM      9  C   UNL A   1      43.358  35.301  29.857  1.00  0.00    -0.025 A 
ATOM     10  C   UNL A   1      42.112  34.667  32.298  1.00  0.00     0.067 A 
ATOM     11  C   UNL A   1      43.389  35.227  32.292  1.00  0.00     0.021 A 
ATOM     12  C   UNL A   1      41.397  34.545  31.108  1.00  0.00     0.021 A 
ATOM     13  C   UNL A   1      43.987  35.580  31.079  1.00  0.00     0.009 A 
ATOM     14  C   UNL A   1      42.023  34.864  29.894  1.00  0.00     0.009 A 
BRANCH  10  15
ATOM     15  S   UNL A   1      41.476  34.040  33.834  1.00  0.00     0.175 S 
ATOM     16  C   UNL A   1      40.744  35.407  34.683  1.00  0.00     0.163 C 
ATOM     17  O   UNL A   1      42.618  33.613  34.624  1.00  0.00    -0.224 OA
ATOM     18  O   UNL A   1      40.420  33.108  33.490  1.00  0.00    -0.224 OA
ENDBRANCH  10  15
ENDBRANCH   8   9
BRANCH   7  19
ATOM     19  C   UNL A   1      43.369  37.572  27.767  1.00  0.00    -0.010 A 
ATOM     20  C   UNL A   1      42.410  37.933  26.812  1.00  0.00     0.009 A 
ATOM     21  C   UNL A   1      43.580  38.400  28.867  1.00  0.00     0.017 A 
ATOM     22  C   UNL A   1      41.671  39.103  26.963  1.00  0.00     0.001 A 
ATOM     23  C   UNL A   1      42.811  39.554  29.064  1.00  0.00    -0.018 A 
ATOM     24  C   UNL A   1      41.865  39.904  28.088  1.00  0.00     0.009 A 
BRANCH  23  25
ATOM     25  C   UNL A   1      42.964  40.304  30.314  1.00  0.00    -0.018 A 
ATOM     26  C   UNL A   1      42.192  41.453  30.555  1.00  0.00     0.010 A 
ATOM     27  C   UNL A   1      43.805  39.830  31.337  1.00  0.00     0.010 A 
ATOM     28  C   UNL A   1      42.253  42.107  31.783  1.00  0.00     0.021 A 
ATOM     29  C   UNL A   1      43.873  40.476  32.569  1.00  0.00     0.021 A 
ATOM     30  C   UNL A   1      43.102  41.618  32.778  1.00  0.00     0.067 A 
BRANCH  30  31
ATOM     31  S   UNL A   1      43.215  42.489  34.316  1.00  0.00     0.175 S 
ATOM     32  C   UNL A   1      44.078  43.968  33.853  1.00  0.00     0.163 C 
ATOM     33  O   UNL A   1      41.872  42.858  34.716  1.00  0.00    -0.224 OA
ATOM     34  O   UNL A   1      44.085  41.737  35.200  1.00  0.00    -0.224 OA
ENDBRANCH  30  31
ENDBRANCH  23  25
ENDBRANCH   7  19
ENDBRANCH   5   7
ENDBRANCH   4   5
ENDBRANCH   3   4
ENDBRANCH   2   3
ENDBRANCH   1   2
BRANCH   1  35
ATOM     35  C   UNL A   1      47.484  38.575  28.546  1.00  0.00     0.202 C 
BRANCH  35  36
ATOM     36  C   UNL A   1      48.131  37.909  29.766  1.00  0.00     0.261 C 
BRANCH  36  37
ATOM     37  O   UNL A   1      48.953  36.784  29.432  1.00  0.00    -0.460 OA
BRANCH  37  38
ATOM     38  C   UNL A   1      48.978  35.815  30.378  1.00  0.00     0.338 C 
ATOM     39  O   UNL A   1      49.477  35.881  31.495  1.00  0.00    -0.246 OA
BRANCH  38  40
ATOM     40  C   UNL A   1      48.131  34.693  29.946  1.00  0.00     0.060 A 
ATOM     41  C   UNL A   1      47.746  33.748  30.907  1.00  0.00     0.016 A 
ATOM     42  C   UNL A   1      47.771  34.543  28.607  1.00  0.00     0.016 A 
ATOM     43  C   UNL A   1      47.029  32.619  30.524  1.00  0.00     0.010 A 
ATOM     44  C   UNL A   1      47.067  33.403  28.223  1.00  0.00     0.010 A 
ATOM     45  C   UNL A   1      46.726  32.422  29.173  1.00  0.00    -0.014 A 
BRANCH  45  46
ATOM     46  C   UNL A   1      46.224  31.112  28.705  1.00  0.00     0.031 A 
ATOM     47  C   UNL A   1      44.774  30.788  28.932  1.00  0.00     0.074 A 
ATOM     48  C   UNL A   1      47.045  30.224  28.119  1.00  0.00     0.049 A 
ATOM     49  N   UNL A   1      44.141  29.657  28.768  1.00  0.00    -0.248 NA
ATOM     50  C   UNL A   1      43.927  31.888  29.425  1.00  0.00     0.031 C 
ATOM     51  C   UNL A   1      48.453  30.455  27.800  1.00  0.00     0.029 A 
ATOM     52  N   UNL A   1      46.813  28.934  27.713  1.00  0.00    -0.354 N 
ATOM     53  C   UNL A   1      42.830  29.901  29.161  1.00  0.00     0.074 A 
ATOM     54  C   UNL A   1      42.762  31.280  29.590  1.00  0.00     0.031 C 
ATOM     55  C   UNL A   1      48.969  29.332  27.272  1.00  0.00     0.029 A 
ATOM     56  C   UNL A   1      47.940  28.292  27.260  1.00  0.00     0.049 A 
ATOM     57  H   UNL A   1      45.925  28.511  27.743  1.00  0.00     0.167 HD
ATOM     58  C   UNL A   1      41.780  29.047  29.160  1.00  0.00     0.037 A 
ATOM     59  C   UNL A   1      48.125  27.003  26.914  1.00  0.00     0.037 A 
ATOM     60  C   UNL A   1      41.865  27.678  28.726  1.00  0.00     0.049 A 
ATOM     61  C   UNL A   1      46.957  26.051  26.984  1.00  0.00     0.074 A 
ATOM     62  C   UNL A   1      40.863  26.728  28.674  1.00  0.00     0.029 A 
ATOM     63  N   UNL A   1      43.024  27.065  28.270  1.00  0.00    -0.354 N 
ATOM     64  N   UNL A   1      45.721  26.288  27.357  1.00  0.00    -0.248 NA
ATOM     65  C   UNL A   1      47.207  24.659  26.587  1.00  0.00     0.031 C 
ATOM     66  C   UNL A   1      41.425  25.525  28.237  1.00  0.00     0.029 A 
ATOM     67  C   UNL A   1      42.764  25.742  27.954  1.00  0.00     0.049 A 
ATOM     68  H   UNL A   1      43.901  27.504  28.186  1.00  0.00     0.167 HD
ATOM     69  C   UNL A   1      45.037  25.086  27.197  1.00  0.00     0.074 A 
ATOM     70  C   UNL A   1      45.998  24.124  26.700  1.00  0.00     0.031 C 
ATOM     71  C   UNL A   1      43.731  24.808  27.432  1.00  0.00     0.037 A 
BRANCH  58  72
ATOM     72  C   UNL A   1      40.464  29.557  29.677  1.00  0.00     0.058 A 
ATOM     73  C   UNL A   1      40.218  29.720  31.051  1.00  0.00     0.135 A 
ATOM     74  C   UNL A   1      39.442  29.916  28.784  1.00  0.00     0.135 A 
ATOM     75  F   UNL A   1      41.152  29.373  31.951  1.00  0.00    -0.206 F 
ATOM     76  C   UNL A   1      38.998  30.196  31.519  1.00  0.00     0.059 A 
ATOM     77  C   UNL A   1      38.225  30.421  29.229  1.00  0.00     0.059 A 
ATOM     78  F   UNL A   1      39.621  29.775  27.461  1.00  0.00    -0.206 F 
ATOM     79  C   UNL A   1      38.007  30.545  30.600  1.00  0.00     0.060 A 
BRANCH  79  80
ATOM     80  S   UNL A   1      36.432  31.166  31.224  1.00  0.00     0.124 S 
ATOM     81  O   UNL A   1      35.589  31.069  30.037  1.00  0.00    -0.237 OA
ATOM     82  O   UNL A   1      36.129  30.223  32.295  1.00  0.00    -0.237 OA
ATOM     83  O   UNL A   1      36.749  32.523  31.658  1.00  0.00    -0.744 OA
ENDBRANCH  79  80
ENDBRANCH  58  72
BRANCH  59  84
ATOM     84  C   UNL A   1      49.469  26.533  26.487  1.00  0.00     0.058 A 
ATOM     85  C   UNL A   1      50.329  25.888  27.388  1.00  0.00     0.135 A 
ATOM     86  C   UNL A   1      49.920  26.715  25.170  1.00  0.00     0.135 A 
ATOM     87  F   UNL A   1      49.949  25.699  28.660  1.00  0.00    -0.206 F 
ATOM     88  C   UNL A   1      51.595  25.454  27.005  1.00  0.00     0.059 A 
ATOM     89  C   UNL A   1      51.170  26.266  24.756  1.00  0.00     0.059 A 
ATOM     90  F   UNL A   1      49.132  27.316  24.265  1.00  0.00    -0.206 F 
ATOM     91  C   UNL A   1      52.005  25.645  25.684  1.00  0.00     0.060 A 
BRANCH  91  92
ATOM     92  S   UNL A   1      53.630  25.036  25.186  1.00  0.00     0.124 S 
ATOM     93  O   UNL A   1      54.489  25.624  26.207  1.00  0.00    -0.237 OA
ATOM     94  O   UNL A   1      53.447  23.589  25.258  1.00  0.00    -0.237 OA
ATOM     95  O   UNL A   1      53.790  25.574  23.838  1.00  0.00    -0.744 OA
ENDBRANCH  91  92
ENDBRANCH  59  84
BRANCH  71  96
ATOM     96  C   UNL A   1      43.232  23.431  27.088  1.00  0.00     0.058 A 
ATOM     97  C   UNL A   1      43.044  23.015  25.762  1.00  0.00     0.135 A 
ATOM     98  C   UNL A   1      43.030  22.485  28.108  1.00  0.00     0.135 A 
ATOM     99  F   UNL A   1      43.217  23.881  24.750  1.00  0.00    -0.206 F 
ATOM    100  C   UNL A   1      42.664  21.711  25.458  1.00  0.00     0.059 A 
ATOM    101  C   UNL A   1      42.678  21.170  27.826  1.00  0.00     0.059 A 
ATOM    102  F   UNL A   1      43.206  22.830  29.394  1.00  0.00    -0.206 F 
ATOM    103  C   UNL A   1      42.491  20.793  26.497  1.00  0.00     0.060 A 
BRANCH 103 104
ATOM    104  S   UNL A   1      42.062  19.088  26.085  1.00  0.00     0.124 S 
ATOM    105  O   UNL A   1      42.872  18.861  24.894  1.00  0.00    -0.237 OA
ATOM    106  O   UNL A   1      42.478  18.365  27.283  1.00  0.00    -0.237 OA
ATOM    107  O   UNL A   1      40.621  19.145  25.863  1.00  0.00    -0.744 OA
ENDBRANCH 103 104
ENDBRANCH  71  96
ENDBRANCH  45  46
ENDBRANCH  38  40
ENDBRANCH  37  38
ENDBRANCH  36  37
ENDBRANCH  35  36
ENDBRANCH   1  35
TORSDOF 22
ENDMDL
MODEL 2
REMARK VINA RESULT:      -8.9      5.427     12.687
REMARK SMILES CS(=O)(=O)c1ccc(/C=C(/C(=O)OCCOCCOC(=O)c2ccc(-c3c4nc(c(-c5c(F)cc(S(=O)(=O)[O-])cc5F)c5ccc([nH]5)c(-c5c(F)cc(S(=O)(=O)[O-])cc5F)c5nc(c(-c6c(F)cc(S(=O)(=O)[O-])cc6F)c6ccc3[nH]6)C=C5)C=C4)cc2)c2cccc(-c3ccc(S(C)(=O)=O)cc3)c2)cc1
REMARK SMILES IDX 16 1 15 2 14 3 13 4 11 5 12 6 10 7 9 8 8 9 5 10 6 11 105 12
REMARK SMILES IDX 7 13 104 14 2 15 1 16 3 17 4 18 88 19 89 20 103 21 90 22
REMARK SMILES IDX 92 23 91 24 93 25 94 26 102 27 95 28 101 29 96 30 97 31
REMARK SMILES IDX 98 32 99 33 100 34 17 35 18 36 19 37 20 38 21 39 22 40 23 41
REMARK SMILES IDX 87 42 24 43 86 44 25 45 26 46 27 47 80 48 28 49 85 50 79 51
REMARK SMILES IDX 81 52 29 53 84 54 78 55 77 56 30 58 64 59 43 60 63 61 44 62
REMARK SMILES IDX 47 63 62 64 82 65 45 66 46 67 61 69 83 70 48 71 31 72 32 73
REMARK SMILES IDX 41 74 33 75 34 76 40 77 42 78 35 79 36 80 37 81 38 82 39 83
REMARK SMILES IDX 65 84 66 85 75 86 67 87 68 88 74 89 76 90 69 91 70 92 71 93
REMARK SMILES IDX 72 94 73 95 49 96 50 97 59 98 51 99 52 100 58 101 60 102
REMARK SMILES IDX 53 103 54 104 55 105 56 106 57 107
REMARK H PARENT 81 57 47 68
REMARK Flexibility Score: inf
ROOT
ATOM      1  O   UNL A   1      34.799  33.885  28.568  1.00  0.00    -0.374 OA
ENDROOT
BRANCH   1   2
ATOM      2  C   UNL A   1      36.197  34.077  28.773  1.00  0.00     0.202 C 
BRANCH   2   3
ATOM      3  C   UNL A   1      36.955  33.059  29.631  1.00  0.00     0.261 C 
BRANCH   3   4
ATOM      4  O   UNL A   1      37.817  32.225  28.839  1.00  0.00    -0.460 OA
BRANCH   4   5
ATOM      5  C   UNL A   1      37.289  31.009  28.546  1.00  0.00     0.338 C 
ATOM      6  O   UNL A   1      36.202  30.813  28.021  1.00  0.00    -0.246 OA
BRANCH   5   7
ATOM      7  C   UNL A   1      38.253  29.893  28.808  1.00  0.00     0.067 C 
ATOM      8  C   UNL A   1      38.938  29.319  27.789  1.00  0.00     0.024 C 
BRANCH   8   9
ATOM      9  C   UNL A   1      40.167  28.483  27.889  1.00  0.00    -0.025 A 
ATOM     10  C   UNL A   1      42.577  27.239  28.632  1.00  0.00     0.067 A 
ATOM     11  C   UNL A   1      41.374  26.541  28.729  1.00  0.00     0.021 A 
ATOM     12  C   UNL A   1      42.607  28.502  28.044  1.00  0.00     0.021 A 
ATOM     13  C   UNL A   1      40.183  27.149  28.318  1.00  0.00     0.009 A 
ATOM     14  C   UNL A   1      41.402  29.117  27.674  1.00  0.00     0.009 A 
BRANCH  10  15
ATOM     15  S   UNL A   1      44.030  26.515  29.356  1.00  0.00     0.175 S 
ATOM     16  C   UNL A   1      45.332  27.699  29.187  1.00  0.00     0.163 C 
ATOM     17  O   UNL A   1      44.387  25.371  28.535  1.00  0.00    -0.224 OA
ATOM     18  O   UNL A   1      43.747  26.357  30.769  1.00  0.00    -0.224 OA
ENDBRANCH  10  15
ENDBRANCH   8   9
BRANCH   7  19
ATOM     19  C   UNL A   1      38.511  29.618  30.234  1.00  0.00    -0.010 A 
ATOM     20  C   UNL A   1      37.568  28.956  31.030  1.00  0.00     0.009 A 
ATOM     21  C   UNL A   1      39.732  29.990  30.792  1.00  0.00     0.017 A 
ATOM     22  C   UNL A   1      37.848  28.667  32.363  1.00  0.00     0.001 A 
ATOM     23  C   UNL A   1      40.054  29.662  32.115  1.00  0.00    -0.018 A 
ATOM     24  C   UNL A   1      39.089  29.012  32.899  1.00  0.00     0.009 A 
BRANCH  23  25
ATOM     25  C   UNL A   1      41.408  29.937  32.605  1.00  0.00    -0.018 A 
ATOM     26  C   UNL A   1      42.530  29.472  31.899  1.00  0.00     0.010 A 
ATOM     27  C   UNL A   1      41.611  30.759  33.729  1.00  0.00     0.010 A 
ATOM     28  C   UNL A   1      43.818  29.821  32.299  1.00  0.00     0.021 A 
ATOM     29  C   UNL A   1      42.895  31.114  34.135  1.00  0.00     0.021 A 
ATOM     30  C   UNL A   1      43.990  30.633  33.421  1.00  0.00     0.067 A 
BRANCH  30  31
ATOM     31  S   UNL A   1      45.632  31.025  33.955  1.00  0.00     0.175 S 
ATOM     32  C   UNL A   1      45.340  31.954  35.438  1.00  0.00     0.163 C 
ATOM     33  O   UNL A   1      46.287  29.785  34.323  1.00  0.00    -0.224 OA
ATOM     34  O   UNL A   1      46.221  31.929  32.986  1.00  0.00    -0.224 OA
ENDBRANCH  30  31
ENDBRANCH  23  25
ENDBRANCH   7  19
ENDBRANCH   5   7
ENDBRANCH   4   5
ENDBRANCH   3   4
ENDBRANCH   2   3
ENDBRANCH   1   2
BRANCH   1  35
ATOM     35  C   UNL A   1      33.895  34.778  29.211  1.00  0.00     0.202 C 
BRANCH  35  36
ATOM     36  C   UNL A   1      33.641  34.637  30.717  1.00  0.00     0.261 C 
BRANCH  36  37
ATOM     37  O   UNL A   1      34.067  33.377  31.251  1.00  0.00    -0.460 OA
BRANCH  37  38
ATOM     38  C   UNL A   1      34.016  33.302  32.602  1.00  0.00     0.338 C 
ATOM     39  O   UNL A   1      33.044  33.022  33.293  1.00  0.00    -0.246 OA
BRANCH  38  40
ATOM     40  C   UNL A   1      35.377  33.421  33.146  1.00  0.00     0.060 A 
ATOM     41  C   UNL A   1      35.828  34.692  33.525  1.00  0.00     0.016 A 
ATOM     42  C   UNL A   1      36.216  32.309  33.226  1.00  0.00     0.016 A 
ATOM     43  C   UNL A   1      37.141  34.867  33.951  1.00  0.00     0.010 A 
ATOM     44  C   UNL A   1      37.536  32.489  33.636  1.00  0.00     0.010 A 
ATOM     45  C   UNL A   1      38.011  33.772  33.965  1.00  0.00    -0.014 A 
BRANCH  45  46
ATOM     46  C   UNL A   1      39.466  33.977  34.136  1.00  0.00     0.031 A 
ATOM     47  C   UNL A   1      39.976  34.321  35.507  1.00  0.00     0.074 A 
ATOM     48  C   UNL A   1      40.306  33.888  33.090  1.00  0.00     0.049 A 
ATOM     49  N   UNL A   1      41.168  34.708  35.876  1.00  0.00    -0.248 NA
ATOM     50  C   UNL A   1      39.003  34.227  36.609  1.00  0.00     0.031 C 
ATOM     51  C   UNL A   1      39.927  33.508  31.731  1.00  0.00     0.029 A 
ATOM     52  N   UNL A   1      41.652  34.140  33.009  1.00  0.00    -0.354 N 
ATOM     53  C   UNL A   1      41.082  34.929  37.246  1.00  0.00     0.074 A 
ATOM     54  C   UNL A   1      39.719  34.652  37.639  1.00  0.00     0.031 C 
ATOM     55  C   UNL A   1      41.012  33.579  30.941  1.00  0.00     0.029 A 
ATOM     56  C   UNL A   1      42.148  34.054  31.731  1.00  0.00     0.049 A 
ATOM     57  H   UNL A   1      42.207  34.362  33.791  1.00  0.00     0.167 HD
ATOM     58  C   UNL A   1      42.059  35.325  38.095  1.00  0.00     0.037 A 
ATOM     59  C   UNL A   1      43.369  34.363  31.252  1.00  0.00     0.037 A 
ATOM     60  C   UNL A   1      43.412  35.592  37.687  1.00  0.00     0.049 A 
ATOM     61  C   UNL A   1      44.424  34.867  32.204  1.00  0.00     0.074 A 
ATOM     62  C   UNL A   1      44.483  35.990  38.464  1.00  0.00     0.029 A 
ATOM     63  N   UNL A   1      43.878  35.491  36.383  1.00  0.00    -0.354 N 
ATOM     64  N   UNL A   1      44.337  35.074  33.497  1.00  0.00    -0.248 NA
ATOM     65  C   UNL A   1      45.742  35.179  31.634  1.00  0.00     0.031 C 
ATOM     66  C   UNL A   1      45.584  36.180  37.625  1.00  0.00     0.029 A 
ATOM     67  C   UNL A   1      45.217  35.837  36.333  1.00  0.00     0.049 A 
ATOM     68  H   UNL A   1      43.336  35.214  35.609  1.00  0.00     0.167 HD
ATOM     69  C   UNL A   1      45.599  35.498  33.902  1.00  0.00     0.074 A 
ATOM     70  C   UNL A   1      46.430  35.524  32.716  1.00  0.00     0.031 C 
ATOM     71  C   UNL A   1      46.033  35.827  35.144  1.00  0.00     0.037 A 
BRANCH  58  72
ATOM     72  C   UNL A   1      41.689  35.529  39.538  1.00  0.00     0.058 A 
ATOM     73  C   UNL A   1      41.720  34.478  40.468  1.00  0.00     0.135 A 
ATOM     74  C   UNL A   1      41.325  36.803  40.004  1.00  0.00     0.135 A 
ATOM     75  F   UNL A   1      42.041  33.234  40.074  1.00  0.00    -0.206 F 
ATOM     76  C   UNL A   1      41.380  34.676  41.802  1.00  0.00     0.059 A 
ATOM     77  C   UNL A   1      41.009  37.031  41.339  1.00  0.00     0.059 A 
ATOM     78  F   UNL A   1      41.273  37.842  39.156  1.00  0.00    -0.206 F 
ATOM     79  C   UNL A   1      41.026  35.958  42.229  1.00  0.00     0.060 A 
BRANCH  79  80
ATOM     80  S   UNL A   1      40.592  36.201  43.963  1.00  0.00     0.124 S 
ATOM     81  O   UNL A   1      39.141  36.342  43.884  1.00  0.00    -0.237 OA
ATOM     82  O   UNL A   1      41.076  34.971  44.580  1.00  0.00    -0.237 OA
ATOM     83  O   UNL A   1      41.320  37.412  44.330  1.00  0.00    -0.744 OA
ENDBRANCH  79  80
ENDBRANCH  58  72
BRANCH  59  84
ATOM     84  C   UNL A   1      43.656  34.219  29.800  1.00  0.00     0.058 A 
ATOM     85  C   UNL A   1      44.189  33.029  29.282  1.00  0.00     0.135 A 
ATOM     86  C   UNL A   1      43.399  35.265  28.899  1.00  0.00     0.135 A 
ATOM     87  F   UNL A   1      44.460  32.004  30.103  1.00  0.00    -0.206 F 
ATOM     88  C   UNL A   1      44.472  32.886  27.927  1.00  0.00     0.059 A 
ATOM     89  C   UNL A   1      43.648  35.136  27.537  1.00  0.00     0.059 A 
ATOM     90  F   UNL A   1      42.877  36.421  29.340  1.00  0.00    -0.206 F 
ATOM     91  C   UNL A   1      44.194  33.945  27.061  1.00  0.00     0.060 A 
BRANCH  91  92
ATOM     92  S   UNL A   1      44.522  33.730  25.299  1.00  0.00     0.124 S 
ATOM     93  O   UNL A   1      45.709  34.559  25.118  1.00  0.00    -0.237 OA
ATOM     94  O   UNL A   1      44.726  32.288  25.201  1.00  0.00    -0.237 OA
ATOM     95  O   UNL A   1      43.302  34.227  24.669  1.00  0.00    -0.744 OA
ENDBRANCH  91  92
ENDBRANCH  59  84
BRANCH  71  96
ATOM     96  C   UNL A   1      47.488  36.174  35.312  1.00  0.00     0.058 A 
ATOM     97  C   UNL A   1      48.464  35.198  35.556  1.00  0.00     0.135 A 
ATOM     98  C   UNL A   1      47.917  37.500  35.131  1.00  0.00     0.135 A 
ATOM     99  F   UNL A   1      48.108  33.916  35.743  1.00  0.00    -0.206 F 
ATOM    100  C   UNL A   1      49.816  35.524  35.624  1.00  0.00     0.059 A 
ATOM    101  C   UNL A   1      49.263  37.845  35.166  1.00  0.00     0.059 A 
ATOM    102  F   UNL A   1      47.022  38.472  34.885  1.00  0.00    -0.206 F 
ATOM    103  C   UNL A   1      50.205  36.850  35.419  1.00  0.00     0.060 A 
BRANCH 103 104
ATOM    104  S   UNL A   1      51.966  37.249  35.446  1.00  0.00     0.124 S 
ATOM    105  O   UNL A   1      51.937  38.705  35.519  1.00  0.00    -0.237 OA
ATOM    106  O   UNL A   1      52.422  36.562  36.651  1.00  0.00    -0.237 OA
ATOM    107  O   UNL A   1      52.460  36.694  34.190  1.00  0.00    -0.744 OA
ENDBRANCH 103 104
ENDBRANCH  71  96
ENDBRANCH  45  46
ENDBRANCH  38  40
ENDBRANCH  37  38
ENDBRANCH  36  37
ENDBRANCH  35  36
ENDBRANCH   1  35
TORSDOF 22
ENDMDL
MODEL 3
REMARK VINA RESULT:      -8.7      6.665     14.076
REMARK SMILES CS(=O)(=O)c1ccc(/C=C(/C(=O)OCCOCCOC(=O)c2ccc(-c3c4nc(c(-c5c(F)cc(S(=O)(=O)[O-])cc5F)c5ccc([nH]5)c(-c5c(F)cc(S(=O)(=O)[O-])cc5F)c5nc(c(-c6c(F)cc(S(=O)(=O)[O-])cc6F)c6ccc3[nH]6)C=C5)C=C4)cc2)c2cccc(-c3ccc(S(C)(=O)=O)cc3)c2)cc1
REMARK SMILES IDX 16 1 15 2 14 3 13 4 11 5 12 6 10 7 9 8 8 9 5 10 6 11 105 12
REMARK SMILES IDX 7 13 104 14 2 15 1 16 3 17 4 18 88 19 89 20 103 21 90 22
REMARK SMILES IDX 92 23 91 24 93 25 94 26 102 27 95 28 101 29 96 30 97 31
REMARK SMILES IDX 98 32 99 33 100 34 17 35 18 36 19 37 20 38 21 39 22 40 23 41
REMARK SMILES IDX 87 42 24 43 86 44 25 45 26 46 27 47 80 48 28 49 85 50 79 51
REMARK SMILES IDX 81 52 29 53 84 54 78 55 77 56 30 58 64 59 43 60 63 61 44 62
REMARK SMILES IDX 47 63 62 64 82 65 45 66 46 67 61 69 83 70 48 71 31 72 32 73
REMARK SMILES IDX 41 74 33 75 34 76 40 77 42 78 35 79 36 80 37 81 38 82 39 83
REMARK SMILES IDX 65 84 66 85 75 86 67 87 68 88 74 89 76 90 69 91 70 92 71 93
REMARK SMILES IDX 72 94 73 95 49 96 50 97 59 98 51 99 52 100 58 101 60 102
REMARK SMILES IDX 53 103 54 104 55 105 56 106 57 107
REMARK H PARENT 81 57 47 68
REMARK Flexibility Score: inf
ROOT
ATOM      1  O   UNL A   1      47.971  25.090  25.584  1.00  0.00    -0.374 OA
ENDROOT
BRANCH   1   2
ATOM      2  C   UNL A   1      48.189  25.680  26.864  1.00  0.00     0.202 C 
BRANCH   2   3
ATOM      3  C   UNL A   1      47.466  25.083  28.076  1.00  0.00     0.261 C 
BRANCH   3   4
ATOM      4  O   UNL A   1      46.454  24.140  27.686  1.00  0.00    -0.460 OA
BRANCH   4   5
ATOM      5  C   UNL A   1      45.218  24.683  27.550  1.00  0.00     0.338 C 
ATOM      6  O   UNL A   1      44.728  25.085  26.504  1.00  0.00    -0.246 OA
BRANCH   5   7
ATOM      7  C   UNL A   1      44.425  24.617  28.819  1.00  0.00     0.067 C 
ATOM      8  C   UNL A   1      45.022  24.287  29.990  1.00  0.00     0.024 C 
BRANCH   8   9
ATOM      9  C   UNL A   1      44.499  24.521  31.365  1.00  0.00    -0.025 A 
ATOM     10  C   UNL A   1      44.092  24.724  34.141  1.00  0.00     0.067 A 
ATOM     11  C   UNL A   1      44.308  25.874  33.382  1.00  0.00     0.021 A 
ATOM     12  C   UNL A   1      43.944  23.489  33.510  1.00  0.00     0.021 A 
ATOM     13  C   UNL A   1      44.467  25.772  31.997  1.00  0.00     0.009 A 
ATOM     14  C   UNL A   1      44.147  23.394  32.126  1.00  0.00     0.009 A 
BRANCH  10  15
ATOM     15  S   UNL A   1      44.105  24.869  35.911  1.00  0.00     0.175 S 
ATOM     16  C   UNL A   1      45.277  23.690  36.515  1.00  0.00     0.163 C 
ATOM     17  O   UNL A   1      42.797  24.446  36.381  1.00  0.00    -0.224 OA
ATOM     18  O   UNL A   1      44.609  26.195  36.210  1.00  0.00    -0.224 OA
ENDBRANCH  10  15
ENDBRANCH   8   9
BRANCH   7  19
ATOM     19  C   UNL A   1      43.037  25.104  28.710  1.00  0.00    -0.010 A 
ATOM     20  C   UNL A   1      42.677  26.382  29.158  1.00  0.00     0.009 A 
ATOM     21  C   UNL A   1      42.073  24.294  28.116  1.00  0.00     0.017 A 
ATOM     22  C   UNL A   1      41.371  26.839  29.007  1.00  0.00     0.001 A 
ATOM     23  C   UNL A   1      40.767  24.755  27.907  1.00  0.00    -0.018 A 
ATOM     24  C   UNL A   1      40.424  26.032  28.377  1.00  0.00     0.009 A 
BRANCH  23  25
ATOM     25  C   UNL A   1      39.835  23.925  27.139  1.00  0.00    -0.018 A 
ATOM     26  C   UNL A   1      40.120  22.571  26.895  1.00  0.00     0.010 A 
ATOM     27  C   UNL A   1      38.592  24.438  26.724  1.00  0.00     0.010 A 
ATOM     28  C   UNL A   1      39.190  21.750  26.261  1.00  0.00     0.021 A 
ATOM     29  C   UNL A   1      37.655  23.625  26.091  1.00  0.00     0.021 A 
ATOM     30  C   UNL A   1      37.967  22.288  25.855  1.00  0.00     0.067 A 
BRANCH  30  31
ATOM     31  S   UNL A   1      36.815  21.251  24.999  1.00  0.00     0.175 S 
ATOM     32  C   UNL A   1      36.352  22.258  23.614  1.00  0.00     0.163 C 
ATOM     33  O   UNL A   1      37.541  20.101  24.498  1.00  0.00    -0.224 OA
ATOM     34  O   UNL A   1      35.638  21.095  25.834  1.00  0.00    -0.224 OA
ENDBRANCH  30  31
ENDBRANCH  23  25
ENDBRANCH   7  19
ENDBRANCH   5   7
ENDBRANCH   4   5
ENDBRANCH   3   4
ENDBRANCH   2   3
ENDBRANCH   1   2
BRANCH   1  35
ATOM     35  C   UNL A   1      47.355  25.882  24.573  1.00  0.00     0.202 C 
BRANCH  35  36
ATOM     36  C   UNL A   1      47.404  27.410  24.680  1.00  0.00     0.261 C 
BRANCH  36  37
ATOM     37  O   UNL A   1      46.192  27.987  25.181  1.00  0.00    -0.460 OA
BRANCH  37  38
ATOM     38  C   UNL A   1      46.365  29.153  25.846  1.00  0.00     0.338 C 
ATOM     39  O   UNL A   1      46.201  30.286  25.412  1.00  0.00    -0.246 OA
BRANCH  38  40
ATOM     40  C   UNL A   1      46.604  28.868  27.269  1.00  0.00     0.060 A 
ATOM     41  C   UNL A   1      45.579  28.251  27.999  1.00  0.00     0.016 A 
ATOM     42  C   UNL A   1      47.793  29.255  27.887  1.00  0.00     0.016 A 
ATOM     43  C   UNL A   1      45.723  28.053  29.369  1.00  0.00     0.010 A 
ATOM     44  C   UNL A   1      47.928  29.072  29.262  1.00  0.00     0.010 A 
ATOM     45  C   UNL A   1      46.881  28.503  30.011  1.00  0.00    -0.014 A 
BRANCH  45  46
ATOM     46  C   UNL A   1      46.939  28.565  31.488  1.00  0.00     0.031 A 
ATOM     47  C   UNL A   1      47.661  27.465  32.214  1.00  0.00     0.074 A 
ATOM     48  C   UNL A   1      46.339  29.559  32.165  1.00  0.00     0.049 A 
ATOM     49  N   UNL A   1      47.706  27.206  33.494  1.00  0.00    -0.248 NA
ATOM     50  C   UNL A   1      48.424  26.521  31.379  1.00  0.00     0.031 C 
ATOM     51  C   UNL A   1      45.660  30.704  31.560  1.00  0.00     0.029 A 
ATOM     52  N   UNL A   1      46.183  29.747  33.514  1.00  0.00    -0.354 N 
ATOM     53  C   UNL A   1      48.479  26.057  33.616  1.00  0.00     0.074 A 
ATOM     54  C   UNL A   1      48.865  25.657  32.281  1.00  0.00     0.031 C 
ATOM     55  C   UNL A   1      45.134  31.462  32.537  1.00  0.00     0.029 A 
ATOM     56  C   UNL A   1      45.401  30.831  33.830  1.00  0.00     0.049 A 
ATOM     57  H   UNL A   1      46.593  29.161  34.191  1.00  0.00     0.167 HD
ATOM     58  C   UNL A   1      48.834  25.399  34.745  1.00  0.00     0.037 A 
ATOM     59  C   UNL A   1      44.924  31.240  35.022  1.00  0.00     0.037 A 
ATOM     60  C   UNL A   1      48.444  25.814  36.065  1.00  0.00     0.049 A 
ATOM     61  C   UNL A   1      45.276  30.455  36.260  1.00  0.00     0.074 A 
ATOM     62  C   UNL A   1      48.754  25.227  37.278  1.00  0.00     0.029 A 
ATOM     63  N   UNL A   1      47.653  26.920  36.345  1.00  0.00    -0.354 N 
ATOM     64  N   UNL A   1      46.006  29.369  36.369  1.00  0.00    -0.248 NA
ATOM     65  C   UNL A   1      44.741  30.947  37.537  1.00  0.00     0.031 C 
ATOM     66  C   UNL A   1      48.109  25.947  38.288  1.00  0.00     0.029 A 
ATOM     67  C   UNL A   1      47.450  27.022  37.711  1.00  0.00     0.049 A 
ATOM     68  H   UNL A   1      47.290  27.540  35.672  1.00  0.00     0.167 HD
ATOM     69  C   UNL A   1      46.054  29.076  37.729  1.00  0.00     0.074 A 
ATOM     70  C   UNL A   1      45.274  30.094  38.402  1.00  0.00     0.031 C 
ATOM     71  C   UNL A   1      46.693  28.062  38.363  1.00  0.00     0.037 A 
BRANCH  58  72
ATOM     72  C   UNL A   1      49.652  24.146  34.596  1.00  0.00     0.058 A 
ATOM     73  C   UNL A   1      49.055  22.885  34.439  1.00  0.00     0.135 A 
ATOM     74  C   UNL A   1      51.054  24.213  34.582  1.00  0.00     0.135 A 
ATOM     75  F   UNL A   1      47.719  22.760  34.466  1.00  0.00    -0.206 F 
ATOM     76  C   UNL A   1      49.820  21.732  34.299  1.00  0.00     0.059 A 
ATOM     77  C   UNL A   1      51.839  23.077  34.413  1.00  0.00     0.059 A 
ATOM     78  F   UNL A   1      51.676  25.392  34.734  1.00  0.00    -0.206 F 
ATOM     79  C   UNL A   1      51.213  21.838  34.286  1.00  0.00     0.060 A 
BRANCH  79  80
ATOM     80  S   UNL A   1      52.191  20.333  34.098  1.00  0.00     0.124 S 
ATOM     81  O   UNL A   1      51.174  19.301  34.269  1.00  0.00    -0.237 OA
ATOM     82  O   UNL A   1      52.728  20.478  32.749  1.00  0.00    -0.237 OA
ATOM     83  O   UNL A   1      53.173  20.429  35.175  1.00  0.00    -0.744 OA
ENDBRANCH  79  80
ENDBRANCH  58  72
BRANCH  59  84
ATOM     84  C   UNL A   1      44.051  32.441  35.101  1.00  0.00     0.058 A 
ATOM     85  C   UNL A   1      44.595  33.717  35.309  1.00  0.00     0.135 A 
ATOM     86  C   UNL A   1      42.658  32.339  34.965  1.00  0.00     0.135 A 
ATOM     87  F   UNL A   1      45.920  33.866  35.454  1.00  0.00    -0.206 F 
ATOM     88  C   UNL A   1      43.788  34.848  35.396  1.00  0.00     0.059 A 
ATOM     89  C   UNL A   1      41.833  33.458  35.021  1.00  0.00     0.059 A 
ATOM     90  F   UNL A   1      42.087  31.143  34.752  1.00  0.00    -0.206 F 
ATOM     91  C   UNL A   1      42.407  34.708  35.247  1.00  0.00     0.060 A 
BRANCH  91  92
ATOM     92  S   UNL A   1      41.376  36.188  35.315  1.00  0.00     0.124 S 
ATOM     93  O   UNL A   1      40.132  35.706  34.725  1.00  0.00    -0.237 OA
ATOM     94  O   UNL A   1      41.340  36.468  36.747  1.00  0.00    -0.237 OA
ATOM     95  O   UNL A   1      42.124  37.153  34.514  1.00  0.00    -0.744 OA
ENDBRANCH  91  92
ENDBRANCH  59  84
BRANCH  71  96
ATOM     96  C   UNL A   1      46.646  28.031  39.866  1.00  0.00     0.058 A 
ATOM     97  C   UNL A   1      47.633  28.639  40.656  1.00  0.00     0.135 A 
ATOM     98  C   UNL A   1      45.541  27.461  40.521  1.00  0.00     0.135 A 
ATOM     99  F   UNL A   1      48.713  29.194  40.081  1.00  0.00    -0.206 F 
ATOM    100  C   UNL A   1      47.531  28.677  42.043  1.00  0.00     0.059 A 
ATOM    101  C   UNL A   1      45.404  27.511  41.903  1.00  0.00     0.059 A 
ATOM    102  F   UNL A   1      44.564  26.874  39.810  1.00  0.00    -0.206 F 
ATOM    103  C   UNL A   1      46.408  28.116  42.657  1.00  0.00     0.060 A 
BRANCH 103 104
ATOM    104  S   UNL A   1      46.256  28.228  44.453  1.00  0.00     0.124 S 
ATOM    105  O   UNL A   1      47.285  27.293  44.893  1.00  0.00    -0.237 OA
ATOM    106  O   UNL A   1      46.534  29.640  44.700  1.00  0.00    -0.237 OA
ATOM    107  O   UNL A   1      44.881  27.812  44.705  1.00  0.00    -0.744 OA
ENDBRANCH 103 104
ENDBRANCH  71  96
ENDBRANCH  45  46
ENDBRANCH  38  40
ENDBRANCH  37  38
ENDBRANCH  36  37
ENDBRANCH  35  36
ENDBRANCH   1  35
TORSDOF 22
ENDMDL
