MODEL 1
REMARK VINA RESULT:     -11.1      0.000      0.000
REMARK SMILES CC[NH+]1CCC2(CC1)OC[C@H](C(=O)OCCOCCOC(=O)c1ccc(-c3c4nc(c(-c5c(F)cc(S(=O)(=O)[O-])cc5F)c5ccc([nH]5)c(-c5c(F)cc(S(=O)(=O)[O-])cc5F)c5nc(c(-c6c(F)cc(S(=O)(=O)[O-])cc6F)c6ccc3[nH]6)C=C5)C=C4)cc1)N2C(=O)c1ccc(F)cc1
REMARK SMILES IDX 18 1 17 2 16 3 15 4 14 5 12 6 13 7 11 8 3 9 4 10 8 11 5 13
REMARK SMILES IDX 7 14 6 15 9 16 89 17 10 18 2 19 1 20 90 21 91 22 92 23 93 24
REMARK SMILES IDX 98 25 94 26 97 27 95 28 96 29 19 30 20 31 21 32 22 33 23 34
REMARK SMILES IDX 24 35 88 36 25 37 87 38 26 39 27 40 28 41 81 42 29 43 86 44
REMARK SMILES IDX 80 45 82 46 30 47 85 48 79 49 78 50 31 52 65 53 44 54 64 55
REMARK SMILES IDX 45 56 48 57 63 58 83 59 46 60 47 61 62 63 84 64 49 65 32 66
REMARK SMILES IDX 33 67 42 68 34 69 35 70 41 71 43 72 36 73 37 74 38 75 39 76
REMARK SMILES IDX 40 77 66 78 67 79 76 80 68 81 69 82 75 83 77 84 70 85 71 86
REMARK SMILES IDX 72 87 73 88 74 89 50 90 51 91 60 92 52 93 53 94 59 95 61 96
REMARK SMILES IDX 54 97 55 98 56 99 57 100 58 101
REMARK H PARENT 3 12 82 51 48 62
REMARK Flexibility Score: inf
ROOT
ATOM      1  C   UNL A   1      33.765  28.443  25.200  1.00  0.00     0.202 C 
ENDROOT
BRANCH   1   2
ATOM      2  O   UNL A   1      32.782  27.910  24.331  1.00  0.00    -0.374 OA
BRANCH   2   3
ATOM      3  C   UNL A   1      31.434  27.919  24.792  1.00  0.00     0.202 C 
BRANCH   3   4
ATOM      4  C   UNL A   1      30.694  26.578  24.921  1.00  0.00     0.261 C 
BRANCH   4   5
ATOM      5  O   UNL A   1      31.529  25.394  24.812  1.00  0.00    -0.462 OA
BRANCH   5   6
ATOM      6  C   UNL A   1      31.206  24.572  23.776  1.00  0.00     0.331 C 
ATOM      7  O   UNL A   1      30.090  24.550  23.256  1.00  0.00    -0.250 OA
BRANCH   6   8
ATOM      8  C   UNL A   1      32.303  23.589  23.309  1.00  0.00     0.224 C 
ATOM      9  N   UNL A   1      36.774  22.872  25.940  1.00  0.00    -0.335 N 
ATOM     10  C   UNL A   1      35.631  23.717  26.214  1.00  0.00     0.267 C 
ATOM     11  C   UNL A   1      36.731  22.133  24.673  1.00  0.00     0.267 C 
ATOM     12  H   UNL A   1      36.651  22.154  26.655  1.00  0.00     0.348 HD
ATOM     13  C   UNL A   1      35.178  24.480  25.001  1.00  0.00     0.120 C 
ATOM     14  C   UNL A   1      35.806  22.612  23.532  1.00  0.00     0.120 C 
ATOM     15  C   UNL A   1      34.647  23.533  23.932  1.00  0.00     0.155 C 
ATOM     16  O   UNL A   1      34.451  24.437  22.805  1.00  0.00    -0.352 OA
ATOM     17  N   UNL A   1      33.301  22.939  24.160  1.00  0.00    -0.293 N 
ATOM     18  C   UNL A   1      33.148  24.256  22.249  1.00  0.00     0.200 C 
BRANCH   9  19
ATOM     19  C   UNL A   1      38.088  23.437  26.246  1.00  0.00     0.258 C 
ATOM     20  C   UNL A   1      39.234  22.426  26.324  1.00  0.00     0.071 C 
ENDBRANCH   9  19
BRANCH  17  21
ATOM     21  C   UNL A   1      32.841  21.802  24.827  1.00  0.00     0.256 C 
ATOM     22  O   UNL A   1      32.129  21.879  25.829  1.00  0.00    -0.269 OA
BRANCH  21  23
ATOM     23  C   UNL A   1      33.074  20.435  24.333  1.00  0.00     0.040 A 
ATOM     24  C   UNL A   1      32.205  19.876  23.384  1.00  0.00     0.017 A 
ATOM     25  C   UNL A   1      34.067  19.643  24.920  1.00  0.00     0.017 A 
ATOM     26  C   UNL A   1      32.440  18.580  22.910  1.00  0.00     0.040 A 
ATOM     27  C   UNL A   1      34.323  18.365  24.420  1.00  0.00     0.040 A 
ATOM     28  C   UNL A   1      33.522  17.853  23.405  1.00  0.00     0.123 A 
ATOM     29  F   UNL A   1      33.797  16.650  22.888  1.00  0.00    -0.207 F 
ENDBRANCH  21  23
ENDBRANCH  17  21
ENDBRANCH   6   8
ENDBRANCH   5   6
ENDBRANCH   4   5
ENDBRANCH   3   4
ENDBRANCH   2   3
ENDBRANCH   1   2
BRANCH   1  30
ATOM     30  C   UNL A   1      33.311  29.269  26.412  1.00  0.00     0.261 C 
BRANCH  30  31
ATOM     31  O   UNL A   1      34.055  29.118  27.607  1.00  0.00    -0.460 OA
BRANCH  31  32
ATOM     32  C   UNL A   1      34.707  30.214  28.029  1.00  0.00     0.338 C 
ATOM     33  O   UNL A   1      34.261  31.325  28.258  1.00  0.00    -0.246 OA
BRANCH  32  34
ATOM     34  C   UNL A   1      36.088  29.789  28.228  1.00  0.00     0.060 A 
ATOM     35  C   UNL A   1      36.457  29.337  29.496  1.00  0.00     0.016 A 
ATOM     36  C   UNL A   1      36.989  29.811  27.160  1.00  0.00     0.016 A 
ATOM     37  C   UNL A   1      37.771  28.953  29.716  1.00  0.00     0.010 A 
ATOM     38  C   UNL A   1      38.305  29.419  27.384  1.00  0.00     0.010 A 
ATOM     39  C   UNL A   1      38.705  29.029  28.672  1.00  0.00    -0.014 A 
BRANCH  39  40
ATOM     40  C   UNL A   1      40.135  28.841  28.984  1.00  0.00     0.031 A 
ATOM     41  C   UNL A   1      40.774  27.526  28.644  1.00  0.00     0.074 A 
ATOM     42  C   UNL A   1      40.846  29.854  29.505  1.00  0.00     0.049 A 
ATOM     43  N   UNL A   1      42.014  27.146  28.798  1.00  0.00    -0.248 NA
ATOM     44  C   UNL A   1      39.899  26.499  28.052  1.00  0.00     0.031 C 
ATOM     45  C   UNL A   1      40.311  31.173  29.842  1.00  0.00     0.029 A 
ATOM     46  N   UNL A   1      42.173  29.934  29.834  1.00  0.00    -0.354 N 
ATOM     47  C   UNL A   1      42.068  25.841  28.324  1.00  0.00     0.074 A 
ATOM     48  C   UNL A   1      40.730  25.478  27.914  1.00  0.00     0.031 C 
ATOM     49  C   UNL A   1      41.305  31.936  30.328  1.00  0.00     0.029 A 
ATOM     50  C   UNL A   1      42.534  31.147  30.367  1.00  0.00     0.049 A 
ATOM     51  H   UNL A   1      42.807  29.193  29.702  1.00  0.00     0.167 HD
ATOM     52  C   UNL A   1      43.145  25.027  28.229  1.00  0.00     0.037 A 
ATOM     53  C   UNL A   1      43.723  31.562  30.845  1.00  0.00     0.037 A 
ATOM     54  C   UNL A   1      44.468  25.412  28.645  1.00  0.00     0.049 A 
ATOM     55  C   UNL A   1      44.894  30.617  30.782  1.00  0.00     0.074 A 
ATOM     56  C   UNL A   1      45.638  24.678  28.584  1.00  0.00     0.029 A 
ATOM     57  N   UNL A   1      44.792  26.638  29.211  1.00  0.00    -0.354 N 
ATOM     58  N   UNL A   1      44.942  29.395  30.303  1.00  0.00    -0.248 NA
ATOM     59  C   UNL A   1      46.171  31.105  31.314  1.00  0.00     0.031 C 
ATOM     60  C   UNL A   1      46.658  25.437  29.163  1.00  0.00     0.029 A 
ATOM     61  C   UNL A   1      46.139  26.670  29.529  1.00  0.00     0.049 A 
ATOM     62  H   UNL A   1      44.159  27.375  29.364  1.00  0.00     0.167 HD
ATOM     63  C   UNL A   1      46.260  28.979  30.453  1.00  0.00     0.074 A 
ATOM     64  C   UNL A   1      46.977  30.086  31.053  1.00  0.00     0.031 C 
ATOM     65  C   UNL A   1      46.828  27.792  30.122  1.00  0.00     0.037 A 
BRANCH  52  66
ATOM     66  C   UNL A   1      42.930  23.642  27.684  1.00  0.00     0.058 A 
ATOM     67  C   UNL A   1      42.573  22.564  28.511  1.00  0.00     0.135 A 
ATOM     68  C   UNL A   1      43.060  23.393  26.308  1.00  0.00     0.135 A 
ATOM     69  F   UNL A   1      42.457  22.738  29.838  1.00  0.00    -0.206 F 
ATOM     70  C   UNL A   1      42.374  21.286  27.997  1.00  0.00     0.059 A 
ATOM     71  C   UNL A   1      42.837  22.130  25.769  1.00  0.00     0.059 A 
ATOM     72  F   UNL A   1      43.408  24.383  25.473  1.00  0.00    -0.206 F 
ATOM     73  C   UNL A   1      42.506  21.080  26.623  1.00  0.00     0.060 A 
BRANCH  73  74
ATOM     74  S   UNL A   1      42.229  19.419  25.971  1.00  0.00     0.124 S 
ATOM     75  O   UNL A   1      43.024  19.451  24.747  1.00  0.00    -0.237 OA
ATOM     76  O   UNL A   1      42.747  18.574  27.042  1.00  0.00    -0.237 OA
ATOM     77  O   UNL A   1      40.783  19.365  25.778  1.00  0.00    -0.744 OA
ENDBRANCH  73  74
ENDBRANCH  52  66
BRANCH  53  78
ATOM     78  C   UNL A   1      43.855  32.924  31.427  1.00  0.00     0.058 A 
ATOM     79  C   UNL A   1      44.245  34.018  30.641  1.00  0.00     0.135 A 
ATOM     80  C   UNL A   1      43.583  33.161  32.784  1.00  0.00     0.135 A 
ATOM     81  F   UNL A   1      44.523  33.844  29.340  1.00  0.00    -0.206 F 
ATOM     82  C   UNL A   1      44.376  35.294  31.182  1.00  0.00     0.059 A 
ATOM     83  C   UNL A   1      43.678  34.431  33.341  1.00  0.00     0.059 A 
ATOM     84  F   UNL A   1      43.193  32.151  33.578  1.00  0.00    -0.206 F 
ATOM     85  C   UNL A   1      44.086  35.491  32.533  1.00  0.00     0.060 A 
BRANCH  85  86
ATOM     86  S   UNL A   1      44.217  37.158  33.213  1.00  0.00     0.124 S 
ATOM     87  O   UNL A   1      43.046  37.215  34.080  1.00  0.00    -0.237 OA
ATOM     88  O   UNL A   1      45.510  37.112  33.888  1.00  0.00    -0.237 OA
ATOM     89  O   UNL A   1      44.167  38.010  32.029  1.00  0.00    -0.744 OA
ENDBRANCH  85  86
ENDBRANCH  53  78
BRANCH  65  90
ATOM     90  C   UNL A   1      48.304  27.641  30.370  1.00  0.00     0.058 A 
ATOM     91  C   UNL A   1      48.802  27.112  31.571  1.00  0.00     0.135 A 
ATOM     92  C   UNL A   1      49.228  27.978  29.368  1.00  0.00     0.135 A 
ATOM     93  F   UNL A   1      47.962  26.779  32.564  1.00  0.00    -0.206 F 
ATOM     94  C   UNL A   1      50.168  26.949  31.780  1.00  0.00     0.059 A 
ATOM     95  C   UNL A   1      50.595  27.793  29.543  1.00  0.00     0.059 A 
ATOM     96  F   UNL A   1      48.802  28.476  28.196  1.00  0.00    -0.206 F 
ATOM     97  C   UNL A   1      51.056  27.289  30.757  1.00  0.00     0.060 A 
BRANCH  97  98
ATOM     98  S   UNL A   1      52.823  27.040  31.028  1.00  0.00     0.124 S 
ATOM     99  O   UNL A   1      53.305  26.850  29.664  1.00  0.00    -0.237 OA
ATOM    100  O   UNL A   1      53.219  28.288  31.673  1.00  0.00    -0.237 OA
ATOM    101  O   UNL A   1      52.873  25.857  31.882  1.00  0.00    -0.744 OA
ENDBRANCH  97  98
ENDBRANCH  65  90
ENDBRANCH  39  40
ENDBRANCH  32  34
ENDBRANCH  31  32
ENDBRANCH  30  31
ENDBRANCH   1  30
TORSDOF 20
ENDMDL
MODEL 2
REMARK VINA RESULT:     -10.9      2.696      3.485
REMARK SMILES CC[NH+]1CCC2(CC1)OC[C@H](C(=O)OCCOCCOC(=O)c1ccc(-c3c4nc(c(-c5c(F)cc(S(=O)(=O)[O-])cc5F)c5ccc([nH]5)c(-c5c(F)cc(S(=O)(=O)[O-])cc5F)c5nc(c(-c6c(F)cc(S(=O)(=O)[O-])cc6F)c6ccc3[nH]6)C=C5)C=C4)cc1)N2C(=O)c1ccc(F)cc1
REMARK SMILES IDX 18 1 17 2 16 3 15 4 14 5 12 6 13 7 11 8 3 9 4 10 8 11 5 13
REMARK SMILES IDX 7 14 6 15 9 16 89 17 10 18 2 19 1 20 90 21 91 22 92 23 93 24
REMARK SMILES IDX 98 25 94 26 97 27 95 28 96 29 19 30 20 31 21 32 22 33 23 34
REMARK SMILES IDX 24 35 88 36 25 37 87 38 26 39 27 40 28 41 81 42 29 43 86 44
REMARK SMILES IDX 80 45 82 46 30 47 85 48 79 49 78 50 31 52 65 53 44 54 64 55
REMARK SMILES IDX 45 56 48 57 63 58 83 59 46 60 47 61 62 63 84 64 49 65 32 66
REMARK SMILES IDX 33 67 42 68 34 69 35 70 41 71 43 72 36 73 37 74 38 75 39 76
REMARK SMILES IDX 40 77 66 78 67 79 76 80 68 81 69 82 75 83 77 84 70 85 71 86
REMARK SMILES IDX 72 87 73 88 74 89 50 90 51 91 60 92 52 93 53 94 59 95 61 96
REMARK SMILES IDX 54 97 55 98 56 99 57 100 58 101
REMARK H PARENT 3 12 82 51 48 62
REMARK Flexibility Score: inf
ROOT
ATOM      1  C   UNL A   1      33.709  28.855  27.003  1.00  0.00     0.202 C 
ENDROOT
BRANCH   1   2
ATOM      2  O   UNL A   1      34.097  27.592  26.494  1.00  0.00    -0.374 OA
BRANCH   2   3
ATOM      3  C   UNL A   1      33.482  27.164  25.282  1.00  0.00     0.202 C 
BRANCH   3   4
ATOM      4  C   UNL A   1      32.517  25.968  25.332  1.00  0.00     0.261 C 
BRANCH   4   5
ATOM      5  O   UNL A   1      31.998  25.534  24.046  1.00  0.00    -0.462 OA
BRANCH   5   6
ATOM      6  C   UNL A   1      31.642  24.221  23.998  1.00  0.00     0.331 C 
ATOM      7  O   UNL A   1      30.547  23.806  24.378  1.00  0.00    -0.250 OA
BRANCH   6   8
ATOM      8  C   UNL A   1      32.720  23.234  23.499  1.00  0.00     0.224 C 
ATOM      9  N   UNL A   1      37.279  22.523  25.976  1.00  0.00    -0.335 N 
ATOM     10  C   UNL A   1      36.148  23.371  26.286  1.00  0.00     0.267 C 
ATOM     11  C   UNL A   1      37.190  21.777  24.716  1.00  0.00     0.267 C 
ATOM     12  H   UNL A   1      37.180  21.809  26.699  1.00  0.00     0.348 HD
ATOM     13  C   UNL A   1      35.653  24.129  25.085  1.00  0.00     0.120 C 
ATOM     14  C   UNL A   1      36.227  22.252  23.605  1.00  0.00     0.120 C 
ATOM     15  C   UNL A   1      35.084  23.177  24.040  1.00  0.00     0.155 C 
ATOM     16  O   UNL A   1      34.851  24.075  22.915  1.00  0.00    -0.352 OA
ATOM     17  N   UNL A   1      33.746  22.586  24.318  1.00  0.00    -0.293 N 
ATOM     18  C   UNL A   1      33.529  23.894  22.407  1.00  0.00     0.200 C 
BRANCH   9  19
ATOM     19  C   UNL A   1      38.604  23.087  26.233  1.00  0.00     0.258 C 
ATOM     20  C   UNL A   1      38.613  24.427  26.972  1.00  0.00     0.071 C 
ENDBRANCH   9  19
BRANCH  17  21
ATOM     21  C   UNL A   1      33.308  21.454  25.007  1.00  0.00     0.256 C 
ATOM     22  O   UNL A   1      32.689  21.537  26.068  1.00  0.00    -0.269 OA
BRANCH  21  23
ATOM     23  C   UNL A   1      33.450  20.089  24.475  1.00  0.00     0.040 A 
ATOM     24  C   UNL A   1      32.441  19.545  23.666  1.00  0.00     0.017 A 
ATOM     25  C   UNL A   1      34.513  19.285  24.899  1.00  0.00     0.017 A 
ATOM     26  C   UNL A   1      32.588  18.250  23.155  1.00  0.00     0.040 A 
ATOM     27  C   UNL A   1      34.678  18.008  24.358  1.00  0.00     0.040 A 
ATOM     28  C   UNL A   1      33.727  17.510  23.474  1.00  0.00     0.123 A 
ATOM     29  F   UNL A   1      33.908  16.308  22.914  1.00  0.00    -0.207 F 
ENDBRANCH  21  23
ENDBRANCH  17  21
ENDBRANCH   6   8
ENDBRANCH   5   6
ENDBRANCH   4   5
ENDBRANCH   3   4
ENDBRANCH   2   3
ENDBRANCH   1   2
BRANCH   1  30
ATOM     30  C   UNL A   1      34.775  29.753  27.646  1.00  0.00     0.261 C 
BRANCH  30  31
ATOM     31  O   UNL A   1      36.009  29.147  27.983  1.00  0.00    -0.460 OA
BRANCH  31  32
ATOM     32  C   UNL A   1      36.567  29.562  29.131  1.00  0.00     0.338 C 
ATOM     33  O   UNL A   1      36.020  29.885  30.171  1.00  0.00    -0.246 OA
BRANCH  32  34
ATOM     34  C   UNL A   1      38.007  29.488  28.909  1.00  0.00     0.060 A 
ATOM     35  C   UNL A   1      38.469  29.528  27.593  1.00  0.00     0.016 A 
ATOM     36  C   UNL A   1      38.882  29.414  29.997  1.00  0.00     0.016 A 
ATOM     37  C   UNL A   1      39.832  29.434  27.356  1.00  0.00     0.010 A 
ATOM     38  C   UNL A   1      40.248  29.325  29.755  1.00  0.00     0.010 A 
ATOM     39  C   UNL A   1      40.721  29.294  28.433  1.00  0.00    -0.014 A 
BRANCH  39  40
ATOM     40  C   UNL A   1      42.131  28.962  28.151  1.00  0.00     0.031 A 
ATOM     41  C   UNL A   1      42.475  27.545  27.800  1.00  0.00     0.074 A 
ATOM     42  C   UNL A   1      43.060  29.931  28.155  1.00  0.00     0.049 A 
ATOM     43  N   UNL A   1      43.633  27.029  27.487  1.00  0.00    -0.248 NA
ATOM     44  C   UNL A   1      41.365  26.575  27.801  1.00  0.00     0.031 C 
ATOM     45  C   UNL A   1      42.809  31.340  28.461  1.00  0.00     0.029 A 
ATOM     46  N   UNL A   1      44.402  29.879  27.888  1.00  0.00    -0.354 N 
ATOM     47  C   UNL A   1      43.393  25.680  27.256  1.00  0.00     0.074 A 
ATOM     48  C   UNL A   1      41.989  25.446  27.503  1.00  0.00     0.031 C 
ATOM     49  C   UNL A   1      43.962  32.021  28.359  1.00  0.00     0.029 A 
ATOM     50  C   UNL A   1      45.035  31.091  28.015  1.00  0.00     0.049 A 
ATOM     51  H   UNL A   1      44.869  29.051  27.630  1.00  0.00     0.167 HD
ATOM     52  C   UNL A   1      44.270  24.729  26.860  1.00  0.00     0.037 A 
ATOM     53  C   UNL A   1      46.338  31.404  27.883  1.00  0.00     0.037 A 
ATOM     54  C   UNL A   1      45.666  24.987  26.622  1.00  0.00     0.049 A 
ATOM     55  C   UNL A   1      47.305  30.314  27.498  1.00  0.00     0.074 A 
ATOM     56  C   UNL A   1      46.646  24.105  26.204  1.00  0.00     0.029 A 
ATOM     57  N   UNL A   1      46.281  26.220  26.791  1.00  0.00    -0.354 N 
ATOM     58  N   UNL A   1      47.063  29.048  27.251  1.00  0.00    -0.248 NA
ATOM     59  C   UNL A   1      48.715  30.695  27.365  1.00  0.00     0.031 C 
ATOM     60  C   UNL A   1      47.863  24.792  26.175  1.00  0.00     0.029 A 
ATOM     61  C   UNL A   1      47.632  26.117  26.513  1.00  0.00     0.049 A 
ATOM     62  H   UNL A   1      45.823  27.046  27.068  1.00  0.00     0.167 HD
ATOM     63  C   UNL A   1      48.288  28.486  26.909  1.00  0.00     0.074 A 
ATOM     64  C   UNL A   1      49.264  29.556  26.966  1.00  0.00     0.031 C 
ATOM     65  C   UNL A   1      48.581  27.204  26.574  1.00  0.00     0.037 A 
BRANCH  52  66
ATOM     66  C   UNL A   1      43.753  23.326  26.690  1.00  0.00     0.058 A 
ATOM     67  C   UNL A   1      43.555  22.755  25.423  1.00  0.00     0.135 A 
ATOM     68  C   UNL A   1      43.475  22.531  27.814  1.00  0.00     0.135 A 
ATOM     69  F   UNL A   1      43.782  23.476  24.313  1.00  0.00    -0.206 F 
ATOM     70  C   UNL A   1      43.079  21.456  25.275  1.00  0.00     0.059 A 
ATOM     71  C   UNL A   1      43.026  21.220  27.690  1.00  0.00     0.059 A 
ATOM     72  F   UNL A   1      43.637  23.028  29.050  1.00  0.00    -0.206 F 
ATOM     73  C   UNL A   1      42.820  20.695  26.416  1.00  0.00     0.060 A 
BRANCH  73  74
ATOM     74  S   UNL A   1      42.218  19.005  26.207  1.00  0.00     0.124 S 
ATOM     75  O   UNL A   1      43.141  18.489  25.202  1.00  0.00    -0.237 OA
ATOM     76  O   UNL A   1      42.368  18.454  27.550  1.00  0.00    -0.237 OA
ATOM     77  O   UNL A   1      40.840  19.188  25.758  1.00  0.00    -0.744 OA
ENDBRANCH  73  74
ENDBRANCH  52  66
BRANCH  53  78
ATOM     78  C   UNL A   1      46.796  32.798  28.124  1.00  0.00     0.058 A 
ATOM     79  C   UNL A   1      47.295  33.197  29.372  1.00  0.00     0.135 A 
ATOM     80  C   UNL A   1      46.751  33.760  27.102  1.00  0.00     0.135 A 
ATOM     81  F   UNL A   1      47.352  32.318  30.383  1.00  0.00    -0.206 F 
ATOM     82  C   UNL A   1      47.719  34.502  29.604  1.00  0.00     0.059 A 
ATOM     83  C   UNL A   1      47.196  35.063  27.300  1.00  0.00     0.059 A 
ATOM     84  F   UNL A   1      46.294  33.428  25.884  1.00  0.00    -0.206 F 
ATOM     85  C   UNL A   1      47.669  35.428  28.560  1.00  0.00     0.060 A 
BRANCH  85  86
ATOM     86  S   UNL A   1      48.262  37.106  28.861  1.00  0.00     0.124 S 
ATOM     87  O   UNL A   1      48.307  37.144  30.318  1.00  0.00    -0.237 OA
ATOM     88  O   UNL A   1      49.553  37.100  28.181  1.00  0.00    -0.237 OA
ATOM     89  O   UNL A   1      47.239  37.941  28.239  1.00  0.00    -0.744 OA
ENDBRANCH  85  86
ENDBRANCH  53  78
BRANCH  65  90
ATOM     90  C   UNL A   1      50.008  26.895  26.210  1.00  0.00     0.058 A 
ATOM     91  C   UNL A   1      50.938  26.463  27.168  1.00  0.00     0.135 A 
ATOM     92  C   UNL A   1      50.431  26.979  24.874  1.00  0.00     0.135 A 
ATOM     93  F   UNL A   1      50.587  26.370  28.460  1.00  0.00    -0.206 F 
ATOM     94  C   UNL A   1      52.248  26.151  26.816  1.00  0.00     0.059 A 
ATOM     95  C   UNL A   1      51.725  26.641  24.496  1.00  0.00     0.059 A 
ATOM     96  F   UNL A   1      49.576  27.375  23.917  1.00  0.00    -0.206 F 
ATOM     97  C   UNL A   1      52.630  26.240  25.476  1.00  0.00     0.060 A 
BRANCH  97  98
ATOM     98  S   UNL A   1      54.323  25.799  25.030  1.00  0.00     0.124 S 
ATOM     99  O   UNL A   1      54.257  24.341  25.037  1.00  0.00    -0.237 OA
ATOM    100  O   UNL A   1      54.470  26.420  23.717  1.00  0.00    -0.237 OA
ATOM    101  O   UNL A   1      55.123  26.397  26.093  1.00  0.00    -0.744 OA
ENDBRANCH  97  98
ENDBRANCH  65  90
ENDBRANCH  39  40
ENDBRANCH  32  34
ENDBRANCH  31  32
ENDBRANCH  30  31
ENDBRANCH   1  30
TORSDOF 20
ENDMDL
MODEL 3
REMARK VINA RESULT:     -10.9      2.789      8.221
REMARK SMILES CC[NH+]1CCC2(CC1)OC[C@H](C(=O)OCCOCCOC(=O)c1ccc(-c3c4nc(c(-c5c(F)cc(S(=O)(=O)[O-])cc5F)c5ccc([nH]5)c(-c5c(F)cc(S(=O)(=O)[O-])cc5F)c5nc(c(-c6c(F)cc(S(=O)(=O)[O-])cc6F)c6ccc3[nH]6)C=C5)C=C4)cc1)N2C(=O)c1ccc(F)cc1
REMARK SMILES IDX 18 1 17 2 16 3 15 4 14 5 12 6 13 7 11 8 3 9 4 10 8 11 5 13
REMARK SMILES IDX 7 14 6 15 9 16 89 17 10 18 2 19 1 20 90 21 91 22 92 23 93 24
REMARK SMILES IDX 98 25 94 26 97 27 95 28 96 29 19 30 20 31 21 32 22 33 23 34
REMARK SMILES IDX 24 35 88 36 25 37 87 38 26 39 27 40 28 41 81 42 29 43 86 44
REMARK SMILES IDX 80 45 82 46 30 47 85 48 79 49 78 50 31 52 65 53 44 54 64 55
REMARK SMILES IDX 45 56 48 57 63 58 83 59 46 60 47 61 62 63 84 64 49 65 32 66
REMARK SMILES IDX 33 67 42 68 34 69 35 70 41 71 43 72 36 73 37 74 38 75 39 76
REMARK SMILES IDX 40 77 66 78 67 79 76 80 68 81 69 82 75 83 77 84 70 85 71 86
REMARK SMILES IDX 72 87 73 88 74 89 50 90 51 91 60 92 52 93 53 94 59 95 61 96
REMARK SMILES IDX 54 97 55 98 56 99 57 100 58 101
REMARK H PARENT 3 12 82 51 48 62
REMARK Flexibility Score: inf
ROOT
ATOM      1  C   UNL A   1      31.847  28.752  27.313  1.00  0.00     0.202 C 
ENDROOT
BRANCH   1   2
ATOM      2  O   UNL A   1      32.467  27.561  26.865  1.00  0.00    -0.374 OA
BRANCH   2   3
ATOM      3  C   UNL A   1      32.235  27.179  25.511  1.00  0.00     0.202 C 
BRANCH   3   4
ATOM      4  C   UNL A   1      31.939  25.701  25.207  1.00  0.00     0.261 C 
BRANCH   4   5
ATOM      5  O   UNL A   1      31.977  25.336  23.801  1.00  0.00    -0.462 OA
BRANCH   5   6
ATOM      6  C   UNL A   1      31.637  24.042  23.547  1.00  0.00     0.331 C 
ATOM      7  O   UNL A   1      30.481  23.624  23.615  1.00  0.00    -0.250 OA
BRANCH   6   8
ATOM      8  C   UNL A   1      32.799  23.075  23.229  1.00  0.00     0.224 C 
ATOM      9  N   UNL A   1      37.150  22.819  26.131  1.00  0.00    -0.335 N 
ATOM     10  C   UNL A   1      35.959  23.630  26.269  1.00  0.00     0.267 C 
ATOM     11  C   UNL A   1      37.207  21.966  24.939  1.00  0.00     0.267 C 
ATOM     12  H   UNL A   1      37.021  22.166  26.904  1.00  0.00     0.348 HD
ATOM     13  C   UNL A   1      35.538  24.256  24.969  1.00  0.00     0.120 C 
ATOM     14  C   UNL A   1      36.325  22.294  23.714  1.00  0.00     0.120 C 
ATOM     15  C   UNL A   1      35.107  23.190  23.968  1.00  0.00     0.155 C 
ATOM     16  O   UNL A   1      34.932  23.976  22.753  1.00  0.00    -0.352 OA
ATOM     17  N   UNL A   1      33.778  22.555  24.186  1.00  0.00    -0.293 N 
ATOM     18  C   UNL A   1      33.669  23.683  22.154  1.00  0.00     0.200 C 
BRANCH   9  19
ATOM     19  C   UNL A   1      38.421  23.473  26.447  1.00  0.00     0.258 C 
ATOM     20  C   UNL A   1      39.631  22.542  26.542  1.00  0.00     0.071 C 
ENDBRANCH   9  19
BRANCH  17  21
ATOM     21  C   UNL A   1      33.333  21.463  24.933  1.00  0.00     0.256 C 
ATOM     22  O   UNL A   1      32.723  21.606  25.993  1.00  0.00    -0.269 OA
BRANCH  21  23
ATOM     23  C   UNL A   1      33.457  20.072  24.469  1.00  0.00     0.040 A 
ATOM     24  C   UNL A   1      34.607  19.331  24.779  1.00  0.00     0.017 A 
ATOM     25  C   UNL A   1      32.501  19.542  23.596  1.00  0.00     0.017 A 
ATOM     26  C   UNL A   1      34.713  18.004  24.344  1.00  0.00     0.040 A 
ATOM     27  C   UNL A   1      32.590  18.207  23.194  1.00  0.00     0.040 A 
ATOM     28  C   UNL A   1      33.683  17.444  23.590  1.00  0.00     0.123 A 
ATOM     29  F   UNL A   1      33.745  16.151  23.251  1.00  0.00    -0.207 F 
ENDBRANCH  21  23
ENDBRANCH  17  21
ENDBRANCH   6   8
ENDBRANCH   5   6
ENDBRANCH   4   5
ENDBRANCH   3   4
ENDBRANCH   2   3
ENDBRANCH   1   2
BRANCH   1  30
ATOM     30  C   UNL A   1      32.498  30.100  26.969  1.00  0.00     0.261 C 
BRANCH  30  31
ATOM     31  O   UNL A   1      33.911  30.165  27.030  1.00  0.00    -0.460 OA
BRANCH  31  32
ATOM     32  C   UNL A   1      34.416  31.212  27.703  1.00  0.00     0.338 C 
ATOM     33  O   UNL A   1      33.894  32.286  27.945  1.00  0.00    -0.246 OA
BRANCH  32  34
ATOM     34  C   UNL A   1      35.733  30.779  28.158  1.00  0.00     0.060 A 
ATOM     35  C   UNL A   1      35.912  29.427  28.451  1.00  0.00     0.016 A 
ATOM     36  C   UNL A   1      36.778  31.702  28.259  1.00  0.00     0.016 A 
ATOM     37  C   UNL A   1      37.147  28.997  28.910  1.00  0.00     0.010 A 
ATOM     38  C   UNL A   1      38.017  31.266  28.716  1.00  0.00     0.010 A 
ATOM     39  C   UNL A   1      38.190  29.920  29.080  1.00  0.00    -0.014 A 
BRANCH  39  40
ATOM     40  C   UNL A   1      39.413  29.489  29.785  1.00  0.00     0.031 A 
ATOM     41  C   UNL A   1      39.787  30.188  31.059  1.00  0.00     0.074 A 
ATOM     42  C   UNL A   1      40.128  28.455  29.315  1.00  0.00     0.049 A 
ATOM     43  N   UNL A   1      40.793  29.963  31.860  1.00  0.00    -0.248 NA
ATOM     44  C   UNL A   1      38.910  31.292  31.490  1.00  0.00     0.031 C 
ATOM     45  C   UNL A   1      39.822  27.702  28.098  1.00  0.00     0.029 A 
ATOM     46  N   UNL A   1      41.255  27.854  29.808  1.00  0.00    -0.354 N 
ATOM     47  C   UNL A   1      40.672  30.893  32.886  1.00  0.00     0.074 A 
ATOM     48  C   UNL A   1      39.519  31.712  32.587  1.00  0.00     0.031 C 
ATOM     49  C   UNL A   1      40.740  26.733  27.942  1.00  0.00     0.029 A 
ATOM     50  C   UNL A   1      41.713  26.821  29.027  1.00  0.00     0.049 A 
ATOM     51  H   UNL A   1      41.695  28.136  30.643  1.00  0.00     0.167 HD
ATOM     52  C   UNL A   1      41.450  31.036  33.983  1.00  0.00     0.037 A 
ATOM     53  C   UNL A   1      42.807  26.049  29.171  1.00  0.00     0.037 A 
ATOM     54  C   UNL A   1      42.594  30.207  34.258  1.00  0.00     0.049 A 
ATOM     55  C   UNL A   1      43.690  26.266  30.372  1.00  0.00     0.074 A 
ATOM     56  C   UNL A   1      43.448  30.250  35.345  1.00  0.00     0.029 A 
ATOM     57  N   UNL A   1      43.049  29.190  33.429  1.00  0.00    -0.354 N 
ATOM     58  N   UNL A   1      43.549  27.127  31.353  1.00  0.00    -0.248 NA
ATOM     59  C   UNL A   1      44.872  25.405  30.491  1.00  0.00     0.031 C 
ATOM     60  C   UNL A   1      44.451  29.297  35.145  1.00  0.00     0.029 A 
ATOM     61  C   UNL A   1      44.188  28.617  33.966  1.00  0.00     0.049 A 
ATOM     62  H   UNL A   1      42.625  28.918  32.584  1.00  0.00     0.167 HD
ATOM     63  C   UNL A   1      44.611  26.895  32.219  1.00  0.00     0.074 A 
ATOM     64  C   UNL A   1      45.375  25.801  31.652  1.00  0.00     0.031 C 
ATOM     65  C   UNL A   1      44.927  27.523  33.380  1.00  0.00     0.037 A 
BRANCH  52  66
ATOM     66  C   UNL A   1      41.107  32.140  34.946  1.00  0.00     0.058 A 
ATOM     67  C   UNL A   1      41.725  33.399  34.885  1.00  0.00     0.135 A 
ATOM     68  C   UNL A   1      40.124  31.942  35.931  1.00  0.00     0.135 A 
ATOM     69  F   UNL A   1      42.688  33.637  33.980  1.00  0.00    -0.206 F 
ATOM     70  C   UNL A   1      41.399  34.415  35.779  1.00  0.00     0.059 A 
ATOM     71  C   UNL A   1      39.761  32.953  36.815  1.00  0.00     0.059 A 
ATOM     72  F   UNL A   1      39.507  30.756  36.041  1.00  0.00    -0.206 F 
ATOM     73  C   UNL A   1      40.413  34.183  36.739  1.00  0.00     0.060 A 
BRANCH  73  74
ATOM     74  S   UNL A   1      39.990  35.516  37.881  1.00  0.00     0.124 S 
ATOM     75  O   UNL A   1      39.760  36.626  36.961  1.00  0.00    -0.237 OA
ATOM     76  O   UNL A   1      38.804  34.990  38.549  1.00  0.00    -0.237 OA
ATOM     77  O   UNL A   1      41.178  35.635  38.721  1.00  0.00    -0.744 OA
ENDBRANCH  73  74
ENDBRANCH  52  66
BRANCH  53  78
ATOM     78  C   UNL A   1      43.124  25.014  28.151  1.00  0.00     0.058 A 
ATOM     79  C   UNL A   1      43.737  25.351  26.936  1.00  0.00     0.135 A 
ATOM     80  C   UNL A   1      42.828  23.660  28.378  1.00  0.00     0.135 A 
ATOM     81  F   UNL A   1      44.035  26.630  26.667  1.00  0.00    -0.206 F 
ATOM     82  C   UNL A   1      44.031  24.387  25.976  1.00  0.00     0.059 A 
ATOM     83  C   UNL A   1      43.137  22.674  27.447  1.00  0.00     0.059 A 
ATOM     84  F   UNL A   1      42.252  23.282  29.530  1.00  0.00    -0.206 F 
ATOM     85  C   UNL A   1      43.730  23.049  26.243  1.00  0.00     0.060 A 
BRANCH  85  86
ATOM     86  S   UNL A   1      44.155  21.803  25.008  1.00  0.00     0.124 S 
ATOM     87  O   UNL A   1      43.994  22.552  23.767  1.00  0.00    -0.237 OA
ATOM     88  O   UNL A   1      45.526  21.463  25.376  1.00  0.00    -0.237 OA
ATOM     89  O   UNL A   1      43.172  20.749  25.241  1.00  0.00    -0.744 OA
ENDBRANCH  85  86
ENDBRANCH  53  78
BRANCH  65  90
ATOM     90  C   UNL A   1      46.129  27.021  34.131  1.00  0.00     0.058 A 
ATOM     91  C   UNL A   1      46.026  26.014  35.103  1.00  0.00     0.135 A 
ATOM     92  C   UNL A   1      47.408  27.516  33.832  1.00  0.00     0.135 A 
ATOM     93  F   UNL A   1      44.825  25.509  35.431  1.00  0.00    -0.206 F 
ATOM     94  C   UNL A   1      47.148  25.534  35.772  1.00  0.00     0.059 A 
ATOM     95  C   UNL A   1      48.546  27.029  34.464  1.00  0.00     0.059 A 
ATOM     96  F   UNL A   1      47.563  28.471  32.901  1.00  0.00    -0.206 F 
ATOM     97  C   UNL A   1      48.404  26.047  35.442  1.00  0.00     0.060 A 
BRANCH  97  98
ATOM     98  S   UNL A   1      49.855  25.391  36.293  1.00  0.00     0.124 S 
ATOM     99  O   UNL A   1      50.915  26.243  35.763  1.00  0.00    -0.237 OA
ATOM    100  O   UNL A   1      49.514  25.601  37.697  1.00  0.00    -0.237 OA
ATOM    101  O   UNL A   1      49.899  23.996  35.866  1.00  0.00    -0.744 OA
ENDBRANCH  97  98
ENDBRANCH  65  90
ENDBRANCH  39  40
ENDBRANCH  32  34
ENDBRANCH  31  32
ENDBRANCH  30  31
ENDBRANCH   1  30
TORSDOF 20
ENDMDL
