MODEL 1
REMARK VINA RESULT:     -11.5      0.000      0.000
REMARK SMILES O=C(OCCOCCOC(=O)[C@H]1CCC(=O)N(C2CCCCC2)[C@H]1c1ccccc1)c1ccc(-c2c3nc(c(-c4c(F)cc(S(=O)(=O)[O-])cc4F)c4ccc([nH]4)c(-c4c(F)cc(S(=O)(=O)[O-])cc4F)c4nc(c(-c5c(F)cc(S(=O)(=O)[O-])cc5F)c5ccc2[nH]5)C=C4)C=C3)cc1
REMARK SMILES IDX 5 1 4 2 3 3 2 4 1 5 31 6 32 7 96 8 33 9 95 10 34 11 35 12
REMARK SMILES IDX 36 13 89 14 37 15 94 16 88 17 90 18 38 19 93 20 87 21 86 22
REMARK SMILES IDX 39 24 73 25 52 26 72 27 53 28 56 29 71 30 91 31 54 32 55 33
REMARK SMILES IDX 70 35 92 36 57 37 40 38 41 39 50 40 42 41 43 42 49 43 51 44
REMARK SMILES IDX 44 45 45 46 46 47 47 48 48 49 74 50 75 51 84 52 76 53 77 54
REMARK SMILES IDX 83 55 85 56 78 57 79 58 80 59 81 60 82 61 58 62 59 63 68 64
REMARK SMILES IDX 60 65 61 66 67 67 69 68 62 69 63 70 64 71 65 72 66 73 6 74
REMARK SMILES IDX 7 75 8 76 9 77 10 78 11 79 12 80 13 81 24 82 14 83 17 84
REMARK SMILES IDX 15 85 16 86 25 87 26 88 30 89 27 90 29 91 28 92 18 93 19 94
REMARK SMILES IDX 23 95 20 96 22 97 21 98
REMARK H PARENT 90 23 56 34
REMARK Flexibility Score: inf
ROOT
ATOM      1  C   UNL A   1      32.143  29.064  25.706  1.00  0.00     0.202 C 
ENDROOT
BRANCH   1   2
ATOM      2  C   UNL A   1      32.427  29.314  27.186  1.00  0.00     0.261 C 
BRANCH   2   3
ATOM      3  O   UNL A   1      33.849  29.231  27.423  1.00  0.00    -0.460 OA
BRANCH   3   4
ATOM      4  C   UNL A   1      34.630  30.137  28.059  1.00  0.00     0.338 C 
ATOM      5  O   UNL A   1      34.157  31.206  28.430  1.00  0.00    -0.246 OA
BRANCH   4   6
ATOM      6  C   UNL A   1      36.061  29.848  28.319  1.00  0.00     0.060 A 
ATOM      7  C   UNL A   1      37.024  30.061  27.346  1.00  0.00     0.016 A 
ATOM      8  C   UNL A   1      36.483  29.408  29.573  1.00  0.00     0.016 A 
ATOM      9  C   UNL A   1      38.339  29.744  27.508  1.00  0.00     0.010 A 
ATOM     10  C   UNL A   1      37.846  29.179  29.801  1.00  0.00     0.010 A 
ATOM     11  C   UNL A   1      38.769  29.351  28.758  1.00  0.00    -0.014 A 
BRANCH  11  12
ATOM     12  C   UNL A   1      40.196  29.042  28.830  1.00  0.00     0.031 A 
ATOM     13  C   UNL A   1      41.086  30.060  29.454  1.00  0.00     0.074 A 
ATOM     14  C   UNL A   1      40.593  27.779  28.576  1.00  0.00     0.049 A 
ATOM     15  N   UNL A   1      42.380  30.051  29.572  1.00  0.00    -0.248 NA
ATOM     16  C   UNL A   1      40.428  31.243  30.042  1.00  0.00     0.031 C 
ATOM     17  C   UNL A   1      39.704  26.673  28.184  1.00  0.00     0.029 A 
ATOM     18  N   UNL A   1      41.820  27.192  28.665  1.00  0.00    -0.354 N 
ATOM     19  C   UNL A   1      42.699  31.245  30.199  1.00  0.00     0.074 A 
ATOM     20  C   UNL A   1      41.467  31.955  30.447  1.00  0.00     0.031 C 
ATOM     21  C   UNL A   1      40.418  25.542  28.091  1.00  0.00     0.029 A 
ATOM     22  C   UNL A   1      41.819  25.864  28.302  1.00  0.00     0.049 A 
ATOM     23  H   UNL A   1      42.628  27.670  28.960  1.00  0.00     0.167 HD
ATOM     24  C   UNL A   1      43.932  31.696  30.515  1.00  0.00     0.037 A 
ATOM     25  C   UNL A   1      42.857  25.035  28.100  1.00  0.00     0.037 A 
ATOM     26  C   UNL A   1      45.117  30.931  30.240  1.00  0.00     0.049 A 
ATOM     27  C   UNL A   1      44.228  25.613  28.317  1.00  0.00     0.074 A 
ATOM     28  C   UNL A   1      46.439  31.296  30.384  1.00  0.00     0.029 A 
ATOM     29  N   UNL A   1      45.105  29.624  29.764  1.00  0.00    -0.354 N 
ATOM     30  N   UNL A   1      44.554  26.806  28.767  1.00  0.00    -0.248 NA
ATOM     31  C   UNL A   1      45.370  24.761  27.978  1.00  0.00     0.031 C 
ATOM     32  C   UNL A   1      47.227  30.223  29.953  1.00  0.00     0.029 A 
ATOM     33  C   UNL A   1      46.396  29.168  29.595  1.00  0.00     0.049 A 
ATOM     34  H   UNL A   1      44.293  29.100  29.574  1.00  0.00     0.167 HD
ATOM     35  C   UNL A   1      45.940  26.841  28.784  1.00  0.00     0.074 A 
ATOM     36  C   UNL A   1      46.387  25.540  28.318  1.00  0.00     0.031 C 
ATOM     37  C   UNL A   1      46.773  27.850  29.143  1.00  0.00     0.037 A 
BRANCH  24  38
ATOM     38  C   UNL A   1      44.028  33.082  31.077  1.00  0.00     0.058 A 
ATOM     39  C   UNL A   1      44.113  33.327  32.457  1.00  0.00     0.135 A 
ATOM     40  C   UNL A   1      43.969  34.191  30.218  1.00  0.00     0.135 A 
ATOM     41  F   UNL A   1      44.122  32.304  33.326  1.00  0.00    -0.206 F 
ATOM     42  C   UNL A   1      44.115  34.622  32.965  1.00  0.00     0.059 A 
ATOM     43  C   UNL A   1      43.996  35.495  30.702  1.00  0.00     0.059 A 
ATOM     44  F   UNL A   1      43.858  34.014  28.891  1.00  0.00    -0.206 F 
ATOM     45  C   UNL A   1      44.054  35.700  32.079  1.00  0.00     0.060 A 
BRANCH  45  46
ATOM     46  S   UNL A   1      44.049  37.374  32.755  1.00  0.00     0.124 S 
ATOM     47  O   UNL A   1      45.338  37.416  33.440  1.00  0.00    -0.237 OA
ATOM     48  O   UNL A   1      43.944  38.194  31.551  1.00  0.00    -0.237 OA
ATOM     49  O   UNL A   1      42.876  37.386  33.623  1.00  0.00    -0.744 OA
ENDBRANCH  45  46
ENDBRANCH  24  38
BRANCH  25  50
ATOM     50  C   UNL A   1      42.649  23.655  27.578  1.00  0.00     0.058 A 
ATOM     51  C   UNL A   1      42.455  22.566  28.439  1.00  0.00     0.135 A 
ATOM     52  C   UNL A   1      42.666  23.390  26.196  1.00  0.00     0.135 A 
ATOM     53  F   UNL A   1      42.430  22.758  29.766  1.00  0.00    -0.206 F 
ATOM     54  C   UNL A   1      42.319  21.266  27.956  1.00  0.00     0.059 A 
ATOM     55  C   UNL A   1      42.499  22.106  25.688  1.00  0.00     0.059 A 
ATOM     56  F   UNL A   1      42.835  24.392  25.318  1.00  0.00    -0.206 F 
ATOM     57  C   UNL A   1      42.347  21.046  26.577  1.00  0.00     0.060 A 
BRANCH  57  58
ATOM     58  S   UNL A   1      42.180  19.357  25.959  1.00  0.00     0.124 S 
ATOM     59  O   UNL A   1      43.053  19.384  24.793  1.00  0.00    -0.237 OA
ATOM     60  O   UNL A   1      42.651  18.567  27.093  1.00  0.00    -0.237 OA
ATOM     61  O   UNL A   1      40.752  19.243  25.676  1.00  0.00    -0.744 OA
ENDBRANCH  57  58
ENDBRANCH  25  50
BRANCH  37  62
ATOM     62  C   UNL A   1      48.241  27.552  29.089  1.00  0.00     0.058 A 
ATOM     63  C   UNL A   1      49.011  27.851  27.956  1.00  0.00     0.135 A 
ATOM     64  C   UNL A   1      48.887  27.019  30.214  1.00  0.00     0.135 A 
ATOM     65  F   UNL A   1      48.432  28.353  26.854  1.00  0.00    -0.206 F 
ATOM     66  C   UNL A   1      50.378  27.609  27.934  1.00  0.00     0.059 A 
ATOM     67  C   UNL A   1      50.257  26.802  30.226  1.00  0.00     0.059 A 
ATOM     68  F   UNL A   1      48.187  26.729  31.323  1.00  0.00    -0.206 F 
ATOM     69  C   UNL A   1      50.992  27.089  29.077  1.00  0.00     0.060 A 
BRANCH  69  70
ATOM     70  S   UNL A   1      52.774  26.826  29.051  1.00  0.00     0.124 S 
ATOM     71  O   UNL A   1      52.924  25.951  27.894  1.00  0.00    -0.237 OA
ATOM     72  O   UNL A   1      53.288  28.184  28.892  1.00  0.00    -0.237 OA
ATOM     73  O   UNL A   1      53.045  26.209  30.346  1.00  0.00    -0.744 OA
ENDBRANCH  69  70
ENDBRANCH  37  62
ENDBRANCH  11  12
ENDBRANCH   4   6
ENDBRANCH   3   4
ENDBRANCH   2   3
ENDBRANCH   1   2
BRANCH   1  74
ATOM     74  O   UNL A   1      31.718  27.769  25.296  1.00  0.00    -0.374 OA
BRANCH  74  75
ATOM     75  C   UNL A   1      31.588  26.775  26.315  1.00  0.00     0.202 C 
BRANCH  75  76
ATOM     76  C   UNL A   1      32.437  25.565  25.917  1.00  0.00     0.261 C 
BRANCH  76  77
ATOM     77  O   UNL A   1      31.555  24.491  25.541  1.00  0.00    -0.463 OA
BRANCH  77  78
ATOM     78  C   UNL A   1      31.764  23.306  26.153  1.00  0.00     0.311 C 
ATOM     79  O   UNL A   1      31.808  23.140  27.369  1.00  0.00    -0.252 OA
BRANCH  78  80
ATOM     80  C   UNL A   1      31.945  22.173  25.169  1.00  0.00     0.127 C 
ATOM     81  C   UNL A   1      31.830  22.594  23.710  1.00  0.00     0.028 C 
ATOM     82  C   UNL A   1      33.185  21.282  25.325  1.00  0.00     0.130 C 
ATOM     83  C   UNL A   1      31.598  21.400  22.822  1.00  0.00     0.101 C 
ATOM     84  N   UNL A   1      32.989  20.103  24.452  1.00  0.00    -0.332 N 
ATOM     85  C   UNL A   1      32.370  20.154  23.203  1.00  0.00     0.223 C 
ATOM     86  O   UNL A   1      32.339  19.198  22.425  1.00  0.00    -0.275 OA
BRANCH  82  87
ATOM     87  C   UNL A   1      34.608  21.853  25.152  1.00  0.00    -0.025 A 
ATOM     88  C   UNL A   1      35.466  22.109  26.236  1.00  0.00     0.006 A 
ATOM     89  C   UNL A   1      35.076  22.226  23.875  1.00  0.00     0.006 A 
ATOM     90  C   UNL A   1      36.740  22.665  26.045  1.00  0.00     0.000 A 
ATOM     91  C   UNL A   1      36.366  22.733  23.676  1.00  0.00     0.000 A 
ATOM     92  C   UNL A   1      37.200  22.953  24.763  1.00  0.00     0.000 A 
ENDBRANCH  82  87
BRANCH  84  93
ATOM     93  C   UNL A   1      33.442  18.821  24.989  1.00  0.00     0.085 C 
ATOM     94  C   UNL A   1      32.243  17.872  25.133  1.00  0.00     0.025 C 
ATOM     95  C   UNL A   1      34.627  18.226  24.223  1.00  0.00     0.025 C 
ATOM     96  C   UNL A   1      32.665  16.513  25.663  1.00  0.00     0.002 C 
ATOM     97  C   UNL A   1      35.002  16.860  24.782  1.00  0.00     0.002 C 
ATOM     98  C   UNL A   1      33.794  15.928  24.820  1.00  0.00     0.000 C 
ENDBRANCH  84  93
ENDBRANCH  78  80
ENDBRANCH  77  78
ENDBRANCH  76  77
ENDBRANCH  75  76
ENDBRANCH  74  75
ENDBRANCH   1  74
TORSDOF 19
ENDMDL
MODEL 2
REMARK VINA RESULT:     -11.4      1.227      2.740
REMARK SMILES O=C(OCCOCCOC(=O)[C@H]1CCC(=O)N(C2CCCCC2)[C@H]1c1ccccc1)c1ccc(-c2c3nc(c(-c4c(F)cc(S(=O)(=O)[O-])cc4F)c4ccc([nH]4)c(-c4c(F)cc(S(=O)(=O)[O-])cc4F)c4nc(c(-c5c(F)cc(S(=O)(=O)[O-])cc5F)c5ccc2[nH]5)C=C4)C=C3)cc1
REMARK SMILES IDX 5 1 4 2 3 3 2 4 1 5 31 6 32 7 96 8 33 9 95 10 34 11 35 12
REMARK SMILES IDX 36 13 89 14 37 15 94 16 88 17 90 18 38 19 93 20 87 21 86 22
REMARK SMILES IDX 39 24 73 25 52 26 72 27 53 28 56 29 71 30 91 31 54 32 55 33
REMARK SMILES IDX 70 35 92 36 57 37 40 38 41 39 50 40 42 41 43 42 49 43 51 44
REMARK SMILES IDX 44 45 45 46 46 47 47 48 48 49 74 50 75 51 84 52 76 53 77 54
REMARK SMILES IDX 83 55 85 56 78 57 79 58 80 59 81 60 82 61 58 62 59 63 68 64
REMARK SMILES IDX 60 65 61 66 67 67 69 68 62 69 63 70 64 71 65 72 66 73 6 74
REMARK SMILES IDX 7 75 8 76 9 77 10 78 11 79 12 80 13 81 24 82 14 83 17 84
REMARK SMILES IDX 15 85 16 86 25 87 26 88 30 89 27 90 29 91 28 92 18 93 19 94
REMARK SMILES IDX 23 95 20 96 22 97 21 98
REMARK H PARENT 90 23 56 34
REMARK Flexibility Score: inf
ROOT
ATOM      1  C   UNL A   1      33.577  28.569  24.971  1.00  0.00     0.202 C 
ENDROOT
BRANCH   1   2
ATOM      2  C   UNL A   1      32.818  29.266  26.099  1.00  0.00     0.261 C 
BRANCH   2   3
ATOM      3  O   UNL A   1      33.591  29.192  27.316  1.00  0.00    -0.460 OA
BRANCH   3   4
ATOM      4  C   UNL A   1      34.367  30.163  27.856  1.00  0.00     0.338 C 
ATOM      5  O   UNL A   1      33.893  31.268  28.096  1.00  0.00    -0.246 OA
BRANCH   4   6
ATOM      6  C   UNL A   1      35.793  29.903  28.167  1.00  0.00     0.060 A 
ATOM      7  C   UNL A   1      36.783  30.104  27.219  1.00  0.00     0.016 A 
ATOM      8  C   UNL A   1      36.182  29.502  29.446  1.00  0.00     0.016 A 
ATOM      9  C   UNL A   1      38.096  29.810  27.431  1.00  0.00     0.010 A 
ATOM     10  C   UNL A   1      37.540  29.300  29.722  1.00  0.00     0.010 A 
ATOM     11  C   UNL A   1      38.492  29.458  28.703  1.00  0.00    -0.014 A 
BRANCH  11  12
ATOM     12  C   UNL A   1      39.921  29.172  28.827  1.00  0.00     0.031 A 
ATOM     13  C   UNL A   1      40.771  30.203  29.484  1.00  0.00     0.074 A 
ATOM     14  C   UNL A   1      40.347  27.916  28.588  1.00  0.00     0.049 A 
ATOM     15  N   UNL A   1      42.060  30.215  29.650  1.00  0.00    -0.248 NA
ATOM     16  C   UNL A   1      40.073  31.375  30.048  1.00  0.00     0.031 C 
ATOM     17  C   UNL A   1      39.491  26.795  28.163  1.00  0.00     0.029 A 
ATOM     18  N   UNL A   1      41.580  27.348  28.722  1.00  0.00    -0.354 N 
ATOM     19  C   UNL A   1      42.336  31.414  30.288  1.00  0.00     0.074 A 
ATOM     20  C   UNL A   1      41.084  32.103  30.491  1.00  0.00     0.031 C 
ATOM     21  C   UNL A   1      40.227  25.676  28.097  1.00  0.00     0.029 A 
ATOM     22  C   UNL A   1      41.614  26.021  28.359  1.00  0.00     0.049 A 
ATOM     23  H   UNL A   1      42.369  27.840  29.047  1.00  0.00     0.167 HD
ATOM     24  C   UNL A   1      43.549  31.885  30.649  1.00  0.00     0.037 A 
ATOM     25  C   UNL A   1      42.672  25.209  28.195  1.00  0.00     0.037 A 
ATOM     26  C   UNL A   1      44.755  31.139  30.418  1.00  0.00     0.049 A 
ATOM     27  C   UNL A   1      44.024  25.809  28.463  1.00  0.00     0.074 A 
ATOM     28  C   UNL A   1      46.065  31.525  30.611  1.00  0.00     0.029 A 
ATOM     29  N   UNL A   1      44.782  29.832  29.941  1.00  0.00    -0.354 N 
ATOM     30  N   UNL A   1      44.314  27.006  28.924  1.00  0.00    -0.248 NA
ATOM     31  C   UNL A   1      45.192  24.975  28.165  1.00  0.00     0.031 C 
ATOM     32  C   UNL A   1      46.886  30.466  30.208  1.00  0.00     0.029 A 
ATOM     33  C   UNL A   1      46.086  29.397  29.820  1.00  0.00     0.049 A 
ATOM     34  H   UNL A   1      43.986  29.295  29.721  1.00  0.00     0.167 HD
ATOM     35  C   UNL A   1      45.697  27.064  28.993  1.00  0.00     0.074 A 
ATOM     36  C   UNL A   1      46.182  25.771  28.543  1.00  0.00     0.031 C 
ATOM     37  C   UNL A   1      46.501  28.086  29.382  1.00  0.00     0.037 A 
BRANCH  24  38
ATOM     38  C   UNL A   1      43.601  33.271  31.215  1.00  0.00     0.058 A 
ATOM     39  C   UNL A   1      43.768  34.406  30.404  1.00  0.00     0.135 A 
ATOM     40  C   UNL A   1      43.547  33.462  32.605  1.00  0.00     0.135 A 
ATOM     41  F   UNL A   1      43.876  34.276  29.073  1.00  0.00    -0.206 F 
ATOM     42  C   UNL A   1      43.901  35.677  30.955  1.00  0.00     0.059 A 
ATOM     43  C   UNL A   1      43.652  34.727  33.175  1.00  0.00     0.059 A 
ATOM     44  F   UNL A   1      43.418  32.408  33.427  1.00  0.00    -0.206 F 
ATOM     45  C   UNL A   1      43.844  35.827  32.342  1.00  0.00     0.060 A 
BRANCH  45  46
ATOM     46  S   UNL A   1      44.026  37.481  33.040  1.00  0.00     0.124 S 
ATOM     47  O   UNL A   1      43.832  38.319  31.860  1.00  0.00    -0.237 OA
ATOM     48  O   UNL A   1      42.953  37.521  34.029  1.00  0.00    -0.237 OA
ATOM     49  O   UNL A   1      45.379  37.472  33.587  1.00  0.00    -0.744 OA
ENDBRANCH  45  46
ENDBRANCH  24  38
BRANCH  25  50
ATOM     50  C   UNL A   1      42.506  23.826  27.665  1.00  0.00     0.058 A 
ATOM     51  C   UNL A   1      42.406  22.719  28.520  1.00  0.00     0.135 A 
ATOM     52  C   UNL A   1      42.468  23.577  26.281  1.00  0.00     0.135 A 
ATOM     53  F   UNL A   1      42.437  22.895  29.850  1.00  0.00    -0.206 F 
ATOM     54  C   UNL A   1      42.310  21.420  28.027  1.00  0.00     0.059 A 
ATOM     55  C   UNL A   1      42.338  22.292  25.765  1.00  0.00     0.059 A 
ATOM     56  F   UNL A   1      42.545  24.596  25.409  1.00  0.00    -0.206 F 
ATOM     57  C   UNL A   1      42.282  21.216  26.646  1.00  0.00     0.060 A 
BRANCH  57  58
ATOM     58  S   UNL A   1      42.166  19.528  26.015  1.00  0.00     0.124 S 
ATOM     59  O   UNL A   1      43.074  19.578  24.876  1.00  0.00    -0.237 OA
ATOM     60  O   UNL A   1      42.617  18.741  27.158  1.00  0.00    -0.237 OA
ATOM     61  O   UNL A   1      40.750  19.388  25.687  1.00  0.00    -0.744 OA
ENDBRANCH  57  58
ENDBRANCH  25  50
BRANCH  37  62
ATOM     62  C   UNL A   1      47.974  27.812  29.382  1.00  0.00     0.058 A 
ATOM     63  C   UNL A   1      48.628  27.301  30.512  1.00  0.00     0.135 A 
ATOM     64  C   UNL A   1      48.720  28.008  28.210  1.00  0.00     0.135 A 
ATOM     65  F   UNL A   1      47.953  27.108  31.656  1.00  0.00    -0.206 F 
ATOM     66  C   UNL A   1      49.985  27.012  30.486  1.00  0.00     0.059 A 
ATOM     67  C   UNL A   1      50.070  27.693  28.152  1.00  0.00     0.059 A 
ATOM     68  F   UNL A   1      48.130  28.485  27.102  1.00  0.00    -0.206 F 
ATOM     69  C   UNL A   1      50.695  27.207  29.299  1.00  0.00     0.060 A 
BRANCH  69  70
ATOM     70  S   UNL A   1      52.446  26.782  29.265  1.00  0.00     0.124 S 
ATOM     71  O   UNL A   1      52.555  26.088  27.986  1.00  0.00    -0.237 OA
ATOM     72  O   UNL A   1      53.086  28.093  29.333  1.00  0.00    -0.237 OA
ATOM     73  O   UNL A   1      52.617  25.947  30.451  1.00  0.00    -0.744 OA
ENDBRANCH  69  70
ENDBRANCH  37  62
ENDBRANCH  11  12
ENDBRANCH   4   6
ENDBRANCH   3   4
ENDBRANCH   2   3
ENDBRANCH   1   2
BRANCH   1  74
ATOM     74  O   UNL A   1      33.195  27.250  24.597  1.00  0.00    -0.374 OA
BRANCH  74  75
ATOM     75  C   UNL A   1      33.626  26.788  23.314  1.00  0.00     0.202 C 
BRANCH  75  76
ATOM     76  C   UNL A   1      32.448  26.085  22.637  1.00  0.00     0.261 C 
BRANCH  76  77
ATOM     77  O   UNL A   1      31.386  25.942  23.598  1.00  0.00    -0.463 OA
BRANCH  77  78
ATOM     78  C   UNL A   1      30.940  24.686  23.813  1.00  0.00     0.311 C 
ATOM     79  O   UNL A   1      30.088  24.117  23.136  1.00  0.00    -0.252 OA
BRANCH  78  80
ATOM     80  C   UNL A   1      31.607  24.033  25.002  1.00  0.00     0.127 C 
ATOM     81  C   UNL A   1      30.639  23.363  25.967  1.00  0.00     0.028 C 
ATOM     82  C   UNL A   1      32.771  23.070  24.729  1.00  0.00     0.130 C 
ATOM     83  C   UNL A   1      31.293  23.114  27.300  1.00  0.00     0.101 C 
ATOM     84  N   UNL A   1      33.428  22.798  26.028  1.00  0.00    -0.332 N 
ATOM     85  C   UNL A   1      32.741  22.673  27.235  1.00  0.00     0.223 C 
ATOM     86  O   UNL A   1      33.278  22.307  28.283  1.00  0.00    -0.275 OA
BRANCH  82  87
ATOM     87  C   UNL A   1      32.558  21.760  23.944  1.00  0.00    -0.025 A 
ATOM     88  C   UNL A   1      32.329  21.726  22.557  1.00  0.00     0.006 A 
ATOM     89  C   UNL A   1      32.501  20.525  24.623  1.00  0.00     0.006 A 
ATOM     90  C   UNL A   1      32.102  20.518  21.883  1.00  0.00     0.000 A 
ATOM     91  C   UNL A   1      32.325  19.312  23.945  1.00  0.00     0.000 A 
ATOM     92  C   UNL A   1      32.125  19.309  22.571  1.00  0.00     0.000 A 
ENDBRANCH  82  87
BRANCH  84  93
ATOM     93  C   UNL A   1      34.886  22.712  26.007  1.00  0.00     0.085 C 
ATOM     94  C   UNL A   1      35.312  21.328  25.494  1.00  0.00     0.025 C 
ATOM     95  C   UNL A   1      35.554  23.884  25.282  1.00  0.00     0.025 C 
ATOM     96  C   UNL A   1      36.823  21.195  25.426  1.00  0.00     0.002 C 
ATOM     97  C   UNL A   1      37.065  23.698  25.229  1.00  0.00     0.002 C 
ATOM     98  C   UNL A   1      37.433  22.343  24.629  1.00  0.00     0.000 C 
ENDBRANCH  84  93
ENDBRANCH  78  80
ENDBRANCH  77  78
ENDBRANCH  76  77
ENDBRANCH  75  76
ENDBRANCH  74  75
ENDBRANCH   1  74
TORSDOF 19
ENDMDL
MODEL 3
REMARK VINA RESULT:     -11.0      5.303     10.149
REMARK SMILES O=C(OCCOCCOC(=O)[C@H]1CCC(=O)N(C2CCCCC2)[C@H]1c1ccccc1)c1ccc(-c2c3nc(c(-c4c(F)cc(S(=O)(=O)[O-])cc4F)c4ccc([nH]4)c(-c4c(F)cc(S(=O)(=O)[O-])cc4F)c4nc(c(-c5c(F)cc(S(=O)(=O)[O-])cc5F)c5ccc2[nH]5)C=C4)C=C3)cc1
REMARK SMILES IDX 5 1 4 2 3 3 2 4 1 5 31 6 32 7 96 8 33 9 95 10 34 11 35 12
REMARK SMILES IDX 36 13 89 14 37 15 94 16 88 17 90 18 38 19 93 20 87 21 86 22
REMARK SMILES IDX 39 24 73 25 52 26 72 27 53 28 56 29 71 30 91 31 54 32 55 33
REMARK SMILES IDX 70 35 92 36 57 37 40 38 41 39 50 40 42 41 43 42 49 43 51 44
REMARK SMILES IDX 44 45 45 46 46 47 47 48 48 49 74 50 75 51 84 52 76 53 77 54
REMARK SMILES IDX 83 55 85 56 78 57 79 58 80 59 81 60 82 61 58 62 59 63 68 64
REMARK SMILES IDX 60 65 61 66 67 67 69 68 62 69 63 70 64 71 65 72 66 73 6 74
REMARK SMILES IDX 7 75 8 76 9 77 10 78 11 79 12 80 13 81 24 82 14 83 17 84
REMARK SMILES IDX 15 85 16 86 25 87 26 88 30 89 27 90 29 91 28 92 18 93 19 94
REMARK SMILES IDX 23 95 20 96 22 97 21 98
REMARK H PARENT 90 23 56 34
REMARK Flexibility Score: inf
ROOT
ATOM      1  C   UNL A   1      40.067  22.557  26.824  1.00  0.00     0.202 C 
ENDROOT
BRANCH   1   2
ATOM      2  C   UNL A   1      41.418  22.846  26.173  1.00  0.00     0.261 C 
BRANCH   2   3
ATOM      3  O   UNL A   1      41.975  24.054  26.737  1.00  0.00    -0.460 OA
BRANCH   3   4
ATOM      4  C   UNL A   1      41.541  25.323  26.550  1.00  0.00     0.338 C 
ATOM      5  O   UNL A   1      41.353  25.750  25.416  1.00  0.00    -0.246 OA
BRANCH   4   6
ATOM      6  C   UNL A   1      41.283  26.211  27.710  1.00  0.00     0.060 A 
ATOM      7  C   UNL A   1      42.073  27.322  27.952  1.00  0.00     0.016 A 
ATOM      8  C   UNL A   1      40.198  25.980  28.557  1.00  0.00     0.016 A 
ATOM      9  C   UNL A   1      41.924  28.126  29.043  1.00  0.00     0.010 A 
ATOM     10  C   UNL A   1      39.957  26.857  29.622  1.00  0.00     0.010 A 
ATOM     11  C   UNL A   1      40.829  27.930  29.856  1.00  0.00    -0.014 A 
BRANCH  11  12
ATOM     12  C   UNL A   1      40.756  28.849  30.992  1.00  0.00     0.031 A 
ATOM     13  C   UNL A   1      39.672  29.869  30.979  1.00  0.00     0.074 A 
ATOM     14  C   UNL A   1      41.486  28.571  32.091  1.00  0.00     0.049 A 
ATOM     15  N   UNL A   1      39.442  30.828  31.825  1.00  0.00    -0.248 NA
ATOM     16  C   UNL A   1      38.701  29.789  29.869  1.00  0.00     0.031 C 
ATOM     17  C   UNL A   1      42.400  27.425  32.235  1.00  0.00     0.029 A 
ATOM     18  N   UNL A   1      41.537  29.180  33.309  1.00  0.00    -0.354 N 
ATOM     19  C   UNL A   1      38.335  31.498  31.327  1.00  0.00     0.074 A 
ATOM     20  C   UNL A   1      37.930  30.835  30.110  1.00  0.00     0.031 C 
ATOM     21  C   UNL A   1      42.897  27.408  33.480  1.00  0.00     0.029 A 
ATOM     22  C   UNL A   1      42.431  28.595  34.177  1.00  0.00     0.049 A 
ATOM     23  H   UNL A   1      40.986  29.961  33.546  1.00  0.00     0.167 HD
ATOM     24  C   UNL A   1      37.737  32.587  31.854  1.00  0.00     0.037 A 
ATOM     25  C   UNL A   1      42.866  29.028  35.373  1.00  0.00     0.037 A 
ATOM     26  C   UNL A   1      38.194  33.193  33.075  1.00  0.00     0.049 A 
ATOM     27  C   UNL A   1      42.288  30.325  35.866  1.00  0.00     0.074 A 
ATOM     28  C   UNL A   1      37.778  34.364  33.673  1.00  0.00     0.029 A 
ATOM     29  N   UNL A   1      39.183  32.649  33.889  1.00  0.00    -0.354 N 
ATOM     30  N   UNL A   1      41.341  31.060  35.324  1.00  0.00    -0.248 NA
ATOM     31  C   UNL A   1      42.845  30.872  37.105  1.00  0.00     0.031 C 
ATOM     32  C   UNL A   1      38.547  34.550  34.827  1.00  0.00     0.029 A 
ATOM     33  C   UNL A   1      39.402  33.465  34.979  1.00  0.00     0.049 A 
ATOM     34  H   UNL A   1      39.659  31.805  33.712  1.00  0.00     0.167 HD
ATOM     35  C   UNL A   1      41.173  32.148  36.167  1.00  0.00     0.074 A 
ATOM     36  C   UNL A   1      42.105  31.961  37.265  1.00  0.00     0.031 C 
ATOM     37  C   UNL A   1      40.336  33.210  36.050  1.00  0.00     0.037 A 
BRANCH  24  38
ATOM     38  C   UNL A   1      36.628  33.209  31.059  1.00  0.00     0.058 A 
ATOM     39  C   UNL A   1      36.865  33.926  29.876  1.00  0.00     0.135 A 
ATOM     40  C   UNL A   1      35.307  33.137  31.529  1.00  0.00     0.135 A 
ATOM     41  F   UNL A   1      38.116  34.068  29.410  1.00  0.00    -0.206 F 
ATOM     42  C   UNL A   1      35.834  34.569  29.198  1.00  0.00     0.059 A 
ATOM     43  C   UNL A   1      34.256  33.750  30.853  1.00  0.00     0.059 A 
ATOM     44  F   UNL A   1      35.029  32.488  32.671  1.00  0.00    -0.206 F 
ATOM     45  C   UNL A   1      34.532  34.476  29.696  1.00  0.00     0.060 A 
BRANCH  45  46
ATOM     46  S   UNL A   1      33.206  35.322  28.810  1.00  0.00     0.124 S 
ATOM     47  O   UNL A   1      33.959  36.284  28.009  1.00  0.00    -0.237 OA
ATOM     48  O   UNL A   1      32.583  34.230  28.069  1.00  0.00    -0.237 OA
ATOM     49  O   UNL A   1      32.396  35.896  29.879  1.00  0.00    -0.744 OA
ENDBRANCH  45  46
ENDBRANCH  24  38
BRANCH  25  50
ATOM     50  C   UNL A   1      43.947  28.309  36.105  1.00  0.00     0.058 A 
ATOM     51  C   UNL A   1      43.661  27.264  36.994  1.00  0.00     0.135 A 
ATOM     52  C   UNL A   1      45.297  28.673  35.948  1.00  0.00     0.135 A 
ATOM     53  F   UNL A   1      42.392  26.874  37.185  1.00  0.00    -0.206 F 
ATOM     54  C   UNL A   1      44.664  26.630  37.725  1.00  0.00     0.059 A 
ATOM     55  C   UNL A   1      46.319  28.031  36.639  1.00  0.00     0.059 A 
ATOM     56  F   UNL A   1      45.638  29.657  35.101  1.00  0.00    -0.206 F 
ATOM     57  C   UNL A   1      45.991  27.025  37.543  1.00  0.00     0.060 A 
BRANCH  57  58
ATOM     58  S   UNL A   1      47.284  26.204  38.500  1.00  0.00     0.124 S 
ATOM     59  O   UNL A   1      47.871  27.326  39.222  1.00  0.00    -0.237 OA
ATOM     60  O   UNL A   1      46.518  25.257  39.303  1.00  0.00    -0.237 OA
ATOM     61  O   UNL A   1      48.132  25.602  37.473  1.00  0.00    -0.744 OA
ENDBRANCH  57  58
ENDBRANCH  25  50
BRANCH  37  62
ATOM     62  C   UNL A   1      40.367  34.208  37.167  1.00  0.00     0.058 A 
ATOM     63  C   UNL A   1      41.249  35.299  37.155  1.00  0.00     0.135 A 
ATOM     64  C   UNL A   1      39.455  34.098  38.227  1.00  0.00     0.135 A 
ATOM     65  F   UNL A   1      42.144  35.437  36.165  1.00  0.00    -0.206 F 
ATOM     66  C   UNL A   1      41.239  36.240  38.176  1.00  0.00     0.059 A 
ATOM     67  C   UNL A   1      39.405  35.046  39.239  1.00  0.00     0.059 A 
ATOM     68  F   UNL A   1      38.587  33.074  38.270  1.00  0.00    -0.206 F 
ATOM     69  C   UNL A   1      40.309  36.107  39.210  1.00  0.00     0.060 A 
BRANCH  69  70
ATOM     70  S   UNL A   1      40.274  37.362  40.502  1.00  0.00     0.124 S 
ATOM     71  O   UNL A   1      38.879  37.311  40.924  1.00  0.00    -0.237 OA
ATOM     72  O   UNL A   1      41.247  36.847  41.462  1.00  0.00    -0.237 OA
ATOM     73  O   UNL A   1      40.677  38.579  39.805  1.00  0.00    -0.744 OA
ENDBRANCH  69  70
ENDBRANCH  37  62
ENDBRANCH  11  12
ENDBRANCH   4   6
ENDBRANCH   3   4
ENDBRANCH   2   3
ENDBRANCH   1   2
BRANCH   1  74
ATOM     74  O   UNL A   1      38.879  22.780  26.073  1.00  0.00    -0.374 OA
BRANCH  74  75
ATOM     75  C   UNL A   1      38.144  23.973  26.358  1.00  0.00     0.202 C 
BRANCH  75  76
ATOM     76  C   UNL A   1      36.693  23.760  25.920  1.00  0.00     0.261 C 
BRANCH  76  77
ATOM     77  O   UNL A   1      36.669  23.575  24.493  1.00  0.00    -0.463 OA
BRANCH  77  78
ATOM     78  C   UNL A   1      35.532  23.060  23.977  1.00  0.00     0.311 C 
ATOM     79  O   UNL A   1      35.277  21.862  23.895  1.00  0.00    -0.252 OA
BRANCH  78  80
ATOM     80  C   UNL A   1      34.580  24.132  23.497  1.00  0.00     0.127 C 
ATOM     81  C   UNL A   1      33.672  23.689  22.357  1.00  0.00     0.028 C 
ATOM     82  C   UNL A   1      33.728  24.856  24.548  1.00  0.00     0.130 C 
ATOM     83  C   UNL A   1      33.069  24.878  21.656  1.00  0.00     0.101 C 
ATOM     84  N   UNL A   1      33.112  26.026  23.882  1.00  0.00    -0.332 N 
ATOM     85  C   UNL A   1      32.662  26.022  22.562  1.00  0.00     0.223 C 
ATOM     86  O   UNL A   1      32.025  26.952  22.063  1.00  0.00    -0.275 OA
BRANCH  82  87
ATOM     87  C   UNL A   1      32.681  24.098  25.389  1.00  0.00    -0.025 A 
ATOM     88  C   UNL A   1      31.353  23.908  24.969  1.00  0.00     0.006 A 
ATOM     89  C   UNL A   1      33.007  23.630  26.679  1.00  0.00     0.006 A 
ATOM     90  C   UNL A   1      30.417  23.246  25.777  1.00  0.00     0.000 A 
ATOM     91  C   UNL A   1      32.090  22.924  27.467  1.00  0.00     0.000 A 
ATOM     92  C   UNL A   1      30.792  22.732  27.015  1.00  0.00     0.000 A 
ENDBRANCH  82  87
BRANCH  84  93
ATOM     93  C   UNL A   1      33.035  27.251  24.674  1.00  0.00     0.085 C 
ATOM     94  C   UNL A   1      31.571  27.536  25.040  1.00  0.00     0.025 C 
ATOM     95  C   UNL A   1      33.995  27.266  25.867  1.00  0.00     0.025 C 
ATOM     96  C   UNL A   1      31.438  28.787  25.890  1.00  0.00     0.002 C 
ATOM     97  C   UNL A   1      33.815  28.531  26.694  1.00  0.00     0.002 C 
ATOM     98  C   UNL A   1      32.356  28.718  27.105  1.00  0.00     0.000 C 
ENDBRANCH  84  93
ENDBRANCH  78  80
ENDBRANCH  77  78
ENDBRANCH  76  77
ENDBRANCH  75  76
ENDBRANCH  74  75
ENDBRANCH   1  74
TORSDOF 19
ENDMDL
