MODEL 1
REMARK VINA RESULT:     -10.7      0.000      0.000
REMARK SMILES Cc1oc(C[N@H+]2C[C@@H](C)[C@@H](C)C2)cc1C(=O)OCCOCCOC(=O)c1ccc(-c2c3nc(c(-c4c(F)cc(S(=O)(=O)[O-])cc4F)c4ccc([nH]4)c(-c4c(F)cc(S(=O)(=O)[O-])cc4F)c4nc(c(-c5c(F)cc(S(=O)(=O)[O-])cc5F)c5ccc2[nH]5)C=C4)C=C3)cc1
REMARK SMILES IDX 21 1 20 2 19 3 18 4 17 5 15 6 16 7 14 8 1 9 2 10 3 11 4 12
REMARK SMILES IDX 13 13 5 14 6 15 7 16 12 17 8 19 10 20 9 21 11 22 22 23 23 24
REMARK SMILES IDX 24 25 25 26 26 27 27 28 91 29 28 30 90 31 29 32 30 33 31 34
REMARK SMILES IDX 84 35 32 36 89 37 83 38 85 39 33 40 88 41 82 42 81 43 34 45
REMARK SMILES IDX 68 46 47 47 67 48 48 49 51 50 66 51 86 52 49 53 50 54 65 56
REMARK SMILES IDX 87 57 52 58 35 59 36 60 45 61 37 62 38 63 44 64 46 65 39 66
REMARK SMILES IDX 40 67 41 68 42 69 43 70 69 71 70 72 79 73 71 74 72 75 78 76
REMARK SMILES IDX 80 77 73 78 74 79 75 80 76 81 77 82 53 83 54 84 63 85 55 86
REMARK SMILES IDX 56 87 62 88 64 89 57 90 58 91 59 92 60 93 61 94
REMARK H PARENT 6 18 85 44 51 55
REMARK Flexibility Score: inf
ROOT
ATOM      1  C   UNL A   1      40.198  21.745  26.332  1.00  0.00     0.202 C 
ENDROOT
BRANCH   1   2
ATOM      2  O   UNL A   1      39.179  22.726  26.544  1.00  0.00    -0.374 OA
BRANCH   2   3
ATOM      3  C   UNL A   1      37.989  22.566  25.765  1.00  0.00     0.202 C 
BRANCH   3   4
ATOM      4  C   UNL A   1      37.000  23.726  25.916  1.00  0.00     0.261 C 
BRANCH   4   5
ATOM      5  O   UNL A   1      36.370  23.991  24.651  1.00  0.00    -0.460 OA
BRANCH   5   6
ATOM      6  C   UNL A   1      35.035  24.252  24.696  1.00  0.00     0.341 C 
ATOM      7  O   UNL A   1      34.545  25.366  24.840  1.00  0.00    -0.246 OA
BRANCH   6   8
ATOM      8  C   UNL A   1      34.217  23.084  24.411  1.00  0.00     0.101 A 
ATOM      9  C   UNL A   1      33.413  23.316  21.895  1.00  0.00     0.088 C 
ATOM     10  C   UNL A   1      33.541  22.739  23.251  1.00  0.00     0.115 A 
ATOM     11  O   UNL A   1      32.849  21.577  23.443  1.00  0.00    -0.459 OA
ATOM     12  C   UNL A   1      33.048  21.177  24.730  1.00  0.00     0.159 A 
ATOM     13  C   UNL A   1      33.904  22.056  25.352  1.00  0.00     0.067 A 
BRANCH  12  14
ATOM     14  C   UNL A   1      32.371  19.933  25.209  1.00  0.00     0.338 C 
BRANCH  14  15
ATOM     15  N   UNL A   1      33.211  18.763  25.464  1.00  0.00    -0.328 N 
ATOM     16  C   UNL A   1      32.510  17.492  25.614  1.00  0.00     0.266 C 
ATOM     17  C   UNL A   1      34.324  18.583  24.529  1.00  0.00     0.266 C 
ATOM     18  H   UNL A   1      33.591  19.011  26.377  1.00  0.00     0.348 HD
ATOM     19  C   UNL A   1      33.657  16.490  25.520  1.00  0.00     0.049 C 
ATOM     20  C   UNL A   1      34.517  17.065  24.384  1.00  0.00     0.049 C 
ATOM     21  C   UNL A   1      33.187  15.054  25.351  1.00  0.00     0.014 C 
ATOM     22  C   UNL A   1      34.114  16.597  22.984  1.00  0.00     0.014 C 
ENDBRANCH  14  15
ENDBRANCH  12  14
ENDBRANCH   6   8
ENDBRANCH   5   6
ENDBRANCH   4   5
ENDBRANCH   3   4
ENDBRANCH   2   3
ENDBRANCH   1   2
BRANCH   1  23
ATOM     23  C   UNL A   1      41.624  22.302  26.335  1.00  0.00     0.261 C 
BRANCH  23  24
ATOM     24  O   UNL A   1      41.603  23.738  26.237  1.00  0.00    -0.460 OA
BRANCH  24  25
ATOM     25  C   UNL A   1      42.655  24.370  26.810  1.00  0.00     0.338 C 
ATOM     26  O   UNL A   1      43.836  24.212  26.550  1.00  0.00    -0.246 OA
BRANCH  25  27
ATOM     27  C   UNL A   1      42.165  25.444  27.701  1.00  0.00     0.060 A 
ATOM     28  C   UNL A   1      42.996  26.557  27.878  1.00  0.00     0.016 A 
ATOM     29  C   UNL A   1      40.943  25.360  28.376  1.00  0.00     0.016 A 
ATOM     30  C   UNL A   1      42.631  27.567  28.766  1.00  0.00     0.010 A 
ATOM     31  C   UNL A   1      40.582  26.372  29.272  1.00  0.00     0.010 A 
ATOM     32  C   UNL A   1      41.439  27.463  29.495  1.00  0.00    -0.014 A 
BRANCH  32  33
ATOM     33  C   UNL A   1      41.170  28.425  30.591  1.00  0.00     0.031 A 
ATOM     34  C   UNL A   1      42.014  28.365  31.835  1.00  0.00     0.074 A 
ATOM     35  C   UNL A   1      40.213  29.362  30.467  1.00  0.00     0.049 A 
ATOM     36  N   UNL A   1      41.953  29.101  32.914  1.00  0.00    -0.248 NA
ATOM     37  C   UNL A   1      43.067  27.338  31.866  1.00  0.00     0.031 C 
ATOM     38  C   UNL A   1      39.352  29.540  29.298  1.00  0.00     0.029 A 
ATOM     39  N   UNL A   1      39.805  30.339  31.338  1.00  0.00    -0.354 N 
ATOM     40  C   UNL A   1      42.956  28.628  33.752  1.00  0.00     0.074 A 
ATOM     41  C   UNL A   1      43.593  27.523  33.068  1.00  0.00     0.031 C 
ATOM     42  C   UNL A   1      38.508  30.560  29.532  1.00  0.00     0.029 A 
ATOM     43  C   UNL A   1      38.754  31.092  30.871  1.00  0.00     0.049 A 
ATOM     44  H   UNL A   1      40.225  30.488  32.217  1.00  0.00     0.167 HD
ATOM     45  C   UNL A   1      43.321  29.080  34.975  1.00  0.00     0.037 A 
ATOM     46  C   UNL A   1      38.063  32.085  31.463  1.00  0.00     0.037 A 
ATOM     47  C   UNL A   1      42.687  30.179  35.654  1.00  0.00     0.049 A 
ATOM     48  C   UNL A   1      38.451  32.535  32.847  1.00  0.00     0.074 A 
ATOM     49  C   UNL A   1      42.994  30.719  36.891  1.00  0.00     0.029 A 
ATOM     50  N   UNL A   1      41.611  30.900  35.158  1.00  0.00    -0.354 N 
ATOM     51  N   UNL A   1      39.418  32.095  33.617  1.00  0.00    -0.248 NA
ATOM     52  C   UNL A   1      37.657  33.621  33.441  1.00  0.00     0.031 C 
ATOM     53  C   UNL A   1      42.079  31.745  37.158  1.00  0.00     0.029 A 
ATOM     54  C   UNL A   1      41.229  31.868  36.071  1.00  0.00     0.049 A 
ATOM     55  H   UNL A   1      41.182  30.745  34.285  1.00  0.00     0.167 HD
ATOM     56  C   UNL A   1      39.362  32.862  34.776  1.00  0.00     0.074 A 
ATOM     57  C   UNL A   1      38.272  33.801  34.603  1.00  0.00     0.031 C 
ATOM     58  C   UNL A   1      40.145  32.799  35.882  1.00  0.00     0.037 A 
BRANCH  45  59
ATOM     59  C   UNL A   1      44.450  28.369  35.664  1.00  0.00     0.058 A 
ATOM     60  C   UNL A   1      44.216  27.323  36.571  1.00  0.00     0.135 A 
ATOM     61  C   UNL A   1      45.782  28.727  35.401  1.00  0.00     0.135 A 
ATOM     62  F   UNL A   1      42.960  26.957  36.870  1.00  0.00    -0.206 F 
ATOM     63  C   UNL A   1      45.263  26.671  37.212  1.00  0.00     0.059 A 
ATOM     64  C   UNL A   1      46.846  28.074  36.016  1.00  0.00     0.059 A 
ATOM     65  F   UNL A   1      46.059  29.723  34.546  1.00  0.00    -0.206 F 
ATOM     66  C   UNL A   1      46.575  27.057  36.932  1.00  0.00     0.060 A 
BRANCH  66  67
ATOM     67  S   UNL A   1      47.927  26.208  37.776  1.00  0.00     0.124 S 
ATOM     68  O   UNL A   1      47.223  25.572  38.884  1.00  0.00    -0.237 OA
ATOM     69  O   UNL A   1      48.426  25.305  36.742  1.00  0.00    -0.237 OA
ATOM     70  O   UNL A   1      48.831  27.293  38.145  1.00  0.00    -0.744 OA
ENDBRANCH  66  67
ENDBRANCH  45  59
BRANCH  46  71
ATOM     71  C   UNL A   1      36.922  32.717  30.752  1.00  0.00     0.058 A 
ATOM     72  C   UNL A   1      37.122  33.777  29.856  1.00  0.00     0.135 A 
ATOM     73  C   UNL A   1      35.607  32.269  30.953  1.00  0.00     0.135 A 
ATOM     74  F   UNL A   1      38.361  34.247  29.640  1.00  0.00    -0.206 F 
ATOM     75  C   UNL A   1      36.059  34.377  29.189  1.00  0.00     0.059 A 
ATOM     76  C   UNL A   1      34.530  32.840  30.283  1.00  0.00     0.059 A 
ATOM     77  F   UNL A   1      35.365  31.252  31.794  1.00  0.00    -0.206 F 
ATOM     78  C   UNL A   1      34.766  33.899  29.409  1.00  0.00     0.060 A 
BRANCH  78  79
ATOM     79  S   UNL A   1      33.397  34.644  28.496  1.00  0.00     0.124 S 
ATOM     80  O   UNL A   1      32.481  34.994  29.576  1.00  0.00    -0.237 OA
ATOM     81  O   UNL A   1      34.048  35.763  27.821  1.00  0.00    -0.237 OA
ATOM     82  O   UNL A   1      32.956  33.565  27.617  1.00  0.00    -0.744 OA
ENDBRANCH  78  79
ENDBRANCH  46  71
BRANCH  58  83
ATOM     83  C   UNL A   1      39.871  33.784  36.981  1.00  0.00     0.058 A 
ATOM     84  C   UNL A   1      38.986  33.490  38.030  1.00  0.00     0.135 A 
ATOM     85  C   UNL A   1      40.546  35.016  37.017  1.00  0.00     0.135 A 
ATOM     86  F   UNL A   1      38.313  32.329  38.039  1.00  0.00    -0.206 F 
ATOM     87  C   UNL A   1      38.765  34.391  39.067  1.00  0.00     0.059 A 
ATOM     88  C   UNL A   1      40.356  35.922  38.055  1.00  0.00     0.059 A 
ATOM     89  F   UNL A   1      41.411  35.340  36.042  1.00  0.00    -0.206 F 
ATOM     90  C   UNL A   1      39.454  35.606  39.071  1.00  0.00     0.060 A 
BRANCH  90  91
ATOM     91  S   UNL A   1      39.188  36.753  40.440  1.00  0.00     0.124 S 
ATOM     92  O   UNL A   1      38.289  35.985  41.294  1.00  0.00    -0.237 OA
ATOM     93  O   UNL A   1      40.540  36.947  40.956  1.00  0.00    -0.237 OA
ATOM     94  O   UNL A   1      38.597  37.920  39.792  1.00  0.00    -0.744 OA
ENDBRANCH  90  91
ENDBRANCH  58  83
ENDBRANCH  32  33
ENDBRANCH  25  27
ENDBRANCH  24  25
ENDBRANCH  23  24
ENDBRANCH   1  23
TORSDOF 19
ENDMDL
MODEL 2
REMARK VINA RESULT:     -10.6      2.110      3.905
REMARK SMILES Cc1oc(C[N@H+]2C[C@@H](C)[C@@H](C)C2)cc1C(=O)OCCOCCOC(=O)c1ccc(-c2c3nc(c(-c4c(F)cc(S(=O)(=O)[O-])cc4F)c4ccc([nH]4)c(-c4c(F)cc(S(=O)(=O)[O-])cc4F)c4nc(c(-c5c(F)cc(S(=O)(=O)[O-])cc5F)c5ccc2[nH]5)C=C4)C=C3)cc1
REMARK SMILES IDX 21 1 20 2 19 3 18 4 17 5 15 6 16 7 14 8 1 9 2 10 3 11 4 12
REMARK SMILES IDX 13 13 5 14 6 15 7 16 12 17 8 19 10 20 9 21 11 22 22 23 23 24
REMARK SMILES IDX 24 25 25 26 26 27 27 28 91 29 28 30 90 31 29 32 30 33 31 34
REMARK SMILES IDX 84 35 32 36 89 37 83 38 85 39 33 40 88 41 82 42 81 43 34 45
REMARK SMILES IDX 68 46 47 47 67 48 48 49 51 50 66 51 86 52 49 53 50 54 65 56
REMARK SMILES IDX 87 57 52 58 35 59 36 60 45 61 37 62 38 63 44 64 46 65 39 66
REMARK SMILES IDX 40 67 41 68 42 69 43 70 69 71 70 72 79 73 71 74 72 75 78 76
REMARK SMILES IDX 80 77 73 78 74 79 75 80 76 81 77 82 53 83 54 84 63 85 55 86
REMARK SMILES IDX 56 87 62 88 64 89 57 90 58 91 59 92 60 93 61 94
REMARK H PARENT 6 18 85 44 51 55
REMARK Flexibility Score: inf
ROOT
ATOM      1  C   UNL A   1      37.608  22.818  25.508  1.00  0.00     0.202 C 
ENDROOT
BRANCH   1   2
ATOM      2  O   UNL A   1      36.844  21.715  26.003  1.00  0.00    -0.374 OA
BRANCH   2   3
ATOM      3  C   UNL A   1      36.102  20.982  25.024  1.00  0.00     0.202 C 
BRANCH   3   4
ATOM      4  C   UNL A   1      34.591  20.984  25.275  1.00  0.00     0.261 C 
BRANCH   4   5
ATOM      5  O   UNL A   1      34.197  22.245  25.843  1.00  0.00    -0.460 OA
BRANCH   5   6
ATOM      6  C   UNL A   1      32.956  22.687  25.502  1.00  0.00     0.341 C 
ATOM      7  O   UNL A   1      31.964  22.600  26.214  1.00  0.00    -0.246 OA
BRANCH   6   8
ATOM      8  C   UNL A   1      32.938  23.418  24.244  1.00  0.00     0.101 A 
ATOM      9  C   UNL A   1      32.200  21.689  22.373  1.00  0.00     0.088 C 
ATOM     10  C   UNL A   1      32.644  22.971  22.966  1.00  0.00     0.115 A 
ATOM     11  O   UNL A   1      32.805  23.988  22.068  1.00  0.00    -0.459 OA
ATOM     12  C   UNL A   1      33.228  25.088  22.751  1.00  0.00     0.159 A 
ATOM     13  C   UNL A   1      33.296  24.792  24.092  1.00  0.00     0.067 A 
BRANCH  12  14
ATOM     14  C   UNL A   1      33.508  26.344  21.988  1.00  0.00     0.338 C 
BRANCH  14  15
ATOM     15  N   UNL A   1      32.499  27.402  22.039  1.00  0.00    -0.328 N 
ATOM     16  C   UNL A   1      31.124  26.966  22.259  1.00  0.00     0.266 C 
ATOM     17  C   UNL A   1      32.800  28.503  22.955  1.00  0.00     0.266 C 
ATOM     18  H   UNL A   1      32.558  27.751  21.081  1.00  0.00     0.348 HD
ATOM     19  C   UNL A   1      30.429  28.283  22.590  1.00  0.00     0.049 C 
ATOM     20  C   UNL A   1      31.447  28.984  23.503  1.00  0.00     0.049 C 
ATOM     21  C   UNL A   1      29.030  28.097  23.156  1.00  0.00     0.014 C 
ATOM     22  C   UNL A   1      31.308  28.642  24.988  1.00  0.00     0.014 C 
ENDBRANCH  14  15
ENDBRANCH  12  14
ENDBRANCH   6   8
ENDBRANCH   5   6
ENDBRANCH   4   5
ENDBRANCH   3   4
ENDBRANCH   2   3
ENDBRANCH   1   2
BRANCH   1  23
ATOM     23  C   UNL A   1      38.846  23.157  26.344  1.00  0.00     0.261 C 
BRANCH  23  24
ATOM     24  O   UNL A   1      39.043  24.582  26.396  1.00  0.00    -0.460 OA
BRANCH  24  25
ATOM     25  C   UNL A   1      40.330  24.980  26.542  1.00  0.00     0.338 C 
ATOM     26  O   UNL A   1      41.249  24.793  25.762  1.00  0.00    -0.246 OA
BRANCH  25  27
ATOM     27  C   UNL A   1      40.448  25.856  27.727  1.00  0.00     0.060 A 
ATOM     28  C   UNL A   1      39.431  25.775  28.687  1.00  0.00     0.016 A 
ATOM     29  C   UNL A   1      41.503  26.759  27.891  1.00  0.00     0.016 A 
ATOM     30  C   UNL A   1      39.439  26.629  29.788  1.00  0.00     0.010 A 
ATOM     31  C   UNL A   1      41.505  27.621  28.994  1.00  0.00     0.010 A 
ATOM     32  C   UNL A   1      40.457  27.581  29.929  1.00  0.00    -0.014 A 
BRANCH  32  33
ATOM     33  C   UNL A   1      40.338  28.624  30.976  1.00  0.00     0.031 A 
ATOM     34  C   UNL A   1      41.232  28.547  32.183  1.00  0.00     0.074 A 
ATOM     35  C   UNL A   1      39.471  29.644  30.839  1.00  0.00     0.049 A 
ATOM     36  N   UNL A   1      41.298  29.343  33.218  1.00  0.00    -0.248 NA
ATOM     37  C   UNL A   1      42.181  27.423  32.228  1.00  0.00     0.031 C 
ATOM     38  C   UNL A   1      38.574  29.843  29.702  1.00  0.00     0.029 A 
ATOM     39  N   UNL A   1      39.205  30.703  31.669  1.00  0.00    -0.354 N 
ATOM     40  C   UNL A   1      42.291  28.819  34.038  1.00  0.00     0.074 A 
ATOM     41  C   UNL A   1      42.782  27.620  33.393  1.00  0.00     0.031 C 
ATOM     42  C   UNL A   1      37.846  30.953  29.912  1.00  0.00     0.029 A 
ATOM     43  C   UNL A   1      38.210  31.530  31.205  1.00  0.00     0.049 A 
ATOM     44  H   UNL A   1      39.681  30.856  32.517  1.00  0.00     0.167 HD
ATOM     45  C   UNL A   1      42.758  29.298  35.214  1.00  0.00     0.037 A 
ATOM     46  C   UNL A   1      37.650  32.618  31.768  1.00  0.00     0.037 A 
ATOM     47  C   UNL A   1      42.269  30.490  35.855  1.00  0.00     0.049 A 
ATOM     48  C   UNL A   1      38.148  33.103  33.103  1.00  0.00     0.074 A 
ATOM     49  C   UNL A   1      42.689  31.064  37.043  1.00  0.00     0.029 A 
ATOM     50  N   UNL A   1      41.245  31.288  35.365  1.00  0.00    -0.354 N 
ATOM     51  N   UNL A   1      39.105  32.610  33.855  1.00  0.00    -0.248 NA
ATOM     52  C   UNL A   1      37.495  34.293  33.667  1.00  0.00     0.031 C 
ATOM     53  C   UNL A   1      41.893  32.189  37.289  1.00  0.00     0.029 A 
ATOM     54  C   UNL A   1      41.006  32.337  36.235  1.00  0.00     0.049 A 
ATOM     55  H   UNL A   1      40.761  31.129  34.523  1.00  0.00     0.167 HD
ATOM     56  C   UNL A   1      39.182  33.441  34.967  1.00  0.00     0.074 A 
ATOM     57  C   UNL A   1      38.182  34.474  34.787  1.00  0.00     0.031 C 
ATOM     58  C   UNL A   1      40.009  33.360  36.040  1.00  0.00     0.037 A 
BRANCH  45  59
ATOM     59  C   UNL A   1      43.846  28.517  35.893  1.00  0.00     0.058 A 
ATOM     60  C   UNL A   1      45.203  28.820  35.695  1.00  0.00     0.135 A 
ATOM     61  C   UNL A   1      43.528  27.464  36.765  1.00  0.00     0.135 A 
ATOM     62  F   UNL A   1      45.559  29.805  34.856  1.00  0.00    -0.206 F 
ATOM     63  C   UNL A   1      46.209  28.091  36.320  1.00  0.00     0.059 A 
ATOM     64  C   UNL A   1      44.518  26.734  37.417  1.00  0.00     0.059 A 
ATOM     65  F   UNL A   1      42.247  27.131  36.984  1.00  0.00    -0.206 F 
ATOM     66  C   UNL A   1      45.855  27.046  37.176  1.00  0.00     0.060 A 
BRANCH  66  67
ATOM     67  S   UNL A   1      47.170  26.101  37.977  1.00  0.00     0.124 S 
ATOM     68  O   UNL A   1      46.746  24.731  37.708  1.00  0.00    -0.237 OA
ATOM     69  O   UNL A   1      48.360  26.548  37.260  1.00  0.00    -0.237 OA
ATOM     70  O   UNL A   1      47.088  26.521  39.372  1.00  0.00    -0.744 OA
ENDBRANCH  66  67
ENDBRANCH  45  59
BRANCH  46  71
ATOM     71  C   UNL A   1      36.542  33.322  31.072  1.00  0.00     0.058 A 
ATOM     72  C   UNL A   1      36.782  34.115  29.940  1.00  0.00     0.135 A 
ATOM     73  C   UNL A   1      35.218  33.212  31.524  1.00  0.00     0.135 A 
ATOM     74  F   UNL A   1      38.034  34.260  29.477  1.00  0.00    -0.206 F 
ATOM     75  C   UNL A   1      35.751  34.781  29.285  1.00  0.00     0.059 A 
ATOM     76  C   UNL A   1      34.167  33.851  30.874  1.00  0.00     0.059 A 
ATOM     77  F   UNL A   1      34.935  32.457  32.598  1.00  0.00    -0.206 F 
ATOM     78  C   UNL A   1      34.445  34.640  29.760  1.00  0.00     0.060 A 
BRANCH  78  79
ATOM     79  S   UNL A   1      33.104  35.459  28.871  1.00  0.00     0.124 S 
ATOM     80  O   UNL A   1      32.304  35.988  29.969  1.00  0.00    -0.237 OA
ATOM     81  O   UNL A   1      33.821  36.446  28.069  1.00  0.00    -0.237 OA
ATOM     82  O   UNL A   1      32.495  34.371  28.110  1.00  0.00    -0.744 OA
ENDBRANCH  78  79
ENDBRANCH  46  71
BRANCH  58  83
ATOM     83  C   UNL A   1      39.888  34.426  37.090  1.00  0.00     0.058 A 
ATOM     84  C   UNL A   1      40.530  35.667  36.956  1.00  0.00     0.135 A 
ATOM     85  C   UNL A   1      39.074  34.226  38.217  1.00  0.00     0.135 A 
ATOM     86  F   UNL A   1      41.323  35.906  35.900  1.00  0.00    -0.206 F 
ATOM     87  C   UNL A   1      40.383  36.666  37.913  1.00  0.00     0.059 A 
ATOM     88  C   UNL A   1      38.896  35.218  39.175  1.00  0.00     0.059 A 
ATOM     89  F   UNL A   1      38.429  33.059  38.386  1.00  0.00    -0.206 F 
ATOM     90  C   UNL A   1      39.564  36.433  39.020  1.00  0.00     0.060 A 
BRANCH  90  91
ATOM     91  S   UNL A   1      39.352  37.749  40.238  1.00  0.00     0.124 S 
ATOM     92  O   UNL A   1      40.671  38.372  40.230  1.00  0.00    -0.237 OA
ATOM     93  O   UNL A   1      38.272  38.544  39.659  1.00  0.00    -0.237 OA
ATOM     94  O   UNL A   1      39.005  37.027  41.459  1.00  0.00    -0.744 OA
ENDBRANCH  90  91
ENDBRANCH  58  83
ENDBRANCH  32  33
ENDBRANCH  25  27
ENDBRANCH  24  25
ENDBRANCH  23  24
ENDBRANCH   1  23
TORSDOF 19
ENDMDL
MODEL 3
REMARK VINA RESULT:     -10.6      6.409     11.804
REMARK SMILES Cc1oc(C[N@H+]2C[C@@H](C)[C@@H](C)C2)cc1C(=O)OCCOCCOC(=O)c1ccc(-c2c3nc(c(-c4c(F)cc(S(=O)(=O)[O-])cc4F)c4ccc([nH]4)c(-c4c(F)cc(S(=O)(=O)[O-])cc4F)c4nc(c(-c5c(F)cc(S(=O)(=O)[O-])cc5F)c5ccc2[nH]5)C=C4)C=C3)cc1
REMARK SMILES IDX 21 1 20 2 19 3 18 4 17 5 15 6 16 7 14 8 1 9 2 10 3 11 4 12
REMARK SMILES IDX 13 13 5 14 6 15 7 16 12 17 8 19 10 20 9 21 11 22 22 23 23 24
REMARK SMILES IDX 24 25 25 26 26 27 27 28 91 29 28 30 90 31 29 32 30 33 31 34
REMARK SMILES IDX 84 35 32 36 89 37 83 38 85 39 33 40 88 41 82 42 81 43 34 45
REMARK SMILES IDX 68 46 47 47 67 48 48 49 51 50 66 51 86 52 49 53 50 54 65 56
REMARK SMILES IDX 87 57 52 58 35 59 36 60 45 61 37 62 38 63 44 64 46 65 39 66
REMARK SMILES IDX 40 67 41 68 42 69 43 70 69 71 70 72 79 73 71 74 72 75 78 76
REMARK SMILES IDX 80 77 73 78 74 79 75 80 76 81 77 82 53 83 54 84 63 85 55 86
REMARK SMILES IDX 56 87 62 88 64 89 57 90 58 91 59 92 60 93 61 94
REMARK H PARENT 6 18 85 44 51 55
REMARK Flexibility Score: inf
ROOT
ATOM      1  C   UNL A   1      34.473  32.034  27.907  1.00  0.00     0.202 C 
ENDROOT
BRANCH   1   2
ATOM      2  O   UNL A   1      33.273  31.309  27.624  1.00  0.00    -0.374 OA
BRANCH   2   3
ATOM      3  C   UNL A   1      33.343  30.394  26.527  1.00  0.00     0.202 C 
BRANCH   3   4
ATOM      4  C   UNL A   1      32.062  29.576  26.331  1.00  0.00     0.261 C 
BRANCH   4   5
ATOM      5  O   UNL A   1      32.402  28.217  26.006  1.00  0.00    -0.460 OA
BRANCH   5   6
ATOM      6  C   UNL A   1      31.695  27.257  26.660  1.00  0.00     0.341 C 
ATOM      7  O   UNL A   1      31.067  27.435  27.697  1.00  0.00    -0.246 OA
BRANCH   6   8
ATOM      8  C   UNL A   1      31.630  26.001  25.930  1.00  0.00     0.101 A 
ATOM      9  C   UNL A   1      30.274  26.487  23.703  1.00  0.00     0.088 C 
ATOM     10  C   UNL A   1      31.015  25.710  24.722  1.00  0.00     0.115 A 
ATOM     11  O   UNL A   1      31.159  24.383  24.433  1.00  0.00    -0.459 OA
ATOM     12  C   UNL A   1      31.841  23.801  25.458  1.00  0.00     0.159 A 
ATOM     13  C   UNL A   1      32.175  24.762  26.385  1.00  0.00     0.067 A 
BRANCH  12  14
ATOM     14  C   UNL A   1      32.109  22.331  25.401  1.00  0.00     0.338 C 
BRANCH  14  15
ATOM     15  N   UNL A   1      33.476  21.906  25.097  1.00  0.00    -0.328 N 
ATOM     16  C   UNL A   1      34.109  22.557  23.955  1.00  0.00     0.266 C 
ATOM     17  C   UNL A   1      34.401  21.934  26.232  1.00  0.00     0.266 C 
ATOM     18  H   UNL A   1      33.307  20.933  24.839  1.00  0.00     0.348 HD
ATOM     19  C   UNL A   1      35.569  22.152  24.136  1.00  0.00     0.049 C 
ATOM     20  C   UNL A   1      35.776  22.298  25.652  1.00  0.00     0.049 C 
ATOM     21  C   UNL A   1      36.523  22.931  23.245  1.00  0.00     0.014 C 
ATOM     22  C   UNL A   1      36.204  23.696  26.101  1.00  0.00     0.014 C 
ENDBRANCH  14  15
ENDBRANCH  12  14
ENDBRANCH   6   8
ENDBRANCH   5   6
ENDBRANCH   4   5
ENDBRANCH   3   4
ENDBRANCH   2   3
ENDBRANCH   1   2
BRANCH   1  23
ATOM     23  C   UNL A   1      35.023  31.821  29.320  1.00  0.00     0.261 C 
BRANCH  23  24
ATOM     24  O   UNL A   1      35.695  30.552  29.413  1.00  0.00    -0.460 OA
BRANCH  24  25
ATOM     25  C   UNL A   1      36.434  30.371  30.534  1.00  0.00     0.338 C 
ATOM     26  O   UNL A   1      36.018  30.220  31.671  1.00  0.00    -0.246 OA
BRANCH  25  27
ATOM     27  C   UNL A   1      37.857  30.199  30.170  1.00  0.00     0.060 A 
ATOM     28  C   UNL A   1      38.158  30.065  28.809  1.00  0.00     0.016 A 
ATOM     29  C   UNL A   1      38.874  30.134  31.127  1.00  0.00     0.016 A 
ATOM     30  C   UNL A   1      39.468  29.820  28.403  1.00  0.00     0.010 A 
ATOM     31  C   UNL A   1      40.188  29.880  30.718  1.00  0.00     0.010 A 
ATOM     32  C   UNL A   1      40.484  29.689  29.358  1.00  0.00    -0.014 A 
BRANCH  32  33
ATOM     33  C   UNL A   1      41.823  29.212  28.935  1.00  0.00     0.031 A 
ATOM     34  C   UNL A   1      42.971  30.185  28.922  1.00  0.00     0.074 A 
ATOM     35  C   UNL A   1      42.023  27.925  28.601  1.00  0.00     0.049 A 
ATOM     36  N   UNL A   1      44.219  29.989  28.586  1.00  0.00    -0.248 NA
ATOM     37  C   UNL A   1      42.670  31.562  29.346  1.00  0.00     0.031 C 
ATOM     38  C   UNL A   1      40.997  26.883  28.603  1.00  0.00     0.029 A 
ATOM     39  N   UNL A   1      43.161  27.277  28.192  1.00  0.00    -0.354 N 
ATOM     40  C   UNL A   1      44.854  31.214  28.756  1.00  0.00     0.074 A 
ATOM     41  C   UNL A   1      43.847  32.154  29.199  1.00  0.00     0.031 C 
ATOM     42  C   UNL A   1      41.552  25.726  28.203  1.00  0.00     0.029 A 
ATOM     43  C   UNL A   1      42.964  25.950  27.896  1.00  0.00     0.049 A 
ATOM     44  H   UNL A   1      44.037  27.722  28.117  1.00  0.00     0.167 HD
ATOM     45  C   UNL A   1      46.159  31.524  28.571  1.00  0.00     0.037 A 
ATOM     46  C   UNL A   1      43.822  25.028  27.417  1.00  0.00     0.037 A 
ATOM     47  C   UNL A   1      47.159  30.589  28.131  1.00  0.00     0.049 A 
ATOM     48  C   UNL A   1      45.257  25.409  27.167  1.00  0.00     0.074 A 
ATOM     49  C   UNL A   1      48.511  30.806  27.927  1.00  0.00     0.029 A 
ATOM     50  N   UNL A   1      46.916  29.260  27.819  1.00  0.00    -0.354 N 
ATOM     51  N   UNL A   1      45.847  26.566  27.356  1.00  0.00    -0.248 NA
ATOM     52  C   UNL A   1      46.144  24.360  26.642  1.00  0.00     0.031 C 
ATOM     53  C   UNL A   1      49.078  29.616  27.457  1.00  0.00     0.029 A 
ATOM     54  C   UNL A   1      48.087  28.649  27.406  1.00  0.00     0.049 A 
ATOM     55  H   UNL A   1      46.039  28.817  27.882  1.00  0.00     0.167 HD
ATOM     56  C   UNL A   1      47.177  26.378  26.994  1.00  0.00     0.074 A 
ATOM     57  C   UNL A   1      47.307  24.995  26.583  1.00  0.00     0.031 C 
ATOM     58  C   UNL A   1      48.200  27.269  27.004  1.00  0.00     0.037 A 
BRANCH  45  59
ATOM     59  C   UNL A   1      46.572  32.945  28.829  1.00  0.00     0.058 A 
ATOM     60  C   UNL A   1      46.535  33.917  27.816  1.00  0.00     0.135 A 
ATOM     61  C   UNL A   1      46.993  33.343  30.107  1.00  0.00     0.135 A 
ATOM     62  F   UNL A   1      46.158  33.582  26.572  1.00  0.00    -0.206 F 
ATOM     63  C   UNL A   1      46.924  35.231  28.056  1.00  0.00     0.059 A 
ATOM     64  C   UNL A   1      47.368  34.657  30.375  1.00  0.00     0.059 A 
ATOM     65  F   UNL A   1      47.051  32.452  31.109  1.00  0.00    -0.206 F 
ATOM     66  C   UNL A   1      47.344  35.589  29.338  1.00  0.00     0.060 A 
BRANCH  66  67
ATOM     67  S   UNL A   1      47.854  37.296  29.636  1.00  0.00     0.124 S 
ATOM     68  O   UNL A   1      48.500  37.630  28.371  1.00  0.00    -0.237 OA
ATOM     69  O   UNL A   1      46.582  37.964  29.894  1.00  0.00    -0.237 OA
ATOM     70  O   UNL A   1      48.745  37.187  30.787  1.00  0.00    -0.744 OA
ENDBRANCH  66  67
ENDBRANCH  45  59
BRANCH  46  71
ATOM     71  C   UNL A   1      43.343  23.650  27.134  1.00  0.00     0.058 A 
ATOM     72  C   UNL A   1      43.140  23.208  25.819  1.00  0.00     0.135 A 
ATOM     73  C   UNL A   1      43.084  22.746  28.176  1.00  0.00     0.135 A 
ATOM     74  F   UNL A   1      43.364  24.041  24.790  1.00  0.00    -0.206 F 
ATOM     75  C   UNL A   1      42.688  21.921  25.544  1.00  0.00     0.059 A 
ATOM     76  C   UNL A   1      42.652  21.448  27.926  1.00  0.00     0.059 A 
ATOM     77  F   UNL A   1      43.272  23.119  29.451  1.00  0.00    -0.206 F 
ATOM     78  C   UNL A   1      42.449  21.048  26.607  1.00  0.00     0.060 A 
BRANCH  78  79
ATOM     79  S   UNL A   1      41.918  19.360  26.242  1.00  0.00     0.124 S 
ATOM     80  O   UNL A   1      42.355  18.651  27.439  1.00  0.00    -0.237 OA
ATOM     81  O   UNL A   1      40.475  19.517  26.083  1.00  0.00    -0.237 OA
ATOM     82  O   UNL A   1      42.644  19.040  25.016  1.00  0.00    -0.744 OA
ENDBRANCH  78  79
ENDBRANCH  46  71
BRANCH  58  83
ATOM     83  C   UNL A   1      49.554  26.774  26.584  1.00  0.00     0.058 A 
ATOM     84  C   UNL A   1      50.435  26.173  27.498  1.00  0.00     0.135 A 
ATOM     85  C   UNL A   1      49.954  26.849  25.240  1.00  0.00     0.135 A 
ATOM     86  F   UNL A   1      50.101  26.082  28.795  1.00  0.00    -0.206 F 
ATOM     87  C   UNL A   1      51.672  25.681  27.097  1.00  0.00     0.059 A 
ATOM     88  C   UNL A   1      51.178  26.344  24.813  1.00  0.00     0.059 A 
ATOM     89  F   UNL A   1      49.143  27.405  24.324  1.00  0.00    -0.206 F 
ATOM     90  C   UNL A   1      52.036  25.771  25.751  1.00  0.00     0.060 A 
BRANCH  90  91
ATOM     91  S   UNL A   1      53.629  25.096  25.233  1.00  0.00     0.124 S 
ATOM     92  O   UNL A   1      54.510  25.582  26.290  1.00  0.00    -0.237 OA
ATOM     93  O   UNL A   1      53.376  23.658  25.230  1.00  0.00    -0.237 OA
ATOM     94  O   UNL A   1      53.837  25.692  23.917  1.00  0.00    -0.744 OA
ENDBRANCH  90  91
ENDBRANCH  58  83
ENDBRANCH  32  33
ENDBRANCH  25  27
ENDBRANCH  24  25
ENDBRANCH  23  24
ENDBRANCH   1  23
TORSDOF 19
ENDMDL
