MODEL 1
REMARK VINA RESULT:     -11.2      0.000      0.000
REMARK SMILES CCCc1cc(OC(F)(F)F)cc2c1O[C@@H](C(F)(F)F)C(C(=O)OCCOCCOC(=O)c1ccc(-c3c4nc(c(-c5c(F)cc(S(=O)(=O)[O-])cc5F)c5ccc([nH]5)c(-c5c(F)cc(S(=O)(=O)[O-])cc5F)c5nc(c(-c6c(F)cc(S(=O)(=O)[O-])cc6F)c6ccc3[nH]6)C=C5)C=C4)cc1)=C2
REMARK SMILES IDX 28 1 27 2 26 3 25 4 24 5 22 6 23 7 21 8 4 9 5 10 14 11 6 12
REMARK SMILES IDX 13 13 15 14 12 15 99 16 16 17 3 18 2 19 1 20 7 21 8 22 9 23
REMARK SMILES IDX 10 24 11 25 17 26 18 27 19 28 20 29 29 30 30 31 31 32 32 33
REMARK SMILES IDX 33 34 34 35 98 36 35 37 97 38 36 39 37 40 38 41 91 42 39 43
REMARK SMILES IDX 96 44 90 45 92 46 40 47 95 48 89 49 88 50 41 52 75 53 54 54
REMARK SMILES IDX 74 55 55 56 58 57 73 58 93 59 56 60 57 61 72 63 94 64 59 65
REMARK SMILES IDX 42 66 43 67 52 68 44 69 45 70 51 71 53 72 46 73 47 74 48 75
REMARK SMILES IDX 49 76 50 77 76 78 77 79 86 80 78 81 79 82 85 83 87 84 80 85
REMARK SMILES IDX 81 86 82 87 83 88 84 89 60 90 61 91 70 92 62 93 63 94 69 95
REMARK SMILES IDX 71 96 64 97 65 98 66 99 67 100 68 101
REMARK H PARENT 92 51 58 62
REMARK Flexibility Score: inf
ROOT
ATOM      1  C   UNL A   1      39.269  21.867  26.000  1.00  0.00     0.202 C 
ENDROOT
BRANCH   1   2
ATOM      2  O   UNL A   1      38.092  22.172  25.256  1.00  0.00    -0.374 OA
BRANCH   2   3
ATOM      3  C   UNL A   1      37.141  21.129  25.047  1.00  0.00     0.202 C 
BRANCH   3   4
ATOM      4  C   UNL A   1      35.760  21.543  24.530  1.00  0.00     0.261 C 
BRANCH   4   5
ATOM      5  O   UNL A   1      35.451  22.901  24.883  1.00  0.00    -0.460 OA
BRANCH   5   6
ATOM      6  C   UNL A   1      34.654  23.039  25.968  1.00  0.00     0.338 C 
ATOM      7  O   UNL A   1      34.702  22.387  26.996  1.00  0.00    -0.246 OA
BRANCH   6   8
ATOM      8  C   UNL A   1      33.764  24.202  25.813  1.00  0.00     0.087 C 
ATOM      9  C   UNL A   1      31.404  27.290  24.289  1.00  0.00    -0.002 A 
ATOM     10  C   UNL A   1      31.686  28.609  24.676  1.00  0.00     0.054 A 
ATOM     11  C   UNL A   1      32.204  26.265  24.822  1.00  0.00     0.131 A 
ATOM     12  C   UNL A   1      32.787  28.907  25.488  1.00  0.00     0.130 A 
ATOM     13  C   UNL A   1      33.313  26.545  25.638  1.00  0.00     0.021 A 
ATOM     14  O   UNL A   1      31.895  24.976  24.458  1.00  0.00    -0.475 OA
ATOM     15  C   UNL A   1      33.593  27.870  25.974  1.00  0.00     0.058 A 
ATOM     16  C   UNL A   1      34.220  25.451  25.999  1.00  0.00     0.027 C 
ATOM     17  C   UNL A   1      32.325  23.977  25.418  1.00  0.00     0.316 C 
BRANCH   9  18
ATOM     18  C   UNL A   1      30.265  26.939  23.354  1.00  0.00     0.039 C 
BRANCH  18  19
ATOM     19  C   UNL A   1      29.064  27.892  23.293  1.00  0.00     0.001 C 
ATOM     20  C   UNL A   1      29.254  29.047  22.318  1.00  0.00     0.004 C 
ENDBRANCH  18  19
ENDBRANCH   9  18
BRANCH  12  21
ATOM     21  O   UNL A   1      33.180  30.162  25.861  1.00  0.00    -0.406 OA
BRANCH  21  22
ATOM     22  C   UNL A   1      32.446  30.788  26.903  1.00  0.00     0.573 C 
ATOM     23  F   UNL A   1      31.603  31.729  26.422  1.00  0.00    -0.132 F 
ATOM     24  F   UNL A   1      31.742  29.877  27.609  1.00  0.00    -0.132 F 
ATOM     25  F   UNL A   1      33.310  31.392  27.747  1.00  0.00    -0.132 F 
ENDBRANCH  21  22
ENDBRANCH  12  21
BRANCH  17  26
ATOM     26  C   UNL A   1      31.887  22.592  24.911  1.00  0.00     0.430 C 
ATOM     27  F   UNL A   1      32.693  22.153  23.916  1.00  0.00    -0.167 F 
ATOM     28  F   UNL A   1      32.009  21.678  25.914  1.00  0.00    -0.167 F 
ATOM     29  F   UNL A   1      30.606  22.548  24.499  1.00  0.00    -0.167 F 
ENDBRANCH  17  26
ENDBRANCH   6   8
ENDBRANCH   5   6
ENDBRANCH   4   5
ENDBRANCH   3   4
ENDBRANCH   2   3
ENDBRANCH   1   2
BRANCH   1  30
ATOM     30  C   UNL A   1      39.914  22.998  26.811  1.00  0.00     0.261 C 
BRANCH  30  31
ATOM     31  O   UNL A   1      39.410  24.295  26.450  1.00  0.00    -0.460 OA
BRANCH  31  32
ATOM     32  C   UNL A   1      40.365  25.250  26.329  1.00  0.00     0.338 C 
ATOM     33  O   UNL A   1      40.941  25.588  25.308  1.00  0.00    -0.246 OA
BRANCH  32  34
ATOM     34  C   UNL A   1      40.506  25.995  27.594  1.00  0.00     0.060 A 
ATOM     35  C   UNL A   1      39.468  25.872  28.526  1.00  0.00     0.016 A 
ATOM     36  C   UNL A   1      41.572  26.867  27.827  1.00  0.00     0.016 A 
ATOM     37  C   UNL A   1      39.462  26.665  29.669  1.00  0.00     0.010 A 
ATOM     38  C   UNL A   1      41.559  27.669  28.974  1.00  0.00     0.010 A 
ATOM     39  C   UNL A   1      40.483  27.602  29.878  1.00  0.00    -0.014 A 
BRANCH  39  40
ATOM     40  C   UNL A   1      40.321  28.607  30.956  1.00  0.00     0.031 A 
ATOM     41  C   UNL A   1      41.205  28.521  32.172  1.00  0.00     0.074 A 
ATOM     42  C   UNL A   1      39.446  29.620  30.825  1.00  0.00     0.049 A 
ATOM     43  N   UNL A   1      41.266  29.314  33.210  1.00  0.00    -0.248 NA
ATOM     44  C   UNL A   1      42.147  27.391  32.224  1.00  0.00     0.031 C 
ATOM     45  C   UNL A   1      38.554  29.822  29.682  1.00  0.00     0.029 A 
ATOM     46  N   UNL A   1      39.166  30.671  31.660  1.00  0.00    -0.354 N 
ATOM     47  C   UNL A   1      42.248  28.782  34.038  1.00  0.00     0.074 A 
ATOM     48  C   UNL A   1      42.733  27.578  33.397  1.00  0.00     0.031 C 
ATOM     49  C   UNL A   1      37.822  30.929  29.892  1.00  0.00     0.029 A 
ATOM     50  C   UNL A   1      38.178  31.503  31.190  1.00  0.00     0.049 A 
ATOM     51  H   UNL A   1      39.629  30.818  32.517  1.00  0.00     0.167 HD
ATOM     52  C   UNL A   1      42.712  29.258  35.218  1.00  0.00     0.037 A 
ATOM     53  C   UNL A   1      37.618  32.594  31.747  1.00  0.00     0.037 A 
ATOM     54  C   UNL A   1      42.233  30.462  35.845  1.00  0.00     0.049 A 
ATOM     55  C   UNL A   1      38.122  33.082  33.081  1.00  0.00     0.074 A 
ATOM     56  C   UNL A   1      42.662  31.047  37.024  1.00  0.00     0.029 A 
ATOM     57  N   UNL A   1      41.213  31.261  35.352  1.00  0.00    -0.354 N 
ATOM     58  N   UNL A   1      39.080  32.591  33.831  1.00  0.00    -0.248 NA
ATOM     59  C   UNL A   1      37.475  34.277  33.640  1.00  0.00     0.031 C 
ATOM     60  C   UNL A   1      41.869  32.174  37.266  1.00  0.00     0.029 A 
ATOM     61  C   UNL A   1      40.979  32.319  36.215  1.00  0.00     0.049 A 
ATOM     62  H   UNL A   1      40.726  31.101  34.511  1.00  0.00     0.167 HD
ATOM     63  C   UNL A   1      39.164  33.428  34.939  1.00  0.00     0.074 A 
ATOM     64  C   UNL A   1      38.172  34.466  34.753  1.00  0.00     0.031 C 
ATOM     65  C   UNL A   1      39.987  33.345  36.015  1.00  0.00     0.037 A 
BRANCH  52  66
ATOM     66  C   UNL A   1      43.782  28.468  35.918  1.00  0.00     0.058 A 
ATOM     67  C   UNL A   1      45.145  28.768  35.760  1.00  0.00     0.135 A 
ATOM     68  C   UNL A   1      43.437  27.426  36.793  1.00  0.00     0.135 A 
ATOM     69  F   UNL A   1      45.530  29.742  34.921  1.00  0.00    -0.206 F 
ATOM     70  C   UNL A   1      46.129  28.049  36.431  1.00  0.00     0.059 A 
ATOM     71  C   UNL A   1      44.403  26.710  37.493  1.00  0.00     0.059 A 
ATOM     72  F   UNL A   1      42.149  27.096  36.977  1.00  0.00    -0.206 F 
ATOM     73  C   UNL A   1      45.748  27.022  37.297  1.00  0.00     0.060 A 
BRANCH  73  74
ATOM     74  S   UNL A   1      47.035  26.108  38.172  1.00  0.00     0.124 S 
ATOM     75  O   UNL A   1      48.009  25.885  37.107  1.00  0.00    -0.237 OA
ATOM     76  O   UNL A   1      47.438  27.052  39.210  1.00  0.00    -0.237 OA
ATOM     77  O   UNL A   1      46.343  24.915  38.647  1.00  0.00    -0.744 OA
ENDBRANCH  73  74
ENDBRANCH  52  66
BRANCH  53  78
ATOM     78  C   UNL A   1      36.506  33.298  31.053  1.00  0.00     0.058 A 
ATOM     79  C   UNL A   1      36.742  34.112  29.936  1.00  0.00     0.135 A 
ATOM     80  C   UNL A   1      35.182  33.172  31.502  1.00  0.00     0.135 A 
ATOM     81  F   UNL A   1      37.992  34.272  29.474  1.00  0.00    -0.206 F 
ATOM     82  C   UNL A   1      35.709  34.794  29.299  1.00  0.00     0.059 A 
ATOM     83  C   UNL A   1      34.129  33.822  30.867  1.00  0.00     0.059 A 
ATOM     84  F   UNL A   1      34.901  32.395  32.559  1.00  0.00    -0.206 F 
ATOM     85  C   UNL A   1      34.404  34.641  29.774  1.00  0.00     0.060 A 
BRANCH  85  86
ATOM     86  S   UNL A   1      33.064  35.495  28.917  1.00  0.00     0.124 S 
ATOM     87  O   UNL A   1      32.293  36.027  30.035  1.00  0.00    -0.237 OA
ATOM     88  O   UNL A   1      33.788  36.476  28.115  1.00  0.00    -0.237 OA
ATOM     89  O   UNL A   1      32.421  34.427  28.156  1.00  0.00    -0.744 OA
ENDBRANCH  85  86
ENDBRANCH  53  78
BRANCH  65  90
ATOM     90  C   UNL A   1      39.864  34.415  37.064  1.00  0.00     0.058 A 
ATOM     91  C   UNL A   1      40.468  35.672  36.907  1.00  0.00     0.135 A 
ATOM     92  C   UNL A   1      39.097  34.196  38.220  1.00  0.00     0.135 A 
ATOM     93  F   UNL A   1      41.214  35.933  35.823  1.00  0.00    -0.206 F 
ATOM     94  C   UNL A   1      40.338  36.666  37.873  1.00  0.00     0.059 A 
ATOM     95  C   UNL A   1      38.931  35.184  39.185  1.00  0.00     0.059 A 
ATOM     96  F   UNL A   1      38.487  33.015  38.414  1.00  0.00    -0.206 F 
ATOM     97  C   UNL A   1      39.569  36.412  39.009  1.00  0.00     0.060 A 
BRANCH  97  98
ATOM     98  S   UNL A   1      39.390  37.717  40.244  1.00  0.00     0.124 S 
ATOM     99  O   UNL A   1      38.992  36.952  41.422  1.00  0.00    -0.237 OA
ATOM    100  O   UNL A   1      40.729  38.294  40.286  1.00  0.00    -0.237 OA
ATOM    101  O   UNL A   1      38.359  38.582  39.678  1.00  0.00    -0.744 OA
ENDBRANCH  97  98
ENDBRANCH  65  90
ENDBRANCH  39  40
ENDBRANCH  32  34
ENDBRANCH  31  32
ENDBRANCH  30  31
ENDBRANCH   1  30
TORSDOF 22
ENDMDL
MODEL 2
REMARK VINA RESULT:     -10.9      3.496     10.009
REMARK SMILES CCCc1cc(OC(F)(F)F)cc2c1O[C@@H](C(F)(F)F)C(C(=O)OCCOCCOC(=O)c1ccc(-c3c4nc(c(-c5c(F)cc(S(=O)(=O)[O-])cc5F)c5ccc([nH]5)c(-c5c(F)cc(S(=O)(=O)[O-])cc5F)c5nc(c(-c6c(F)cc(S(=O)(=O)[O-])cc6F)c6ccc3[nH]6)C=C5)C=C4)cc1)=C2
REMARK SMILES IDX 28 1 27 2 26 3 25 4 24 5 22 6 23 7 21 8 4 9 5 10 14 11 6 12
REMARK SMILES IDX 13 13 15 14 12 15 99 16 16 17 3 18 2 19 1 20 7 21 8 22 9 23
REMARK SMILES IDX 10 24 11 25 17 26 18 27 19 28 20 29 29 30 30 31 31 32 32 33
REMARK SMILES IDX 33 34 34 35 98 36 35 37 97 38 36 39 37 40 38 41 91 42 39 43
REMARK SMILES IDX 96 44 90 45 92 46 40 47 95 48 89 49 88 50 41 52 75 53 54 54
REMARK SMILES IDX 74 55 55 56 58 57 73 58 93 59 56 60 57 61 72 63 94 64 59 65
REMARK SMILES IDX 42 66 43 67 52 68 44 69 45 70 51 71 53 72 46 73 47 74 48 75
REMARK SMILES IDX 49 76 50 77 76 78 77 79 86 80 78 81 79 82 85 83 87 84 80 85
REMARK SMILES IDX 81 86 82 87 83 88 84 89 60 90 61 91 70 92 62 93 63 94 69 95
REMARK SMILES IDX 71 96 64 97 65 98 66 99 67 100 68 101
REMARK H PARENT 92 51 58 62
REMARK Flexibility Score: inf
ROOT
ATOM      1  C   UNL A   1      31.589  29.557  25.825  1.00  0.00     0.202 C 
ENDROOT
BRANCH   1   2
ATOM      2  O   UNL A   1      31.047  29.496  24.507  1.00  0.00    -0.374 OA
BRANCH   2   3
ATOM      3  C   UNL A   1      31.430  28.404  23.674  1.00  0.00     0.202 C 
BRANCH   3   4
ATOM      4  C   UNL A   1      30.380  27.315  23.430  1.00  0.00     0.261 C 
BRANCH   4   5
ATOM      5  O   UNL A   1      30.815  26.042  23.934  1.00  0.00    -0.460 OA
BRANCH   5   6
ATOM      6  C   UNL A   1      31.596  25.332  23.086  1.00  0.00     0.338 C 
ATOM      7  O   UNL A   1      31.880  25.625  21.938  1.00  0.00    -0.246 OA
BRANCH   6   8
ATOM      8  C   UNL A   1      32.196  24.178  23.776  1.00  0.00     0.087 C 
ATOM      9  C   UNL A   1      34.770  21.165  25.087  1.00  0.00    -0.002 A 
ATOM     10  C   UNL A   1      34.351  19.829  24.990  1.00  0.00     0.054 A 
ATOM     11  C   UNL A   1      33.884  22.163  24.650  1.00  0.00     0.131 A 
ATOM     12  C   UNL A   1      33.132  19.494  24.387  1.00  0.00     0.130 A 
ATOM     13  C   UNL A   1      32.657  21.846  24.043  1.00  0.00     0.021 A 
ATOM     14  O   UNL A   1      34.296  23.469  24.782  1.00  0.00    -0.475 OA
ATOM     15  C   UNL A   1      32.285  20.507  23.923  1.00  0.00     0.058 A 
ATOM     16  C   UNL A   1      31.870  22.922  23.432  1.00  0.00     0.027 C 
ATOM     17  C   UNL A   1      33.206  24.422  24.870  1.00  0.00     0.316 C 
BRANCH   9  18
ATOM     18  C   UNL A   1      36.113  21.559  25.667  1.00  0.00     0.039 C 
BRANCH  18  19
ATOM     19  C   UNL A   1      37.376  21.171  24.887  1.00  0.00     0.001 C 
ATOM     20  C   UNL A   1      38.669  21.480  25.632  1.00  0.00     0.004 C 
ENDBRANCH  18  19
ENDBRANCH   9  18
BRANCH  12  21
ATOM     21  O   UNL A   1      32.672  18.222  24.186  1.00  0.00    -0.406 OA
BRANCH  21  22
ATOM     22  C   UNL A   1      33.413  17.398  23.297  1.00  0.00     0.573 C 
ATOM     23  F   UNL A   1      33.138  17.686  22.005  1.00  0.00    -0.132 F 
ATOM     24  F   UNL A   1      34.740  17.534  23.512  1.00  0.00    -0.132 F 
ATOM     25  F   UNL A   1      33.085  16.107  23.518  1.00  0.00    -0.132 F 
ENDBRANCH  21  22
ENDBRANCH  12  21
BRANCH  17  26
ATOM     26  C   UNL A   1      33.801  25.828  25.051  1.00  0.00     0.430 C 
ATOM     27  F   UNL A   1      33.008  26.603  25.827  1.00  0.00    -0.167 F 
ATOM     28  F   UNL A   1      34.990  25.742  25.710  1.00  0.00    -0.167 F 
ATOM     29  F   UNL A   1      34.046  26.465  23.890  1.00  0.00    -0.167 F 
ENDBRANCH  17  26
ENDBRANCH   6   8
ENDBRANCH   5   6
ENDBRANCH   4   5
ENDBRANCH   3   4
ENDBRANCH   2   3
ENDBRANCH   1   2
BRANCH   1  30
ATOM     30  C   UNL A   1      33.022  30.081  25.982  1.00  0.00     0.261 C 
BRANCH  30  31
ATOM     31  O   UNL A   1      33.500  29.988  27.335  1.00  0.00    -0.460 OA
BRANCH  31  32
ATOM     32  C   UNL A   1      34.433  30.917  27.662  1.00  0.00     0.338 C 
ATOM     33  O   UNL A   1      34.263  32.120  27.772  1.00  0.00    -0.246 OA
BRANCH  32  34
ATOM     34  C   UNL A   1      35.689  30.260  28.065  1.00  0.00     0.060 A 
ATOM     35  C   UNL A   1      35.734  29.699  29.348  1.00  0.00     0.016 A 
ATOM     36  C   UNL A   1      36.827  30.273  27.254  1.00  0.00     0.016 A 
ATOM     37  C   UNL A   1      36.933  29.203  29.848  1.00  0.00     0.010 A 
ATOM     38  C   UNL A   1      38.034  29.780  27.764  1.00  0.00     0.010 A 
ATOM     39  C   UNL A   1      38.101  29.282  29.078  1.00  0.00    -0.014 A 
BRANCH  39  40
ATOM     40  C   UNL A   1      39.404  28.990  29.723  1.00  0.00     0.031 A 
ATOM     41  C   UNL A   1      39.806  29.775  30.944  1.00  0.00     0.074 A 
ATOM     42  C   UNL A   1      40.187  27.994  29.269  1.00  0.00     0.049 A 
ATOM     43  N   UNL A   1      40.874  29.658  31.690  1.00  0.00    -0.248 NA
ATOM     44  C   UNL A   1      38.880  30.831  31.383  1.00  0.00     0.031 C 
ATOM     45  C   UNL A   1      39.891  27.150  28.112  1.00  0.00     0.029 A 
ATOM     46  N   UNL A   1      41.390  27.525  29.730  1.00  0.00    -0.354 N 
ATOM     47  C   UNL A   1      40.751  30.622  32.683  1.00  0.00     0.074 A 
ATOM     48  C   UNL A   1      39.521  31.339  32.426  1.00  0.00     0.031 C 
ATOM     49  C   UNL A   1      40.891  26.266  27.951  1.00  0.00     0.029 A 
ATOM     50  C   UNL A   1      41.905  26.495  28.979  1.00  0.00     0.049 A 
ATOM     51  H   UNL A   1      41.843  27.890  30.525  1.00  0.00     0.167 HD
ATOM     52  C   UNL A   1      41.581  30.879  33.723  1.00  0.00     0.037 A 
ATOM     53  C   UNL A   1      43.066  25.822  29.102  1.00  0.00     0.037 A 
ATOM     54  C   UNL A   1      42.798  30.155  33.980  1.00  0.00     0.049 A 
ATOM     55  C   UNL A   1      43.994  26.154  30.243  1.00  0.00     0.074 A 
ATOM     56  C   UNL A   1      43.690  30.317  35.026  1.00  0.00     0.029 A 
ATOM     57  N   UNL A   1      43.300  29.138  33.182  1.00  0.00    -0.354 N 
ATOM     58  N   UNL A   1      43.844  27.042  31.197  1.00  0.00    -0.248 NA
ATOM     59  C   UNL A   1      45.245  25.388  30.327  1.00  0.00     0.031 C 
ATOM     60  C   UNL A   1      44.755  29.430  34.834  1.00  0.00     0.029 A 
ATOM     61  C   UNL A   1      44.502  28.681  33.696  1.00  0.00     0.049 A 
ATOM     62  H   UNL A   1      42.865  28.791  32.369  1.00  0.00     0.167 HD
ATOM     63  C   UNL A   1      44.970  26.926  32.006  1.00  0.00     0.074 A 
ATOM     64  C   UNL A   1      45.784  25.871  31.439  1.00  0.00     0.031 C 
ATOM     65  C   UNL A   1      45.301  27.630  33.118  1.00  0.00     0.037 A 
BRANCH  52  66
ATOM     66  C   UNL A   1      41.211  32.001  34.651  1.00  0.00     0.058 A 
ATOM     67  C   UNL A   1      40.420  31.786  35.792  1.00  0.00     0.135 A 
ATOM     68  C   UNL A   1      41.689  33.301  34.421  1.00  0.00     0.135 A 
ATOM     69  F   UNL A   1      39.922  30.567  36.049  1.00  0.00    -0.206 F 
ATOM     70  C   UNL A   1      40.102  32.825  36.662  1.00  0.00     0.059 A 
ATOM     71  C   UNL A   1      41.405  34.349  35.290  1.00  0.00     0.059 A 
ATOM     72  F   UNL A   1      42.445  33.561  33.343  1.00  0.00    -0.206 F 
ATOM     73  C   UNL A   1      40.600  34.103  36.403  1.00  0.00     0.060 A 
BRANCH  73  74
ATOM     74  S   UNL A   1      40.192  35.438  37.547  1.00  0.00     0.124 S 
ATOM     75  O   UNL A   1      40.024  36.564  36.634  1.00  0.00    -0.237 OA
ATOM     76  O   UNL A   1      38.971  34.946  38.178  1.00  0.00    -0.237 OA
ATOM     77  O   UNL A   1      41.360  35.508  38.419  1.00  0.00    -0.744 OA
ENDBRANCH  73  74
ENDBRANCH  52  66
BRANCH  53  78
ATOM     78  C   UNL A   1      43.427  24.773  28.111  1.00  0.00     0.058 A 
ATOM     79  C   UNL A   1      42.997  23.447  28.263  1.00  0.00     0.135 A 
ATOM     80  C   UNL A   1      44.220  25.079  26.994  1.00  0.00     0.135 A 
ATOM     81  F   UNL A   1      42.246  23.102  29.320  1.00  0.00    -0.206 F 
ATOM     82  C   UNL A   1      43.354  22.456  27.354  1.00  0.00     0.059 A 
ATOM     83  C   UNL A   1      44.568  24.113  26.057  1.00  0.00     0.059 A 
ATOM     84  F   UNL A   1      44.647  26.336  26.796  1.00  0.00    -0.206 F 
ATOM     85  C   UNL A   1      44.141  22.801  26.252  1.00  0.00     0.060 A 
BRANCH  85  86
ATOM     86  S   UNL A   1      44.566  21.518  25.054  1.00  0.00     0.124 S 
ATOM     87  O   UNL A   1      44.473  22.249  23.795  1.00  0.00    -0.237 OA
ATOM     88  O   UNL A   1      45.910  21.138  25.475  1.00  0.00    -0.237 OA
ATOM     89  O   UNL A   1      43.539  20.504  25.274  1.00  0.00    -0.744 OA
ENDBRANCH  85  86
ENDBRANCH  53  78
BRANCH  65  90
ATOM     90  C   UNL A   1      46.589  27.269  33.807  1.00  0.00     0.058 A 
ATOM     91  C   UNL A   1      46.643  26.267  34.787  1.00  0.00     0.135 A 
ATOM     92  C   UNL A   1      47.789  27.903  33.450  1.00  0.00     0.135 A 
ATOM     93  F   UNL A   1      45.524  25.632  35.167  1.00  0.00    -0.206 F 
ATOM     94  C   UNL A   1      47.840  25.925  35.410  1.00  0.00     0.059 A 
ATOM     95  C   UNL A   1      49.001  27.558  34.039  1.00  0.00     0.059 A 
ATOM     96  F   UNL A   1      47.796  28.861  32.508  1.00  0.00    -0.206 F 
ATOM     97  C   UNL A   1      49.014  26.577  35.030  1.00  0.00     0.060 A 
BRANCH  97  98
ATOM     98  S   UNL A   1      50.564  26.109  35.830  1.00  0.00     0.124 S 
ATOM     99  O   UNL A   1      51.383  27.294  35.597  1.00  0.00    -0.237 OA
ATOM    100  O   UNL A   1      50.149  25.887  37.211  1.00  0.00    -0.237 OA
ATOM    101  O   UNL A   1      50.971  24.909  35.104  1.00  0.00    -0.744 OA
ENDBRANCH  97  98
ENDBRANCH  65  90
ENDBRANCH  39  40
ENDBRANCH  32  34
ENDBRANCH  31  32
ENDBRANCH  30  31
ENDBRANCH   1  30
TORSDOF 22
ENDMDL
MODEL 3
REMARK VINA RESULT:     -10.8      0.926      7.996
REMARK SMILES CCCc1cc(OC(F)(F)F)cc2c1O[C@@H](C(F)(F)F)C(C(=O)OCCOCCOC(=O)c1ccc(-c3c4nc(c(-c5c(F)cc(S(=O)(=O)[O-])cc5F)c5ccc([nH]5)c(-c5c(F)cc(S(=O)(=O)[O-])cc5F)c5nc(c(-c6c(F)cc(S(=O)(=O)[O-])cc6F)c6ccc3[nH]6)C=C5)C=C4)cc1)=C2
REMARK SMILES IDX 28 1 27 2 26 3 25 4 24 5 22 6 23 7 21 8 4 9 5 10 14 11 6 12
REMARK SMILES IDX 13 13 15 14 12 15 99 16 16 17 3 18 2 19 1 20 7 21 8 22 9 23
REMARK SMILES IDX 10 24 11 25 17 26 18 27 19 28 20 29 29 30 30 31 31 32 32 33
REMARK SMILES IDX 33 34 34 35 98 36 35 37 97 38 36 39 37 40 38 41 91 42 39 43
REMARK SMILES IDX 96 44 90 45 92 46 40 47 95 48 89 49 88 50 41 52 75 53 54 54
REMARK SMILES IDX 74 55 55 56 58 57 73 58 93 59 56 60 57 61 72 63 94 64 59 65
REMARK SMILES IDX 42 66 43 67 52 68 44 69 45 70 51 71 53 72 46 73 47 74 48 75
REMARK SMILES IDX 49 76 50 77 76 78 77 79 86 80 78 81 79 82 85 83 87 84 80 85
REMARK SMILES IDX 81 86 82 87 83 88 84 89 60 90 61 91 70 92 62 93 63 94 69 95
REMARK SMILES IDX 71 96 64 97 65 98 66 99 67 100 68 101
REMARK H PARENT 92 51 58 62
REMARK Flexibility Score: inf
ROOT
ATOM      1  C   UNL A   1      39.918  21.986  26.848  1.00  0.00     0.202 C 
ENDROOT
BRANCH   1   2
ATOM      2  O   UNL A   1      38.862  21.413  26.080  1.00  0.00    -0.374 OA
BRANCH   2   3
ATOM      3  C   UNL A   1      37.906  22.295  25.493  1.00  0.00     0.202 C 
BRANCH   3   4
ATOM      4  C   UNL A   1      36.655  21.655  24.882  1.00  0.00     0.261 C 
BRANCH   4   5
ATOM      5  O   UNL A   1      35.521  22.533  24.966  1.00  0.00    -0.460 OA
BRANCH   5   6
ATOM      6  C   UNL A   1      35.323  23.311  23.876  1.00  0.00     0.338 C 
ATOM      7  O   UNL A   1      35.820  23.162  22.774  1.00  0.00    -0.246 OA
BRANCH   6   8
ATOM      8  C   UNL A   1      34.294  24.328  24.145  1.00  0.00     0.087 C 
ATOM      9  C   UNL A   1      31.385  27.302  23.797  1.00  0.00    -0.002 A 
ATOM     10  C   UNL A   1      31.574  28.515  24.477  1.00  0.00     0.054 A 
ATOM     11  C   UNL A   1      32.370  26.312  23.936  1.00  0.00     0.131 A 
ATOM     12  C   UNL A   1      32.751  28.769  25.192  1.00  0.00     0.130 A 
ATOM     13  C   UNL A   1      33.558  26.549  24.649  1.00  0.00     0.021 A 
ATOM     14  O   UNL A   1      32.155  25.117  23.290  1.00  0.00    -0.475 OA
ATOM     15  C   UNL A   1      33.736  27.779  25.282  1.00  0.00     0.058 A 
ATOM     16  C   UNL A   1      34.629  25.549  24.593  1.00  0.00     0.027 C 
ATOM     17  C   UNL A   1      32.844  23.992  23.891  1.00  0.00     0.316 C 
BRANCH   9  18
ATOM     18  C   UNL A   1      30.156  27.021  22.955  1.00  0.00     0.039 C 
BRANCH  18  19
ATOM     19  C   UNL A   1      28.779  27.262  23.588  1.00  0.00     0.001 C 
ATOM     20  C   UNL A   1      28.067  28.493  23.041  1.00  0.00     0.004 C 
ENDBRANCH  18  19
ENDBRANCH   9  18
BRANCH  12  21
ATOM     21  O   UNL A   1      33.054  29.942  25.827  1.00  0.00    -0.406 OA
BRANCH  21  22
ATOM     22  C   UNL A   1      32.396  30.199  27.059  1.00  0.00     0.573 C 
ATOM     23  F   UNL A   1      31.867  29.072  27.586  1.00  0.00    -0.132 F 
ATOM     24  F   UNL A   1      33.247  30.752  27.951  1.00  0.00    -0.132 F 
ATOM     25  F   UNL A   1      31.390  31.074  26.846  1.00  0.00    -0.132 F 
ENDBRANCH  21  22
ENDBRANCH  12  21
BRANCH  17  26
ATOM     26  C   UNL A   1      32.491  22.722  23.100  1.00  0.00     0.430 C 
ATOM     27  F   UNL A   1      32.852  21.605  23.772  1.00  0.00    -0.167 F 
ATOM     28  F   UNL A   1      31.139  22.639  22.946  1.00  0.00    -0.167 F 
ATOM     29  F   UNL A   1      33.024  22.690  21.863  1.00  0.00    -0.167 F 
ENDBRANCH  17  26
ENDBRANCH   6   8
ENDBRANCH   5   6
ENDBRANCH   4   5
ENDBRANCH   3   4
ENDBRANCH   2   3
ENDBRANCH   1   2
BRANCH   1  30
ATOM     30  C   UNL A   1      40.666  23.184  26.251  1.00  0.00     0.261 C 
BRANCH  30  31
ATOM     31  O   UNL A   1      40.001  24.434  26.504  1.00  0.00    -0.460 OA
BRANCH  31  32
ATOM     32  C   UNL A   1      40.787  25.527  26.339  1.00  0.00     0.338 C 
ATOM     33  O   UNL A   1      41.164  26.007  25.283  1.00  0.00    -0.246 OA
BRANCH  32  34
ATOM     34  C   UNL A   1      40.994  26.207  27.630  1.00  0.00     0.060 A 
ATOM     35  C   UNL A   1      39.983  26.077  28.590  1.00  0.00     0.016 A 
ATOM     36  C   UNL A   1      42.098  27.030  27.867  1.00  0.00     0.016 A 
ATOM     37  C   UNL A   1      40.042  26.816  29.767  1.00  0.00     0.010 A 
ATOM     38  C   UNL A   1      42.150  27.779  29.049  1.00  0.00     0.010 A 
ATOM     39  C   UNL A   1      41.101  27.707  29.984  1.00  0.00    -0.014 A 
BRANCH  39  40
ATOM     40  C   UNL A   1      41.010  28.666  31.111  1.00  0.00     0.031 A 
ATOM     41  C   UNL A   1      39.951  29.737  31.074  1.00  0.00     0.074 A 
ATOM     42  C   UNL A   1      41.814  28.544  32.183  1.00  0.00     0.049 A 
ATOM     43  N   UNL A   1      39.664  30.648  31.966  1.00  0.00    -0.248 NA
ATOM     44  C   UNL A   1      39.103  29.784  29.872  1.00  0.00     0.031 C 
ATOM     45  C   UNL A   1      42.859  27.533  32.343  1.00  0.00     0.029 A 
ATOM     46  N   UNL A   1      41.874  29.276  33.341  1.00  0.00    -0.354 N 
ATOM     47  C   UNL A   1      38.606  31.378  31.436  1.00  0.00     0.074 A 
ATOM     48  C   UNL A   1      38.324  30.824  30.130  1.00  0.00     0.031 C 
ATOM     49  C   UNL A   1      43.460  27.712  33.532  1.00  0.00     0.029 A 
ATOM     50  C   UNL A   1      42.857  28.861  34.207  1.00  0.00     0.049 A 
ATOM     51  H   UNL A   1      41.269  30.030  33.535  1.00  0.00     0.167 HD
ATOM     52  C   UNL A   1      37.923  32.407  31.992  1.00  0.00     0.037 A 
ATOM     53  C   UNL A   1      43.234  29.358  35.401  1.00  0.00     0.037 A 
ATOM     54  C   UNL A   1      38.200  32.947  33.298  1.00  0.00     0.049 A 
ATOM     55  C   UNL A   1      42.486  30.531  35.981  1.00  0.00     0.074 A 
ATOM     56  C   UNL A   1      37.543  33.967  33.964  1.00  0.00     0.029 A 
ATOM     57  N   UNL A   1      39.222  32.518  34.132  1.00  0.00    -0.354 N 
ATOM     58  N   UNL A   1      41.461  31.184  35.485  1.00  0.00    -0.248 NA
ATOM     59  C   UNL A   1      42.941  31.030  37.287  1.00  0.00     0.031 C 
ATOM     60  C   UNL A   1      38.198  34.185  35.181  1.00  0.00     0.029 A 
ATOM     61  C   UNL A   1      39.231  33.270  35.295  1.00  0.00     0.049 A 
ATOM     62  H   UNL A   1      39.848  31.786  33.928  1.00  0.00     0.167 HD
ATOM     63  C   UNL A   1      41.137  32.155  36.427  1.00  0.00     0.074 A 
ATOM     64  C   UNL A   1      42.062  31.994  37.529  1.00  0.00     0.031 C 
ATOM     65  C   UNL A   1      40.161  33.097  36.383  1.00  0.00     0.037 A 
BRANCH  52  66
ATOM     66  C   UNL A   1      36.819  33.030  31.185  1.00  0.00     0.058 A 
ATOM     67  C   UNL A   1      37.085  33.904  30.119  1.00  0.00     0.135 A 
ATOM     68  C   UNL A   1      35.478  32.714  31.455  1.00  0.00     0.135 A 
ATOM     69  F   UNL A   1      38.348  34.253  29.830  1.00  0.00    -0.206 F 
ATOM     70  C   UNL A   1      36.059  34.457  29.359  1.00  0.00     0.059 A 
ATOM     71  C   UNL A   1      34.437  33.236  30.693  1.00  0.00     0.059 A 
ATOM     72  F   UNL A   1      35.167  31.888  32.466  1.00  0.00    -0.206 F 
ATOM     73  C   UNL A   1      34.737  34.116  29.654  1.00  0.00     0.060 A 
BRANCH  73  74
ATOM     74  S   UNL A   1      33.417  34.830  28.651  1.00  0.00     0.124 S 
ATOM     75  O   UNL A   1      32.432  35.177  29.670  1.00  0.00    -0.237 OA
ATOM     76  O   UNL A   1      34.087  35.957  28.008  1.00  0.00    -0.237 OA
ATOM     77  O   UNL A   1      33.038  33.739  27.759  1.00  0.00    -0.744 OA
ENDBRANCH  73  74
ENDBRANCH  52  66
BRANCH  53  78
ATOM     78  C   UNL A   1      44.385  28.758  36.127  1.00  0.00     0.058 A 
ATOM     79  C   UNL A   1      44.216  27.661  36.984  1.00  0.00     0.135 A 
ATOM     80  C   UNL A   1      45.681  29.280  35.982  1.00  0.00     0.135 A 
ATOM     81  F   UNL A   1      42.996  27.132  37.163  1.00  0.00    -0.206 F 
ATOM     82  C   UNL A   1      45.285  27.112  37.686  1.00  0.00     0.059 A 
ATOM     83  C   UNL A   1      46.769  28.733  36.653  1.00  0.00     0.059 A 
ATOM     84  F   UNL A   1      45.898  30.322  35.165  1.00  0.00    -0.206 F 
ATOM     85  C   UNL A   1      46.559  27.657  37.513  1.00  0.00     0.060 A 
BRANCH  85  86
ATOM     86  S   UNL A   1      47.948  26.914  38.396  1.00  0.00     0.124 S 
ATOM     87  O   UNL A   1      47.349  26.621  39.692  1.00  0.00    -0.237 OA
ATOM     88  O   UNL A   1      48.261  25.760  37.560  1.00  0.00    -0.237 OA
ATOM     89  O   UNL A   1      48.953  27.974  38.387  1.00  0.00    -0.744 OA
ENDBRANCH  85  86
ENDBRANCH  53  78
BRANCH  65  90
ATOM     90  C   UNL A   1      40.030  34.013  37.569  1.00  0.00     0.058 A 
ATOM     91  C   UNL A   1      40.766  35.204  37.663  1.00  0.00     0.135 A 
ATOM     92  C   UNL A   1      39.127  33.717  38.602  1.00  0.00     0.135 A 
ATOM     93  F   UNL A   1      41.646  35.533  36.705  1.00  0.00    -0.206 F 
ATOM     94  C   UNL A   1      40.630  36.057  38.754  1.00  0.00     0.059 A 
ATOM     95  C   UNL A   1      38.954  34.569  39.688  1.00  0.00     0.059 A 
ATOM     96  F   UNL A   1      38.389  32.595  38.556  1.00  0.00    -0.206 F 
ATOM     97  C   UNL A   1      39.722  35.730  39.763  1.00  0.00     0.060 A 
BRANCH  97  98
ATOM     98  S   UNL A   1      39.539  36.856  41.163  1.00  0.00     0.124 S 
ATOM     99  O   UNL A   1      38.764  37.940  40.568  1.00  0.00    -0.237 OA
ATOM    100  O   UNL A   1      38.832  36.031  42.137  1.00  0.00    -0.237 OA
ATOM    101  O   UNL A   1      40.917  37.188  41.514  1.00  0.00    -0.744 OA
ENDBRANCH  97  98
ENDBRANCH  65  90
ENDBRANCH  39  40
ENDBRANCH  32  34
ENDBRANCH  31  32
ENDBRANCH  30  31
ENDBRANCH   1  30
TORSDOF 22
ENDMDL
