MODEL 1
REMARK VINA RESULT:     -10.5      0.000      0.000
REMARK SMILES CC[C@@](C)([NH2+]Cc1ccc(C(N)=O)cc1F)C(=O)OCCOCCOC(=O)c1ccc(-c2c3nc(c(-c4c(F)cc(S(=O)(=O)[O-])cc4F)c4ccc([nH]4)c(-c4c(F)cc(S(=O)(=O)[O-])cc4F)c4nc(c(-c5c(F)cc(S(=O)(=O)[O-])cc5F)c5ccc2[nH]5)C=C4)C=C3)cc1
REMARK SMILES IDX 21 1 20 2 19 3 17 4 18 5 3 6 4 7 2 8 1 9 5 10 6 13 7 14 8 15
REMARK SMILES IDX 15 16 9 17 14 18 16 19 10 20 11 21 12 22 13 23 22 26 23 27
REMARK SMILES IDX 24 28 25 29 26 30 27 31 28 32 29 33 93 34 30 35 92 36 31 37
REMARK SMILES IDX 32 38 33 39 86 40 34 41 91 42 85 43 87 44 35 45 90 46 84 47
REMARK SMILES IDX 83 48 36 50 70 51 49 52 69 53 50 54 53 55 68 56 88 57 51 58
REMARK SMILES IDX 52 59 67 61 89 62 54 63 37 64 38 65 47 66 39 67 40 68 46 69
REMARK SMILES IDX 48 70 41 71 42 72 43 73 44 74 45 75 71 76 72 77 81 78 73 79
REMARK SMILES IDX 74 80 80 81 82 82 75 83 76 84 77 85 78 86 79 87 55 88 56 89
REMARK SMILES IDX 65 90 57 91 58 92 64 93 66 94 59 95 60 96 61 97 62 98 63 99
REMARK H PARENT 5 11 5 12 12 24 12 25 87 49 53 60
REMARK Flexibility Score: inf
ROOT
ATOM      1  C   UNL A   1      38.092  21.310  25.498  1.00  0.00     0.202 C 
ENDROOT
BRANCH   1   2
ATOM      2  C   UNL A   1      37.193  21.565  24.286  1.00  0.00     0.261 C 
BRANCH   2   3
ATOM      3  O   UNL A   1      36.019  22.283  24.692  1.00  0.00    -0.459 OA
BRANCH   3   4
ATOM      4  C   UNL A   1      35.516  23.167  23.800  1.00  0.00     0.367 C 
ATOM      5  O   UNL A   1      36.160  23.608  22.851  1.00  0.00    -0.245 OA
BRANCH   4   6
ATOM      6  C   UNL A   1      34.053  23.602  24.086  1.00  0.00     0.191 C 
ATOM      7  C   UNL A   1      33.880  23.556  25.612  1.00  0.00     0.092 C 
BRANCH   6   8
ATOM      8  C   UNL A   1      33.843  25.070  23.575  1.00  0.00     0.077 C 
ATOM      9  C   UNL A   1      33.292  25.275  22.168  1.00  0.00     0.011 C 
ENDBRANCH   6   8
BRANCH   6  10
ATOM     10  N   UNL A   1      32.961  22.881  23.343  1.00  0.00    -0.329 N 
ATOM     11  H   UNL A   1      33.432  22.232  22.712  1.00  0.00     0.347 HD
ATOM     12  H   UNL A   1      32.423  23.658  22.960  1.00  0.00     0.347 HD
BRANCH  10  13
ATOM     13  C   UNL A   1      31.921  22.103  24.023  1.00  0.00     0.301 C 
BRANCH  13  14
ATOM     14  C   UNL A   1      32.223  20.640  24.176  1.00  0.00     0.042 A 
ATOM     15  C   UNL A   1      32.538  20.086  25.425  1.00  0.00     0.013 A 
ATOM     16  C   UNL A   1      32.268  19.819  23.046  1.00  0.00     0.132 A 
ATOM     17  C   UNL A   1      33.042  18.786  25.509  1.00  0.00     0.014 A 
ATOM     18  C   UNL A   1      32.750  18.519  23.122  1.00  0.00     0.053 A 
ATOM     19  F   UNL A   1      31.902  20.304  21.851  1.00  0.00    -0.206 F 
ATOM     20  C   UNL A   1      33.199  18.018  24.347  1.00  0.00     0.042 A 
BRANCH  20  21
ATOM     21  C   UNL A   1      33.880  16.696  24.348  1.00  0.00     0.248 C 
ATOM     22  N   UNL A   1      34.587  16.336  25.461  1.00  0.00    -0.366 N 
ATOM     23  O   UNL A   1      33.868  15.966  23.365  1.00  0.00    -0.270 OA
ATOM     24  H   UNL A   1      34.597  16.924  26.250  1.00  0.00     0.159 HD
ATOM     25  H   UNL A   1      35.087  15.487  25.473  1.00  0.00     0.159 HD
ENDBRANCH  20  21
ENDBRANCH  13  14
ENDBRANCH  10  13
ENDBRANCH   6  10
ENDBRANCH   4   6
ENDBRANCH   3   4
ENDBRANCH   2   3
ENDBRANCH   1   2
BRANCH   1  26
ATOM     26  O   UNL A   1      39.050  22.327  25.799  1.00  0.00    -0.374 OA
BRANCH  26  27
ATOM     27  C   UNL A   1      40.019  22.039  26.809  1.00  0.00     0.202 C 
BRANCH  27  28
ATOM     28  C   UNL A   1      41.484  22.354  26.489  1.00  0.00     0.261 C 
BRANCH  28  29
ATOM     29  O   UNL A   1      42.025  23.383  27.337  1.00  0.00    -0.460 OA
BRANCH  29  30
ATOM     30  C   UNL A   1      42.185  24.577  26.724  1.00  0.00     0.338 C 
ATOM     31  O   UNL A   1      42.650  24.772  25.607  1.00  0.00    -0.246 OA
BRANCH  30  32
ATOM     32  C   UNL A   1      41.550  25.655  27.504  1.00  0.00     0.060 A 
ATOM     33  C   UNL A   1      42.254  26.859  27.608  1.00  0.00     0.016 A 
ATOM     34  C   UNL A   1      40.353  25.467  28.202  1.00  0.00     0.016 A 
ATOM     35  C   UNL A   1      41.817  27.848  28.481  1.00  0.00     0.010 A 
ATOM     36  C   UNL A   1      39.916  26.462  29.084  1.00  0.00     0.010 A 
ATOM     37  C   UNL A   1      40.680  27.629  29.270  1.00  0.00    -0.014 A 
BRANCH  37  38
ATOM     38  C   UNL A   1      40.444  28.529  30.426  1.00  0.00     0.031 A 
ATOM     39  C   UNL A   1      41.357  28.420  31.619  1.00  0.00     0.074 A 
ATOM     40  C   UNL A   1      39.512  29.495  30.370  1.00  0.00     0.049 A 
ATOM     41  N   UNL A   1      41.393  29.147  32.706  1.00  0.00    -0.248 NA
ATOM     42  C   UNL A   1      42.369  27.351  31.579  1.00  0.00     0.031 C 
ATOM     43  C   UNL A   1      38.605  29.729  29.248  1.00  0.00     0.029 A 
ATOM     44  N   UNL A   1      39.190  30.475  31.275  1.00  0.00    -0.354 N 
ATOM     45  C   UNL A   1      42.433  28.631  33.471  1.00  0.00     0.074 A 
ATOM     46  C   UNL A   1      42.973  27.501  32.748  1.00  0.00     0.031 C 
ATOM     47  C   UNL A   1      37.835  30.794  29.525  1.00  0.00     0.029 A 
ATOM     48  C   UNL A   1      38.181  31.306  30.852  1.00  0.00     0.049 A 
ATOM     49  H   UNL A   1      39.639  30.574  32.145  1.00  0.00     0.167 HD
ATOM     50  C   UNL A   1      42.908  29.071  34.660  1.00  0.00     0.037 A 
ATOM     51  C   UNL A   1      37.603  32.358  31.465  1.00  0.00     0.037 A 
ATOM     52  C   UNL A   1      42.369  30.195  35.376  1.00  0.00     0.049 A 
ATOM     53  C   UNL A   1      38.108  32.796  32.814  1.00  0.00     0.074 A 
ATOM     54  C   UNL A   1      42.769  30.712  36.596  1.00  0.00     0.029 A 
ATOM     55  N   UNL A   1      41.312  30.980  34.937  1.00  0.00    -0.354 N 
ATOM     56  N   UNL A   1      39.087  32.294  33.530  1.00  0.00    -0.248 NA
ATOM     57  C   UNL A   1      37.438  33.945  33.437  1.00  0.00     0.031 C 
ATOM     58  C   UNL A   1      41.929  31.785  36.912  1.00  0.00     0.029 A 
ATOM     59  C   UNL A   1      41.037  31.969  35.867  1.00  0.00     0.049 A 
ATOM     60  H   UNL A   1      40.829  30.852  34.089  1.00  0.00     0.167 HD
ATOM     61  C   UNL A   1      39.167  33.082  34.674  1.00  0.00     0.074 A 
ATOM     62  C   UNL A   1      38.141  34.098  34.551  1.00  0.00     0.031 C 
ATOM     63  C   UNL A   1      40.014  32.976  35.727  1.00  0.00     0.037 A 
BRANCH  50  64
ATOM     64  C   UNL A   1      44.063  28.322  35.266  1.00  0.00     0.058 A 
ATOM     65  C   UNL A   1      45.384  28.718  35.010  1.00  0.00     0.135 A 
ATOM     66  C   UNL A   1      43.864  27.194  36.080  1.00  0.00     0.135 A 
ATOM     67  F   UNL A   1      45.631  29.794  34.246  1.00  0.00    -0.206 F 
ATOM     68  C   UNL A   1      46.468  28.020  35.532  1.00  0.00     0.059 A 
ATOM     69  C   UNL A   1      44.933  26.496  36.635  1.00  0.00     0.059 A 
ATOM     70  F   UNL A   1      42.620  26.788  36.379  1.00  0.00    -0.206 F 
ATOM     71  C   UNL A   1      46.233  26.911  36.345  1.00  0.00     0.060 A 
BRANCH  71  72
ATOM     72  S   UNL A   1      47.650  26.049  37.059  1.00  0.00     0.124 S 
ATOM     73  O   UNL A   1      47.296  26.007  38.473  1.00  0.00    -0.237 OA
ATOM     74  O   UNL A   1      47.617  24.770  36.355  1.00  0.00    -0.237 OA
ATOM     75  O   UNL A   1      48.778  26.911  36.716  1.00  0.00    -0.744 OA
ENDBRANCH  71  72
ENDBRANCH  50  64
BRANCH  51  76
ATOM     76  C   UNL A   1      36.496  33.082  30.785  1.00  0.00     0.058 A 
ATOM     77  C   UNL A   1      36.752  33.957  29.718  1.00  0.00     0.135 A 
ATOM     78  C   UNL A   1      35.168  32.947  31.215  1.00  0.00     0.135 A 
ATOM     79  F   UNL A   1      38.007  34.122  29.270  1.00  0.00    -0.206 F 
ATOM     80  C   UNL A   1      35.737  34.696  29.122  1.00  0.00     0.059 A 
ATOM     81  C   UNL A   1      34.131  33.659  30.619  1.00  0.00     0.059 A 
ATOM     82  F   UNL A   1      34.872  32.110  32.222  1.00  0.00    -0.206 F 
ATOM     83  C   UNL A   1      34.430  34.547  29.586  1.00  0.00     0.060 A 
BRANCH  83  84
ATOM     84  S   UNL A   1      33.128  35.537  28.819  1.00  0.00     0.124 S 
ATOM     85  O   UNL A   1      32.451  36.084  29.990  1.00  0.00    -0.237 OA
ATOM     86  O   UNL A   1      33.897  36.491  28.025  1.00  0.00    -0.237 OA
ATOM     87  O   UNL A   1      32.366  34.557  28.052  1.00  0.00    -0.744 OA
ENDBRANCH  83  84
ENDBRANCH  51  76
BRANCH  63  88
ATOM     88  C   UNL A   1      39.896  33.996  36.826  1.00  0.00     0.058 A 
ATOM     89  C   UNL A   1      39.075  33.748  37.939  1.00  0.00     0.135 A 
ATOM     90  C   UNL A   1      40.535  35.243  36.748  1.00  0.00     0.135 A 
ATOM     91  F   UNL A   1      38.435  32.576  38.060  1.00  0.00    -0.206 F 
ATOM     92  C   UNL A   1      38.883  34.706  38.929  1.00  0.00     0.059 A 
ATOM     93  C   UNL A   1      40.377  36.208  37.740  1.00  0.00     0.059 A 
ATOM     94  F   UNL A   1      41.336  35.527  35.708  1.00  0.00    -0.206 F 
ATOM     95  C   UNL A   1      39.537  35.934  38.820  1.00  0.00     0.060 A 
BRANCH  95  96
ATOM     96  S   UNL A   1      39.297  37.157  40.128  1.00  0.00     0.124 S 
ATOM     97  O   UNL A   1      40.672  37.512  40.460  1.00  0.00    -0.237 OA
ATOM     98  O   UNL A   1      38.521  38.189  39.448  1.00  0.00    -0.237 OA
ATOM     99  O   UNL A   1      38.573  36.415  41.155  1.00  0.00    -0.744 OA
ENDBRANCH  95  96
ENDBRANCH  63  88
ENDBRANCH  37  38
ENDBRANCH  30  32
ENDBRANCH  29  30
ENDBRANCH  28  29
ENDBRANCH  27  28
ENDBRANCH  26  27
ENDBRANCH   1  26
TORSDOF 22
ENDMDL
MODEL 2
REMARK VINA RESULT:     -10.1      1.956      4.051
REMARK SMILES CC[C@@](C)([NH2+]Cc1ccc(C(N)=O)cc1F)C(=O)OCCOCCOC(=O)c1ccc(-c2c3nc(c(-c4c(F)cc(S(=O)(=O)[O-])cc4F)c4ccc([nH]4)c(-c4c(F)cc(S(=O)(=O)[O-])cc4F)c4nc(c(-c5c(F)cc(S(=O)(=O)[O-])cc5F)c5ccc2[nH]5)C=C4)C=C3)cc1
REMARK SMILES IDX 21 1 20 2 19 3 17 4 18 5 3 6 4 7 2 8 1 9 5 10 6 13 7 14 8 15
REMARK SMILES IDX 15 16 9 17 14 18 16 19 10 20 11 21 12 22 13 23 22 26 23 27
REMARK SMILES IDX 24 28 25 29 26 30 27 31 28 32 29 33 93 34 30 35 92 36 31 37
REMARK SMILES IDX 32 38 33 39 86 40 34 41 91 42 85 43 87 44 35 45 90 46 84 47
REMARK SMILES IDX 83 48 36 50 70 51 49 52 69 53 50 54 53 55 68 56 88 57 51 58
REMARK SMILES IDX 52 59 67 61 89 62 54 63 37 64 38 65 47 66 39 67 40 68 46 69
REMARK SMILES IDX 48 70 41 71 42 72 43 73 44 74 45 75 71 76 72 77 81 78 73 79
REMARK SMILES IDX 74 80 80 81 82 82 75 83 76 84 77 85 78 86 79 87 55 88 56 89
REMARK SMILES IDX 65 90 57 91 58 92 64 93 66 94 59 95 60 96 61 97 62 98 63 99
REMARK H PARENT 5 11 5 12 12 24 12 25 87 49 53 60
REMARK Flexibility Score: inf
ROOT
ATOM      1  C   UNL A   1      37.335  21.508  25.262  1.00  0.00     0.202 C 
ENDROOT
BRANCH   1   2
ATOM      2  C   UNL A   1      36.765  21.922  23.904  1.00  0.00     0.261 C 
BRANCH   2   3
ATOM      3  O   UNL A   1      35.549  22.661  24.089  1.00  0.00    -0.459 OA
BRANCH   3   4
ATOM      4  C   UNL A   1      34.504  21.980  24.614  1.00  0.00     0.367 C 
ATOM      5  O   UNL A   1      34.432  20.753  24.615  1.00  0.00    -0.245 OA
BRANCH   4   6
ATOM      6  C   UNL A   1      33.382  22.879  25.199  1.00  0.00     0.191 C 
ATOM      7  C   UNL A   1      32.113  22.015  25.239  1.00  0.00     0.092 C 
BRANCH   6   8
ATOM      8  C   UNL A   1      33.774  23.310  26.654  1.00  0.00     0.077 C 
ATOM      9  C   UNL A   1      33.989  22.221  27.700  1.00  0.00     0.011 C 
ENDBRANCH   6   8
BRANCH   6  10
ATOM     10  N   UNL A   1      33.166  24.220  24.551  1.00  0.00    -0.329 N 
ATOM     11  H   UNL A   1      32.202  24.220  24.219  1.00  0.00     0.347 HD
ATOM     12  H   UNL A   1      33.933  24.251  23.878  1.00  0.00     0.347 HD
BRANCH  10  13
ATOM     13  C   UNL A   1      33.349  25.485  25.269  1.00  0.00     0.301 C 
BRANCH  13  14
ATOM     14  C   UNL A   1      32.405  26.582  24.867  1.00  0.00     0.042 A 
ATOM     15  C   UNL A   1      31.129  26.298  24.357  1.00  0.00     0.013 A 
ATOM     16  C   UNL A   1      32.823  27.914  24.929  1.00  0.00     0.132 A 
ATOM     17  C   UNL A   1      30.366  27.312  23.775  1.00  0.00     0.014 A 
ATOM     18  C   UNL A   1      32.062  28.931  24.369  1.00  0.00     0.053 A 
ATOM     19  F   UNL A   1      34.007  28.219  25.478  1.00  0.00    -0.206 F 
ATOM     20  C   UNL A   1      30.857  28.624  23.732  1.00  0.00     0.042 A 
BRANCH  20  21
ATOM     21  C   UNL A   1      30.171  29.711  22.983  1.00  0.00     0.248 C 
ATOM     22  N   UNL A   1      30.587  29.978  21.709  1.00  0.00    -0.366 N 
ATOM     23  O   UNL A   1      29.298  30.396  23.501  1.00  0.00    -0.270 OA
ATOM     24  H   UNL A   1      31.288  29.427  21.295  1.00  0.00     0.159 HD
ATOM     25  H   UNL A   1      30.184  30.722  21.206  1.00  0.00     0.159 HD
ENDBRANCH  20  21
ENDBRANCH  13  14
ENDBRANCH  10  13
ENDBRANCH   6  10
ENDBRANCH   4   6
ENDBRANCH   3   4
ENDBRANCH   2   3
ENDBRANCH   1   2
BRANCH   1  26
ATOM     26  O   UNL A   1      38.026  22.523  25.993  1.00  0.00    -0.374 OA
BRANCH  26  27
ATOM     27  C   UNL A   1      39.346  22.220  26.449  1.00  0.00     0.202 C 
BRANCH  27  28
ATOM     28  C   UNL A   1      40.349  23.378  26.519  1.00  0.00     0.261 C 
BRANCH  28  29
ATOM     29  O   UNL A   1      39.727  24.659  26.317  1.00  0.00    -0.460 OA
BRANCH  29  30
ATOM     30  C   UNL A   1      40.595  25.696  26.296  1.00  0.00     0.338 C 
ATOM     31  O   UNL A   1      41.104  26.208  25.306  1.00  0.00    -0.246 OA
BRANCH  30  32
ATOM     32  C   UNL A   1      40.735  26.288  27.639  1.00  0.00     0.060 A 
ATOM     33  C   UNL A   1      39.670  26.098  28.528  1.00  0.00     0.016 A 
ATOM     34  C   UNL A   1      41.822  27.092  27.993  1.00  0.00     0.016 A 
ATOM     35  C   UNL A   1      39.642  26.782  29.736  1.00  0.00     0.010 A 
ATOM     36  C   UNL A   1      41.791  27.785  29.209  1.00  0.00     0.010 A 
ATOM     37  C   UNL A   1      40.671  27.678  30.055  1.00  0.00    -0.014 A 
BRANCH  37  38
ATOM     38  C   UNL A   1      40.445  28.643  31.159  1.00  0.00     0.031 A 
ATOM     39  C   UNL A   1      41.337  28.571  32.370  1.00  0.00     0.074 A 
ATOM     40  C   UNL A   1      39.541  29.631  31.039  1.00  0.00     0.049 A 
ATOM     41  N   UNL A   1      41.378  29.351  33.419  1.00  0.00    -0.248 NA
ATOM     42  C   UNL A   1      42.319  27.473  32.401  1.00  0.00     0.031 C 
ATOM     43  C   UNL A   1      38.658  29.831  29.892  1.00  0.00     0.029 A 
ATOM     44  N   UNL A   1      39.234  30.665  31.887  1.00  0.00    -0.354 N 
ATOM     45  C   UNL A   1      42.392  28.848  34.225  1.00  0.00     0.074 A 
ATOM     46  C   UNL A   1      42.910  27.667  33.570  1.00  0.00     0.031 C 
ATOM     47  C   UNL A   1      37.914  30.930  30.102  1.00  0.00     0.029 A 
ATOM     48  C   UNL A   1      38.255  31.500  31.406  1.00  0.00     0.049 A 
ATOM     49  H   UNL A   1      39.674  30.796  32.758  1.00  0.00     0.167 HD
ATOM     50  C   UNL A   1      42.862  29.335  35.398  1.00  0.00     0.037 A 
ATOM     51  C   UNL A   1      37.699  32.598  31.955  1.00  0.00     0.037 A 
ATOM     52  C   UNL A   1      42.345  30.510  36.047  1.00  0.00     0.049 A 
ATOM     53  C   UNL A   1      38.197  33.091  33.288  1.00  0.00     0.074 A 
ATOM     54  C   UNL A   1      42.742  31.077  37.245  1.00  0.00     0.029 A 
ATOM     55  N   UNL A   1      41.317  31.300  35.551  1.00  0.00    -0.354 N 
ATOM     56  N   UNL A   1      39.151  32.599  34.044  1.00  0.00    -0.248 NA
ATOM     57  C   UNL A   1      37.551  34.289  33.840  1.00  0.00     0.031 C 
ATOM     58  C   UNL A   1      41.929  32.188  37.492  1.00  0.00     0.029 A 
ATOM     59  C   UNL A   1      41.057  32.342  36.425  1.00  0.00     0.049 A 
ATOM     60  H   UNL A   1      40.843  31.141  34.704  1.00  0.00     0.167 HD
ATOM     61  C   UNL A   1      39.237  33.443  35.148  1.00  0.00     0.074 A 
ATOM     62  C   UNL A   1      38.242  34.480  34.956  1.00  0.00     0.031 C 
ATOM     63  C   UNL A   1      40.066  33.369  36.218  1.00  0.00     0.037 A 
BRANCH  50  64
ATOM     64  C   UNL A   1      43.987  28.586  36.059  1.00  0.00     0.058 A 
ATOM     65  C   UNL A   1      43.722  27.481  36.881  1.00  0.00     0.135 A 
ATOM     66  C   UNL A   1      45.327  28.978  35.900  1.00  0.00     0.135 A 
ATOM     67  F   UNL A   1      42.461  27.058  37.060  1.00  0.00    -0.206 F 
ATOM     68  C   UNL A   1      44.744  26.794  37.529  1.00  0.00     0.059 A 
ATOM     69  C   UNL A   1      46.367  28.290  36.517  1.00  0.00     0.059 A 
ATOM     70  F   UNL A   1      45.638  30.013  35.102  1.00  0.00    -0.206 F 
ATOM     71  C   UNL A   1      46.064  27.205  37.339  1.00  0.00     0.060 A 
BRANCH  71  72
ATOM     72  S   UNL A   1      47.382  26.269  38.144  1.00  0.00     0.124 S 
ATOM     73  O   UNL A   1      47.476  26.935  39.438  1.00  0.00    -0.237 OA
ATOM     74  O   UNL A   1      46.831  24.917  38.162  1.00  0.00    -0.237 OA
ATOM     75  O   UNL A   1      48.524  26.457  37.254  1.00  0.00    -0.744 OA
ENDBRANCH  71  72
ENDBRANCH  50  64
BRANCH  51  76
ATOM     76  C   UNL A   1      36.623  33.317  31.222  1.00  0.00     0.058 A 
ATOM     77  C   UNL A   1      35.282  33.213  31.623  1.00  0.00     0.135 A 
ATOM     78  C   UNL A   1      36.908  34.086  30.085  1.00  0.00     0.135 A 
ATOM     79  F   UNL A   1      34.957  32.487  32.705  1.00  0.00    -0.206 F 
ATOM     80  C   UNL A   1      34.258  33.819  30.905  1.00  0.00     0.059 A 
ATOM     81  C   UNL A   1      35.902  34.722  29.362  1.00  0.00     0.059 A 
ATOM     82  F   UNL A   1      38.177  34.228  29.673  1.00  0.00    -0.206 F 
ATOM     83  C   UNL A   1      34.577  34.565  29.769  1.00  0.00     0.060 A 
BRANCH  83  84
ATOM     84  S   UNL A   1      33.231  35.320  28.832  1.00  0.00     0.124 S 
ATOM     85  O   UNL A   1      32.703  34.171  28.104  1.00  0.00    -0.237 OA
ATOM     86  O   UNL A   1      32.378  35.848  29.892  1.00  0.00    -0.237 OA
ATOM     87  O   UNL A   1      33.908  36.323  28.017  1.00  0.00    -0.744 OA
ENDBRANCH  83  84
ENDBRANCH  51  76
BRANCH  63  88
ATOM     88  C   UNL A   1      39.961  34.447  37.261  1.00  0.00     0.058 A 
ATOM     89  C   UNL A   1      39.089  34.297  38.351  1.00  0.00     0.135 A 
ATOM     90  C   UNL A   1      40.666  35.655  37.147  1.00  0.00     0.135 A 
ATOM     91  F   UNL A   1      38.384  33.165  38.504  1.00  0.00    -0.206 F 
ATOM     92  C   UNL A   1      38.910  35.311  39.286  1.00  0.00     0.059 A 
ATOM     93  C   UNL A   1      40.523  36.675  38.085  1.00  0.00     0.059 A 
ATOM     94  F   UNL A   1      41.517  35.847  36.127  1.00  0.00    -0.206 F 
ATOM     95  C   UNL A   1      39.631  36.498  39.144  1.00  0.00     0.060 A 
BRANCH  95  96
ATOM     96  S   UNL A   1      39.408  37.795  40.381  1.00  0.00     0.124 S 
ATOM     97  O   UNL A   1      38.176  38.431  39.928  1.00  0.00    -0.237 OA
ATOM     98  O   UNL A   1      39.309  37.028  41.619  1.00  0.00    -0.237 OA
ATOM     99  O   UNL A   1      40.618  38.600  40.247  1.00  0.00    -0.744 OA
ENDBRANCH  95  96
ENDBRANCH  63  88
ENDBRANCH  37  38
ENDBRANCH  30  32
ENDBRANCH  29  30
ENDBRANCH  28  29
ENDBRANCH  27  28
ENDBRANCH  26  27
ENDBRANCH   1  26
TORSDOF 22
ENDMDL
MODEL 3
REMARK VINA RESULT:      -9.9      5.957      8.039
REMARK SMILES CC[C@@](C)([NH2+]Cc1ccc(C(N)=O)cc1F)C(=O)OCCOCCOC(=O)c1ccc(-c2c3nc(c(-c4c(F)cc(S(=O)(=O)[O-])cc4F)c4ccc([nH]4)c(-c4c(F)cc(S(=O)(=O)[O-])cc4F)c4nc(c(-c5c(F)cc(S(=O)(=O)[O-])cc5F)c5ccc2[nH]5)C=C4)C=C3)cc1
REMARK SMILES IDX 21 1 20 2 19 3 17 4 18 5 3 6 4 7 2 8 1 9 5 10 6 13 7 14 8 15
REMARK SMILES IDX 15 16 9 17 14 18 16 19 10 20 11 21 12 22 13 23 22 26 23 27
REMARK SMILES IDX 24 28 25 29 26 30 27 31 28 32 29 33 93 34 30 35 92 36 31 37
REMARK SMILES IDX 32 38 33 39 86 40 34 41 91 42 85 43 87 44 35 45 90 46 84 47
REMARK SMILES IDX 83 48 36 50 70 51 49 52 69 53 50 54 53 55 68 56 88 57 51 58
REMARK SMILES IDX 52 59 67 61 89 62 54 63 37 64 38 65 47 66 39 67 40 68 46 69
REMARK SMILES IDX 48 70 41 71 42 72 43 73 44 74 45 75 71 76 72 77 81 78 73 79
REMARK SMILES IDX 74 80 80 81 82 82 75 83 76 84 77 85 78 86 79 87 55 88 56 89
REMARK SMILES IDX 65 90 57 91 58 92 64 93 66 94 59 95 60 96 61 97 62 98 63 99
REMARK H PARENT 5 11 5 12 12 24 12 25 87 49 53 60
REMARK Flexibility Score: inf
ROOT
ATOM      1  C   UNL A   1      37.440  23.302  25.019  1.00  0.00     0.202 C 
ENDROOT
BRANCH   1   2
ATOM      2  C   UNL A   1      36.029  23.184  25.601  1.00  0.00     0.261 C 
BRANCH   2   3
ATOM      3  O   UNL A   1      35.099  23.898  24.774  1.00  0.00    -0.459 OA
BRANCH   3   4
ATOM      4  C   UNL A   1      34.863  23.379  23.547  1.00  0.00     0.367 C 
ATOM      5  O   UNL A   1      35.756  22.998  22.794  1.00  0.00    -0.245 OA
BRANCH   4   6
ATOM      6  C   UNL A   1      33.363  23.325  23.152  1.00  0.00     0.191 C 
ATOM      7  C   UNL A   1      32.567  23.467  24.459  1.00  0.00     0.092 C 
BRANCH   6   8
ATOM      8  C   UNL A   1      33.035  24.527  22.201  1.00  0.00     0.077 C 
ATOM      9  C   UNL A   1      31.707  25.255  22.384  1.00  0.00     0.011 C 
ENDBRANCH   6   8
BRANCH   6  10
ATOM     10  N   UNL A   1      32.914  22.162  22.309  1.00  0.00    -0.329 N 
ATOM     11  H   UNL A   1      33.726  21.551  22.217  1.00  0.00     0.347 HD
ATOM     12  H   UNL A   1      32.541  22.635  21.486  1.00  0.00     0.347 HD
BRANCH  10  13
ATOM     13  C   UNL A   1      31.794  21.294  22.688  1.00  0.00     0.301 C 
BRANCH  13  14
ATOM     14  C   UNL A   1      32.190  19.986  23.309  1.00  0.00     0.042 A 
ATOM     15  C   UNL A   1      32.402  19.869  24.691  1.00  0.00     0.013 A 
ATOM     16  C   UNL A   1      32.427  18.875  22.497  1.00  0.00     0.132 A 
ATOM     17  C   UNL A   1      32.992  18.716  25.215  1.00  0.00     0.014 A 
ATOM     18  C   UNL A   1      32.997  17.718  23.011  1.00  0.00     0.053 A 
ATOM     19  F   UNL A   1      32.163  18.938  21.184  1.00  0.00    -0.206 F 
ATOM     20  C   UNL A   1      33.341  17.658  24.364  1.00  0.00     0.042 A 
BRANCH  20  21
ATOM     21  C   UNL A   1      34.118  16.479  24.831  1.00  0.00     0.248 C 
ATOM     22  N   UNL A   1      35.351  16.696  25.379  1.00  0.00    -0.366 N 
ATOM     23  O   UNL A   1      33.706  15.337  24.680  1.00  0.00    -0.270 OA
ATOM     24  H   UNL A   1      35.682  17.615  25.500  1.00  0.00     0.159 HD
ATOM     25  H   UNL A   1      35.909  15.932  25.654  1.00  0.00     0.159 HD
ENDBRANCH  20  21
ENDBRANCH  13  14
ENDBRANCH  10  13
ENDBRANCH   6  10
ENDBRANCH   4   6
ENDBRANCH   3   4
ENDBRANCH   2   3
ENDBRANCH   1   2
BRANCH   1  26
ATOM     26  O   UNL A   1      38.481  23.617  25.946  1.00  0.00    -0.374 OA
BRANCH  26  27
ATOM     27  C   UNL A   1      39.043  22.536  26.694  1.00  0.00     0.202 C 
BRANCH  27  28
ATOM     28  C   UNL A   1      39.426  21.270  25.920  1.00  0.00     0.261 C 
BRANCH  28  29
ATOM     29  O   UNL A   1      40.042  20.276  26.758  1.00  0.00    -0.460 OA
BRANCH  29  30
ATOM     30  C   UNL A   1      41.301  19.948  26.391  1.00  0.00     0.338 C 
ATOM     31  O   UNL A   1      41.653  18.935  25.799  1.00  0.00    -0.246 OA
BRANCH  30  32
ATOM     32  C   UNL A   1      42.225  21.071  26.635  1.00  0.00     0.060 A 
ATOM     33  C   UNL A   1      42.400  21.470  27.965  1.00  0.00     0.016 A 
ATOM     34  C   UNL A   1      42.825  21.785  25.593  1.00  0.00     0.016 A 
ATOM     35  C   UNL A   1      43.097  22.635  28.256  1.00  0.00     0.010 A 
ATOM     36  C   UNL A   1      43.524  22.962  25.888  1.00  0.00     0.010 A 
ATOM     37  C   UNL A   1      43.609  23.421  27.215  1.00  0.00    -0.014 A 
BRANCH  37  38
ATOM     38  C   UNL A   1      44.027  24.810  27.525  1.00  0.00     0.031 A 
ATOM     39  C   UNL A   1      45.468  25.192  27.307  1.00  0.00     0.074 A 
ATOM     40  C   UNL A   1      43.125  25.739  27.884  1.00  0.00     0.049 A 
ATOM     41  N   UNL A   1      46.045  26.359  27.435  1.00  0.00    -0.248 NA
ATOM     42  C   UNL A   1      46.379  24.115  26.883  1.00  0.00     0.031 C 
ATOM     43  C   UNL A   1      41.696  25.498  28.077  1.00  0.00     0.029 A 
ATOM     44  N   UNL A   1      43.278  27.080  28.131  1.00  0.00    -0.354 N 
ATOM     45  C   UNL A   1      47.379  26.158  27.098  1.00  0.00     0.074 A 
ATOM     46  C   UNL A   1      47.538  24.751  26.807  1.00  0.00     0.031 C 
ATOM     47  C   UNL A   1      41.099  26.657  28.401  1.00  0.00     0.029 A 
ATOM     48  C   UNL A   1      42.106  27.718  28.457  1.00  0.00     0.049 A 
ATOM     49  H   UNL A   1      44.145  27.542  28.079  1.00  0.00     0.167 HD
ATOM     50  C   UNL A   1      48.380  27.068  27.021  1.00  0.00     0.037 A 
ATOM     51  C   UNL A   1      41.872  29.009  28.765  1.00  0.00     0.037 A 
ATOM     52  C   UNL A   1      48.218  28.467  27.311  1.00  0.00     0.049 A 
ATOM     53  C   UNL A   1      43.009  29.995  28.730  1.00  0.00     0.074 A 
ATOM     54  C   UNL A   1      49.173  29.469  27.277  1.00  0.00     0.029 A 
ATOM     55  N   UNL A   1      47.024  29.065  27.688  1.00  0.00    -0.354 N 
ATOM     56  N   UNL A   1      44.268  29.790  28.418  1.00  0.00    -0.248 NA
ATOM     57  C   UNL A   1      42.697  31.387  29.080  1.00  0.00     0.031 C 
ATOM     58  C   UNL A   1      48.563  30.665  27.671  1.00  0.00     0.029 A 
ATOM     59  C   UNL A   1      47.219  30.419  27.903  1.00  0.00     0.049 A 
ATOM     60  H   UNL A   1      46.165  28.595  27.788  1.00  0.00     0.167 HD
ATOM     61  C   UNL A   1      44.892  31.031  28.509  1.00  0.00     0.074 A 
ATOM     62  C   UNL A   1      43.869  31.982  28.898  1.00  0.00     0.031 C 
ATOM     63  C   UNL A   1      46.189  31.353  28.286  1.00  0.00     0.037 A 
BRANCH  50  64
ATOM     64  C   UNL A   1      49.740  26.571  26.617  1.00  0.00     0.058 A 
ATOM     65  C   UNL A   1      50.079  26.439  25.263  1.00  0.00     0.135 A 
ATOM     66  C   UNL A   1      50.702  26.200  27.572  1.00  0.00     0.135 A 
ATOM     67  F   UNL A   1      49.202  26.788  24.309  1.00  0.00    -0.206 F 
ATOM     68  C   UNL A   1      51.320  25.950  24.866  1.00  0.00     0.059 A 
ATOM     69  C   UNL A   1      51.959  25.732  27.199  1.00  0.00     0.059 A 
ATOM     70  F   UNL A   1      50.439  26.331  28.882  1.00  0.00    -0.206 F 
ATOM     71  C   UNL A   1      52.254  25.601  25.842  1.00  0.00     0.060 A 
BRANCH  71  72
ATOM     72  S   UNL A   1      53.879  25.019  25.311  1.00  0.00     0.124 S 
ATOM     73  O   UNL A   1      54.225  25.992  24.281  1.00  0.00    -0.237 OA
ATOM     74  O   UNL A   1      54.652  25.097  26.547  1.00  0.00    -0.237 OA
ATOM     75  O   UNL A   1      53.614  23.664  24.835  1.00  0.00    -0.744 OA
ENDBRANCH  71  72
ENDBRANCH  50  64
BRANCH  51  76
ATOM     76  C   UNL A   1      40.491  29.440  29.109  1.00  0.00     0.058 A 
ATOM     77  C   UNL A   1      39.507  29.575  28.117  1.00  0.00     0.135 A 
ATOM     78  C   UNL A   1      40.138  29.765  30.427  1.00  0.00     0.135 A 
ATOM     79  F   UNL A   1      39.795  29.277  26.840  1.00  0.00    -0.206 F 
ATOM     80  C   UNL A   1      38.234  30.047  28.412  1.00  0.00     0.059 A 
ATOM     81  C   UNL A   1      38.862  30.218  30.752  1.00  0.00     0.059 A 
ATOM     82  F   UNL A   1      41.039  29.637  31.413  1.00  0.00    -0.206 F 
ATOM     83  C   UNL A   1      37.924  30.374  29.733  1.00  0.00     0.060 A 
BRANCH  83  84
ATOM     84  S   UNL A   1      36.273  31.014  30.093  1.00  0.00     0.124 S 
ATOM     85  O   UNL A   1      35.931  30.271  31.302  1.00  0.00    -0.237 OA
ATOM     86  O   UNL A   1      36.529  32.439  30.273  1.00  0.00    -0.237 OA
ATOM     87  O   UNL A   1      35.508  30.662  28.902  1.00  0.00    -0.744 OA
ENDBRANCH  83  84
ENDBRANCH  51  76
BRANCH  63  88
ATOM     88  C   UNL A   1      46.586  32.797  28.429  1.00  0.00     0.058 A 
ATOM     89  C   UNL A   1      46.617  33.639  27.305  1.00  0.00     0.135 A 
ATOM     90  C   UNL A   1      47.003  33.330  29.658  1.00  0.00     0.135 A 
ATOM     91  F   UNL A   1      46.237  33.179  26.104  1.00  0.00    -0.206 F 
ATOM     92  C   UNL A   1      47.058  34.955  27.393  1.00  0.00     0.059 A 
ATOM     93  C   UNL A   1      47.423  34.653  29.776  1.00  0.00     0.059 A 
ATOM     94  F   UNL A   1      46.986  32.570  30.764  1.00  0.00    -0.206 F 
ATOM     95  C   UNL A   1      47.461  35.453  28.633  1.00  0.00     0.060 A 
BRANCH  95  96
ATOM     96  S   UNL A   1      48.005  37.172  28.736  1.00  0.00     0.124 S 
ATOM     97  O   UNL A   1      49.305  37.113  28.076  1.00  0.00    -0.237 OA
ATOM     98  O   UNL A   1      46.954  37.874  28.006  1.00  0.00    -0.237 OA
ATOM     99  O   UNL A   1      48.040  37.430  30.172  1.00  0.00    -0.744 OA
ENDBRANCH  95  96
ENDBRANCH  63  88
ENDBRANCH  37  38
ENDBRANCH  30  32
ENDBRANCH  29  30
ENDBRANCH  28  29
ENDBRANCH  27  28
ENDBRANCH  26  27
ENDBRANCH   1  26
TORSDOF 22
ENDMDL
