MODEL 1
REMARK VINA RESULT:     -12.3      0.000      0.000
REMARK SMILES C[C@H]1c2ccc(O)cc2OC(=O)[C@@H]1CC(=O)N[C@@H](CC1=c2ccccc2=NC1)C(=O)OCCOCCOC(=O)c1ccc(-c2c3nc(c(-c4c(F)cc(S(=O)(=O)[O-])cc4F)c4ccc([nH]4)c(-c4c(F)cc(S(=O)(=O)[O-])cc4F)c4nc(c(-c5c(F)cc(S(=O)(=O)[O-])cc5F)c5ccc2[nH]5)C=C4)C=C3)cc1
REMARK SMILES IDX 33 1 32 2 31 3 29 4 30 5 18 6 17 7 15 8 16 9 14 11 13 12
REMARK SMILES IDX 1 13 2 14 3 15 4 16 9 17 11 18 5 19 8 20 10 21 12 22 6 23
REMARK SMILES IDX 7 24 19 26 20 27 21 28 28 29 22 30 26 31 27 32 23 33 25 34
REMARK SMILES IDX 24 35 34 36 35 37 36 38 37 39 38 40 39 41 40 42 41 43 105 44
REMARK SMILES IDX 42 45 104 46 43 47 44 48 45 49 98 50 46 51 103 52 97 53
REMARK SMILES IDX 99 54 47 55 102 56 96 57 95 58 48 60 82 61 61 62 81 63 62 64
REMARK SMILES IDX 65 65 80 66 100 67 63 68 64 69 79 71 101 72 66 73 49 74
REMARK SMILES IDX 50 75 59 76 51 77 52 78 58 79 60 80 53 81 54 82 55 83 56 84
REMARK SMILES IDX 57 85 83 86 84 87 93 88 85 89 86 90 92 91 94 92 87 93 88 94
REMARK SMILES IDX 89 95 90 96 91 97 67 98 68 99 77 100 69 101 70 102 76 103
REMARK SMILES IDX 78 104 71 105 72 106 73 107 74 108 75 109
REMARK H PARENT 17 10 7 25 99 59 65 70
REMARK Flexibility Score: inf
ROOT
ATOM      1  C   UNL A   1      39.114  22.898  26.449  1.00  0.00     0.202 C 
ENDROOT
BRANCH   1   2
ATOM      2  C   UNL A   1      38.077  22.000  25.766  1.00  0.00     0.261 C 
BRANCH   2   3
ATOM      3  O   UNL A   1      36.813  22.655  25.588  1.00  0.00    -0.462 OA
BRANCH   3   4
ATOM      4  C   UNL A   1      36.377  22.657  24.307  1.00  0.00     0.329 C 
ATOM      5  O   UNL A   1      37.027  22.271  23.337  1.00  0.00    -0.250 OA
BRANCH   4   6
ATOM      6  C   UNL A   1      34.961  23.193  24.137  1.00  0.00     0.196 C 
BRANCH   6   7
ATOM      7  N   UNL A   1      34.604  24.289  23.224  1.00  0.00    -0.342 N 
ATOM      8  C   UNL A   1      33.513  25.119  23.291  1.00  0.00     0.221 C 
ATOM      9  O   UNL A   1      33.121  25.675  22.264  1.00  0.00    -0.275 OA
ATOM     10  H   UNL A   1      35.222  24.447  22.474  1.00  0.00     0.164 HD
BRANCH   8  11
ATOM     11  C   UNL A   1      32.885  25.472  24.641  1.00  0.00     0.116 C 
BRANCH  11  12
ATOM     12  C   UNL A   1      31.345  25.408  24.776  1.00  0.00     0.116 C 
ATOM     13  C   UNL A   1      29.099  26.537  24.213  1.00  0.00     0.014 C 
ATOM     14  C   UNL A   1      30.632  26.676  24.232  1.00  0.00     0.034 C 
ATOM     15  C   UNL A   1      31.045  27.859  25.078  1.00  0.00    -0.001 A 
ATOM     16  C   UNL A   1      31.122  29.155  24.560  1.00  0.00     0.011 A 
ATOM     17  C   UNL A   1      31.418  27.648  26.408  1.00  0.00     0.138 A 
ATOM     18  C   UNL A   1      30.897  25.310  26.215  1.00  0.00     0.315 C 
ATOM     19  C   UNL A   1      31.630  30.194  25.346  1.00  0.00     0.047 A 
ATOM     20  C   UNL A   1      31.965  28.660  27.187  1.00  0.00     0.093 A 
ATOM     21  O   UNL A   1      31.221  26.397  27.013  1.00  0.00    -0.426 OA
ATOM     22  O   UNL A   1      30.293  24.342  26.661  1.00  0.00    -0.251 OA
ATOM     23  C   UNL A   1      32.076  29.930  26.640  1.00  0.00     0.119 A 
BRANCH  23  24
ATOM     24  O   UNL A   1      32.620  30.909  27.416  1.00  0.00    -0.508 OA
ATOM     25  H   UNL A   1      32.219  31.755  27.454  1.00  0.00     0.293 HD
ENDBRANCH  23  24
ENDBRANCH  11  12
ENDBRANCH   8  11
ENDBRANCH   6   7
BRANCH   6  26
ATOM     26  C   UNL A   1      34.040  21.974  23.937  1.00  0.00     0.070 C 
BRANCH  26  27
ATOM     27  C   UNL A   1      34.095  20.781  24.901  1.00  0.00    -0.037 C 
ATOM     28  C   UNL A   1      34.217  19.538  24.417  1.00  0.00     0.001 A 
ATOM     29  C   UNL A   1      32.833  20.802  25.752  1.00  0.00     0.174 C 
ATOM     30  C   UNL A   1      35.177  18.501  24.696  1.00  0.00     0.010 A 
ATOM     31  C   UNL A   1      32.803  19.082  24.458  1.00  0.00     0.065 A 
ATOM     32  N   UNL A   1      31.951  19.785  25.135  1.00  0.00    -0.280 NA
ATOM     33  C   UNL A   1      34.836  17.245  24.349  1.00  0.00     0.001 A 
ATOM     34  C   UNL A   1      32.554  17.837  23.707  1.00  0.00     0.028 A 
ATOM     35  C   UNL A   1      33.583  16.974  23.653  1.00  0.00     0.002 A 
ENDBRANCH  26  27
ENDBRANCH   6  26
ENDBRANCH   4   6
ENDBRANCH   3   4
ENDBRANCH   2   3
ENDBRANCH   1   2
BRANCH   1  36
ATOM     36  O   UNL A   1      40.261  22.277  27.019  1.00  0.00    -0.374 OA
BRANCH  36  37
ATOM     37  C   UNL A   1      41.292  21.800  26.156  1.00  0.00     0.202 C 
BRANCH  37  38
ATOM     38  C   UNL A   1      42.612  22.582  26.057  1.00  0.00     0.261 C 
BRANCH  38  39
ATOM     39  O   UNL A   1      42.678  23.736  26.915  1.00  0.00    -0.460 OA
BRANCH  39  40
ATOM     40  C   UNL A   1      42.365  24.913  26.315  1.00  0.00     0.338 C 
ATOM     41  O   UNL A   1      42.304  25.136  25.119  1.00  0.00    -0.246 OA
BRANCH  40  42
ATOM     42  C   UNL A   1      41.927  25.897  27.321  1.00  0.00     0.060 A 
ATOM     43  C   UNL A   1      40.910  25.586  28.220  1.00  0.00     0.016 A 
ATOM     44  C   UNL A   1      42.645  27.094  27.443  1.00  0.00     0.016 A 
ATOM     45  C   UNL A   1      40.630  26.473  29.263  1.00  0.00     0.010 A 
ATOM     46  C   UNL A   1      42.352  27.984  28.480  1.00  0.00     0.010 A 
ATOM     47  C   UNL A   1      41.350  27.673  29.407  1.00  0.00    -0.014 A 
BRANCH  47  48
ATOM     48  C   UNL A   1      41.122  28.538  30.594  1.00  0.00     0.031 A 
ATOM     49  C   UNL A   1      41.994  28.441  31.813  1.00  0.00     0.074 A 
ATOM     50  C   UNL A   1      40.106  29.422  30.560  1.00  0.00     0.049 A 
ATOM     51  N   UNL A   1      41.992  29.193  32.883  1.00  0.00    -0.248 NA
ATOM     52  C   UNL A   1      42.991  27.361  31.838  1.00  0.00     0.031 C 
ATOM     53  C   UNL A   1      39.160  29.569  29.452  1.00  0.00     0.029 A 
ATOM     54  N   UNL A   1      39.703  30.368  31.468  1.00  0.00    -0.354 N 
ATOM     55  C   UNL A   1      43.000  28.698  33.700  1.00  0.00     0.074 A 
ATOM     56  C   UNL A   1      43.554  27.542  33.026  1.00  0.00     0.031 C 
ATOM     57  C   UNL A   1      38.314  30.573  29.726  1.00  0.00     0.029 A 
ATOM     58  C   UNL A   1      38.638  31.125  31.038  1.00  0.00     0.049 A 
ATOM     59  H   UNL A   1      40.135  30.494  32.344  1.00  0.00     0.167 HD
ATOM     60  C   UNL A   1      43.436  29.179  34.890  1.00  0.00     0.037 A 
ATOM     61  C   UNL A   1      38.001  32.156  31.628  1.00  0.00     0.037 A 
ATOM     62  C   UNL A   1      42.865  30.320  35.560  1.00  0.00     0.049 A 
ATOM     63  C   UNL A   1      38.477  32.643  32.969  1.00  0.00     0.074 A 
ATOM     64  C   UNL A   1      43.267  30.909  36.748  1.00  0.00     0.029 A 
ATOM     65  N   UNL A   1      41.763  31.035  35.116  1.00  0.00    -0.354 N 
ATOM     66  N   UNL A   1      39.493  32.221  33.683  1.00  0.00    -0.248 NA
ATOM     67  C   UNL A   1      37.724  33.747  33.583  1.00  0.00     0.031 C 
ATOM     68  C   UNL A   1      42.377  31.945  37.045  1.00  0.00     0.029 A 
ATOM     69  C   UNL A   1      41.450  32.037  36.020  1.00  0.00     0.049 A 
ATOM     70  H   UNL A   1      41.274  30.857  34.279  1.00  0.00     0.167 HD
ATOM     71  C   UNL A   1      39.510  33.015  34.825  1.00  0.00     0.074 A 
ATOM     72  C   UNL A   1      38.417  33.957  34.696  1.00  0.00     0.031 C 
ATOM     73  C   UNL A   1      40.354  32.965  35.884  1.00  0.00     0.037 A 
BRANCH  60  74
ATOM     74  C   UNL A   1      44.603  28.488  35.542  1.00  0.00     0.058 A 
ATOM     75  C   UNL A   1      45.923  28.884  35.276  1.00  0.00     0.135 A 
ATOM     76  C   UNL A   1      44.404  27.474  36.494  1.00  0.00     0.135 A 
ATOM     77  F   UNL A   1      46.173  29.841  34.368  1.00  0.00    -0.206 F 
ATOM     78  C   UNL A   1      47.005  28.287  35.914  1.00  0.00     0.059 A 
ATOM     79  C   UNL A   1      45.470  26.879  37.163  1.00  0.00     0.059 A 
ATOM     80  F   UNL A   1      43.162  27.058  36.787  1.00  0.00    -0.206 F 
ATOM     81  C   UNL A   1      46.768  27.286  36.859  1.00  0.00     0.060 A 
BRANCH  81  82
ATOM     82  S   UNL A   1      48.186  26.533  37.682  1.00  0.00     0.124 S 
ATOM     83  O   UNL A   1      49.132  27.644  37.708  1.00  0.00    -0.237 OA
ATOM     84  O   UNL A   1      47.627  26.146  38.974  1.00  0.00    -0.237 OA
ATOM     85  O   UNL A   1      48.546  25.426  36.800  1.00  0.00    -0.744 OA
ENDBRANCH  81  82
ENDBRANCH  60  74
BRANCH  61  86
ATOM     86  C   UNL A   1      36.867  32.818  30.930  1.00  0.00     0.058 A 
ATOM     87  C   UNL A   1      35.540  32.497  31.250  1.00  0.00     0.135 A 
ATOM     88  C   UNL A   1      37.084  33.803  29.953  1.00  0.00     0.135 A 
ATOM     89  F   UNL A   1      35.280  31.558  32.173  1.00  0.00    -0.206 F 
ATOM     90  C   UNL A   1      34.467  33.122  30.623  1.00  0.00     0.059 A 
ATOM     91  C   UNL A   1      36.028  34.459  29.329  1.00  0.00     0.059 A 
ATOM     92  F   UNL A   1      38.335  34.156  29.622  1.00  0.00    -0.206 F 
ATOM     93  C   UNL A   1      34.722  34.107  29.667  1.00  0.00     0.060 A 
BRANCH  93  94
ATOM     94  S   UNL A   1      33.320  34.948  28.900  1.00  0.00     0.124 S 
ATOM     95  O   UNL A   1      32.505  35.281  30.062  1.00  0.00    -0.237 OA
ATOM     96  O   UNL A   1      33.970  36.072  28.231  1.00  0.00    -0.237 OA
ATOM     97  O   UNL A   1      32.765  33.934  28.009  1.00  0.00    -0.744 OA
ENDBRANCH  93  94
ENDBRANCH  61  86
BRANCH  73  98
ATOM     98  C   UNL A   1      40.133  33.948  37.002  1.00  0.00     0.058 A 
ATOM     99  C   UNL A   1      40.786  35.189  37.022  1.00  0.00     0.135 A 
ATOM    100  C   UNL A   1      39.194  33.684  38.013  1.00  0.00     0.135 A 
ATOM    101  F   UNL A   1      41.701  35.487  36.085  1.00  0.00    -0.206 F 
ATOM    102  C   UNL A   1      40.518  36.136  38.005  1.00  0.00     0.059 A 
ATOM    103  C   UNL A   1      38.890  34.628  38.991  1.00  0.00     0.059 A 
ATOM    104  F   UNL A   1      38.537  32.514  38.037  1.00  0.00    -0.206 F 
ATOM    105  C   UNL A   1      39.560  35.850  38.980  1.00  0.00     0.060 A 
BRANCH 105 106
ATOM    106  S   UNL A   1      39.177  37.117  40.207  1.00  0.00     0.124 S 
ATOM    107  O   UNL A   1      38.420  38.078  39.412  1.00  0.00    -0.237 OA
ATOM    108  O   UNL A   1      38.408  36.368  41.196  1.00  0.00    -0.237 OA
ATOM    109  O   UNL A   1      40.491  37.570  40.654  1.00  0.00    -0.744 OA
ENDBRANCH 105 106
ENDBRANCH  73  98
ENDBRANCH  47  48
ENDBRANCH  40  42
ENDBRANCH  39  40
ENDBRANCH  38  39
ENDBRANCH  37  38
ENDBRANCH  36  37
ENDBRANCH   1  36
TORSDOF 23
ENDMDL
MODEL 2
REMARK VINA RESULT:     -12.2      5.919     11.776
REMARK SMILES C[C@H]1c2ccc(O)cc2OC(=O)[C@@H]1CC(=O)N[C@@H](CC1=c2ccccc2=NC1)C(=O)OCCOCCOC(=O)c1ccc(-c2c3nc(c(-c4c(F)cc(S(=O)(=O)[O-])cc4F)c4ccc([nH]4)c(-c4c(F)cc(S(=O)(=O)[O-])cc4F)c4nc(c(-c5c(F)cc(S(=O)(=O)[O-])cc5F)c5ccc2[nH]5)C=C4)C=C3)cc1
REMARK SMILES IDX 33 1 32 2 31 3 29 4 30 5 18 6 17 7 15 8 16 9 14 11 13 12
REMARK SMILES IDX 1 13 2 14 3 15 4 16 9 17 11 18 5 19 8 20 10 21 12 22 6 23
REMARK SMILES IDX 7 24 19 26 20 27 21 28 28 29 22 30 26 31 27 32 23 33 25 34
REMARK SMILES IDX 24 35 34 36 35 37 36 38 37 39 38 40 39 41 40 42 41 43 105 44
REMARK SMILES IDX 42 45 104 46 43 47 44 48 45 49 98 50 46 51 103 52 97 53
REMARK SMILES IDX 99 54 47 55 102 56 96 57 95 58 48 60 82 61 61 62 81 63 62 64
REMARK SMILES IDX 65 65 80 66 100 67 63 68 64 69 79 71 101 72 66 73 49 74
REMARK SMILES IDX 50 75 59 76 51 77 52 78 58 79 60 80 53 81 54 82 55 83 56 84
REMARK SMILES IDX 57 85 83 86 84 87 93 88 85 89 86 90 92 91 94 92 87 93 88 94
REMARK SMILES IDX 89 95 90 96 91 97 67 98 68 99 77 100 69 101 70 102 76 103
REMARK SMILES IDX 78 104 71 105 72 106 73 107 74 108 75 109
REMARK H PARENT 17 10 7 25 99 59 65 70
REMARK Flexibility Score: inf
ROOT
ATOM      1  C   UNL A   1      33.695  31.173  27.801  1.00  0.00     0.202 C 
ENDROOT
BRANCH   1   2
ATOM      2  C   UNL A   1      32.549  30.641  26.935  1.00  0.00     0.261 C 
BRANCH   2   3
ATOM      3  O   UNL A   1      32.374  29.222  27.063  1.00  0.00    -0.462 OA
BRANCH   3   4
ATOM      4  C   UNL A   1      32.884  28.515  26.027  1.00  0.00     0.329 C 
ATOM      5  O   UNL A   1      33.899  28.811  25.400  1.00  0.00    -0.250 OA
BRANCH   4   6
ATOM      6  C   UNL A   1      32.079  27.271  25.672  1.00  0.00     0.196 C 
BRANCH   6   7
ATOM      7  N   UNL A   1      31.698  26.237  26.646  1.00  0.00    -0.342 N 
ATOM      8  C   UNL A   1      31.812  24.876  26.515  1.00  0.00     0.221 C 
ATOM      9  O   UNL A   1      31.081  24.148  27.188  1.00  0.00    -0.275 OA
ATOM     10  H   UNL A   1      31.314  26.560  27.493  1.00  0.00     0.164 HD
BRANCH   8  11
ATOM     11  C   UNL A   1      32.929  24.266  25.667  1.00  0.00     0.116 C 
BRANCH  11  12
ATOM     12  C   UNL A   1      32.568  23.689  24.277  1.00  0.00     0.116 C 
ATOM     13  C   UNL A   1      32.356  21.567  22.831  1.00  0.00     0.014 C 
ATOM     14  C   UNL A   1      32.872  22.171  24.150  1.00  0.00     0.034 C 
ATOM     15  C   UNL A   1      34.364  21.968  24.277  1.00  0.00    -0.001 A 
ATOM     16  C   UNL A   1      34.915  20.800  24.814  1.00  0.00     0.011 A 
ATOM     17  C   UNL A   1      35.227  22.999  23.898  1.00  0.00     0.138 A 
ATOM     18  C   UNL A   1      33.363  24.328  23.164  1.00  0.00     0.315 C 
ATOM     19  C   UNL A   1      36.293  20.710  25.028  1.00  0.00     0.047 A 
ATOM     20  C   UNL A   1      36.593  22.943  24.144  1.00  0.00     0.093 A 
ATOM     21  O   UNL A   1      34.735  24.127  23.223  1.00  0.00    -0.426 OA
ATOM     22  O   UNL A   1      32.848  24.984  22.268  1.00  0.00    -0.251 OA
ATOM     23  C   UNL A   1      37.115  21.794  24.720  1.00  0.00     0.119 A 
BRANCH  23  24
ATOM     24  O   UNL A   1      38.456  21.758  24.960  1.00  0.00    -0.508 OA
ATOM     25  H   UNL A   1      38.819  22.254  25.668  1.00  0.00     0.293 HD
ENDBRANCH  23  24
ENDBRANCH  11  12
ENDBRANCH   8  11
ENDBRANCH   6   7
BRANCH   6  26
ATOM     26  C   UNL A   1      30.866  27.742  24.848  1.00  0.00     0.070 C 
BRANCH  26  27
ATOM     27  C   UNL A   1      30.942  29.013  23.991  1.00  0.00    -0.037 C 
ATOM     28  C   UNL A   1      29.883  29.829  23.914  1.00  0.00     0.001 A 
ATOM     29  C   UNL A   1      31.289  28.602  22.567  1.00  0.00     0.174 C 
ATOM     30  C   UNL A   1      29.752  31.240  24.174  1.00  0.00     0.010 A 
ATOM     31  C   UNL A   1      29.287  29.393  22.623  1.00  0.00     0.065 A 
ATOM     32  N   UNL A   1      29.997  28.642  21.843  1.00  0.00    -0.280 NA
ATOM     33  C   UNL A   1      28.672  31.858  23.657  1.00  0.00     0.001 A 
ATOM     34  C   UNL A   1      27.924  29.907  22.390  1.00  0.00     0.028 A 
ATOM     35  C   UNL A   1      27.652  31.104  22.936  1.00  0.00     0.002 A 
ENDBRANCH  26  27
ENDBRANCH   6  26
ENDBRANCH   4   6
ENDBRANCH   3   4
ENDBRANCH   2   3
ENDBRANCH   1   2
BRANCH   1  36
ATOM     36  O   UNL A   1      34.456  32.267  27.300  1.00  0.00    -0.374 OA
BRANCH  36  37
ATOM     37  C   UNL A   1      35.564  32.746  28.061  1.00  0.00     0.202 C 
BRANCH  37  38
ATOM     38  C   UNL A   1      35.501  32.696  29.595  1.00  0.00     0.261 C 
BRANCH  38  39
ATOM     39  O   UNL A   1      36.767  32.432  30.228  1.00  0.00    -0.460 OA
BRANCH  39  40
ATOM     40  C   UNL A   1      36.882  31.200  30.786  1.00  0.00     0.338 C 
ATOM     41  O   UNL A   1      36.055  30.618  31.465  1.00  0.00    -0.246 OA
BRANCH  40  42
ATOM     42  C   UNL A   1      38.117  30.543  30.321  1.00  0.00     0.060 A 
ATOM     43  C   UNL A   1      38.373  30.401  28.959  1.00  0.00     0.016 A 
ATOM     44  C   UNL A   1      39.086  30.190  31.269  1.00  0.00     0.016 A 
ATOM     45  C   UNL A   1      39.623  29.925  28.549  1.00  0.00     0.010 A 
ATOM     46  C   UNL A   1      40.328  29.703  30.854  1.00  0.00     0.010 A 
ATOM     47  C   UNL A   1      40.611  29.579  29.488  1.00  0.00    -0.014 A 
BRANCH  47  48
ATOM     48  C   UNL A   1      41.971  29.197  29.029  1.00  0.00     0.031 A 
ATOM     49  C   UNL A   1      42.280  27.800  28.573  1.00  0.00     0.074 A 
ATOM     50  C   UNL A   1      42.937  30.136  29.029  1.00  0.00     0.049 A 
ATOM     51  N   UNL A   1      43.384  27.336  28.047  1.00  0.00    -0.248 NA
ATOM     52  C   UNL A   1      41.221  26.794  28.733  1.00  0.00     0.031 C 
ATOM     53  C   UNL A   1      42.768  31.512  29.500  1.00  0.00     0.029 A 
ATOM     54  N   UNL A   1      44.244  30.086  28.614  1.00  0.00    -0.354 N 
ATOM     55  C   UNL A   1      43.148  25.992  27.787  1.00  0.00     0.074 A 
ATOM     56  C   UNL A   1      41.815  25.701  28.270  1.00  0.00     0.031 C 
ATOM     57  C   UNL A   1      43.912  32.186  29.309  1.00  0.00     0.029 A 
ATOM     58  C   UNL A   1      44.904  31.288  28.727  1.00  0.00     0.049 A 
ATOM     59  H   UNL A   1      44.669  29.268  28.266  1.00  0.00     0.167 HD
ATOM     60  C   UNL A   1      43.962  25.093  27.182  1.00  0.00     0.037 A 
ATOM     61  C   UNL A   1      46.163  31.630  28.391  1.00  0.00     0.037 A 
ATOM     62  C   UNL A   1      45.295  25.389  26.721  1.00  0.00     0.049 A 
ATOM     63  C   UNL A   1      47.061  30.602  27.759  1.00  0.00     0.074 A 
ATOM     64  C   UNL A   1      46.180  24.556  26.056  1.00  0.00     0.029 A 
ATOM     65  N   UNL A   1      45.945  26.603  26.891  1.00  0.00    -0.354 N 
ATOM     66  N   UNL A   1      46.788  29.360  27.436  1.00  0.00    -0.248 NA
ATOM     67  C   UNL A   1      48.435  31.019  27.444  1.00  0.00     0.031 C 
ATOM     68  C   UNL A   1      47.379  25.250  25.871  1.00  0.00     0.029 A 
ATOM     69  C   UNL A   1      47.228  26.531  26.374  1.00  0.00     0.049 A 
ATOM     70  H   UNL A   1      45.551  27.400  27.315  1.00  0.00     0.167 HD
ATOM     71  C   UNL A   1      47.950  28.852  26.868  1.00  0.00     0.074 A 
ATOM     72  C   UNL A   1      48.923  29.926  26.871  1.00  0.00     0.031 C 
ATOM     73  C   UNL A   1      48.191  27.607  26.389  1.00  0.00     0.037 A 
BRANCH  60  74
ATOM     74  C   UNL A   1      43.431  23.703  26.960  1.00  0.00     0.058 A 
ATOM     75  C   UNL A   1      43.469  22.738  27.980  1.00  0.00     0.135 A 
ATOM     76  C   UNL A   1      42.815  23.349  25.748  1.00  0.00     0.135 A 
ATOM     77  F   UNL A   1      44.056  23.018  29.154  1.00  0.00    -0.206 F 
ATOM     78  C   UNL A   1      42.933  21.467  27.800  1.00  0.00     0.059 A 
ATOM     79  C   UNL A   1      42.249  22.091  25.555  1.00  0.00     0.059 A 
ATOM     80  F   UNL A   1      42.749  24.233  24.741  1.00  0.00    -0.206 F 
ATOM     81  C   UNL A   1      42.322  21.154  26.584  1.00  0.00     0.060 A 
BRANCH  81  82
ATOM     82  S   UNL A   1      41.624  19.503  26.378  1.00  0.00     0.124 S 
ATOM     83  O   UNL A   1      40.218  19.810  26.134  1.00  0.00    -0.237 OA
ATOM     84  O   UNL A   1      42.369  18.991  25.232  1.00  0.00    -0.237 OA
ATOM     85  O   UNL A   1      41.909  18.848  27.652  1.00  0.00    -0.744 OA
ENDBRANCH  81  82
ENDBRANCH  60  74
BRANCH  61  86
ATOM     86  C   UNL A   1      46.631  33.024  28.612  1.00  0.00     0.058 A 
ATOM     87  C   UNL A   1      47.241  33.396  29.819  1.00  0.00     0.135 A 
ATOM     88  C   UNL A   1      46.506  34.005  27.614  1.00  0.00     0.135 A 
ATOM     89  F   UNL A   1      47.378  32.496  30.805  1.00  0.00    -0.206 F 
ATOM     90  C   UNL A   1      47.704  34.689  30.034  1.00  0.00     0.059 A 
ATOM     91  C   UNL A   1      46.983  35.299  27.796  1.00  0.00     0.059 A 
ATOM     92  F   UNL A   1      45.942  33.697  26.436  1.00  0.00    -0.206 F 
ATOM     93  C   UNL A   1      47.576  35.633  29.013  1.00  0.00     0.060 A 
BRANCH  93  94
ATOM     94  S   UNL A   1      48.229  37.294  29.287  1.00  0.00     0.124 S 
ATOM     95  O   UNL A   1      48.588  37.240  30.699  1.00  0.00    -0.237 OA
ATOM     96  O   UNL A   1      49.345  37.339  28.345  1.00  0.00    -0.237 OA
ATOM     97  O   UNL A   1      47.102  38.159  28.954  1.00  0.00    -0.744 OA
ENDBRANCH  93  94
ENDBRANCH  61  86
BRANCH  73  98
ATOM     98  C   UNL A   1      49.560  27.321  25.835  1.00  0.00     0.058 A 
ATOM     99  C   UNL A   1      50.604  26.880  26.661  1.00  0.00     0.135 A 
ATOM    100  C   UNL A   1      49.805  27.401  24.454  1.00  0.00     0.135 A 
ATOM    101  F   UNL A   1      50.426  26.796  27.989  1.00  0.00    -0.206 F 
ATOM    102  C   UNL A   1      51.845  26.530  26.139  1.00  0.00     0.059 A 
ATOM    103  C   UNL A   1      51.030  27.030  23.907  1.00  0.00     0.059 A 
ATOM    104  F   UNL A   1      48.838  27.812  23.618  1.00  0.00    -0.206 F 
ATOM    105  C   UNL A   1      52.046  26.598  24.759  1.00  0.00     0.060 A 
BRANCH 105 106
ATOM    106  S   UNL A   1      53.640  26.074  24.095  1.00  0.00     0.124 S 
ATOM    107  O   UNL A   1      54.509  27.168  24.514  1.00  0.00    -0.237 OA
ATOM    108  O   UNL A   1      53.854  24.799  24.773  1.00  0.00    -0.237 OA
ATOM    109  O   UNL A   1      53.398  25.981  22.658  1.00  0.00    -0.744 OA
ENDBRANCH 105 106
ENDBRANCH  73  98
ENDBRANCH  47  48
ENDBRANCH  40  42
ENDBRANCH  39  40
ENDBRANCH  38  39
ENDBRANCH  37  38
ENDBRANCH  36  37
ENDBRANCH   1  36
TORSDOF 23
ENDMDL
MODEL 3
REMARK VINA RESULT:     -11.9      5.559      7.745
REMARK SMILES C[C@H]1c2ccc(O)cc2OC(=O)[C@@H]1CC(=O)N[C@@H](CC1=c2ccccc2=NC1)C(=O)OCCOCCOC(=O)c1ccc(-c2c3nc(c(-c4c(F)cc(S(=O)(=O)[O-])cc4F)c4ccc([nH]4)c(-c4c(F)cc(S(=O)(=O)[O-])cc4F)c4nc(c(-c5c(F)cc(S(=O)(=O)[O-])cc5F)c5ccc2[nH]5)C=C4)C=C3)cc1
REMARK SMILES IDX 33 1 32 2 31 3 29 4 30 5 18 6 17 7 15 8 16 9 14 11 13 12
REMARK SMILES IDX 1 13 2 14 3 15 4 16 9 17 11 18 5 19 8 20 10 21 12 22 6 23
REMARK SMILES IDX 7 24 19 26 20 27 21 28 28 29 22 30 26 31 27 32 23 33 25 34
REMARK SMILES IDX 24 35 34 36 35 37 36 38 37 39 38 40 39 41 40 42 41 43 105 44
REMARK SMILES IDX 42 45 104 46 43 47 44 48 45 49 98 50 46 51 103 52 97 53
REMARK SMILES IDX 99 54 47 55 102 56 96 57 95 58 48 60 82 61 61 62 81 63 62 64
REMARK SMILES IDX 65 65 80 66 100 67 63 68 64 69 79 71 101 72 66 73 49 74
REMARK SMILES IDX 50 75 59 76 51 77 52 78 58 79 60 80 53 81 54 82 55 83 56 84
REMARK SMILES IDX 57 85 83 86 84 87 93 88 85 89 86 90 92 91 94 92 87 93 88 94
REMARK SMILES IDX 89 95 90 96 91 97 67 98 68 99 77 100 69 101 70 102 76 103
REMARK SMILES IDX 78 104 71 105 72 106 73 107 74 108 75 109
REMARK H PARENT 17 10 7 25 99 59 65 70
REMARK Flexibility Score: inf
ROOT
ATOM      1  C   UNL A   1      38.143  22.023  25.671  1.00  0.00     0.202 C 
ENDROOT
BRANCH   1   2
ATOM      2  C   UNL A   1      37.331  23.276  25.328  1.00  0.00     0.261 C 
BRANCH   2   3
ATOM      3  O   UNL A   1      36.003  22.967  24.883  1.00  0.00    -0.462 OA
BRANCH   3   4
ATOM      4  C   UNL A   1      35.807  23.182  23.561  1.00  0.00     0.329 C 
ATOM      5  O   UNL A   1      36.642  22.982  22.681  1.00  0.00    -0.250 OA
BRANCH   4   6
ATOM      6  C   UNL A   1      34.420  23.712  23.219  1.00  0.00     0.196 C 
BRANCH   6   7
ATOM      7  N   UNL A   1      34.175  24.815  22.278  1.00  0.00    -0.342 N 
ATOM      8  C   UNL A   1      32.981  25.432  21.998  1.00  0.00     0.221 C 
ATOM      9  O   UNL A   1      32.846  26.010  20.919  1.00  0.00    -0.275 OA
ATOM     10  H   UNL A   1      34.960  25.151  21.789  1.00  0.00     0.164 HD
BRANCH   8  11
ATOM     11  C   UNL A   1      31.890  25.536  23.065  1.00  0.00     0.116 C 
BRANCH  11  12
ATOM     12  C   UNL A   1      30.762  26.577  22.866  1.00  0.00     0.116 C 
ATOM     13  C   UNL A   1      30.184  29.062  22.511  1.00  0.00     0.014 C 
ATOM     14  C   UNL A   1      31.277  28.042  22.877  1.00  0.00     0.034 C 
ATOM     15  C   UNL A   1      31.842  28.341  24.247  1.00  0.00    -0.001 A 
ATOM     16  C   UNL A   1      32.887  29.249  24.440  1.00  0.00     0.011 A 
ATOM     17  C   UNL A   1      31.345  27.650  25.355  1.00  0.00     0.138 A 
ATOM     18  C   UNL A   1      29.733  26.529  23.969  1.00  0.00     0.315 C 
ATOM     19  C   UNL A   1      33.461  29.398  25.707  1.00  0.00     0.047 A 
ATOM     20  C   UNL A   1      31.932  27.754  26.610  1.00  0.00     0.093 A 
ATOM     21  O   UNL A   1      30.205  26.840  25.236  1.00  0.00    -0.426 OA
ATOM     22  O   UNL A   1      28.560  26.234  23.775  1.00  0.00    -0.251 OA
ATOM     23  C   UNL A   1      32.998  28.626  26.772  1.00  0.00     0.119 A 
BRANCH  23  24
ATOM     24  O   UNL A   1      33.565  28.712  28.008  1.00  0.00    -0.508 OA
ATOM     25  H   UNL A   1      34.498  28.719  28.097  1.00  0.00     0.293 HD
ENDBRANCH  23  24
ENDBRANCH  11  12
ENDBRANCH   8  11
ENDBRANCH   6   7
BRANCH   6  26
ATOM     26  C   UNL A   1      33.540  22.490  22.895  1.00  0.00     0.070 C 
BRANCH  26  27
ATOM     27  C   UNL A   1      32.493  21.987  23.898  1.00  0.00    -0.037 C 
ATOM     28  C   UNL A   1      32.527  22.413  25.167  1.00  0.00     0.001 A 
ATOM     29  C   UNL A   1      32.570  20.468  23.939  1.00  0.00     0.174 C 
ATOM     30  C   UNL A   1      31.520  23.040  25.985  1.00  0.00     0.010 A 
ATOM     31  C   UNL A   1      33.221  21.275  25.826  1.00  0.00     0.065 A 
ATOM     32  N   UNL A   1      33.343  20.168  25.166  1.00  0.00    -0.280 NA
ATOM     33  C   UNL A   1      31.714  23.015  27.318  1.00  0.00     0.001 A 
ATOM     34  C   UNL A   1      33.679  21.567  27.197  1.00  0.00     0.028 A 
ATOM     35  C   UNL A   1      32.931  22.445  27.887  1.00  0.00     0.002 A 
ENDBRANCH  26  27
ENDBRANCH   6  26
ENDBRANCH   4   6
ENDBRANCH   3   4
ENDBRANCH   2   3
ENDBRANCH   1   2
BRANCH   1  36
ATOM     36  O   UNL A   1      37.758  20.793  25.066  1.00  0.00    -0.374 OA
BRANCH  36  37
ATOM     37  C   UNL A   1      38.599  19.651  25.223  1.00  0.00     0.202 C 
BRANCH  37  38
ATOM     38  C   UNL A   1      39.856  19.757  26.101  1.00  0.00     0.261 C 
BRANCH  38  39
ATOM     39  O   UNL A   1      41.027  19.147  25.527  1.00  0.00    -0.460 OA
BRANCH  39  40
ATOM     40  C   UNL A   1      42.162  19.288  26.258  1.00  0.00     0.338 C 
ATOM     41  O   UNL A   1      42.961  18.416  26.554  1.00  0.00    -0.246 OA
BRANCH  40  42
ATOM     42  C   UNL A   1      42.420  20.713  26.530  1.00  0.00     0.060 A 
ATOM     43  C   UNL A   1      42.355  21.209  27.830  1.00  0.00     0.016 A 
ATOM     44  C   UNL A   1      42.864  21.526  25.478  1.00  0.00     0.016 A 
ATOM     45  C   UNL A   1      42.763  22.523  28.077  1.00  0.00     0.010 A 
ATOM     46  C   UNL A   1      43.258  22.842  25.729  1.00  0.00     0.010 A 
ATOM     47  C   UNL A   1      43.223  23.347  27.034  1.00  0.00    -0.014 A 
BRANCH  47  48
ATOM     48  C   UNL A   1      43.771  24.695  27.339  1.00  0.00     0.031 A 
ATOM     49  C   UNL A   1      45.229  25.007  27.159  1.00  0.00     0.074 A 
ATOM     50  C   UNL A   1      42.928  25.645  27.788  1.00  0.00     0.049 A 
ATOM     51  N   UNL A   1      45.840  26.157  27.280  1.00  0.00    -0.248 NA
ATOM     52  C   UNL A   1      46.114  23.889  26.804  1.00  0.00     0.031 C 
ATOM     53  C   UNL A   1      41.501  25.443  28.052  1.00  0.00     0.029 A 
ATOM     54  N   UNL A   1      43.137  26.967  28.090  1.00  0.00    -0.354 N 
ATOM     55  C   UNL A   1      47.177  25.911  26.992  1.00  0.00     0.074 A 
ATOM     56  C   UNL A   1      47.297  24.489  26.748  1.00  0.00     0.031 C 
ATOM     57  C   UNL A   1      40.956  26.606  28.436  1.00  0.00     0.029 A 
ATOM     58  C   UNL A   1      41.994  27.632  28.471  1.00  0.00     0.049 A 
ATOM     59  H   UNL A   1      44.020  27.399  28.038  1.00  0.00     0.167 HD
ATOM     60  C   UNL A   1      48.202  26.795  26.917  1.00  0.00     0.037 A 
ATOM     61  C   UNL A   1      41.802  28.924  28.801  1.00  0.00     0.037 A 
ATOM     62  C   UNL A   1      48.075  28.206  27.179  1.00  0.00     0.049 A 
ATOM     63  C   UNL A   1      42.965  29.876  28.751  1.00  0.00     0.074 A 
ATOM     64  C   UNL A   1      49.046  29.189  27.085  1.00  0.00     0.029 A 
ATOM     65  N   UNL A   1      46.913  28.836  27.602  1.00  0.00    -0.354 N 
ATOM     66  N   UNL A   1      44.202  29.643  28.385  1.00  0.00    -0.248 NA
ATOM     67  C   UNL A   1      42.706  31.266  29.154  1.00  0.00     0.031 C 
ATOM     68  C   UNL A   1      48.486  30.400  27.501  1.00  0.00     0.029 A 
ATOM     69  C   UNL A   1      47.151  30.185  27.806  1.00  0.00     0.049 A 
ATOM     70  H   UNL A   1      46.046  28.389  27.738  1.00  0.00     0.167 HD
ATOM     71  C   UNL A   1      44.868  30.858  28.501  1.00  0.00     0.074 A 
ATOM     72  C   UNL A   1      43.891  31.829  28.950  1.00  0.00     0.031 C 
ATOM     73  C   UNL A   1      46.171  31.142  28.260  1.00  0.00     0.037 A 
BRANCH  60  74
ATOM     74  C   UNL A   1      49.553  26.271  26.514  1.00  0.00     0.058 A 
ATOM     75  C   UNL A   1      49.976  26.303  25.176  1.00  0.00     0.135 A 
ATOM     76  C   UNL A   1      50.463  25.800  27.476  1.00  0.00     0.135 A 
ATOM     77  F   UNL A   1      49.145  26.733  24.214  1.00  0.00    -0.206 F 
ATOM     78  C   UNL A   1      51.244  25.870  24.802  1.00  0.00     0.059 A 
ATOM     79  C   UNL A   1      51.746  25.385  27.128  1.00  0.00     0.059 A 
ATOM     80  F   UNL A   1      50.111  25.750  28.770  1.00  0.00    -0.206 F 
ATOM     81  C   UNL A   1      52.123  25.415  25.787  1.00  0.00     0.060 A 
BRANCH  81  82
ATOM     82  S   UNL A   1      53.767  24.867  25.280  1.00  0.00     0.124 S 
ATOM     83  O   UNL A   1      53.550  23.438  25.084  1.00  0.00    -0.237 OA
ATOM     84  O   UNL A   1      53.994  25.647  24.068  1.00  0.00    -0.237 OA
ATOM     85  O   UNL A   1      54.611  25.221  26.418  1.00  0.00    -0.744 OA
ENDBRANCH  81  82
ENDBRANCH  60  74
BRANCH  61  86
ATOM     86  C   UNL A   1      40.440  29.395  29.170  1.00  0.00     0.058 A 
ATOM     87  C   UNL A   1      40.115  29.681  30.504  1.00  0.00     0.135 A 
ATOM     88  C   UNL A   1      39.448  29.598  28.198  1.00  0.00     0.135 A 
ATOM     89  F   UNL A   1      41.028  29.498  31.471  1.00  0.00    -0.206 F 
ATOM     90  C   UNL A   1      38.854  30.143  30.865  1.00  0.00     0.059 A 
ATOM     91  C   UNL A   1      38.186  30.082  28.530  1.00  0.00     0.059 A 
ATOM     92  F   UNL A   1      39.713  29.353  26.906  1.00  0.00    -0.206 F 
ATOM     93  C   UNL A   1      37.898  30.346  29.868  1.00  0.00     0.060 A 
BRANCH  93  94
ATOM     94  S   UNL A   1      36.282  30.998  30.344  1.00  0.00     0.124 S 
ATOM     95  O   UNL A   1      36.588  32.405  30.573  1.00  0.00    -0.237 OA
ATOM     96  O   UNL A   1      35.477  30.703  29.161  1.00  0.00    -0.237 OA
ATOM     97  O   UNL A   1      35.943  30.223  31.533  1.00  0.00    -0.744 OA
ENDBRANCH  93  94
ENDBRANCH  61  86
BRANCH  73  98
ATOM     98  C   UNL A   1      46.633  32.556  28.483  1.00  0.00     0.058 A 
ATOM     99  C   UNL A   1      47.189  32.958  29.707  1.00  0.00     0.135 A 
ATOM    100  C   UNL A   1      46.605  33.493  27.437  1.00  0.00     0.135 A 
ATOM    101  F   UNL A   1      47.231  32.105  30.743  1.00  0.00    -0.206 F 
ATOM    102  C   UNL A   1      47.698  34.240  29.888  1.00  0.00     0.059 A 
ATOM    103  C   UNL A   1      47.133  34.773  27.588  1.00  0.00     0.059 A 
ATOM    104  F   UNL A   1      46.089  33.159  26.243  1.00  0.00    -0.206 F 
ATOM    105  C   UNL A   1      47.675  35.137  28.819  1.00  0.00     0.060 A 
BRANCH 105 106
ATOM    106  S   UNL A   1      48.404  36.772  29.053  1.00  0.00     0.124 S 
ATOM    107  O   UNL A   1      47.987  37.458  27.835  1.00  0.00    -0.237 OA
ATOM    108  O   UNL A   1      47.764  37.223  30.285  1.00  0.00    -0.237 OA
ATOM    109  O   UNL A   1      49.833  36.498  29.159  1.00  0.00    -0.744 OA
ENDBRANCH 105 106
ENDBRANCH  73  98
ENDBRANCH  47  48
ENDBRANCH  40  42
ENDBRANCH  39  40
ENDBRANCH  38  39
ENDBRANCH  37  38
ENDBRANCH  36  37
ENDBRANCH   1  36
TORSDOF 23
ENDMDL
