MODEL 1
REMARK VINA RESULT:     -10.5      0.000      0.000
REMARK SMILES Cc1cnccc1N[C@@H]1C=C[C@@H](C(=O)OCCOCCOC(=O)c2ccc(-c3c4nc(c(-c5c(F)cc(S(=O)(=O)[O-])cc5F)c5ccc([nH]5)c(-c5c(F)cc(S(=O)(=O)[O-])cc5F)c5nc(c(-c6c(F)cc(S(=O)(=O)[O-])cc6F)c6ccc3[nH]6)C=C5)C=C4)cc2)C1
REMARK SMILES IDX 19 1 18 2 17 3 16 4 15 5 13 6 14 7 12 8 9 9 10 10 90 11
REMARK SMILES IDX 11 12 8 13 7 15 1 16 2 17 3 18 4 19 6 20 5 21 20 22 21 23
REMARK SMILES IDX 22 24 23 25 24 26 25 27 89 28 26 29 88 30 27 31 28 32 29 33
REMARK SMILES IDX 82 34 30 35 87 36 81 37 83 38 31 39 86 40 80 41 79 42 32 44
REMARK SMILES IDX 66 45 45 46 65 47 46 48 49 49 64 50 84 51 47 52 48 53 63 55
REMARK SMILES IDX 85 56 50 57 33 58 34 59 43 60 35 61 36 62 42 63 44 64 37 65
REMARK SMILES IDX 38 66 39 67 40 68 41 69 67 70 68 71 77 72 69 73 70 74 76 75
REMARK SMILES IDX 78 76 71 77 72 78 73 79 74 80 75 81 51 82 52 83 61 84 53 85
REMARK SMILES IDX 54 86 60 87 62 88 55 89 56 90 57 91 58 92 59 93
REMARK H PARENT 8 14 83 43 49 54
REMARK Flexibility Score: inf
ROOT
ATOM      1  C   UNL A   1      39.353  21.703  26.164  1.00  0.00     0.202 C 
ENDROOT
BRANCH   1   2
ATOM      2  O   UNL A   1      38.230  22.040  25.345  1.00  0.00    -0.374 OA
BRANCH   2   3
ATOM      3  C   UNL A   1      37.355  20.984  24.945  1.00  0.00     0.202 C 
BRANCH   3   4
ATOM      4  C   UNL A   1      35.874  21.162  25.288  1.00  0.00     0.261 C 
BRANCH   4   5
ATOM      5  O   UNL A   1      35.308  22.254  24.548  1.00  0.00    -0.463 OA
BRANCH   5   6
ATOM      6  C   UNL A   1      33.976  22.151  24.306  1.00  0.00     0.312 C 
ATOM      7  O   UNL A   1      33.403  21.111  23.997  1.00  0.00    -0.252 OA
BRANCH   6   8
ATOM      8  C   UNL A   1      33.223  23.427  24.659  1.00  0.00     0.124 C 
ATOM      9  C   UNL A   1      32.321  24.648  26.596  1.00  0.00     0.103 C 
ATOM     10  C   UNL A   1      33.663  25.155  26.204  1.00  0.00    -0.006 C 
ATOM     11  C   UNL A   1      32.133  23.384  25.746  1.00  0.00     0.048 C 
ATOM     12  C   UNL A   1      34.169  24.481  25.165  1.00  0.00    -0.014 C 
BRANCH   9  13
ATOM     13  N   UNL A   1      31.298  25.680  26.467  1.00  0.00    -0.379 N 
ATOM     14  H   UNL A   1      30.379  25.341  26.566  1.00  0.00     0.161 HD
BRANCH  13  15
ATOM     15  C   UNL A   1      31.366  27.041  26.235  1.00  0.00     0.040 A 
ATOM     16  C   UNL A   1      30.614  26.768  23.785  1.00  0.00     0.048 C 
ATOM     17  C   UNL A   1      31.128  27.567  24.948  1.00  0.00    -0.010 A 
ATOM     18  C   UNL A   1      31.309  28.942  24.740  1.00  0.00     0.116 A 
ATOM     19  N   UNL A   1      31.704  29.821  25.680  1.00  0.00    -0.264 NA
ATOM     20  C   UNL A   1      31.731  27.964  27.213  1.00  0.00     0.046 A 
ATOM     21  C   UNL A   1      31.895  29.308  26.904  1.00  0.00     0.113 A 
ENDBRANCH  13  15
ENDBRANCH   9  13
ENDBRANCH   6   8
ENDBRANCH   5   6
ENDBRANCH   4   5
ENDBRANCH   3   4
ENDBRANCH   2   3
ENDBRANCH   1   2
BRANCH   1  22
ATOM     22  C   UNL A   1      40.326  22.834  26.527  1.00  0.00     0.261 C 
BRANCH  22  23
ATOM     23  O   UNL A   1      39.722  24.140  26.454  1.00  0.00    -0.460 OA
BRANCH  23  24
ATOM     24  C   UNL A   1      40.597  25.161  26.288  1.00  0.00     0.338 C 
ATOM     25  O   UNL A   1      41.130  25.514  25.241  1.00  0.00    -0.246 OA
BRANCH  24  26
ATOM     26  C   UNL A   1      40.706  25.952  27.525  1.00  0.00     0.060 A 
ATOM     27  C   UNL A   1      39.654  25.872  28.446  1.00  0.00     0.016 A 
ATOM     28  C   UNL A   1      41.766  26.836  27.735  1.00  0.00     0.016 A 
ATOM     29  C   UNL A   1      39.638  26.703  29.564  1.00  0.00     0.010 A 
ATOM     30  C   UNL A   1      41.741  27.679  28.853  1.00  0.00     0.010 A 
ATOM     31  C   UNL A   1      40.662  27.639  29.754  1.00  0.00    -0.014 A 
BRANCH  31  32
ATOM     32  C   UNL A   1      40.524  28.665  30.818  1.00  0.00     0.031 A 
ATOM     33  C   UNL A   1      41.421  28.594  32.023  1.00  0.00     0.074 A 
ATOM     34  C   UNL A   1      39.636  29.668  30.694  1.00  0.00     0.049 A 
ATOM     35  N   UNL A   1      41.462  29.373  33.074  1.00  0.00    -0.248 NA
ATOM     36  C   UNL A   1      42.404  27.499  32.048  1.00  0.00     0.031 C 
ATOM     37  C   UNL A   1      38.740  29.865  29.555  1.00  0.00     0.029 A 
ATOM     38  N   UNL A   1      39.341  30.707  31.539  1.00  0.00    -0.354 N 
ATOM     39  C   UNL A   1      42.469  28.862  33.884  1.00  0.00     0.074 A 
ATOM     40  C   UNL A   1      42.995  27.690  33.219  1.00  0.00     0.031 C 
ATOM     41  C   UNL A   1      37.987  30.956  29.779  1.00  0.00     0.029 A 
ATOM     42  C   UNL A   1      38.328  31.516  31.085  1.00  0.00     0.049 A 
ATOM     43  H   UNL A   1      39.811  30.859  32.391  1.00  0.00     0.167 HD
ATOM     44  C   UNL A   1      42.920  29.333  35.072  1.00  0.00     0.037 A 
ATOM     45  C   UNL A   1      37.731  32.576  31.666  1.00  0.00     0.037 A 
ATOM     46  C   UNL A   1      42.395  30.499  35.732  1.00  0.00     0.049 A 
ATOM     47  C   UNL A   1      38.205  33.043  33.017  1.00  0.00     0.074 A 
ATOM     48  C   UNL A   1      42.799  31.069  36.926  1.00  0.00     0.029 A 
ATOM     49  N   UNL A   1      41.345  31.273  35.257  1.00  0.00    -0.354 N 
ATOM     50  N   UNL A   1      39.174  32.565  33.763  1.00  0.00    -0.248 NA
ATOM     51  C   UNL A   1      37.508  34.196  33.606  1.00  0.00     0.031 C 
ATOM     52  C   UNL A   1      41.963  32.158  37.198  1.00  0.00     0.029 A 
ATOM     53  C   UNL A   1      41.070  32.297  36.147  1.00  0.00     0.049 A 
ATOM     54  H   UNL A   1      40.867  31.116  34.411  1.00  0.00     0.167 HD
ATOM     55  C   UNL A   1      39.215  33.370  34.896  1.00  0.00     0.074 A 
ATOM     56  C   UNL A   1      38.182  34.373  34.734  1.00  0.00     0.031 C 
ATOM     57  C   UNL A   1      40.037  33.288  35.973  1.00  0.00     0.037 A 
BRANCH  44  58
ATOM     58  C   UNL A   1      44.022  28.565  35.747  1.00  0.00     0.058 A 
ATOM     59  C   UNL A   1      43.752  27.536  36.664  1.00  0.00     0.135 A 
ATOM     60  C   UNL A   1      45.367  28.850  35.459  1.00  0.00     0.135 A 
ATOM     61  F   UNL A   1      42.485  27.235  36.988  1.00  0.00    -0.206 F 
ATOM     62  C   UNL A   1      44.777  26.836  37.294  1.00  0.00     0.059 A 
ATOM     63  C   UNL A   1      46.407  28.146  36.058  1.00  0.00     0.059 A 
ATOM     64  F   UNL A   1      45.680  29.825  34.592  1.00  0.00    -0.206 F 
ATOM     65  C   UNL A   1      46.102  27.151  36.987  1.00  0.00     0.060 A 
BRANCH  65  66
ATOM     66  S   UNL A   1      47.422  26.241  37.817  1.00  0.00     0.124 S 
ATOM     67  O   UNL A   1      47.369  24.958  37.123  1.00  0.00    -0.237 OA
ATOM     68  O   UNL A   1      48.594  27.064  37.538  1.00  0.00    -0.237 OA
ATOM     69  O   UNL A   1      46.994  26.217  39.211  1.00  0.00    -0.744 OA
ENDBRANCH  65  66
ENDBRANCH  44  58
BRANCH  45  70
ATOM     70  C   UNL A   1      36.608  33.263  30.975  1.00  0.00     0.058 A 
ATOM     71  C   UNL A   1      35.275  33.014  31.332  1.00  0.00     0.135 A 
ATOM     72  C   UNL A   1      36.848  34.190  29.949  1.00  0.00     0.135 A 
ATOM     73  F   UNL A   1      34.995  32.126  32.298  1.00  0.00    -0.206 F 
ATOM     74  C   UNL A   1      34.218  33.654  30.694  1.00  0.00     0.059 A 
ATOM     75  C   UNL A   1      35.810  34.862  29.311  1.00  0.00     0.059 A 
ATOM     76  F   UNL A   1      38.107  34.471  29.576  1.00  0.00    -0.206 F 
ATOM     77  C   UNL A   1      34.496  34.580  29.686  1.00  0.00     0.060 A 
BRANCH  77  78
ATOM     78  S   UNL A   1      33.121  35.451  28.903  1.00  0.00     0.124 S 
ATOM     79  O   UNL A   1      32.446  34.366  28.204  1.00  0.00    -0.237 OA
ATOM     80  O   UNL A   1      32.417  36.007  30.054  1.00  0.00    -0.237 OA
ATOM     81  O   UNL A   1      33.788  36.434  28.054  1.00  0.00    -0.744 OA
ENDBRANCH  77  78
ENDBRANCH  45  70
BRANCH  57  82
ATOM     82  C   UNL A   1      39.871  34.322  37.053  1.00  0.00     0.058 A 
ATOM     83  C   UNL A   1      40.446  35.597  36.946  1.00  0.00     0.135 A 
ATOM     84  C   UNL A   1      39.083  34.051  38.182  1.00  0.00     0.135 A 
ATOM     85  F   UNL A   1      41.214  35.906  35.889  1.00  0.00    -0.206 F 
ATOM     86  C   UNL A   1      40.262  36.562  37.931  1.00  0.00     0.059 A 
ATOM     87  C   UNL A   1      38.864  35.008  39.169  1.00  0.00     0.059 A 
ATOM     88  F   UNL A   1      38.500  32.849  38.328  1.00  0.00    -0.206 F 
ATOM     89  C   UNL A   1      39.468  36.259  39.039  1.00  0.00     0.060 A 
BRANCH  89  90
ATOM     90  S   UNL A   1      39.209  37.529  40.295  1.00  0.00     0.124 S 
ATOM     91  O   UNL A   1      38.656  36.747  41.395  1.00  0.00    -0.237 OA
ATOM     92  O   UNL A   1      40.557  38.048  40.501  1.00  0.00    -0.237 OA
ATOM     93  O   UNL A   1      38.280  38.456  39.654  1.00  0.00    -0.744 OA
ENDBRANCH  89  90
ENDBRANCH  57  82
ENDBRANCH  31  32
ENDBRANCH  24  26
ENDBRANCH  23  24
ENDBRANCH  22  23
ENDBRANCH   1  22
TORSDOF 19
ENDMDL
MODEL 2
REMARK VINA RESULT:     -10.3      1.230      2.083
REMARK SMILES Cc1cnccc1N[C@@H]1C=C[C@@H](C(=O)OCCOCCOC(=O)c2ccc(-c3c4nc(c(-c5c(F)cc(S(=O)(=O)[O-])cc5F)c5ccc([nH]5)c(-c5c(F)cc(S(=O)(=O)[O-])cc5F)c5nc(c(-c6c(F)cc(S(=O)(=O)[O-])cc6F)c6ccc3[nH]6)C=C5)C=C4)cc2)C1
REMARK SMILES IDX 19 1 18 2 17 3 16 4 15 5 13 6 14 7 12 8 9 9 10 10 90 11
REMARK SMILES IDX 11 12 8 13 7 15 1 16 2 17 3 18 4 19 6 20 5 21 20 22 21 23
REMARK SMILES IDX 22 24 23 25 24 26 25 27 89 28 26 29 88 30 27 31 28 32 29 33
REMARK SMILES IDX 82 34 30 35 87 36 81 37 83 38 31 39 86 40 80 41 79 42 32 44
REMARK SMILES IDX 66 45 45 46 65 47 46 48 49 49 64 50 84 51 47 52 48 53 63 55
REMARK SMILES IDX 85 56 50 57 33 58 34 59 43 60 35 61 36 62 42 63 44 64 37 65
REMARK SMILES IDX 38 66 39 67 40 68 41 69 67 70 68 71 77 72 69 73 70 74 76 75
REMARK SMILES IDX 78 76 71 77 72 78 73 79 74 80 75 81 51 82 52 83 61 84 53 85
REMARK SMILES IDX 54 86 60 87 62 88 55 89 56 90 57 91 58 92 59 93
REMARK H PARENT 8 14 83 43 49 54
REMARK Flexibility Score: inf
ROOT
ATOM      1  C   UNL A   1      40.262  20.984  26.686  1.00  0.00     0.202 C 
ENDROOT
BRANCH   1   2
ATOM      2  O   UNL A   1      39.834  20.090  25.654  1.00  0.00    -0.374 OA
BRANCH   2   3
ATOM      3  C   UNL A   1      38.455  20.108  25.284  1.00  0.00     0.202 C 
BRANCH   3   4
ATOM      4  C   UNL A   1      37.811  21.489  25.135  1.00  0.00     0.261 C 
BRANCH   4   5
ATOM      5  O   UNL A   1      36.547  21.390  24.460  1.00  0.00    -0.463 OA
BRANCH   5   6
ATOM      6  C   UNL A   1      36.148  22.521  23.825  1.00  0.00     0.312 C 
ATOM      7  O   UNL A   1      36.869  23.208  23.109  1.00  0.00    -0.252 OA
BRANCH   6   8
ATOM      8  C   UNL A   1      34.644  22.741  23.925  1.00  0.00     0.124 C 
ATOM      9  C   UNL A   1      32.567  22.408  22.650  1.00  0.00     0.103 C 
ATOM     10  C   UNL A   1      32.802  21.300  23.615  1.00  0.00    -0.006 C 
ATOM     11  C   UNL A   1      33.867  23.222  22.686  1.00  0.00     0.048 C 
ATOM     12  C   UNL A   1      33.942  21.464  24.296  1.00  0.00    -0.014 C 
BRANCH   9  13
ATOM     13  N   UNL A   1      31.335  23.129  22.951  1.00  0.00    -0.379 N 
ATOM     14  H   UNL A   1      30.518  22.647  22.683  1.00  0.00     0.161 HD
BRANCH  13  15
ATOM     15  C   UNL A   1      31.088  24.355  23.539  1.00  0.00     0.040 A 
ATOM     16  C   UNL A   1      30.840  23.304  25.879  1.00  0.00     0.048 C 
ATOM     17  C   UNL A   1      30.768  24.448  24.909  1.00  0.00    -0.010 A 
ATOM     18  C   UNL A   1      30.426  25.702  25.436  1.00  0.00     0.116 A 
ATOM     19  N   UNL A   1      30.371  26.848  24.731  1.00  0.00    -0.264 NA
ATOM     20  C   UNL A   1      31.072  25.553  22.826  1.00  0.00     0.046 A 
ATOM     21  C   UNL A   1      30.709  26.745  23.437  1.00  0.00     0.113 A 
ENDBRANCH  13  15
ENDBRANCH   9  13
ENDBRANCH   6   8
ENDBRANCH   5   6
ENDBRANCH   4   5
ENDBRANCH   3   4
ENDBRANCH   2   3
ENDBRANCH   1   2
BRANCH   1  22
ATOM     22  C   UNL A   1      41.274  22.072  26.301  1.00  0.00     0.261 C 
BRANCH  22  23
ATOM     23  O   UNL A   1      40.756  23.406  26.470  1.00  0.00    -0.460 OA
BRANCH  23  24
ATOM     24  C   UNL A   1      41.696  24.381  26.482  1.00  0.00     0.338 C 
ATOM     25  O   UNL A   1      42.691  24.458  25.769  1.00  0.00    -0.246 OA
BRANCH  24  26
ATOM     26  C   UNL A   1      41.280  25.487  27.361  1.00  0.00     0.060 A 
ATOM     27  C   UNL A   1      42.061  26.650  27.362  1.00  0.00     0.016 A 
ATOM     28  C   UNL A   1      40.208  25.353  28.245  1.00  0.00     0.016 A 
ATOM     29  C   UNL A   1      41.796  27.670  28.273  1.00  0.00     0.010 A 
ATOM     30  C   UNL A   1      39.952  26.374  29.169  1.00  0.00     0.010 A 
ATOM     31  C   UNL A   1      40.764  27.521  29.209  1.00  0.00    -0.014 A 
BRANCH  31  32
ATOM     32  C   UNL A   1      40.633  28.506  30.311  1.00  0.00     0.031 A 
ATOM     33  C   UNL A   1      41.564  28.414  31.488  1.00  0.00     0.074 A 
ATOM     34  C   UNL A   1      39.720  29.492  30.247  1.00  0.00     0.049 A 
ATOM     35  N   UNL A   1      41.617  29.156  32.564  1.00  0.00    -0.248 NA
ATOM     36  C   UNL A   1      42.572  27.341  31.448  1.00  0.00     0.031 C 
ATOM     37  C   UNL A   1      38.788  29.708  29.141  1.00  0.00     0.029 A 
ATOM     38  N   UNL A   1      39.425  30.494  31.136  1.00  0.00    -0.354 N 
ATOM     39  C   UNL A   1      42.657  28.642  33.329  1.00  0.00     0.074 A 
ATOM     40  C   UNL A   1      43.190  27.505  32.608  1.00  0.00     0.031 C 
ATOM     41  C   UNL A   1      38.018  30.772  29.423  1.00  0.00     0.029 A 
ATOM     42  C   UNL A   1      38.383  31.295  30.738  1.00  0.00     0.049 A 
ATOM     43  H   UNL A   1      39.915  30.627  31.980  1.00  0.00     0.167 HD
ATOM     44  C   UNL A   1      43.131  29.081  34.520  1.00  0.00     0.037 A 
ATOM     45  C   UNL A   1      37.780  32.320  31.372  1.00  0.00     0.037 A 
ATOM     46  C   UNL A   1      42.599  30.211  35.235  1.00  0.00     0.049 A 
ATOM     47  C   UNL A   1      38.280  32.751  32.726  1.00  0.00     0.074 A 
ATOM     48  C   UNL A   1      43.024  30.748  36.437  1.00  0.00     0.029 A 
ATOM     49  N   UNL A   1      41.520  30.976  34.816  1.00  0.00    -0.354 N 
ATOM     50  N   UNL A   1      39.279  32.269  33.427  1.00  0.00    -0.248 NA
ATOM     51  C   UNL A   1      37.574  33.866  33.373  1.00  0.00     0.031 C 
ATOM     52  C   UNL A   1      42.172  31.808  36.769  1.00  0.00     0.029 A 
ATOM     53  C   UNL A   1      41.247  31.963  35.749  1.00  0.00     0.049 A 
ATOM     54  H   UNL A   1      41.022  30.838  33.978  1.00  0.00     0.167 HD
ATOM     55  C   UNL A   1      39.335  33.035  34.587  1.00  0.00     0.074 A 
ATOM     56  C   UNL A   1      38.276  34.019  34.488  1.00  0.00     0.031 C 
ATOM     57  C   UNL A   1      40.188  32.935  35.638  1.00  0.00     0.037 A 
BRANCH  44  58
ATOM     58  C   UNL A   1      44.268  28.316  35.138  1.00  0.00     0.058 A 
ATOM     59  C   UNL A   1      45.608  28.655  34.890  1.00  0.00     0.135 A 
ATOM     60  C   UNL A   1      44.014  27.241  36.005  1.00  0.00     0.135 A 
ATOM     61  F   UNL A   1      45.908  29.663  34.056  1.00  0.00    -0.206 F 
ATOM     62  C   UNL A   1      46.657  27.936  35.457  1.00  0.00     0.059 A 
ATOM     63  C   UNL A   1      45.046  26.524  36.603  1.00  0.00     0.059 A 
ATOM     64  F   UNL A   1      42.751  26.874  36.274  1.00  0.00    -0.206 F 
ATOM     65  C   UNL A   1      46.365  26.869  36.309  1.00  0.00     0.060 A 
BRANCH  65  66
ATOM     66  S   UNL A   1      47.734  25.940  37.031  1.00  0.00     0.124 S 
ATOM     67  O   UNL A   1      47.279  25.778  38.409  1.00  0.00    -0.237 OA
ATOM     68  O   UNL A   1      47.750  24.726  36.223  1.00  0.00    -0.237 OA
ATOM     69  O   UNL A   1      48.880  26.825  36.850  1.00  0.00    -0.744 OA
ENDBRANCH  65  66
ENDBRANCH  44  58
BRANCH  45  70
ATOM     70  C   UNL A   1      36.623  33.004  30.736  1.00  0.00     0.058 A 
ATOM     71  C   UNL A   1      35.312  32.785  31.186  1.00  0.00     0.135 A 
ATOM     72  C   UNL A   1      36.807  33.900  29.672  1.00  0.00     0.135 A 
ATOM     73  F   UNL A   1      35.084  31.927  32.193  1.00  0.00    -0.206 F 
ATOM     74  C   UNL A   1      34.225  33.423  30.600  1.00  0.00     0.059 A 
ATOM     75  C   UNL A   1      35.738  34.569  29.084  1.00  0.00     0.059 A 
ATOM     76  F   UNL A   1      38.042  34.152  29.211  1.00  0.00    -0.206 F 
ATOM     77  C   UNL A   1      34.448  34.317  29.551  1.00  0.00     0.060 A 
BRANCH  77  78
ATOM     78  S   UNL A   1      33.037  35.187  28.835  1.00  0.00     0.124 S 
ATOM     79  O   UNL A   1      32.193  35.391  30.006  1.00  0.00    -0.237 OA
ATOM     80  O   UNL A   1      33.663  36.384  28.282  1.00  0.00    -0.237 OA
ATOM     81  O   UNL A   1      32.529  34.242  27.845  1.00  0.00    -0.744 OA
ENDBRANCH  77  78
ENDBRANCH  45  70
BRANCH  57  82
ATOM     82  C   UNL A   1      40.029  33.927  36.757  1.00  0.00     0.058 A 
ATOM     83  C   UNL A   1      40.642  35.188  36.716  1.00  0.00     0.135 A 
ATOM     84  C   UNL A   1      39.211  33.631  37.859  1.00  0.00     0.135 A 
ATOM     85  F   UNL A   1      41.440  35.520  35.688  1.00  0.00    -0.206 F 
ATOM     86  C   UNL A   1      40.465  36.116  37.738  1.00  0.00     0.059 A 
ATOM     87  C   UNL A   1      39.000  34.552  38.882  1.00  0.00     0.059 A 
ATOM     88  F   UNL A   1      38.593  32.442  37.943  1.00  0.00    -0.206 F 
ATOM     89  C   UNL A   1      39.641  35.789  38.817  1.00  0.00     0.060 A 
BRANCH  89  90
ATOM     90  S   UNL A   1      39.392  37.012  40.121  1.00  0.00     0.124 S 
ATOM     91  O   UNL A   1      38.647  36.240  41.110  1.00  0.00    -0.237 OA
ATOM     92  O   UNL A   1      40.760  37.362  40.489  1.00  0.00    -0.237 OA
ATOM     93  O   UNL A   1      38.640  38.071  39.454  1.00  0.00    -0.744 OA
ENDBRANCH  89  90
ENDBRANCH  57  82
ENDBRANCH  31  32
ENDBRANCH  24  26
ENDBRANCH  23  24
ENDBRANCH  22  23
ENDBRANCH   1  22
TORSDOF 19
ENDMDL
MODEL 3
REMARK VINA RESULT:     -10.3      2.186      3.226
REMARK SMILES Cc1cnccc1N[C@@H]1C=C[C@@H](C(=O)OCCOCCOC(=O)c2ccc(-c3c4nc(c(-c5c(F)cc(S(=O)(=O)[O-])cc5F)c5ccc([nH]5)c(-c5c(F)cc(S(=O)(=O)[O-])cc5F)c5nc(c(-c6c(F)cc(S(=O)(=O)[O-])cc6F)c6ccc3[nH]6)C=C5)C=C4)cc2)C1
REMARK SMILES IDX 19 1 18 2 17 3 16 4 15 5 13 6 14 7 12 8 9 9 10 10 90 11
REMARK SMILES IDX 11 12 8 13 7 15 1 16 2 17 3 18 4 19 6 20 5 21 20 22 21 23
REMARK SMILES IDX 22 24 23 25 24 26 25 27 89 28 26 29 88 30 27 31 28 32 29 33
REMARK SMILES IDX 82 34 30 35 87 36 81 37 83 38 31 39 86 40 80 41 79 42 32 44
REMARK SMILES IDX 66 45 45 46 65 47 46 48 49 49 64 50 84 51 47 52 48 53 63 55
REMARK SMILES IDX 85 56 50 57 33 58 34 59 43 60 35 61 36 62 42 63 44 64 37 65
REMARK SMILES IDX 38 66 39 67 40 68 41 69 67 70 68 71 77 72 69 73 70 74 76 75
REMARK SMILES IDX 78 76 71 77 72 78 73 79 74 80 75 81 51 82 52 83 61 84 53 85
REMARK SMILES IDX 54 86 60 87 62 88 55 89 56 90 57 91 58 92 59 93
REMARK H PARENT 8 14 83 43 49 54
REMARK Flexibility Score: inf
ROOT
ATOM      1  C   UNL A   1      42.739  21.616  27.322  1.00  0.00     0.202 C 
ENDROOT
BRANCH   1   2
ATOM      2  O   UNL A   1      42.465  20.355  26.705  1.00  0.00    -0.374 OA
BRANCH   2   3
ATOM      3  C   UNL A   1      41.176  20.164  26.120  1.00  0.00     0.202 C 
BRANCH   3   4
ATOM      4  C   UNL A   1      40.038  21.012  26.693  1.00  0.00     0.261 C 
BRANCH   4   5
ATOM      5  O   UNL A   1      39.210  21.531  25.642  1.00  0.00    -0.463 OA
BRANCH   5   6
ATOM      6  C   UNL A   1      38.449  22.601  25.987  1.00  0.00     0.312 C 
ATOM      7  O   UNL A   1      38.880  23.618  26.520  1.00  0.00    -0.252 OA
BRANCH   6   8
ATOM      8  C   UNL A   1      37.025  22.494  25.457  1.00  0.00     0.124 C 
ATOM      9  C   UNL A   1      35.253  23.858  24.430  1.00  0.00     0.103 C 
ATOM     10  C   UNL A   1      36.042  23.121  23.406  1.00  0.00    -0.006 C 
ATOM     11  C   UNL A   1      36.028  23.634  25.735  1.00  0.00     0.048 C 
ATOM     12  C   UNL A   1      37.022  22.395  23.957  1.00  0.00    -0.014 C 
BRANCH   9  13
ATOM     13  N   UNL A   1      33.852  23.451  24.423  1.00  0.00    -0.379 N 
ATOM     14  H   UNL A   1      33.245  24.113  24.827  1.00  0.00     0.161 HD
BRANCH  13  15
ATOM     15  C   UNL A   1      33.209  22.318  23.960  1.00  0.00     0.040 A 
ATOM     16  C   UNL A   1      33.720  21.014  26.124  1.00  0.00     0.048 C 
ATOM     17  C   UNL A   1      33.209  21.127  24.716  1.00  0.00    -0.010 A 
ATOM     18  C   UNL A   1      32.631  19.978  24.158  1.00  0.00     0.116 A 
ATOM     19  N   UNL A   1      32.070  19.909  22.937  1.00  0.00    -0.264 NA
ATOM     20  C   UNL A   1      32.586  22.251  22.715  1.00  0.00     0.046 A 
ATOM     21  C   UNL A   1      32.051  21.058  22.246  1.00  0.00     0.113 A 
ENDBRANCH  13  15
ENDBRANCH   9  13
ENDBRANCH   6   8
ENDBRANCH   5   6
ENDBRANCH   4   5
ENDBRANCH   3   4
ENDBRANCH   2   3
ENDBRANCH   1   2
BRANCH   1  22
ATOM     22  C   UNL A   1      43.261  22.743  26.421  1.00  0.00     0.261 C 
BRANCH  22  23
ATOM     23  O   UNL A   1      42.242  23.699  26.069  1.00  0.00    -0.460 OA
BRANCH  23  24
ATOM     24  C   UNL A   1      42.696  24.956  25.848  1.00  0.00     0.338 C 
ATOM     25  O   UNL A   1      43.355  25.346  24.889  1.00  0.00    -0.246 OA
BRANCH  24  26
ATOM     26  C   UNL A   1      42.135  25.889  26.840  1.00  0.00     0.060 A 
ATOM     27  C   UNL A   1      42.635  27.198  26.861  1.00  0.00     0.016 A 
ATOM     28  C   UNL A   1      41.214  25.467  27.800  1.00  0.00     0.016 A 
ATOM     29  C   UNL A   1      42.242  28.080  27.865  1.00  0.00     0.010 A 
ATOM     30  C   UNL A   1      40.831  26.351  28.815  1.00  0.00     0.010 A 
ATOM     31  C   UNL A   1      41.368  27.650  28.872  1.00  0.00    -0.014 A 
BRANCH  31  32
ATOM     32  C   UNL A   1      41.132  28.518  30.052  1.00  0.00     0.031 A 
ATOM     33  C   UNL A   1      42.012  28.362  31.261  1.00  0.00     0.074 A 
ATOM     34  C   UNL A   1      40.170  29.459  30.032  1.00  0.00     0.049 A 
ATOM     35  N   UNL A   1      41.974  29.002  32.402  1.00  0.00    -0.248 NA
ATOM     36  C   UNL A   1      43.077  27.351  31.174  1.00  0.00     0.031 C 
ATOM     37  C   UNL A   1      39.280  29.731  28.904  1.00  0.00     0.029 A 
ATOM     38  N   UNL A   1      39.780  30.356  30.993  1.00  0.00    -0.354 N 
ATOM     39  C   UNL A   1      43.005  28.471  33.168  1.00  0.00     0.074 A 
ATOM     40  C   UNL A   1      43.632  27.436  32.374  1.00  0.00     0.031 C 
ATOM     41  C   UNL A   1      38.439  30.723  29.243  1.00  0.00     0.029 A 
ATOM     42  C   UNL A   1      38.714  31.137  30.618  1.00  0.00     0.049 A 
ATOM     43  H   UNL A   1      40.223  30.433  31.869  1.00  0.00     0.167 HD
ATOM     44  C   UNL A   1      43.399  28.819  34.417  1.00  0.00     0.037 A 
ATOM     45  C   UNL A   1      38.027  32.066  31.312  1.00  0.00     0.037 A 
ATOM     46  C   UNL A   1      42.773  29.849  35.204  1.00  0.00     0.049 A 
ATOM     47  C   UNL A   1      38.441  32.392  32.723  1.00  0.00     0.074 A 
ATOM     48  C   UNL A   1      43.111  30.291  36.471  1.00  0.00     0.029 A 
ATOM     49  N   UNL A   1      41.673  30.594  34.803  1.00  0.00    -0.354 N 
ATOM     50  N   UNL A   1      39.431  31.897  33.427  1.00  0.00    -0.248 NA
ATOM     51  C   UNL A   1      37.645  33.404  33.433  1.00  0.00     0.031 C 
ATOM     52  C   UNL A   1      42.188  31.270  36.855  1.00  0.00     0.029 A 
ATOM     53  C   UNL A   1      41.304  31.473  35.808  1.00  0.00     0.049 A 
ATOM     54  H   UNL A   1      41.223  30.511  33.932  1.00  0.00     0.167 HD
ATOM     55  C   UNL A   1      39.391  32.553  34.654  1.00  0.00     0.074 A 
ATOM     56  C   UNL A   1      38.285  33.487  34.591  1.00  0.00     0.031 C 
ATOM     57  C   UNL A   1      40.199  32.397  35.732  1.00  0.00     0.037 A 
BRANCH  44  58
ATOM     58  C   UNL A   1      44.546  28.058  35.019  1.00  0.00     0.058 A 
ATOM     59  C   UNL A   1      44.346  26.886  35.766  1.00  0.00     0.135 A 
ATOM     60  C   UNL A   1      45.868  28.496  34.830  1.00  0.00     0.135 A 
ATOM     61  F   UNL A   1      43.102  26.433  35.991  1.00  0.00    -0.206 F 
ATOM     62  C   UNL A   1      45.412  26.191  36.329  1.00  0.00     0.059 A 
ATOM     63  C   UNL A   1      46.951  27.804  35.363  1.00  0.00     0.059 A 
ATOM     64  F   UNL A   1      46.115  29.612  34.126  1.00  0.00    -0.206 F 
ATOM     65  C   UNL A   1      46.711  26.660  36.125  1.00  0.00     0.060 A 
BRANCH  65  66
ATOM     66  S   UNL A   1      48.084  25.755  36.868  1.00  0.00     0.124 S 
ATOM     67  O   UNL A   1      49.221  26.295  36.129  1.00  0.00    -0.237 OA
ATOM     68  O   UNL A   1      47.997  26.147  38.271  1.00  0.00    -0.237 OA
ATOM     69  O   UNL A   1      47.762  24.359  36.590  1.00  0.00    -0.744 OA
ENDBRANCH  65  66
ENDBRANCH  44  58
BRANCH  45  70
ATOM     70  C   UNL A   1      36.864  32.748  30.683  1.00  0.00     0.058 A 
ATOM     71  C   UNL A   1      35.549  32.378  30.997  1.00  0.00     0.135 A 
ATOM     72  C   UNL A   1      37.048  33.792  29.763  1.00  0.00     0.135 A 
ATOM     73  F   UNL A   1      35.323  31.377  31.862  1.00  0.00    -0.206 F 
ATOM     74  C   UNL A   1      34.455  33.012  30.418  1.00  0.00     0.059 A 
ATOM     75  C   UNL A   1      35.971  34.458  29.187  1.00  0.00     0.059 A 
ATOM     76  F   UNL A   1      38.288  34.190  29.436  1.00  0.00    -0.206 F 
ATOM     77  C   UNL A   1      34.677  34.055  29.515  1.00  0.00     0.060 A 
BRANCH  77  78
ATOM     78  S   UNL A   1      33.252  34.913  28.812  1.00  0.00     0.124 S 
ATOM     79  O   UNL A   1      32.462  35.196  30.004  1.00  0.00    -0.237 OA
ATOM     80  O   UNL A   1      33.875  36.065  28.169  1.00  0.00    -0.237 OA
ATOM     81  O   UNL A   1      32.686  33.926  27.897  1.00  0.00    -0.744 OA
ENDBRANCH  77  78
ENDBRANCH  45  70
BRANCH  57  82
ATOM     82  C   UNL A   1      39.935  33.269  36.929  1.00  0.00     0.058 A 
ATOM     83  C   UNL A   1      38.982  32.921  37.898  1.00  0.00     0.135 A 
ATOM     84  C   UNL A   1      40.681  34.440  37.135  1.00  0.00     0.135 A 
ATOM     85  F   UNL A   1      38.237  31.814  37.747  1.00  0.00    -0.206 F 
ATOM     86  C   UNL A   1      38.764  33.713  39.021  1.00  0.00     0.059 A 
ATOM     87  C   UNL A   1      40.498  35.236  38.262  1.00  0.00     0.059 A 
ATOM     88  F   UNL A   1      41.613  34.814  36.243  1.00  0.00    -0.206 F 
ATOM     89  C   UNL A   1      39.528  34.869  39.195  1.00  0.00     0.060 A 
BRANCH  89  90
ATOM     90  S   UNL A   1      39.260  35.872  40.672  1.00  0.00     0.124 S 
ATOM     91  O   UNL A   1      40.583  35.848  41.287  1.00  0.00    -0.237 OA
ATOM     92  O   UNL A   1      38.845  37.154  40.110  1.00  0.00    -0.237 OA
ATOM     93  O   UNL A   1      38.219  35.145  41.392  1.00  0.00    -0.744 OA
ENDBRANCH  89  90
ENDBRANCH  57  82
ENDBRANCH  31  32
ENDBRANCH  24  26
ENDBRANCH  23  24
ENDBRANCH  22  23
ENDBRANCH   1  22
TORSDOF 19
ENDMDL
