MODEL 1
REMARK VINA RESULT:     -11.1      0.000      0.000
REMARK SMILES O=C(C[C@@H]1C[N@@H+]([C@H]2CCCc3sccc32)CCO1)OCCOCCOC(=O)c1ccc(-c2c3nc(c(-c4c(F)cc(S(=O)(=O)[O-])cc4F)c4ccc([nH]4)c(-c4c(F)cc(S(=O)(=O)[O-])cc4F)c4nc(c(-c5c(F)cc(S(=O)(=O)[O-])cc5F)c5ccc2[nH]5)C=C4)C=C3)cc1
REMARK SMILES IDX 23 1 22 2 21 3 20 4 19 5 2 6 1 7 3 8 4 9 5 10 18 11 6 12
REMARK SMILES IDX 17 13 16 14 7 16 8 17 15 18 9 19 11 20 14 21 10 22 12 23
REMARK SMILES IDX 13 24 24 25 25 26 26 27 27 28 28 29 29 30 93 31 30 32 92 33
REMARK SMILES IDX 31 34 32 35 33 36 86 37 34 38 91 39 85 40 87 41 35 42 90 43
REMARK SMILES IDX 84 44 83 45 36 47 70 48 49 49 69 50 50 51 53 52 68 53 88 54
REMARK SMILES IDX 51 55 52 56 67 58 89 59 54 60 37 61 38 62 47 63 39 64 40 65
REMARK SMILES IDX 46 66 48 67 41 68 42 69 43 70 44 71 45 72 71 73 72 74 81 75
REMARK SMILES IDX 73 76 74 77 80 78 82 79 75 80 76 81 77 82 78 83 79 84 55 85
REMARK SMILES IDX 56 86 65 87 57 88 58 89 64 90 66 91 59 92 60 93 61 94 62 95
REMARK SMILES IDX 63 96
REMARK H PARENT 6 15 87 46 53 57
REMARK Flexibility Score: inf
ROOT
ATOM      1  C   UNL A   1      34.499  29.705  27.332  1.00  0.00     0.202 C 
ENDROOT
BRANCH   1   2
ATOM      2  O   UNL A   1      33.572  29.332  26.304  1.00  0.00    -0.374 OA
BRANCH   2   3
ATOM      3  C   UNL A   1      32.277  29.911  26.353  1.00  0.00     0.202 C 
BRANCH   3   4
ATOM      4  C   UNL A   1      31.444  29.848  25.078  1.00  0.00     0.261 C 
BRANCH   4   5
ATOM      5  O   UNL A   1      31.188  28.534  24.566  1.00  0.00    -0.463 OA
BRANCH   5   6
ATOM      6  C   UNL A   1      30.487  28.228  23.453  1.00  0.00     0.308 C 
ATOM      7  O   UNL A   1      29.337  28.649  23.330  1.00  0.00    -0.252 OA
BRANCH   6   8
ATOM      8  C   UNL A   1      31.027  27.240  22.450  1.00  0.00     0.160 C 
BRANCH   8   9
ATOM      9  C   UNL A   1      31.750  26.006  22.956  1.00  0.00     0.184 C 
ATOM     10  C   UNL A   1      33.090  25.696  22.254  1.00  0.00     0.295 C 
ATOM     11  O   UNL A   1      30.870  24.872  22.792  1.00  0.00    -0.366 OA
ATOM     12  N   UNL A   1      33.770  24.532  22.848  1.00  0.00    -0.325 N 
ATOM     13  C   UNL A   1      31.437  23.710  23.413  1.00  0.00     0.222 C 
ATOM     14  C   UNL A   1      32.854  23.389  22.893  1.00  0.00     0.291 C 
ATOM     15  H   UNL A   1      34.521  24.232  22.226  1.00  0.00     0.348 HD
BRANCH  12  16
ATOM     16  C   UNL A   1      34.633  24.811  24.008  1.00  0.00     0.216 C 
ATOM     17  C   UNL A   1      34.043  25.390  25.323  1.00  0.00     0.071 C 
ATOM     18  C   UNL A   1      35.400  23.545  24.328  1.00  0.00     0.023 A 
ATOM     19  C   UNL A   1      33.364  24.362  26.241  1.00  0.00     0.012 C 
ATOM     20  C   UNL A   1      35.191  22.815  25.484  1.00  0.00     0.014 A 
ATOM     21  C   UNL A   1      36.454  22.975  23.545  1.00  0.00     0.022 A 
ATOM     22  C   UNL A   1      34.252  23.166  26.594  1.00  0.00     0.047 C 
ATOM     23  S   UNL A   1      36.193  21.439  25.585  1.00  0.00    -0.148 S 
ATOM     24  C   UNL A   1      36.971  21.833  24.114  1.00  0.00     0.065 A 
ENDBRANCH  12  16
ENDBRANCH   8   9
ENDBRANCH   6   8
ENDBRANCH   5   6
ENDBRANCH   4   5
ENDBRANCH   3   4
ENDBRANCH   2   3
ENDBRANCH   1   2
BRANCH   1  25
ATOM     25  C   UNL A   1      34.614  31.191  27.692  1.00  0.00     0.261 C 
BRANCH  25  26
ATOM     26  O   UNL A   1      35.977  31.579  27.941  1.00  0.00    -0.460 OA
BRANCH  26  27
ATOM     27  C   UNL A   1      36.472  31.229  29.152  1.00  0.00     0.338 C 
ATOM     28  O   UNL A   1      35.903  31.321  30.234  1.00  0.00    -0.246 OA
BRANCH  27  29
ATOM     29  C   UNL A   1      37.728  30.482  28.972  1.00  0.00     0.060 A 
ATOM     30  C   UNL A   1      38.587  30.360  30.074  1.00  0.00     0.016 A 
ATOM     31  C   UNL A   1      38.084  29.955  27.730  1.00  0.00     0.016 A 
ATOM     32  C   UNL A   1      39.826  29.741  29.927  1.00  0.00     0.010 A 
ATOM     33  C   UNL A   1      39.333  29.347  27.581  1.00  0.00     0.010 A 
ATOM     34  C   UNL A   1      40.220  29.265  28.671  1.00  0.00    -0.014 A 
BRANCH  34  35
ATOM     35  C   UNL A   1      41.612  28.807  28.456  1.00  0.00     0.031 A 
ATOM     36  C   UNL A   1      42.718  29.825  28.477  1.00  0.00     0.074 A 
ATOM     37  C   UNL A   1      41.876  27.506  28.241  1.00  0.00     0.049 A 
ATOM     38  N   UNL A   1      43.990  29.669  28.225  1.00  0.00    -0.248 NA
ATOM     39  C   UNL A   1      42.336  31.205  28.824  1.00  0.00     0.031 C 
ATOM     40  C   UNL A   1      40.883  26.432  28.233  1.00  0.00     0.029 A 
ATOM     41  N   UNL A   1      43.061  26.871  27.968  1.00  0.00    -0.354 N 
ATOM     42  C   UNL A   1      44.560  30.930  28.369  1.00  0.00     0.074 A 
ATOM     43  C   UNL A   1      43.494  31.843  28.713  1.00  0.00     0.031 C 
ATOM     44  C   UNL A   1      41.497  25.272  27.942  1.00  0.00     0.029 A 
ATOM     45  C   UNL A   1      42.916  25.528  27.709  1.00  0.00     0.049 A 
ATOM     46  H   UNL A   1      43.930  27.332  27.959  1.00  0.00     0.167 HD
ATOM     47  C   UNL A   1      45.858  31.287  28.227  1.00  0.00     0.037 A 
ATOM     48  C   UNL A   1      43.823  24.622  27.293  1.00  0.00     0.037 A 
ATOM     49  C   UNL A   1      46.910  30.363  27.889  1.00  0.00     0.049 A 
ATOM     50  C   UNL A   1      45.251  25.058  27.083  1.00  0.00     0.074 A 
ATOM     51  C   UNL A   1      48.264  30.615  27.757  1.00  0.00     0.029 A 
ATOM     52  N   UNL A   1      46.726  29.016  27.623  1.00  0.00    -0.354 N 
ATOM     53  N   UNL A   1      45.785  26.245  27.258  1.00  0.00    -0.248 NA
ATOM     54  C   UNL A   1      46.199  24.037  26.619  1.00  0.00     0.031 C 
ATOM     55  C   UNL A   1      48.891  29.431  27.357  1.00  0.00     0.029 A 
ATOM     56  C   UNL A   1      47.936  28.428  27.294  1.00  0.00     0.049 A 
ATOM     57  H   UNL A   1      45.861  28.545  27.660  1.00  0.00     0.167 HD
ATOM     58  C   UNL A   1      47.133  26.105  26.946  1.00  0.00     0.074 A 
ATOM     59  C   UNL A   1      47.337  24.717  26.590  1.00  0.00     0.031 C 
ATOM     60  C   UNL A   1      48.116  27.040  26.949  1.00  0.00     0.037 A 
BRANCH  47  61
ATOM     61  C   UNL A   1      46.218  32.733  28.413  1.00  0.00     0.058 A 
ATOM     62  C   UNL A   1      46.178  33.648  27.349  1.00  0.00     0.135 A 
ATOM     63  C   UNL A   1      46.537  33.227  29.689  1.00  0.00     0.135 A 
ATOM     64  F   UNL A   1      45.901  33.227  26.105  1.00  0.00    -0.206 F 
ATOM     65  C   UNL A   1      46.447  34.999  27.542  1.00  0.00     0.059 A 
ATOM     66  C   UNL A   1      46.786  34.578  29.910  1.00  0.00     0.059 A 
ATOM     67  F   UNL A   1      46.596  32.393  30.739  1.00  0.00    -0.206 F 
ATOM     68  C   UNL A   1      46.743  35.456  28.829  1.00  0.00     0.060 A 
BRANCH  68  69
ATOM     69  S   UNL A   1      47.045  37.220  29.069  1.00  0.00     0.124 S 
ATOM     70  O   UNL A   1      45.721  37.780  28.818  1.00  0.00    -0.237 OA
ATOM     71  O   UNL A   1      47.501  37.271  30.454  1.00  0.00    -0.237 OA
ATOM     72  O   UNL A   1      48.058  37.532  28.066  1.00  0.00    -0.744 OA
ENDBRANCH  68  69
ENDBRANCH  47  61
BRANCH  48  73
ATOM     73  C   UNL A   1      43.409  23.220  27.012  1.00  0.00     0.058 A 
ATOM     74  C   UNL A   1      43.128  22.321  28.051  1.00  0.00     0.135 A 
ATOM     75  C   UNL A   1      43.313  22.743  25.694  1.00  0.00     0.135 A 
ATOM     76  F   UNL A   1      43.216  22.724  29.328  1.00  0.00    -0.206 F 
ATOM     77  C   UNL A   1      42.792  20.994  27.799  1.00  0.00     0.059 A 
ATOM     78  C   UNL A   1      42.951  21.429  25.415  1.00  0.00     0.059 A 
ATOM     79  F   UNL A   1      43.560  23.564  24.662  1.00  0.00    -0.206 F 
ATOM     80  C   UNL A   1      42.708  20.558  26.475  1.00  0.00     0.060 A 
BRANCH  80  81
ATOM     81  S   UNL A   1      42.249  18.841  26.157  1.00  0.00     0.124 S 
ATOM     82  O   UNL A   1      42.506  18.223  27.453  1.00  0.00    -0.237 OA
ATOM     83  O   UNL A   1      40.845  18.965  25.775  1.00  0.00    -0.237 OA
ATOM     84  O   UNL A   1      43.152  18.447  25.078  1.00  0.00    -0.744 OA
ENDBRANCH  80  81
ENDBRANCH  48  73
BRANCH  60  85
ATOM     85  C   UNL A   1      49.503  26.588  26.584  1.00  0.00     0.058 A 
ATOM     86  C   UNL A   1      50.378  26.054  27.542  1.00  0.00     0.135 A 
ATOM     87  C   UNL A   1      49.940  26.640  25.250  1.00  0.00     0.135 A 
ATOM     88  F   UNL A   1      50.011  25.988  28.831  1.00  0.00    -0.206 F 
ATOM     89  C   UNL A   1      51.650  25.610  27.195  1.00  0.00     0.059 A 
ATOM     90  C   UNL A   1      51.196  26.174  24.877  1.00  0.00     0.059 A 
ATOM     91  F   UNL A   1      49.136  27.130  24.293  1.00  0.00    -0.206 F 
ATOM     92  C   UNL A   1      52.049  25.672  25.858  1.00  0.00     0.060 A 
BRANCH  92  93
ATOM     93  S   UNL A   1      53.690  25.063  25.416  1.00  0.00     0.124 S 
ATOM     94  O   UNL A   1      54.480  25.485  26.568  1.00  0.00    -0.237 OA
ATOM     95  O   UNL A   1      53.466  23.625  25.292  1.00  0.00    -0.237 OA
ATOM     96  O   UNL A   1      53.984  25.756  24.166  1.00  0.00    -0.744 OA
ENDBRANCH  92  93
ENDBRANCH  60  85
ENDBRANCH  34  35
ENDBRANCH  27  29
ENDBRANCH  26  27
ENDBRANCH  25  26
ENDBRANCH   1  25
TORSDOF 19
ENDMDL
MODEL 2
REMARK VINA RESULT:     -10.9      6.793     13.397
REMARK SMILES O=C(C[C@@H]1C[N@@H+]([C@H]2CCCc3sccc32)CCO1)OCCOCCOC(=O)c1ccc(-c2c3nc(c(-c4c(F)cc(S(=O)(=O)[O-])cc4F)c4ccc([nH]4)c(-c4c(F)cc(S(=O)(=O)[O-])cc4F)c4nc(c(-c5c(F)cc(S(=O)(=O)[O-])cc5F)c5ccc2[nH]5)C=C4)C=C3)cc1
REMARK SMILES IDX 23 1 22 2 21 3 20 4 19 5 2 6 1 7 3 8 4 9 5 10 18 11 6 12
REMARK SMILES IDX 17 13 16 14 7 16 8 17 15 18 9 19 11 20 14 21 10 22 12 23
REMARK SMILES IDX 13 24 24 25 25 26 26 27 27 28 28 29 29 30 93 31 30 32 92 33
REMARK SMILES IDX 31 34 32 35 33 36 86 37 34 38 91 39 85 40 87 41 35 42 90 43
REMARK SMILES IDX 84 44 83 45 36 47 70 48 49 49 69 50 50 51 53 52 68 53 88 54
REMARK SMILES IDX 51 55 52 56 67 58 89 59 54 60 37 61 38 62 47 63 39 64 40 65
REMARK SMILES IDX 46 66 48 67 41 68 42 69 43 70 44 71 45 72 71 73 72 74 81 75
REMARK SMILES IDX 73 76 74 77 80 78 82 79 75 80 76 81 77 82 78 83 79 84 55 85
REMARK SMILES IDX 56 86 65 87 57 88 58 89 64 90 66 91 59 92 60 93 61 94 62 95
REMARK SMILES IDX 63 96
REMARK H PARENT 6 15 87 46 53 57
REMARK Flexibility Score: inf
ROOT
ATOM      1  C   UNL A   1      39.983  21.371  26.117  1.00  0.00     0.202 C 
ENDROOT
BRANCH   1   2
ATOM      2  O   UNL A   1      41.355  21.175  26.484  1.00  0.00    -0.374 OA
BRANCH   2   3
ATOM      3  C   UNL A   1      41.704  19.923  27.055  1.00  0.00     0.202 C 
BRANCH   3   4
ATOM      4  C   UNL A   1      42.193  18.841  26.100  1.00  0.00     0.261 C 
BRANCH   4   5
ATOM      5  O   UNL A   1      42.924  19.303  24.957  1.00  0.00    -0.463 OA
BRANCH   5   6
ATOM      6  C   UNL A   1      44.260  19.224  24.772  1.00  0.00     0.308 C 
ATOM      7  O   UNL A   1      44.873  18.255  25.219  1.00  0.00    -0.252 OA
BRANCH   6   8
ATOM      8  C   UNL A   1      45.025  20.382  24.184  1.00  0.00     0.160 C 
BRANCH   8   9
ATOM      9  C   UNL A   1      44.856  21.758  24.800  1.00  0.00     0.184 C 
ATOM     10  C   UNL A   1      44.845  21.790  26.344  1.00  0.00     0.295 C 
ATOM     11  O   UNL A   1      43.613  22.314  24.318  1.00  0.00    -0.366 OA
ATOM     12  N   UNL A   1      44.755  23.163  26.869  1.00  0.00    -0.325 N 
ATOM     13  C   UNL A   1      43.488  23.682  24.732  1.00  0.00     0.222 C 
ATOM     14  C   UNL A   1      43.615  23.855  26.260  1.00  0.00     0.291 C 
ATOM     15  H   UNL A   1      44.529  23.125  27.863  1.00  0.00     0.348 HD
BRANCH  12  16
ATOM     16  C   UNL A   1      46.032  23.878  27.029  1.00  0.00     0.216 C 
ATOM     17  C   UNL A   1      46.879  24.289  25.794  1.00  0.00     0.071 C 
ATOM     18  C   UNL A   1      45.770  25.106  27.876  1.00  0.00     0.023 A 
ATOM     19  C   UNL A   1      46.407  25.560  25.072  1.00  0.00     0.012 C 
ATOM     20  C   UNL A   1      45.861  26.394  27.377  1.00  0.00     0.014 A 
ATOM     21  C   UNL A   1      45.464  25.118  29.275  1.00  0.00     0.022 A 
ATOM     22  C   UNL A   1      46.269  26.778  25.991  1.00  0.00     0.047 C 
ATOM     23  S   UNL A   1      45.516  27.581  28.551  1.00  0.00    -0.148 S 
ATOM     24  C   UNL A   1      45.304  26.395  29.765  1.00  0.00     0.065 A 
ENDBRANCH  12  16
ENDBRANCH   8   9
ENDBRANCH   6   8
ENDBRANCH   5   6
ENDBRANCH   4   5
ENDBRANCH   3   4
ENDBRANCH   2   3
ENDBRANCH   1   2
BRANCH   1  25
ATOM     25  C   UNL A   1      39.311  22.688  26.526  1.00  0.00     0.261 C 
BRANCH  25  26
ATOM     26  O   UNL A   1      40.192  23.523  27.299  1.00  0.00    -0.460 OA
BRANCH  26  27
ATOM     27  C   UNL A   1      40.309  24.802  26.870  1.00  0.00     0.338 C 
ATOM     28  O   UNL A   1      40.149  25.212  25.727  1.00  0.00    -0.246 OA
BRANCH  27  29
ATOM     29  C   UNL A   1      40.427  25.701  28.031  1.00  0.00     0.060 A 
ATOM     30  C   UNL A   1      39.326  25.813  28.892  1.00  0.00     0.016 A 
ATOM     31  C   UNL A   1      41.578  26.460  28.243  1.00  0.00     0.016 A 
ATOM     32  C   UNL A   1      39.359  26.717  29.951  1.00  0.00     0.010 A 
ATOM     33  C   UNL A   1      41.603  27.377  29.297  1.00  0.00     0.010 A 
ATOM     34  C   UNL A   1      40.484  27.530  30.135  1.00  0.00    -0.014 A 
BRANCH  34  35
ATOM     35  C   UNL A   1      40.442  28.640  31.115  1.00  0.00     0.031 A 
ATOM     36  C   UNL A   1      41.334  28.570  32.323  1.00  0.00     0.074 A 
ATOM     37  C   UNL A   1      39.617  29.685  30.928  1.00  0.00     0.049 A 
ATOM     38  N   UNL A   1      41.401  29.373  33.350  1.00  0.00    -0.248 NA
ATOM     39  C   UNL A   1      42.275  27.437  32.382  1.00  0.00     0.031 C 
ATOM     40  C   UNL A   1      38.733  29.868  29.776  1.00  0.00     0.029 A 
ATOM     41  N   UNL A   1      39.373  30.780  31.717  1.00  0.00    -0.354 N 
ATOM     42  C   UNL A   1      42.378  28.840  34.184  1.00  0.00     0.074 A 
ATOM     43  C   UNL A   1      42.865  27.635  33.552  1.00  0.00     0.031 C 
ATOM     44  C   UNL A   1      38.024  30.998  29.946  1.00  0.00     0.029 A 
ATOM     45  C   UNL A   1      38.376  31.595  31.231  1.00  0.00     0.049 A 
ATOM     46  H   UNL A   1      39.864  30.966  32.549  1.00  0.00     0.167 HD
ATOM     47  C   UNL A   1      42.825  29.319  35.369  1.00  0.00     0.037 A 
ATOM     48  C   UNL A   1      37.793  32.676  31.785  1.00  0.00     0.037 A 
ATOM     49  C   UNL A   1      42.332  30.525  35.982  1.00  0.00     0.049 A 
ATOM     50  C   UNL A   1      38.267  33.154  33.134  1.00  0.00     0.074 A 
ATOM     51  C   UNL A   1      42.743  31.117  37.164  1.00  0.00     0.029 A 
ATOM     52  N   UNL A   1      41.316  31.317  35.470  1.00  0.00    -0.354 N 
ATOM     53  N   UNL A   1      39.217  32.662  33.896  1.00  0.00    -0.248 NA
ATOM     54  C   UNL A   1      37.592  34.330  33.701  1.00  0.00     0.031 C 
ATOM     55  C   UNL A   1      41.938  32.238  37.392  1.00  0.00     0.029 A 
ATOM     56  C   UNL A   1      41.063  32.375  36.326  1.00  0.00     0.049 A 
ATOM     57  H   UNL A   1      40.843  31.151  34.622  1.00  0.00     0.167 HD
ATOM     58  C   UNL A   1      39.266  33.482  35.019  1.00  0.00     0.074 A 
ATOM     59  C   UNL A   1      38.265  34.510  34.829  1.00  0.00     0.031 C 
ATOM     60  C   UNL A   1      40.064  33.392  36.113  1.00  0.00     0.037 A 
BRANCH  47  61
ATOM     61  C   UNL A   1      43.881  28.535  36.095  1.00  0.00     0.058 A 
ATOM     62  C   UNL A   1      45.242  28.869  36.005  1.00  0.00     0.135 A 
ATOM     63  C   UNL A   1      43.520  27.480  36.949  1.00  0.00     0.135 A 
ATOM     64  F   UNL A   1      45.645  29.853  35.187  1.00  0.00    -0.206 F 
ATOM     65  C   UNL A   1      46.208  28.180  36.732  1.00  0.00     0.059 A 
ATOM     66  C   UNL A   1      44.466  26.794  37.704  1.00  0.00     0.059 A 
ATOM     67  F   UNL A   1      42.233  27.117  37.065  1.00  0.00    -0.206 F 
ATOM     68  C   UNL A   1      45.809  27.149  37.586  1.00  0.00     0.060 A 
BRANCH  68  69
ATOM     69  S   UNL A   1      47.070  26.296  38.556  1.00  0.00     0.124 S 
ATOM     70  O   UNL A   1      46.253  25.565  39.520  1.00  0.00    -0.237 OA
ATOM     71  O   UNL A   1      47.740  25.482  37.548  1.00  0.00    -0.237 OA
ATOM     72  O   UNL A   1      47.869  27.385  39.110  1.00  0.00    -0.744 OA
ENDBRANCH  68  69
ENDBRANCH  47  61
BRANCH  48  73
ATOM     73  C   UNL A   1      36.673  33.365  31.088  1.00  0.00     0.058 A 
ATOM     74  C   UNL A   1      35.348  33.235  31.532  1.00  0.00     0.135 A 
ATOM     75  C   UNL A   1      36.902  34.148  29.944  1.00  0.00     0.135 A 
ATOM     76  F   UNL A   1      35.075  32.489  32.614  1.00  0.00    -0.206 F 
ATOM     77  C   UNL A   1      34.289  33.832  30.856  1.00  0.00     0.059 A 
ATOM     78  C   UNL A   1      35.863  34.778  29.267  1.00  0.00     0.059 A 
ATOM     79  F   UNL A   1      38.151  34.315  29.483  1.00  0.00    -0.206 F 
ATOM     80  C   UNL A   1      34.558  34.601  29.722  1.00  0.00     0.060 A 
BRANCH  80  81
ATOM     81  S   UNL A   1      33.179  35.391  28.864  1.00  0.00     0.124 S 
ATOM     82  O   UNL A   1      33.868  36.398  28.066  1.00  0.00    -0.237 OA
ATOM     83  O   UNL A   1      32.600  34.274  28.122  1.00  0.00    -0.237 OA
ATOM     84  O   UNL A   1      32.354  35.903  29.955  1.00  0.00    -0.744 OA
ENDBRANCH  80  81
ENDBRANCH  48  73
BRANCH  60  85
ATOM     85  C   UNL A   1      39.907  34.447  37.173  1.00  0.00     0.058 A 
ATOM     86  C   UNL A   1      39.072  34.256  38.283  1.00  0.00     0.135 A 
ATOM     87  C   UNL A   1      40.644  35.641  37.102  1.00  0.00     0.135 A 
ATOM     88  F   UNL A   1      38.342  33.136  38.395  1.00  0.00    -0.206 F 
ATOM     89  C   UNL A   1      38.952  35.223  39.276  1.00  0.00     0.059 A 
ATOM     90  C   UNL A   1      40.562  36.608  38.098  1.00  0.00     0.059 A 
ATOM     91  F   UNL A   1      41.468  35.867  36.067  1.00  0.00    -0.206 F 
ATOM     92  C   UNL A   1      39.703  36.395  39.175  1.00  0.00     0.060 A 
BRANCH  92  93
ATOM     93  S   UNL A   1      39.563  37.628  40.486  1.00  0.00     0.124 S 
ATOM     94  O   UNL A   1      39.007  36.835  41.577  1.00  0.00    -0.237 OA
ATOM     95  O   UNL A   1      40.947  38.062  40.657  1.00  0.00    -0.237 OA
ATOM     96  O   UNL A   1      38.665  38.629  39.917  1.00  0.00    -0.744 OA
ENDBRANCH  92  93
ENDBRANCH  60  85
ENDBRANCH  34  35
ENDBRANCH  27  29
ENDBRANCH  26  27
ENDBRANCH  25  26
ENDBRANCH   1  25
TORSDOF 19
ENDMDL
MODEL 3
REMARK VINA RESULT:     -10.8      6.770     12.239
REMARK SMILES O=C(C[C@@H]1C[N@@H+]([C@H]2CCCc3sccc32)CCO1)OCCOCCOC(=O)c1ccc(-c2c3nc(c(-c4c(F)cc(S(=O)(=O)[O-])cc4F)c4ccc([nH]4)c(-c4c(F)cc(S(=O)(=O)[O-])cc4F)c4nc(c(-c5c(F)cc(S(=O)(=O)[O-])cc5F)c5ccc2[nH]5)C=C4)C=C3)cc1
REMARK SMILES IDX 23 1 22 2 21 3 20 4 19 5 2 6 1 7 3 8 4 9 5 10 18 11 6 12
REMARK SMILES IDX 17 13 16 14 7 16 8 17 15 18 9 19 11 20 14 21 10 22 12 23
REMARK SMILES IDX 13 24 24 25 25 26 26 27 27 28 28 29 29 30 93 31 30 32 92 33
REMARK SMILES IDX 31 34 32 35 33 36 86 37 34 38 91 39 85 40 87 41 35 42 90 43
REMARK SMILES IDX 84 44 83 45 36 47 70 48 49 49 69 50 50 51 53 52 68 53 88 54
REMARK SMILES IDX 51 55 52 56 67 58 89 59 54 60 37 61 38 62 47 63 39 64 40 65
REMARK SMILES IDX 46 66 48 67 41 68 42 69 43 70 44 71 45 72 71 73 72 74 81 75
REMARK SMILES IDX 73 76 74 77 80 78 82 79 75 80 76 81 77 82 78 83 79 84 55 85
REMARK SMILES IDX 56 86 65 87 57 88 58 89 64 90 66 91 59 92 60 93 61 94 62 95
REMARK SMILES IDX 63 96
REMARK H PARENT 6 15 87 46 53 57
REMARK Flexibility Score: inf
ROOT
ATOM      1  C   UNL A   1      42.264  22.489  25.828  1.00  0.00     0.202 C 
ENDROOT
BRANCH   1   2
ATOM      2  O   UNL A   1      41.730  21.390  26.578  1.00  0.00    -0.374 OA
BRANCH   2   3
ATOM      3  C   UNL A   1      40.340  21.409  26.862  1.00  0.00     0.202 C 
BRANCH   3   4
ATOM      4  C   UNL A   1      39.401  20.965  25.747  1.00  0.00     0.261 C 
BRANCH   4   5
ATOM      5  O   UNL A   1      38.091  21.548  25.767  1.00  0.00    -0.463 OA
BRANCH   5   6
ATOM      6  C   UNL A   1      37.152  21.448  24.801  1.00  0.00     0.308 C 
ATOM      7  O   UNL A   1      37.208  22.197  23.827  1.00  0.00    -0.252 OA
BRANCH   6   8
ATOM      8  C   UNL A   1      35.949  20.558  24.987  1.00  0.00     0.160 C 
BRANCH   8   9
ATOM      9  C   UNL A   1      34.565  21.155  24.814  1.00  0.00     0.184 C 
ATOM     10  C   UNL A   1      34.254  22.366  25.721  1.00  0.00     0.295 C 
ATOM     11  O   UNL A   1      33.594  20.119  25.078  1.00  0.00    -0.366 OA
ATOM     12  N   UNL A   1      32.925  22.938  25.444  1.00  0.00    -0.325 N 
ATOM     13  C   UNL A   1      32.274  20.583  24.761  1.00  0.00     0.222 C 
ATOM     14  C   UNL A   1      31.907  21.886  25.501  1.00  0.00     0.291 C 
ATOM     15  H   UNL A   1      32.674  23.577  26.199  1.00  0.00     0.348 HD
BRANCH  12  16
ATOM     16  C   UNL A   1      32.866  23.941  24.367  1.00  0.00     0.216 C 
ATOM     17  C   UNL A   1      31.896  23.769  23.166  1.00  0.00     0.071 C 
ATOM     18  C   UNL A   1      32.621  25.292  25.007  1.00  0.00     0.023 A 
ATOM     19  C   UNL A   1      30.439  24.169  23.442  1.00  0.00     0.012 C 
ATOM     20  C   UNL A   1      31.443  25.997  24.840  1.00  0.00     0.014 A 
ATOM     21  C   UNL A   1      33.557  26.036  25.794  1.00  0.00     0.022 A 
ATOM     22  C   UNL A   1      30.281  25.590  23.991  1.00  0.00     0.047 C 
ATOM     23  S   UNL A   1      31.443  27.486  25.671  1.00  0.00    -0.148 S 
ATOM     24  C   UNL A   1      33.045  27.243  26.215  1.00  0.00     0.065 A 
ENDBRANCH  12  16
ENDBRANCH   8   9
ENDBRANCH   6   8
ENDBRANCH   5   6
ENDBRANCH   4   5
ENDBRANCH   3   4
ENDBRANCH   2   3
ENDBRANCH   1   2
BRANCH   1  25
ATOM     25  C   UNL A   1      42.472  23.822  26.557  1.00  0.00     0.261 C 
BRANCH  25  26
ATOM     26  O   UNL A   1      41.768  24.901  25.915  1.00  0.00    -0.460 OA
BRANCH  26  27
ATOM     27  C   UNL A   1      40.538  25.172  26.412  1.00  0.00     0.338 C 
ATOM     28  O   UNL A   1      39.480  24.646  26.085  1.00  0.00    -0.246 OA
BRANCH  27  29
ATOM     29  C   UNL A   1      40.666  26.038  27.597  1.00  0.00     0.060 A 
ATOM     30  C   UNL A   1      39.738  25.876  28.635  1.00  0.00     0.016 A 
ATOM     31  C   UNL A   1      41.647  27.027  27.665  1.00  0.00     0.016 A 
ATOM     32  C   UNL A   1      39.766  26.730  29.734  1.00  0.00     0.010 A 
ATOM     33  C   UNL A   1      41.663  27.894  28.761  1.00  0.00     0.010 A 
ATOM     34  C   UNL A   1      40.705  27.768  29.784  1.00  0.00    -0.014 A 
BRANCH  34  35
ATOM     35  C   UNL A   1      40.603  28.809  30.832  1.00  0.00     0.031 A 
ATOM     36  C   UNL A   1      41.478  28.697  32.049  1.00  0.00     0.074 A 
ATOM     37  C   UNL A   1      39.738  29.830  30.697  1.00  0.00     0.049 A 
ATOM     38  N   UNL A   1      41.496  29.434  33.126  1.00  0.00    -0.248 NA
ATOM     39  C   UNL A   1      42.463  27.601  32.052  1.00  0.00     0.031 C 
ATOM     40  C   UNL A   1      38.867  30.053  29.543  1.00  0.00     0.029 A 
ATOM     41  N   UNL A   1      39.438  30.862  31.549  1.00  0.00    -0.354 N 
ATOM     42  C   UNL A   1      42.480  28.887  33.942  1.00  0.00     0.074 A 
ATOM     43  C   UNL A   1      43.027  27.746  33.244  1.00  0.00     0.031 C 
ATOM     44  C   UNL A   1      38.110  31.140  29.772  1.00  0.00     0.029 A 
ATOM     45  C   UNL A   1      38.417  31.666  31.099  1.00  0.00     0.049 A 
ATOM     46  H   UNL A   1      39.908  31.013  32.401  1.00  0.00     0.167 HD
ATOM     47  C   UNL A   1      42.889  29.306  35.163  1.00  0.00     0.037 A 
ATOM     48  C   UNL A   1      37.781  32.686  31.710  1.00  0.00     0.037 A 
ATOM     49  C   UNL A   1      42.338  30.449  35.843  1.00  0.00     0.049 A 
ATOM     50  C   UNL A   1      38.215  33.094  33.095  1.00  0.00     0.074 A 
ATOM     51  C   UNL A   1      42.706  30.980  37.067  1.00  0.00     0.029 A 
ATOM     52  N   UNL A   1      41.299  31.231  35.364  1.00  0.00    -0.354 N 
ATOM     53  N   UNL A   1      39.172  32.591  33.841  1.00  0.00    -0.248 NA
ATOM     54  C   UNL A   1      37.484  34.202  33.723  1.00  0.00     0.031 C 
ATOM     55  C   UNL A   1      41.853  32.051  37.352  1.00  0.00     0.029 A 
ATOM     56  C   UNL A   1      40.990  32.221  36.281  1.00  0.00     0.049 A 
ATOM     57  H   UNL A   1      40.846  31.102  34.499  1.00  0.00     0.167 HD
ATOM     58  C   UNL A   1      39.170  33.338  35.015  1.00  0.00     0.074 A 
ATOM     59  C   UNL A   1      38.131  34.336  34.873  1.00  0.00     0.031 C 
ATOM     60  C   UNL A   1      39.954  33.210  36.115  1.00  0.00     0.037 A 
BRANCH  47  61
ATOM     61  C   UNL A   1      43.965  28.520  35.856  1.00  0.00     0.058 A 
ATOM     62  C   UNL A   1      45.327  28.805  35.669  1.00  0.00     0.135 A 
ATOM     63  C   UNL A   1      43.627  27.513  36.776  1.00  0.00     0.135 A 
ATOM     64  F   UNL A   1      45.707  29.741  34.786  1.00  0.00    -0.206 F 
ATOM     65  C   UNL A   1      46.316  28.116  36.365  1.00  0.00     0.059 A 
ATOM     66  C   UNL A   1      44.598  26.829  37.501  1.00  0.00     0.059 A 
ATOM     67  F   UNL A   1      42.340  27.196  36.986  1.00  0.00    -0.206 F 
ATOM     68  C   UNL A   1      45.940  27.135  37.286  1.00  0.00     0.060 A 
BRANCH  68  69
ATOM     69  S   UNL A   1      47.234  26.283  38.213  1.00  0.00     0.124 S 
ATOM     70  O   UNL A   1      48.145  27.382  38.520  1.00  0.00    -0.237 OA
ATOM     71  O   UNL A   1      46.495  25.738  39.347  1.00  0.00    -0.237 OA
ATOM     72  O   UNL A   1      47.740  25.296  37.265  1.00  0.00    -0.744 OA
ENDBRANCH  68  69
ENDBRANCH  47  61
BRANCH  48  73
ATOM     73  C   UNL A   1      36.645  33.373  31.038  1.00  0.00     0.058 A 
ATOM     74  C   UNL A   1      35.320  33.154  31.441  1.00  0.00     0.135 A 
ATOM     75  C   UNL A   1      36.861  34.245  29.957  1.00  0.00     0.135 A 
ATOM     76  F   UNL A   1      35.059  32.322  32.461  1.00  0.00    -0.206 F 
ATOM     77  C   UNL A   1      34.248  33.751  30.785  1.00  0.00     0.059 A 
ATOM     78  C   UNL A   1      35.808  34.876  29.304  1.00  0.00     0.059 A 
ATOM     79  F   UNL A   1      38.110  34.499  29.538  1.00  0.00    -0.206 F 
ATOM     80  C   UNL A   1      34.503  34.610  29.715  1.00  0.00     0.060 A 
BRANCH  80  81
ATOM     81  S   UNL A   1      33.108  35.398  28.884  1.00  0.00     0.124 S 
ATOM     82  O   UNL A   1      32.543  34.282  28.135  1.00  0.00    -0.237 OA
ATOM     83  O   UNL A   1      32.313  35.879  30.010  1.00  0.00    -0.237 OA
ATOM     84  O   UNL A   1      33.741  36.443  28.083  1.00  0.00    -0.744 OA
ENDBRANCH  80  81
ENDBRANCH  48  73
BRANCH  60  85
ATOM     85  C   UNL A   1      39.737  34.187  37.237  1.00  0.00     0.058 A 
ATOM     86  C   UNL A   1      39.073  33.818  38.417  1.00  0.00     0.135 A 
ATOM     87  C   UNL A   1      40.249  35.493  37.151  1.00  0.00     0.135 A 
ATOM     88  F   UNL A   1      38.561  32.585  38.546  1.00  0.00    -0.206 F 
ATOM     89  C   UNL A   1      38.901  34.718  39.464  1.00  0.00     0.059 A 
ATOM     90  C   UNL A   1      40.114  36.398  38.198  1.00  0.00     0.059 A 
ATOM     91  F   UNL A   1      40.904  35.892  36.050  1.00  0.00    -0.206 F 
ATOM     92  C   UNL A   1      39.427  36.005  39.345  1.00  0.00     0.060 A 
BRANCH  92  93
ATOM     93  S   UNL A   1      39.224  37.153  40.725  1.00  0.00     0.124 S 
ATOM     94  O   UNL A   1      40.610  37.493  41.029  1.00  0.00    -0.237 OA
ATOM     95  O   UNL A   1      38.425  38.219  40.129  1.00  0.00    -0.237 OA
ATOM     96  O   UNL A   1      38.538  36.352  41.734  1.00  0.00    -0.744 OA
ENDBRANCH  92  93
ENDBRANCH  60  85
ENDBRANCH  34  35
ENDBRANCH  27  29
ENDBRANCH  26  27
ENDBRANCH  25  26
ENDBRANCH   1  25
TORSDOF 19
ENDMDL
