MODEL 1
REMARK VINA RESULT:     -12.0      0.000      0.000
REMARK SMILES O=C(OCCOCCOC(=O)c1ccc(-c2c3nc(c(-c4c(F)cc(S(=O)(=O)[O-])cc4F)c4ccc([nH]4)c(-c4c(F)cc(S(=O)(=O)[O-])cc4F)c4nc(c(-c5c(F)cc(S(=O)(=O)[O-])cc5F)c5ccc2[nH]5)C=C4)C=C3)cc1)C1=Cc2cc(Cl)c(Cl)c(Cl)c2O[C@@H]1C(F)(F)F
REMARK SMILES IDX 7 1 6 2 5 3 4 4 3 5 2 6 1 7 78 8 79 9 90 10 80 11 89 12
REMARK SMILES IDX 81 13 88 14 82 15 86 16 83 17 84 18 87 19 85 20 91 21 92 22
REMARK SMILES IDX 93 23 94 24 8 25 9 26 10 27 11 28 12 29 13 30 77 31 14 32
REMARK SMILES IDX 76 33 15 34 16 35 17 36 70 37 18 38 75 39 69 40 71 41 19 42
REMARK SMILES IDX 74 43 68 44 67 45 20 47 54 48 33 49 53 50 34 51 37 52 52 53
REMARK SMILES IDX 72 54 35 55 36 56 51 58 73 59 38 60 21 61 22 62 31 63 23 64
REMARK SMILES IDX 24 65 30 66 32 67 25 68 26 69 27 70 28 71 29 72 55 73 56 74
REMARK SMILES IDX 65 75 57 76 58 77 64 78 66 79 59 80 60 81 61 82 62 83 63 84
REMARK SMILES IDX 39 85 40 86 49 87 41 88 42 89 48 90 50 91 43 92 44 93 45 94
REMARK SMILES IDX 46 95 47 96
REMARK H PARENT 71 46 37 57
REMARK Flexibility Score: inf
ROOT
ATOM      1  C   UNL A   1      35.853  33.003  28.611  1.00  0.00     0.202 C 
ENDROOT
BRANCH   1   2
ATOM      2  O   UNL A   1      34.978  32.399  27.648  1.00  0.00    -0.374 OA
BRANCH   2   3
ATOM      3  C   UNL A   1      34.147  31.057  27.584  1.00  0.00     0.202 C 
BRANCH   3   4
ATOM      4  C   UNL A   1      32.586  30.335  26.240  1.00  0.00     0.261 C 
BRANCH   4   5
ATOM      5  O   UNL A   1      32.746  29.322  25.097  1.00  0.00    -0.460 OA
BRANCH   5   6
ATOM      6  C   UNL A   1      32.584  28.058  25.495  1.00  0.00     0.338 C 
ATOM      7  O   UNL A   1      32.760  27.561  26.578  1.00  0.00    -0.246 OA
BRANCH   6   8
ATOM      8  C   UNL A   1      32.500  27.498  24.164  1.00  0.00     0.087 C 
ATOM      9  C   UNL A   1      33.722  26.717  23.834  1.00  0.00     0.027 C 
ATOM     10  C   UNL A   1      30.729  26.744  24.364  1.00  0.00     0.316 C 
ATOM     11  C   UNL A   1      33.757  24.901  23.759  1.00  0.00     0.020 A 
ATOM     12  O   UNL A   1      30.764  24.814  24.349  1.00  0.00    -0.474 OA
ATOM     13  C   UNL A   1      34.972  24.283  23.663  1.00  0.00     0.034 A 
ATOM     14  C   UNL A   1      32.361  23.942  24.137  1.00  0.00     0.148 A 
ATOM     15  C   UNL A   1      34.979  22.913  23.983  1.00  0.00     0.062 A 
ATOM     16  C   UNL A   1      32.495  22.657  24.601  1.00  0.00     0.103 A 
ATOM     17  Cl  UNL A   1      36.549  22.162  23.806  1.00  0.00    -0.083 Cl
ATOM     18  C   UNL A   1      33.830  22.155  24.496  1.00  0.00     0.082 A 
ATOM     19  Cl  UNL A   1      31.258  21.932  25.533  1.00  0.00    -0.079 Cl
ATOM     20  Cl  UNL A   1      34.193  20.565  25.120  1.00  0.00    -0.081 Cl
BRANCH  10  21
ATOM     21  C   UNL A   1      29.936  27.797  23.481  1.00  0.00     0.430 C 
ATOM     22  F   UNL A   1      30.267  27.843  22.180  1.00  0.00    -0.167 F 
ATOM     23  F   UNL A   1      28.622  27.411  23.489  1.00  0.00    -0.167 F 
ATOM     24  F   UNL A   1      29.912  29.053  23.981  1.00  0.00    -0.167 F 
ENDBRANCH  10  21
ENDBRANCH   6   8
ENDBRANCH   5   6
ENDBRANCH   4   5
ENDBRANCH   3   4
ENDBRANCH   2   3
ENDBRANCH   1   2
BRANCH   1  25
ATOM     25  C   UNL A   1      35.690  32.748  30.095  1.00  0.00     0.261 C 
BRANCH  25  26
ATOM     26  O   UNL A   1      36.876  32.282  30.696  1.00  0.00    -0.460 OA
BRANCH  26  27
ATOM     27  C   UNL A   1      36.905  30.952  30.918  1.00  0.00     0.338 C 
ATOM     28  O   UNL A   1      36.015  30.246  31.355  1.00  0.00    -0.246 OA
BRANCH  27  29
ATOM     29  C   UNL A   1      38.227  30.487  30.481  1.00  0.00     0.060 A 
ATOM     30  C   UNL A   1      38.464  30.343  29.113  1.00  0.00     0.016 A 
ATOM     31  C   UNL A   1      39.243  30.267  31.423  1.00  0.00     0.016 A 
ATOM     32  C   UNL A   1      39.749  30.033  28.680  1.00  0.00     0.010 A 
ATOM     33  C   UNL A   1      40.524  29.970  30.989  1.00  0.00     0.010 A 
ATOM     34  C   UNL A   1      40.778  29.857  29.616  1.00  0.00    -0.014 A 
BRANCH  34  35
ATOM     35  C   UNL A   1      42.074  29.297  29.205  1.00  0.00     0.031 A 
ATOM     36  C   UNL A   1      43.204  30.266  29.086  1.00  0.00     0.074 A 
ATOM     37  C   UNL A   1      42.212  28.006  28.866  1.00  0.00     0.049 A 
ATOM     38  N   UNL A   1      44.409  30.077  28.629  1.00  0.00    -0.248 NA
ATOM     39  C   UNL A   1      42.918  31.648  29.510  1.00  0.00     0.031 C 
ATOM     40  C   UNL A   1      41.159  26.999  28.934  1.00  0.00     0.029 A 
ATOM     41  N   UNL A   1      43.292  27.326  28.369  1.00  0.00    -0.354 N 
ATOM     42  C   UNL A   1      45.023  31.318  28.699  1.00  0.00     0.074 A 
ATOM     43  C   UNL A   1      44.049  32.258  29.205  1.00  0.00     0.031 C 
ATOM     44  C   UNL A   1      41.643  25.822  28.508  1.00  0.00     0.029 A 
ATOM     45  C   UNL A   1      43.020  26.013  28.060  1.00  0.00     0.049 A 
ATOM     46  H   UNL A   1      44.179  27.736  28.244  1.00  0.00     0.167 HD
ATOM     47  C   UNL A   1      46.290  31.638  28.362  1.00  0.00     0.037 A 
ATOM     48  C   UNL A   1      43.782  25.091  27.442  1.00  0.00     0.037 A 
ATOM     49  C   UNL A   1      47.216  30.692  27.806  1.00  0.00     0.049 A 
ATOM     50  C   UNL A   1      45.172  25.482  27.014  1.00  0.00     0.074 A 
ATOM     51  C   UNL A   1      48.529  30.896  27.433  1.00  0.00     0.029 A 
ATOM     52  N   UNL A   1      46.910  29.369  27.511  1.00  0.00    -0.354 N 
ATOM     53  N   UNL A   1      45.772  26.645  27.128  1.00  0.00    -0.248 NA
ATOM     54  C   UNL A   1      45.991  24.445  26.374  1.00  0.00     0.031 C 
ATOM     55  C   UNL A   1      48.993  29.720  26.837  1.00  0.00     0.029 A 
ATOM     56  C   UNL A   1      48.002  28.752  26.926  1.00  0.00     0.049 A 
ATOM     57  H   UNL A   1      46.045  28.935  27.691  1.00  0.00     0.167 HD
ATOM     58  C   UNL A   1      47.048  26.472  26.607  1.00  0.00     0.074 A 
ATOM     59  C   UNL A   1      47.132  25.092  26.172  1.00  0.00     0.031 C 
ATOM     60  C   UNL A   1      48.061  27.370  26.509  1.00  0.00     0.037 A 
BRANCH  47  61
ATOM     61  C   UNL A   1      46.688  33.077  28.520  1.00  0.00     0.058 A 
ATOM     62  C   UNL A   1      47.211  33.578  29.725  1.00  0.00     0.135 A 
ATOM     63  C   UNL A   1      46.478  33.985  27.470  1.00  0.00     0.135 A 
ATOM     64  F   UNL A   1      47.404  32.761  30.774  1.00  0.00    -0.206 F 
ATOM     65  C   UNL A   1      47.458  34.935  29.900  1.00  0.00     0.059 A 
ATOM     66  C   UNL A   1      46.758  35.339  27.610  1.00  0.00     0.059 A 
ATOM     67  F   UNL A   1      45.968  33.564  26.303  1.00  0.00    -0.206 F 
ATOM     68  C   UNL A   1      47.223  35.808  28.837  1.00  0.00     0.060 A 
BRANCH  68  69
ATOM     69  S   UNL A   1      47.509  37.570  29.093  1.00  0.00     0.124 S 
ATOM     70  O   UNL A   1      48.547  37.842  28.103  1.00  0.00    -0.237 OA
ATOM     71  O   UNL A   1      46.198  38.142  28.808  1.00  0.00    -0.237 OA
ATOM     72  O   UNL A   1      47.936  37.647  30.486  1.00  0.00    -0.744 OA
ENDBRANCH  68  69
ENDBRANCH  47  61
BRANCH  48  73
ATOM     73  C   UNL A   1      43.230  23.735  27.177  1.00  0.00     0.058 A 
ATOM     74  C   UNL A   1      42.779  23.366  25.901  1.00  0.00     0.135 A 
ATOM     75  C   UNL A   1      43.199  22.757  28.186  1.00  0.00     0.135 A 
ATOM     76  F   UNL A   1      42.773  24.265  24.906  1.00  0.00    -0.206 F 
ATOM     77  C   UNL A   1      42.325  22.078  25.632  1.00  0.00     0.059 A 
ATOM     78  C   UNL A   1      42.775  21.456  27.934  1.00  0.00     0.059 A 
ATOM     79  F   UNL A   1      43.625  23.054  29.423  1.00  0.00    -0.206 F 
ATOM     80  C   UNL A   1      42.341  21.124  26.652  1.00  0.00     0.060 A 
BRANCH  80  81
ATOM     81  S   UNL A   1      41.844  19.432  26.264  1.00  0.00     0.124 S 
ATOM     82  O   UNL A   1      42.267  18.715  27.461  1.00  0.00    -0.237 OA
ATOM     83  O   UNL A   1      40.403  19.574  26.081  1.00  0.00    -0.237 OA
ATOM     84  O   UNL A   1      42.595  19.128  25.049  1.00  0.00    -0.744 OA
ENDBRANCH  80  81
ENDBRANCH  48  73
BRANCH  60  85
ATOM     85  C   UNL A   1      49.380  26.887  25.968  1.00  0.00     0.058 A 
ATOM     86  C   UNL A   1      49.735  27.035  24.620  1.00  0.00     0.135 A 
ATOM     87  C   UNL A   1      50.346  26.374  26.850  1.00  0.00     0.135 A 
ATOM     88  F   UNL A   1      48.848  27.513  23.733  1.00  0.00    -0.206 F 
ATOM     89  C   UNL A   1      51.003  26.686  24.164  1.00  0.00     0.059 A 
ATOM     90  C   UNL A   1      51.628  26.053  26.423  1.00  0.00     0.059 A 
ATOM     91  F   UNL A   1      50.060  26.222  28.153  1.00  0.00    -0.206 F 
ATOM     92  C   UNL A   1      51.947  26.209  25.077  1.00  0.00     0.060 A 
BRANCH  92  93
ATOM     93  S   UNL A   1      53.610  25.834  24.485  1.00  0.00     0.124 S 
ATOM     94  O   UNL A   1      53.499  26.159  23.067  1.00  0.00    -0.237 OA
ATOM     95  O   UNL A   1      54.434  26.741  25.281  1.00  0.00    -0.237 OA
ATOM     96  O   UNL A   1      53.771  24.416  24.793  1.00  0.00    -0.744 OA
ENDBRANCH  92  93
ENDBRANCH  60  85
ENDBRANCH  34  35
ENDBRANCH  27  29
ENDBRANCH  26  27
ENDBRANCH  25  26
ENDBRANCH   1  25
TORSDOF 18
ENDMDL
MODEL 2
REMARK VINA RESULT:     -12.0      6.586     13.624
REMARK SMILES O=C(OCCOCCOC(=O)c1ccc(-c2c3nc(c(-c4c(F)cc(S(=O)(=O)[O-])cc4F)c4ccc([nH]4)c(-c4c(F)cc(S(=O)(=O)[O-])cc4F)c4nc(c(-c5c(F)cc(S(=O)(=O)[O-])cc5F)c5ccc2[nH]5)C=C4)C=C3)cc1)C1=Cc2cc(Cl)c(Cl)c(Cl)c2O[C@@H]1C(F)(F)F
REMARK SMILES IDX 7 1 6 2 5 3 4 4 3 5 2 6 1 7 78 8 79 9 90 10 80 11 89 12
REMARK SMILES IDX 81 13 88 14 82 15 86 16 83 17 84 18 87 19 85 20 91 21 92 22
REMARK SMILES IDX 93 23 94 24 8 25 9 26 10 27 11 28 12 29 13 30 77 31 14 32
REMARK SMILES IDX 76 33 15 34 16 35 17 36 70 37 18 38 75 39 69 40 71 41 19 42
REMARK SMILES IDX 74 43 68 44 67 45 20 47 54 48 33 49 53 50 34 51 37 52 52 53
REMARK SMILES IDX 72 54 35 55 36 56 51 58 73 59 38 60 21 61 22 62 31 63 23 64
REMARK SMILES IDX 24 65 30 66 32 67 25 68 26 69 27 70 28 71 29 72 55 73 56 74
REMARK SMILES IDX 65 75 57 76 58 77 64 78 66 79 59 80 60 81 61 82 62 83 63 84
REMARK SMILES IDX 39 85 40 86 49 87 41 88 42 89 48 90 50 91 43 92 44 93 45 94
REMARK SMILES IDX 46 95 47 96
REMARK H PARENT 71 46 37 57
REMARK Flexibility Score: inf
ROOT
ATOM      1  C   UNL A   1      41.500  21.287  26.368  1.00  0.00     0.202 C 
ENDROOT
BRANCH   1   2
ATOM      2  O   UNL A   1      42.528  21.508  25.392  1.00  0.00    -0.374 OA
BRANCH   2   3
ATOM      3  C   UNL A   1      44.095  21.704  25.447  1.00  0.00     0.202 C 
BRANCH   3   4
ATOM      4  C   UNL A   1      45.482  22.941  24.302  1.00  0.00     0.261 C 
BRANCH   4   5
ATOM      5  O   UNL A   1      45.945  24.366  24.640  1.00  0.00    -0.460 OA
BRANCH   5   6
ATOM      6  C   UNL A   1      46.402  24.482  25.889  1.00  0.00     0.338 C 
ATOM      7  O   UNL A   1      47.300  23.899  26.439  1.00  0.00    -0.246 OA
BRANCH   6   8
ATOM      8  C   UNL A   1      45.265  25.223  26.389  1.00  0.00     0.087 C 
ATOM      9  C   UNL A   1      44.553  24.460  27.448  1.00  0.00     0.027 C 
ATOM     10  C   UNL A   1      46.210  26.889  26.674  1.00  0.00     0.316 C 
ATOM     11  C   UNL A   1      44.631  24.889  29.212  1.00  0.00     0.020 A 
ATOM     12  O   UNL A   1      46.351  27.322  28.551  1.00  0.00    -0.474 OA
ATOM     13  C   UNL A   1      44.120  24.000  30.115  1.00  0.00     0.034 A 
ATOM     14  C   UNL A   1      45.608  26.201  29.793  1.00  0.00     0.148 A 
ATOM     15  C   UNL A   1      44.532  24.190  31.448  1.00  0.00     0.062 A 
ATOM     16  C   UNL A   1      46.093  26.201  31.077  1.00  0.00     0.103 A 
ATOM     17  Cl  UNL A   1      43.820  23.050  32.569  1.00  0.00    -0.083 Cl
ATOM     18  C   UNL A   1      45.518  25.180  31.899  1.00  0.00     0.082 A 
ATOM     19  Cl  UNL A   1      47.496  27.093  31.481  1.00  0.00    -0.079 Cl
ATOM     20  Cl  UNL A   1      46.087  24.986  33.539  1.00  0.00    -0.081 Cl
BRANCH  10  21
ATOM     21  C   UNL A   1      45.619  27.696  25.442  1.00  0.00     0.430 C 
ATOM     22  F   UNL A   1      44.282  27.673  25.309  1.00  0.00    -0.167 F 
ATOM     23  F   UNL A   1      45.923  29.014  25.650  1.00  0.00    -0.167 F 
ATOM     24  F   UNL A   1      46.191  27.410  24.250  1.00  0.00    -0.167 F 
ENDBRANCH  10  21
ENDBRANCH   6   8
ENDBRANCH   5   6
ENDBRANCH   4   5
ENDBRANCH   3   4
ENDBRANCH   2   3
ENDBRANCH   1   2
BRANCH   1  25
ATOM     25  C   UNL A   1      40.380  22.285  26.574  1.00  0.00     0.261 C 
BRANCH  25  26
ATOM     26  O   UNL A   1      40.763  23.362  27.400  1.00  0.00    -0.460 OA
BRANCH  26  27
ATOM     27  C   UNL A   1      41.117  24.479  26.733  1.00  0.00     0.338 C 
ATOM     28  O   UNL A   1      41.440  24.584  25.565  1.00  0.00    -0.246 OA
BRANCH  27  29
ATOM     29  C   UNL A   1      40.995  25.588  27.688  1.00  0.00     0.060 A 
ATOM     30  C   UNL A   1      41.874  26.667  27.570  1.00  0.00     0.016 A 
ATOM     31  C   UNL A   1      39.969  25.586  28.645  1.00  0.00     0.016 A 
ATOM     32  C   UNL A   1      41.685  27.781  28.381  1.00  0.00     0.010 A 
ATOM     33  C   UNL A   1      39.776  26.701  29.441  1.00  0.00     0.010 A 
ATOM     34  C   UNL A   1      40.632  27.801  29.307  1.00  0.00    -0.014 A 
BRANCH  34  35
ATOM     35  C   UNL A   1      40.559  28.854  30.331  1.00  0.00     0.031 A 
ATOM     36  C   UNL A   1      41.465  28.696  31.507  1.00  0.00     0.074 A 
ATOM     37  C   UNL A   1      39.663  29.851  30.259  1.00  0.00     0.049 A 
ATOM     38  N   UNL A   1      41.523  29.395  32.604  1.00  0.00    -0.248 NA
ATOM     39  C   UNL A   1      42.412  27.568  31.446  1.00  0.00     0.031 C 
ATOM     40  C   UNL A   1      38.731  30.069  29.159  1.00  0.00     0.029 A 
ATOM     41  N   UNL A   1      39.373  30.854  31.145  1.00  0.00    -0.354 N 
ATOM     42  C   UNL A   1      42.505  28.786  33.371  1.00  0.00     0.074 A 
ATOM     43  C   UNL A   1      42.987  27.642  32.632  1.00  0.00     0.031 C 
ATOM     44  C   UNL A   1      37.976  31.146  29.424  1.00  0.00     0.029 A 
ATOM     45  C   UNL A   1      38.319  31.646  30.752  1.00  0.00     0.049 A 
ATOM     46  H   UNL A   1      39.870  30.995  31.984  1.00  0.00     0.167 HD
ATOM     47  C   UNL A   1      42.954  29.153  34.589  1.00  0.00     0.037 A 
ATOM     48  C   UNL A   1      37.678  32.628  31.415  1.00  0.00     0.037 A 
ATOM     49  C   UNL A   1      42.412  30.262  35.323  1.00  0.00     0.049 A 
ATOM     50  C   UNL A   1      38.150  32.984  32.799  1.00  0.00     0.074 A 
ATOM     51  C   UNL A   1      42.791  30.736  36.563  1.00  0.00     0.029 A 
ATOM     52  N   UNL A   1      41.349  31.047  34.895  1.00  0.00    -0.354 N 
ATOM     53  N   UNL A   1      39.114  32.440  33.505  1.00  0.00    -0.248 NA
ATOM     54  C   UNL A   1      37.453  34.082  33.481  1.00  0.00     0.031 C 
ATOM     55  C   UNL A   1      41.905  31.757  36.920  1.00  0.00     0.029 A 
ATOM     56  C   UNL A   1      41.034  31.983  35.863  1.00  0.00     0.049 A 
ATOM     57  H   UNL A   1      40.888  30.952  34.030  1.00  0.00     0.167 HD
ATOM     58  C   UNL A   1      39.164  33.149  34.699  1.00  0.00     0.074 A 
ATOM     59  C   UNL A   1      38.128  34.159  34.622  1.00  0.00     0.031 C 
ATOM     60  C   UNL A   1      40.000  32.986  35.756  1.00  0.00     0.037 A 
BRANCH  47  61
ATOM     61  C   UNL A   1      44.019  28.291  35.205  1.00  0.00     0.058 A 
ATOM     62  C   UNL A   1      43.709  27.206  36.043  1.00  0.00     0.135 A 
ATOM     63  C   UNL A   1      45.374  28.599  35.006  1.00  0.00     0.135 A 
ATOM     64  F   UNL A   1      42.429  26.886  36.294  1.00  0.00    -0.206 F 
ATOM     65  C   UNL A   1      44.703  26.495  36.706  1.00  0.00     0.059 A 
ATOM     66  C   UNL A   1      46.385  27.874  35.625  1.00  0.00     0.059 A 
ATOM     67  F   UNL A   1      45.727  29.632  34.226  1.00  0.00    -0.206 F 
ATOM     68  C   UNL A   1      46.038  26.841  36.494  1.00  0.00     0.060 A 
BRANCH  68  69
ATOM     69  S   UNL A   1      47.312  25.935  37.392  1.00  0.00     0.124 S 
ATOM     70  O   UNL A   1      46.587  24.733  37.794  1.00  0.00    -0.237 OA
ATOM     71  O   UNL A   1      48.335  25.744  36.369  1.00  0.00    -0.237 OA
ATOM     72  O   UNL A   1      47.675  26.841  38.477  1.00  0.00    -0.744 OA
ENDBRANCH  68  69
ENDBRANCH  47  61
BRANCH  48  73
ATOM     73  C   UNL A   1      36.517  33.309  30.780  1.00  0.00     0.058 A 
ATOM     74  C   UNL A   1      35.213  33.140  31.269  1.00  0.00     0.135 A 
ATOM     75  C   UNL A   1      36.698  34.195  29.703  1.00  0.00     0.135 A 
ATOM     76  F   UNL A   1      34.983  32.295  32.284  1.00  0.00    -0.206 F 
ATOM     77  C   UNL A   1      34.133  33.828  30.722  1.00  0.00     0.059 A 
ATOM     78  C   UNL A   1      35.639  34.914  29.158  1.00  0.00     0.059 A 
ATOM     79  F   UNL A   1      37.925  34.400  29.201  1.00  0.00    -0.206 F 
ATOM     80  C   UNL A   1      34.359  34.725  29.676  1.00  0.00     0.060 A 
BRANCH  80  81
ATOM     81  S   UNL A   1      32.966  35.685  29.042  1.00  0.00     0.124 S 
ATOM     82  O   UNL A   1      32.327  34.727  28.147  1.00  0.00    -0.237 OA
ATOM     83  O   UNL A   1      32.235  36.002  30.265  1.00  0.00    -0.237 OA
ATOM     84  O   UNL A   1      33.608  36.824  28.392  1.00  0.00    -0.744 OA
ENDBRANCH  80  81
ENDBRANCH  48  73
BRANCH  60  85
ATOM     85  C   UNL A   1      39.882  33.957  36.901  1.00  0.00     0.058 A 
ATOM     86  C   UNL A   1      40.446  35.240  36.855  1.00  0.00     0.135 A 
ATOM     87  C   UNL A   1      39.087  33.627  38.012  1.00  0.00     0.135 A 
ATOM     88  F   UNL A   1      41.220  35.605  35.820  1.00  0.00    -0.206 F 
ATOM     89  C   UNL A   1      40.228  36.163  37.875  1.00  0.00     0.059 A 
ATOM     90  C   UNL A   1      38.828  34.544  39.023  1.00  0.00     0.059 A 
ATOM     91  F   UNL A   1      38.517  32.415  38.099  1.00  0.00    -0.206 F 
ATOM     92  C   UNL A   1      39.407  35.809  38.948  1.00  0.00     0.060 A 
BRANCH  92  93
ATOM     93  S   UNL A   1      39.071  37.040  40.223  1.00  0.00     0.124 S 
ATOM     94  O   UNL A   1      38.116  36.335  41.070  1.00  0.00    -0.237 OA
ATOM     95  O   UNL A   1      40.395  37.256  40.802  1.00  0.00    -0.237 OA
ATOM     96  O   UNL A   1      38.530  38.170  39.473  1.00  0.00    -0.744 OA
ENDBRANCH  92  93
ENDBRANCH  60  85
ENDBRANCH  34  35
ENDBRANCH  27  29
ENDBRANCH  26  27
ENDBRANCH  25  26
ENDBRANCH   1  25
TORSDOF 18
ENDMDL
MODEL 3
REMARK VINA RESULT:     -11.9      6.583     11.814
REMARK SMILES O=C(OCCOCCOC(=O)c1ccc(-c2c3nc(c(-c4c(F)cc(S(=O)(=O)[O-])cc4F)c4ccc([nH]4)c(-c4c(F)cc(S(=O)(=O)[O-])cc4F)c4nc(c(-c5c(F)cc(S(=O)(=O)[O-])cc5F)c5ccc2[nH]5)C=C4)C=C3)cc1)C1=Cc2cc(Cl)c(Cl)c(Cl)c2O[C@@H]1C(F)(F)F
REMARK SMILES IDX 7 1 6 2 5 3 4 4 3 5 2 6 1 7 78 8 79 9 90 10 80 11 89 12
REMARK SMILES IDX 81 13 88 14 82 15 86 16 83 17 84 18 87 19 85 20 91 21 92 22
REMARK SMILES IDX 93 23 94 24 8 25 9 26 10 27 11 28 12 29 13 30 77 31 14 32
REMARK SMILES IDX 76 33 15 34 16 35 17 36 70 37 18 38 75 39 69 40 71 41 19 42
REMARK SMILES IDX 74 43 68 44 67 45 20 47 54 48 33 49 53 50 34 51 37 52 52 53
REMARK SMILES IDX 72 54 35 55 36 56 51 58 73 59 38 60 21 61 22 62 31 63 23 64
REMARK SMILES IDX 24 65 30 66 32 67 25 68 26 69 27 70 28 71 29 72 55 73 56 74
REMARK SMILES IDX 65 75 57 76 58 77 64 78 66 79 59 80 60 81 61 82 62 83 63 84
REMARK SMILES IDX 39 85 40 86 49 87 41 88 42 89 48 90 50 91 43 92 44 93 45 94
REMARK SMILES IDX 46 95 47 96
REMARK H PARENT 71 46 37 57
REMARK Flexibility Score: inf
ROOT
ATOM      1  C   UNL A   1      41.665  22.330  26.419  1.00  0.00     0.202 C 
ENDROOT
BRANCH   1   2
ATOM      2  O   UNL A   1      40.593  21.674  25.726  1.00  0.00    -0.374 OA
BRANCH   2   3
ATOM      3  C   UNL A   1      39.082  21.352  26.058  1.00  0.00     0.202 C 
BRANCH   3   4
ATOM      4  C   UNL A   1      37.203  21.836  25.060  1.00  0.00     0.261 C 
BRANCH   4   5
ATOM      5  O   UNL A   1      36.961  22.956  24.036  1.00  0.00    -0.460 OA
BRANCH   5   6
ATOM      6  C   UNL A   1      35.696  23.012  23.615  1.00  0.00     0.338 C 
ATOM      7  O   UNL A   1      35.258  23.191  22.508  1.00  0.00    -0.246 OA
BRANCH   6   8
ATOM      8  C   UNL A   1      35.113  23.151  24.931  1.00  0.00     0.087 C 
ATOM      9  C   UNL A   1      35.198  24.556  25.409  1.00  0.00     0.027 C 
ATOM     10  C   UNL A   1      33.463  22.220  24.530  1.00  0.00     0.316 C 
ATOM     11  C   UNL A   1      33.764  25.669  25.502  1.00  0.00     0.020 A 
ATOM     12  O   UNL A   1      31.942  23.408  24.565  1.00  0.00    -0.474 OA
ATOM     13  C   UNL A   1      33.991  26.994  25.746  1.00  0.00     0.034 A 
ATOM     14  C   UNL A   1      32.187  25.176  24.970  1.00  0.00     0.148 A 
ATOM     15  C   UNL A   1      32.922  27.856  25.439  1.00  0.00     0.062 A 
ATOM     16  C   UNL A   1      31.271  26.102  24.536  1.00  0.00     0.103 A 
ATOM     17  Cl  UNL A   1      33.249  29.535  25.806  1.00  0.00    -0.083 Cl
ATOM     18  C   UNL A   1      31.661  27.452  24.801  1.00  0.00     0.082 A 
ATOM     19  Cl  UNL A   1      30.011  25.650  23.471  1.00  0.00    -0.079 Cl
ATOM     20  Cl  UNL A   1      30.649  28.758  24.237  1.00  0.00    -0.081 Cl
BRANCH  10  21
ATOM     21  C   UNL A   1      33.773  20.871  25.306  1.00  0.00     0.430 C 
ATOM     22  F   UNL A   1      34.262  21.004  26.550  1.00  0.00    -0.167 F 
ATOM     23  F   UNL A   1      32.576  20.227  25.473  1.00  0.00    -0.167 F 
ATOM     24  F   UNL A   1      34.530  19.984  24.620  1.00  0.00    -0.167 F 
ENDBRANCH  10  21
ENDBRANCH   6   8
ENDBRANCH   5   6
ENDBRANCH   4   5
ENDBRANCH   3   4
ENDBRANCH   2   3
ENDBRANCH   1   2
BRANCH   1  25
ATOM     25  C   UNL A   1      42.066  23.752  26.087  1.00  0.00     0.261 C 
BRANCH  25  26
ATOM     26  O   UNL A   1      41.018  24.671  26.293  1.00  0.00    -0.460 OA
BRANCH  26  27
ATOM     27  C   UNL A   1      41.345  25.956  26.048  1.00  0.00     0.338 C 
ATOM     28  O   UNL A   1      41.655  26.461  24.985  1.00  0.00    -0.246 OA
BRANCH  27  29
ATOM     29  C   UNL A   1      41.213  26.669  27.325  1.00  0.00     0.060 A 
ATOM     30  C   UNL A   1      40.318  26.173  28.275  1.00  0.00     0.016 A 
ATOM     31  C   UNL A   1      42.028  27.778  27.600  1.00  0.00     0.016 A 
ATOM     32  C   UNL A   1      40.281  26.759  29.536  1.00  0.00     0.010 A 
ATOM     33  C   UNL A   1      41.997  28.351  28.860  1.00  0.00     0.010 A 
ATOM     34  C   UNL A   1      41.126  27.838  29.830  1.00  0.00    -0.014 A 
BRANCH  34  35
ATOM     35  C   UNL A   1      40.937  28.621  31.061  1.00  0.00     0.031 A 
ATOM     36  C   UNL A   1      39.852  29.645  31.032  1.00  0.00     0.074 A 
ATOM     37  C   UNL A   1      41.753  28.486  32.118  1.00  0.00     0.049 A 
ATOM     38  N   UNL A   1      39.547  30.550  31.917  1.00  0.00    -0.248 NA
ATOM     39  C   UNL A   1      39.019  29.670  29.816  1.00  0.00     0.031 C 
ATOM     40  C   UNL A   1      42.846  27.526  32.222  1.00  0.00     0.029 A 
ATOM     41  N   UNL A   1      41.805  29.180  33.298  1.00  0.00    -0.354 N 
ATOM     42  C   UNL A   1      38.494  31.262  31.362  1.00  0.00     0.074 A 
ATOM     43  C   UNL A   1      38.238  30.709  30.051  1.00  0.00     0.031 C 
ATOM     44  C   UNL A   1      43.458  27.679  33.407  1.00  0.00     0.029 A 
ATOM     45  C   UNL A   1      42.848  28.803  34.110  1.00  0.00     0.049 A 
ATOM     46  H   UNL A   1      41.157  29.881  33.541  1.00  0.00     0.167 HD
ATOM     47  C   UNL A   1      37.810  32.291  31.904  1.00  0.00     0.037 A 
ATOM     48  C   UNL A   1      43.286  29.341  35.265  1.00  0.00     0.037 A 
ATOM     49  C   UNL A   1      38.127  32.855  33.185  1.00  0.00     0.049 A 
ATOM     50  C   UNL A   1      42.551  30.529  35.826  1.00  0.00     0.074 A 
ATOM     51  C   UNL A   1      37.500  33.894  33.843  1.00  0.00     0.029 A 
ATOM     52  N   UNL A   1      39.187  32.447  33.986  1.00  0.00    -0.354 N 
ATOM     53  N   UNL A   1      41.521  31.171  35.324  1.00  0.00    -0.248 NA
ATOM     54  C   UNL A   1      43.030  31.070  37.103  1.00  0.00     0.031 C 
ATOM     55  C   UNL A   1      38.229  34.168  35.004  1.00  0.00     0.029 A 
ATOM     56  C   UNL A   1      39.253  33.238  35.119  1.00  0.00     0.049 A 
ATOM     57  H   UNL A   1      39.800  31.705  33.779  1.00  0.00     0.167 HD
ATOM     58  C   UNL A   1      41.206  32.169  36.239  1.00  0.00     0.074 A 
ATOM     59  C   UNL A   1      42.160  32.049  37.323  1.00  0.00     0.031 C 
ATOM     60  C   UNL A   1      40.211  33.091  36.190  1.00  0.00     0.037 A 
BRANCH  47  61
ATOM     61  C   UNL A   1      36.721  32.894  31.064  1.00  0.00     0.058 A 
ATOM     62  C   UNL A   1      36.985  33.879  30.096  1.00  0.00     0.135 A 
ATOM     63  C   UNL A   1      35.382  32.530  31.279  1.00  0.00     0.135 A 
ATOM     64  F   UNL A   1      38.244  34.289  29.869  1.00  0.00    -0.206 F 
ATOM     65  C   UNL A   1      35.956  34.520  29.414  1.00  0.00     0.059 A 
ATOM     66  C   UNL A   1      34.342  33.127  30.578  1.00  0.00     0.059 A 
ATOM     67  F   UNL A   1      35.073  31.605  32.200  1.00  0.00    -0.206 F 
ATOM     68  C   UNL A   1      34.637  34.140  29.667  1.00  0.00     0.060 A 
BRANCH  68  69
ATOM     69  S   UNL A   1      33.313  35.007  28.804  1.00  0.00     0.124 S 
ATOM     70  O   UNL A   1      32.789  33.954  27.941  1.00  0.00    -0.237 OA
ATOM     71  O   UNL A   1      32.443  35.416  29.903  1.00  0.00    -0.237 OA
ATOM     72  O   UNL A   1      34.006  36.093  28.118  1.00  0.00    -0.744 OA
ENDBRANCH  68  69
ENDBRANCH  47  61
BRANCH  48  73
ATOM     73  C   UNL A   1      44.486  28.771  35.936  1.00  0.00     0.058 A 
ATOM     74  C   UNL A   1      44.382  27.697  36.832  1.00  0.00     0.135 A 
ATOM     75  C   UNL A   1      45.775  29.253  35.646  1.00  0.00     0.135 A 
ATOM     76  F   UNL A   1      43.175  27.209  37.155  1.00  0.00    -0.206 F 
ATOM     77  C   UNL A   1      45.507  27.115  37.408  1.00  0.00     0.059 A 
ATOM     78  C   UNL A   1      46.916  28.671  36.188  1.00  0.00     0.059 A 
ATOM     79  F   UNL A   1      45.933  30.274  34.790  1.00  0.00    -0.206 F 
ATOM     80  C   UNL A   1      46.772  27.600  37.068  1.00  0.00     0.060 A 
BRANCH  80  81
ATOM     81  S   UNL A   1      48.228  26.773  37.747  1.00  0.00     0.124 S 
ATOM     82  O   UNL A   1      49.293  27.702  37.387  1.00  0.00    -0.237 OA
ATOM     83  O   UNL A   1      47.899  26.697  39.167  1.00  0.00    -0.237 OA
ATOM     84  O   UNL A   1      48.246  25.492  37.047  1.00  0.00    -0.744 OA
ENDBRANCH  80  81
ENDBRANCH  48  73
BRANCH  60  85
ATOM     85  C   UNL A   1      40.050  34.013  37.368  1.00  0.00     0.058 A 
ATOM     86  C   UNL A   1      40.628  35.291  37.404  1.00  0.00     0.135 A 
ATOM     87  C   UNL A   1      39.200  33.647  38.426  1.00  0.00     0.135 A 
ATOM     88  F   UNL A   1      41.453  35.690  36.423  1.00  0.00    -0.206 F 
ATOM     89  C   UNL A   1      40.371  36.172  38.451  1.00  0.00     0.059 A 
ATOM     90  C   UNL A   1      38.903  34.523  39.462  1.00  0.00     0.059 A 
ATOM     91  F   UNL A   1      38.614  32.439  38.435  1.00  0.00    -0.206 F 
ATOM     92  C   UNL A   1      39.497  35.782  39.469  1.00  0.00     0.060 A 
BRANCH  92  93
ATOM     93  S   UNL A   1      39.114  36.963  40.778  1.00  0.00     0.124 S 
ATOM     94  O   UNL A   1      38.304  37.944  40.064  1.00  0.00    -0.237 OA
ATOM     95  O   UNL A   1      38.400  36.133  41.745  1.00  0.00    -0.237 OA
ATOM     96  O   UNL A   1      40.427  37.430  41.212  1.00  0.00    -0.744 OA
ENDBRANCH  92  93
ENDBRANCH  60  85
ENDBRANCH  34  35
ENDBRANCH  27  29
ENDBRANCH  26  27
ENDBRANCH  25  26
ENDBRANCH   1  25
TORSDOF 18
ENDMDL
