MODEL 1
REMARK VINA RESULT:     -11.1      0.000      0.000
REMARK SMILES O=C(OCCOCCOC(=O)[C@H]1CCCN(C(=O)c2cc(Br)ccc2Cl)C1)c1ccc(-c2c3nc(c(-c4c(F)cc(S(=O)(=O)[O-])cc4F)c4ccc([nH]4)c(-c4c(F)cc(S(=O)(=O)[O-])cc4F)c4nc(c(-c5c(F)cc(S(=O)(=O)[O-])cc5F)c5ccc2[nH]5)C=C4)C=C3)cc1
REMARK SMILES IDX 5 1 4 2 3 3 2 4 1 5 28 6 29 7 93 8 30 9 92 10 31 11 32 12
REMARK SMILES IDX 33 13 86 14 34 15 91 16 85 17 87 18 35 19 90 20 84 21 83 22
REMARK SMILES IDX 36 24 70 25 49 26 69 27 50 28 53 29 68 30 88 31 51 32 52 33
REMARK SMILES IDX 67 35 89 36 54 37 37 38 38 39 47 40 39 41 40 42 46 43 48 44
REMARK SMILES IDX 41 45 42 46 43 47 44 48 45 49 71 50 72 51 81 52 73 53 74 54
REMARK SMILES IDX 80 55 82 56 75 57 76 58 77 59 78 60 79 61 55 62 56 63 65 64
REMARK SMILES IDX 57 65 58 66 64 67 66 68 59 69 60 70 61 71 62 72 63 73 6 74
REMARK SMILES IDX 7 75 8 76 9 77 10 78 11 79 12 80 13 81 27 82 14 83 16 84
REMARK SMILES IDX 15 85 17 86 18 87 19 88 20 89 25 90 21 91 24 92 26 93 22 94
REMARK SMILES IDX 23 95
REMARK H PARENT 87 23 53 34
REMARK Flexibility Score: inf
ROOT
ATOM      1  C   UNL A   1      39.585  21.300  26.123  1.00  0.00     0.202 C 
ENDROOT
BRANCH   1   2
ATOM      2  C   UNL A   1      40.444  22.343  26.854  1.00  0.00     0.261 C 
BRANCH   2   3
ATOM      3  O   UNL A   1      39.949  23.677  26.631  1.00  0.00    -0.460 OA
BRANCH   3   4
ATOM      4  C   UNL A   1      40.662  24.832  26.623  1.00  0.00     0.338 C 
ATOM      5  O   UNL A   1      41.379  25.088  25.660  1.00  0.00    -0.246 OA
BRANCH   4   6
ATOM      6  C   UNL A   1      40.611  25.803  27.753  1.00  0.00     0.060 A 
ATOM      7  C   UNL A   1      39.625  25.781  28.735  1.00  0.00     0.016 A 
ATOM      8  C   UNL A   1      41.647  26.741  27.873  1.00  0.00     0.016 A 
ATOM      9  C   UNL A   1      39.571  26.733  29.728  1.00  0.00     0.010 A 
ATOM     10  C   UNL A   1      41.655  27.655  28.934  1.00  0.00     0.010 A 
ATOM     11  C   UNL A   1      40.597  27.661  29.851  1.00  0.00    -0.014 A 
BRANCH  11  12
ATOM     12  C   UNL A   1      40.454  28.646  30.934  1.00  0.00     0.031 A 
ATOM     13  C   UNL A   1      41.459  28.639  32.040  1.00  0.00     0.074 A 
ATOM     14  C   UNL A   1      39.559  29.641  30.778  1.00  0.00     0.049 A 
ATOM     15  N   UNL A   1      41.540  29.423  33.079  1.00  0.00    -0.248 NA
ATOM     16  C   UNL A   1      42.529  27.629  31.960  1.00  0.00     0.031 C 
ATOM     17  C   UNL A   1      38.643  29.781  29.637  1.00  0.00     0.029 A 
ATOM     18  N   UNL A   1      39.307  30.750  31.536  1.00  0.00    -0.354 N 
ATOM     19  C   UNL A   1      42.653  28.989  33.787  1.00  0.00     0.074 A 
ATOM     20  C   UNL A   1      43.215  27.869  33.068  1.00  0.00     0.031 C 
ATOM     21  C   UNL A   1      37.962  30.930  29.754  1.00  0.00     0.029 A 
ATOM     22  C   UNL A   1      38.323  31.560  31.016  1.00  0.00     0.049 A 
ATOM     23  H   UNL A   1      39.783  30.951  32.375  1.00  0.00     0.167 HD
ATOM     24  C   UNL A   1      43.150  29.495  34.937  1.00  0.00     0.037 A 
ATOM     25  C   UNL A   1      37.754  32.663  31.533  1.00  0.00     0.037 A 
ATOM     26  C   UNL A   1      42.559  30.616  35.615  1.00  0.00     0.049 A 
ATOM     27  C   UNL A   1      38.259  33.135  32.869  1.00  0.00     0.074 A 
ATOM     28  C   UNL A   1      42.901  31.170  36.833  1.00  0.00     0.029 A 
ATOM     29  N   UNL A   1      41.497  31.363  35.115  1.00  0.00    -0.354 N 
ATOM     30  N   UNL A   1      39.250  32.658  33.589  1.00  0.00    -0.248 NA
ATOM     31  C   UNL A   1      37.566  34.275  33.475  1.00  0.00     0.031 C 
ATOM     32  C   UNL A   1      42.019  32.228  37.088  1.00  0.00     0.029 A 
ATOM     33  C   UNL A   1      41.162  32.365  36.005  1.00  0.00     0.049 A 
ATOM     34  H   UNL A   1      41.051  31.201  34.253  1.00  0.00     0.167 HD
ATOM     35  C   UNL A   1      39.305  33.445  34.731  1.00  0.00     0.074 A 
ATOM     36  C   UNL A   1      38.268  34.450  34.587  1.00  0.00     0.031 C 
ATOM     37  C   UNL A   1      40.122  33.345  35.809  1.00  0.00     0.037 A 
BRANCH  24  38
ATOM     38  C   UNL A   1      44.332  28.798  35.547  1.00  0.00     0.058 A 
ATOM     39  C   UNL A   1      45.651  29.185  35.268  1.00  0.00     0.135 A 
ATOM     40  C   UNL A   1      44.138  27.717  36.423  1.00  0.00     0.135 A 
ATOM     41  F   UNL A   1      45.895  30.186  34.407  1.00  0.00    -0.206 F 
ATOM     42  C   UNL A   1      46.738  28.518  35.828  1.00  0.00     0.059 A 
ATOM     43  C   UNL A   1      45.208  27.050  37.011  1.00  0.00     0.059 A 
ATOM     44  F   UNL A   1      42.897  27.291  36.705  1.00  0.00    -0.206 F 
ATOM     45  C   UNL A   1      46.506  27.454  36.701  1.00  0.00     0.060 A 
BRANCH  45  46
ATOM     46  S   UNL A   1      47.925  26.610  37.430  1.00  0.00     0.124 S 
ATOM     47  O   UNL A   1      49.039  27.344  36.840  1.00  0.00    -0.237 OA
ATOM     48  O   UNL A   1      47.712  26.822  38.859  1.00  0.00    -0.237 OA
ATOM     49  O   UNL A   1      47.773  25.231  36.975  1.00  0.00    -0.744 OA
ENDBRANCH  45  46
ENDBRANCH  24  38
BRANCH  25  50
ATOM     50  C   UNL A   1      36.606  33.323  30.850  1.00  0.00     0.058 A 
ATOM     51  C   UNL A   1      36.785  34.147  29.730  1.00  0.00     0.135 A 
ATOM     52  C   UNL A   1      35.295  33.169  31.335  1.00  0.00     0.135 A 
ATOM     53  F   UNL A   1      38.014  34.333  29.224  1.00  0.00    -0.206 F 
ATOM     54  C   UNL A   1      35.719  34.823  29.140  1.00  0.00     0.059 A 
ATOM     55  C   UNL A   1      34.209  33.805  30.743  1.00  0.00     0.059 A 
ATOM     56  F   UNL A   1      35.057  32.383  32.398  1.00  0.00    -0.206 F 
ATOM     57  C   UNL A   1      34.434  34.651  29.661  1.00  0.00     0.060 A 
BRANCH  57  58
ATOM     58  S   UNL A   1      33.056  35.544  28.909  1.00  0.00     0.124 S 
ATOM     59  O   UNL A   1      32.431  34.497  28.111  1.00  0.00    -0.237 OA
ATOM     60  O   UNL A   1      32.305  35.994  30.076  1.00  0.00    -0.237 OA
ATOM     61  O   UNL A   1      33.717  36.604  28.152  1.00  0.00    -0.744 OA
ENDBRANCH  57  58
ENDBRANCH  25  50
BRANCH  37  62
ATOM     62  C   UNL A   1      39.929  34.368  36.889  1.00  0.00     0.058 A 
ATOM     63  C   UNL A   1      40.606  35.596  36.865  1.00  0.00     0.135 A 
ATOM     64  C   UNL A   1      39.031  34.124  37.941  1.00  0.00     0.135 A 
ATOM     65  F   UNL A   1      41.478  35.870  35.883  1.00  0.00    -0.206 F 
ATOM     66  C   UNL A   1      40.426  36.538  37.870  1.00  0.00     0.059 A 
ATOM     67  C   UNL A   1      38.812  35.065  38.938  1.00  0.00     0.059 A 
ATOM     68  F   UNL A   1      38.352  32.967  37.997  1.00  0.00    -0.206 F 
ATOM     69  C   UNL A   1      39.527  36.261  38.903  1.00  0.00     0.060 A 
BRANCH  69  70
ATOM     70  S   UNL A   1      39.286  37.500  40.191  1.00  0.00     0.124 S 
ATOM     71  O   UNL A   1      40.622  38.077  40.295  1.00  0.00    -0.237 OA
ATOM     72  O   UNL A   1      38.265  38.365  39.606  1.00  0.00    -0.237 OA
ATOM     73  O   UNL A   1      38.848  36.714  41.341  1.00  0.00    -0.744 OA
ENDBRANCH  69  70
ENDBRANCH  37  62
ENDBRANCH  11  12
ENDBRANCH   4   6
ENDBRANCH   3   4
ENDBRANCH   2   3
ENDBRANCH   1   2
BRANCH   1  74
ATOM     74  O   UNL A   1      38.243  21.674  25.786  1.00  0.00    -0.374 OA
BRANCH  74  75
ATOM     75  C   UNL A   1      37.538  20.782  24.911  1.00  0.00     0.202 C 
BRANCH  75  76
ATOM     76  C   UNL A   1      36.043  20.805  25.232  1.00  0.00     0.261 C 
BRANCH  76  77
ATOM     77  O   UNL A   1      35.639  22.181  25.233  1.00  0.00    -0.463 OA
BRANCH  77  78
ATOM     78  C   UNL A   1      34.506  22.399  25.957  1.00  0.00     0.310 C 
ATOM     79  O   UNL A   1      34.308  21.990  27.092  1.00  0.00    -0.252 OA
BRANCH  78  80
ATOM     80  C   UNL A   1      33.577  23.290  25.170  1.00  0.00     0.119 C 
ATOM     81  C   UNL A   1      33.195  22.641  23.845  1.00  0.00     0.019 C 
ATOM     82  C   UNL A   1      32.383  23.676  26.042  1.00  0.00     0.135 C 
ATOM     83  C   UNL A   1      32.135  23.472  23.133  1.00  0.00     0.022 C 
ATOM     84  N   UNL A   1      31.329  24.345  25.279  1.00  0.00    -0.338 N 
ATOM     85  C   UNL A   1      30.929  23.683  24.038  1.00  0.00     0.120 C 
BRANCH  84  86
ATOM     86  C   UNL A   1      30.689  25.446  25.847  1.00  0.00     0.255 C 
ATOM     87  O   UNL A   1      29.716  25.367  26.590  1.00  0.00    -0.269 OA
BRANCH  86  88
ATOM     88  C   UNL A   1      31.230  26.793  25.581  1.00  0.00     0.059 A 
ATOM     89  C   UNL A   1      32.278  27.240  26.397  1.00  0.00     0.031 A 
ATOM     90  C   UNL A   1      30.718  27.615  24.569  1.00  0.00     0.053 A 
ATOM     91  C   UNL A   1      32.853  28.485  26.148  1.00  0.00     0.018 A 
ATOM     92  C   UNL A   1      31.318  28.853  24.320  1.00  0.00     0.022 A 
ATOM     93  Cl  UNL A   1      29.350  27.185  23.608  1.00  0.00    -0.083 Cl
ATOM     94  Br  UNL A   1      34.277  29.096  27.230  1.00  0.00    -0.051 Br
ATOM     95  C   UNL A   1      32.390  29.285  25.103  1.00  0.00     0.017 A 
ENDBRANCH  86  88
ENDBRANCH  84  86
ENDBRANCH  78  80
ENDBRANCH  77  78
ENDBRANCH  76  77
ENDBRANCH  75  76
ENDBRANCH  74  75
ENDBRANCH   1  74
TORSDOF 19
ENDMDL
MODEL 2
REMARK VINA RESULT:     -10.8      0.919      8.280
REMARK SMILES O=C(OCCOCCOC(=O)[C@H]1CCCN(C(=O)c2cc(Br)ccc2Cl)C1)c1ccc(-c2c3nc(c(-c4c(F)cc(S(=O)(=O)[O-])cc4F)c4ccc([nH]4)c(-c4c(F)cc(S(=O)(=O)[O-])cc4F)c4nc(c(-c5c(F)cc(S(=O)(=O)[O-])cc5F)c5ccc2[nH]5)C=C4)C=C3)cc1
REMARK SMILES IDX 5 1 4 2 3 3 2 4 1 5 28 6 29 7 93 8 30 9 92 10 31 11 32 12
REMARK SMILES IDX 33 13 86 14 34 15 91 16 85 17 87 18 35 19 90 20 84 21 83 22
REMARK SMILES IDX 36 24 70 25 49 26 69 27 50 28 53 29 68 30 88 31 51 32 52 33
REMARK SMILES IDX 67 35 89 36 54 37 37 38 38 39 47 40 39 41 40 42 46 43 48 44
REMARK SMILES IDX 41 45 42 46 43 47 44 48 45 49 71 50 72 51 81 52 73 53 74 54
REMARK SMILES IDX 80 55 82 56 75 57 76 58 77 59 78 60 79 61 55 62 56 63 65 64
REMARK SMILES IDX 57 65 58 66 64 67 66 68 59 69 60 70 61 71 62 72 63 73 6 74
REMARK SMILES IDX 7 75 8 76 9 77 10 78 11 79 12 80 13 81 27 82 14 83 16 84
REMARK SMILES IDX 15 85 17 86 18 87 19 88 20 89 25 90 21 91 24 92 26 93 22 94
REMARK SMILES IDX 23 95
REMARK H PARENT 87 23 53 34
REMARK Flexibility Score: inf
ROOT
ATOM      1  C   UNL A   1      40.366  22.368  26.954  1.00  0.00     0.202 C 
ENDROOT
BRANCH   1   2
ATOM      2  C   UNL A   1      41.602  22.703  26.106  1.00  0.00     0.261 C 
BRANCH   2   3
ATOM      3  O   UNL A   1      42.209  23.938  26.533  1.00  0.00    -0.460 OA
BRANCH   3   4
ATOM      4  C   UNL A   1      41.737  25.197  26.349  1.00  0.00     0.338 C 
ATOM      5  O   UNL A   1      41.457  25.573  25.214  1.00  0.00    -0.246 OA
BRANCH   4   6
ATOM      6  C   UNL A   1      41.554  26.148  27.482  1.00  0.00     0.060 A 
ATOM      7  C   UNL A   1      42.368  27.258  27.688  1.00  0.00     0.016 A 
ATOM      8  C   UNL A   1      40.465  25.955  28.345  1.00  0.00     0.016 A 
ATOM      9  C   UNL A   1      42.211  28.079  28.782  1.00  0.00     0.010 A 
ATOM     10  C   UNL A   1      40.238  26.838  29.407  1.00  0.00     0.010 A 
ATOM     11  C   UNL A   1      41.131  27.891  29.635  1.00  0.00    -0.014 A 
BRANCH  11  12
ATOM     12  C   UNL A   1      41.045  28.808  30.783  1.00  0.00     0.031 A 
ATOM     13  C   UNL A   1      39.960  29.835  30.794  1.00  0.00     0.074 A 
ATOM     14  C   UNL A   1      41.806  28.550  31.865  1.00  0.00     0.049 A 
ATOM     15  N   UNL A   1      39.684  30.726  31.705  1.00  0.00    -0.248 NA
ATOM     16  C   UNL A   1      39.048  29.851  29.636  1.00  0.00     0.031 C 
ATOM     17  C   UNL A   1      42.789  27.461  31.965  1.00  0.00     0.029 A 
ATOM     18  N   UNL A   1      41.839  29.133  33.100  1.00  0.00    -0.354 N 
ATOM     19  C   UNL A   1      38.584  31.423  31.223  1.00  0.00     0.074 A 
ATOM     20  C   UNL A   1      38.244  30.861  29.936  1.00  0.00     0.031 C 
ATOM     21  C   UNL A   1      43.295  27.434  33.206  1.00  0.00     0.029 A 
ATOM     22  C   UNL A   1      42.744  28.552  33.959  1.00  0.00     0.049 A 
ATOM     23  H   UNL A   1      41.270  29.897  33.352  1.00  0.00     0.167 HD
ATOM     24  C   UNL A   1      37.926  32.443  31.817  1.00  0.00     0.037 A 
ATOM     25  C   UNL A   1      43.112  28.919  35.199  1.00  0.00     0.037 A 
ATOM     26  C   UNL A   1      38.299  32.967  33.103  1.00  0.00     0.049 A 
ATOM     27  C   UNL A   1      42.434  30.126  35.787  1.00  0.00     0.074 A 
ATOM     28  C   UNL A   1      37.781  34.055  33.778  1.00  0.00     0.029 A 
ATOM     29  N   UNL A   1      39.287  32.421  33.915  1.00  0.00    -0.354 N 
ATOM     30  N   UNL A   1      41.460  30.850  35.282  1.00  0.00    -0.248 NA
ATOM     31  C   UNL A   1      42.911  30.583  37.096  1.00  0.00     0.031 C 
ATOM     32  C   UNL A   1      38.485  34.191  34.980  1.00  0.00     0.029 A 
ATOM     33  C   UNL A   1      39.405  33.157  35.078  1.00  0.00     0.049 A 
ATOM     34  H   UNL A   1      39.823  31.625  33.692  1.00  0.00     0.167 HD
ATOM     35  C   UNL A   1      41.201  31.844  36.216  1.00  0.00     0.074 A 
ATOM     36  C   UNL A   1      42.099  31.605  37.330  1.00  0.00     0.031 C 
ATOM     37  C   UNL A   1      40.315  32.871  36.161  1.00  0.00     0.037 A 
BRANCH  24  38
ATOM     38  C   UNL A   1      36.803  33.082  31.053  1.00  0.00     0.058 A 
ATOM     39  C   UNL A   1      37.035  33.981  30.000  1.00  0.00     0.135 A 
ATOM     40  C   UNL A   1      35.470  32.793  31.385  1.00  0.00     0.135 A 
ATOM     41  F   UNL A   1      38.289  34.323  29.666  1.00  0.00    -0.206 F 
ATOM     42  C   UNL A   1      35.983  34.579  29.311  1.00  0.00     0.059 A 
ATOM     43  C   UNL A   1      34.403  33.362  30.696  1.00  0.00     0.059 A 
ATOM     44  F   UNL A   1      35.193  31.958  32.399  1.00  0.00    -0.206 F 
ATOM     45  C   UNL A   1      34.670  34.260  29.664  1.00  0.00     0.060 A 
BRANCH  45  46
ATOM     46  S   UNL A   1      33.318  35.032  28.751  1.00  0.00     0.124 S 
ATOM     47  O   UNL A   1      34.030  36.031  27.961  1.00  0.00    -0.237 OA
ATOM     48  O   UNL A   1      32.767  33.907  28.002  1.00  0.00    -0.237 OA
ATOM     49  O   UNL A   1      32.455  35.563  29.802  1.00  0.00    -0.744 OA
ENDBRANCH  45  46
ENDBRANCH  24  38
BRANCH  25  50
ATOM     50  C   UNL A   1      44.213  28.212  35.911  1.00  0.00     0.058 A 
ATOM     51  C   UNL A   1      45.560  28.541  35.704  1.00  0.00     0.135 A 
ATOM     52  C   UNL A   1      43.935  27.153  36.794  1.00  0.00     0.135 A 
ATOM     53  F   UNL A   1      45.886  29.541  34.871  1.00  0.00    -0.206 F 
ATOM     54  C   UNL A   1      46.590  27.827  36.313  1.00  0.00     0.059 A 
ATOM     55  C   UNL A   1      44.944  26.447  37.441  1.00  0.00     0.059 A 
ATOM     56  F   UNL A   1      42.664  26.798  37.043  1.00  0.00    -0.206 F 
ATOM     57  C   UNL A   1      46.270  26.775  37.175  1.00  0.00     0.060 A 
BRANCH  57  58
ATOM     58  S   UNL A   1      47.607  25.837  37.946  1.00  0.00     0.124 S 
ATOM     59  O   UNL A   1      47.075  25.621  39.286  1.00  0.00    -0.237 OA
ATOM     60  O   UNL A   1      47.689  24.656  37.093  1.00  0.00    -0.237 OA
ATOM     61  O   UNL A   1      48.748  26.744  37.859  1.00  0.00    -0.744 OA
ENDBRANCH  57  58
ENDBRANCH  25  50
BRANCH  37  62
ATOM     62  C   UNL A   1      40.274  33.781  37.351  1.00  0.00     0.058 A 
ATOM     63  C   UNL A   1      41.123  34.893  37.455  1.00  0.00     0.135 A 
ATOM     64  C   UNL A   1      39.350  33.552  38.383  1.00  0.00     0.135 A 
ATOM     65  F   UNL A   1      42.026  35.147  36.495  1.00  0.00    -0.206 F 
ATOM     66  C   UNL A   1      41.082  35.730  38.562  1.00  0.00     0.059 A 
ATOM     67  C   UNL A   1      39.270  34.396  39.483  1.00  0.00     0.059 A 
ATOM     68  F   UNL A   1      38.509  32.508  38.321  1.00  0.00    -0.206 F 
ATOM     69  C   UNL A   1      40.152  35.472  39.572  1.00  0.00     0.060 A 
BRANCH  69  70
ATOM     70  S   UNL A   1      40.095  36.578  40.995  1.00  0.00     0.124 S 
ATOM     71  O   UNL A   1      38.729  37.088  40.914  1.00  0.00    -0.237 OA
ATOM     72  O   UNL A   1      40.368  35.673  42.107  1.00  0.00    -0.237 OA
ATOM     73  O   UNL A   1      41.146  37.550  40.712  1.00  0.00    -0.744 OA
ENDBRANCH  69  70
ENDBRANCH  37  62
ENDBRANCH  11  12
ENDBRANCH   4   6
ENDBRANCH   3   4
ENDBRANCH   2   3
ENDBRANCH   1   2
BRANCH   1  74
ATOM     74  O   UNL A   1      39.254  21.761  26.284  1.00  0.00    -0.374 OA
BRANCH  74  75
ATOM     75  C   UNL A   1      38.256  22.656  25.771  1.00  0.00     0.202 C 
BRANCH  75  76
ATOM     76  C   UNL A   1      37.180  21.869  25.022  1.00  0.00     0.261 C 
BRANCH  76  77
ATOM     77  O   UNL A   1      36.007  22.693  24.993  1.00  0.00    -0.463 OA
BRANCH  77  78
ATOM     78  C   UNL A   1      35.660  23.074  23.732  1.00  0.00     0.310 C 
ATOM     79  O   UNL A   1      36.382  22.990  22.749  1.00  0.00    -0.252 OA
BRANCH  78  80
ATOM     80  C   UNL A   1      34.223  23.532  23.729  1.00  0.00     0.119 C 
ATOM     81  C   UNL A   1      33.369  22.636  22.839  1.00  0.00     0.019 C 
ATOM     82  C   UNL A   1      33.721  23.641  25.168  1.00  0.00     0.135 C 
ATOM     83  C   UNL A   1      31.897  23.007  22.968  1.00  0.00     0.022 C 
ATOM     84  N   UNL A   1      32.275  23.854  25.240  1.00  0.00    -0.338 N 
ATOM     85  C   UNL A   1      31.462  22.951  24.426  1.00  0.00     0.120 C 
BRANCH  84  86
ATOM     86  C   UNL A   1      31.780  24.768  26.168  1.00  0.00     0.255 C 
ATOM     87  O   UNL A   1      31.299  24.455  27.252  1.00  0.00    -0.269 OA
BRANCH  86  88
ATOM     88  C   UNL A   1      31.872  26.209  25.859  1.00  0.00     0.059 A 
ATOM     89  C   UNL A   1      32.880  26.943  26.497  1.00  0.00     0.031 A 
ATOM     90  C   UNL A   1      30.983  26.840  24.980  1.00  0.00     0.053 A 
ATOM     91  C   UNL A   1      33.034  28.295  26.196  1.00  0.00     0.018 A 
ATOM     92  C   UNL A   1      31.162  28.192  24.673  1.00  0.00     0.022 A 
ATOM     93  Cl  UNL A   1      29.640  26.031  24.255  1.00  0.00    -0.083 Cl
ATOM     94  Br  UNL A   1      34.400  29.295  27.037  1.00  0.00    -0.051 Br
ATOM     95  C   UNL A   1      32.193  28.918  25.274  1.00  0.00     0.017 A 
ENDBRANCH  86  88
ENDBRANCH  84  86
ENDBRANCH  78  80
ENDBRANCH  77  78
ENDBRANCH  76  77
ENDBRANCH  75  76
ENDBRANCH  74  75
ENDBRANCH   1  74
TORSDOF 19
ENDMDL
MODEL 3
REMARK VINA RESULT:     -10.7      2.151      3.454
REMARK SMILES O=C(OCCOCCOC(=O)[C@H]1CCCN(C(=O)c2cc(Br)ccc2Cl)C1)c1ccc(-c2c3nc(c(-c4c(F)cc(S(=O)(=O)[O-])cc4F)c4ccc([nH]4)c(-c4c(F)cc(S(=O)(=O)[O-])cc4F)c4nc(c(-c5c(F)cc(S(=O)(=O)[O-])cc5F)c5ccc2[nH]5)C=C4)C=C3)cc1
REMARK SMILES IDX 5 1 4 2 3 3 2 4 1 5 28 6 29 7 93 8 30 9 92 10 31 11 32 12
REMARK SMILES IDX 33 13 86 14 34 15 91 16 85 17 87 18 35 19 90 20 84 21 83 22
REMARK SMILES IDX 36 24 70 25 49 26 69 27 50 28 53 29 68 30 88 31 51 32 52 33
REMARK SMILES IDX 67 35 89 36 54 37 37 38 38 39 47 40 39 41 40 42 46 43 48 44
REMARK SMILES IDX 41 45 42 46 43 47 44 48 45 49 71 50 72 51 81 52 73 53 74 54
REMARK SMILES IDX 80 55 82 56 75 57 76 58 77 59 78 60 79 61 55 62 56 63 65 64
REMARK SMILES IDX 57 65 58 66 64 67 66 68 59 69 60 70 61 71 62 72 63 73 6 74
REMARK SMILES IDX 7 75 8 76 9 77 10 78 11 79 12 80 13 81 27 82 14 83 16 84
REMARK SMILES IDX 15 85 17 86 18 87 19 88 20 89 25 90 21 91 24 92 26 93 22 94
REMARK SMILES IDX 23 95
REMARK H PARENT 87 23 53 34
REMARK Flexibility Score: inf
ROOT
ATOM      1  C   UNL A   1      41.667  21.744  26.136  1.00  0.00     0.202 C 
ENDROOT
BRANCH   1   2
ATOM      2  C   UNL A   1      42.264  22.777  27.104  1.00  0.00     0.261 C 
BRANCH   2   3
ATOM      3  O   UNL A   1      42.818  23.901  26.393  1.00  0.00    -0.460 OA
BRANCH   3   4
ATOM      4  C   UNL A   1      42.248  25.117  26.199  1.00  0.00     0.338 C 
ATOM      5  O   UNL A   1      42.009  25.493  25.055  1.00  0.00    -0.246 OA
BRANCH   4   6
ATOM      6  C   UNL A   1      41.908  26.022  27.334  1.00  0.00     0.060 A 
ATOM      7  C   UNL A   1      42.637  27.165  27.646  1.00  0.00     0.016 A 
ATOM      8  C   UNL A   1      40.754  25.747  28.083  1.00  0.00     0.016 A 
ATOM      9  C   UNL A   1      42.333  27.942  28.740  1.00  0.00     0.010 A 
ATOM     10  C   UNL A   1      40.380  26.584  29.141  1.00  0.00     0.010 A 
ATOM     11  C   UNL A   1      41.190  27.674  29.481  1.00  0.00    -0.014 A 
BRANCH  11  12
ATOM     12  C   UNL A   1      40.946  28.548  30.639  1.00  0.00     0.031 A 
ATOM     13  C   UNL A   1      41.911  28.506  31.779  1.00  0.00     0.074 A 
ATOM     14  C   UNL A   1      39.994  29.496  30.535  1.00  0.00     0.049 A 
ATOM     15  N   UNL A   1      41.906  29.197  32.884  1.00  0.00    -0.248 NA
ATOM     16  C   UNL A   1      43.048  27.575  31.654  1.00  0.00     0.031 C 
ATOM     17  C   UNL A   1      39.110  29.680  29.375  1.00  0.00     0.029 A 
ATOM     18  N   UNL A   1      39.644  30.516  31.375  1.00  0.00    -0.354 N 
ATOM     19  C   UNL A   1      43.021  28.772  33.595  1.00  0.00     0.074 A 
ATOM     20  C   UNL A   1      43.678  27.757  32.805  1.00  0.00     0.031 C 
ATOM     21  C   UNL A   1      38.352  30.769  29.564  1.00  0.00     0.029 A 
ATOM     22  C   UNL A   1      38.629  31.306  30.888  1.00  0.00     0.049 A 
ATOM     23  H   UNL A   1      40.078  30.670  32.246  1.00  0.00     0.167 HD
ATOM     24  C   UNL A   1      43.445  29.204  34.804  1.00  0.00     0.037 A 
ATOM     25  C   UNL A   1      37.971  32.321  31.476  1.00  0.00     0.037 A 
ATOM     26  C   UNL A   1      42.759  30.222  35.552  1.00  0.00     0.049 A 
ATOM     27  C   UNL A   1      38.400  32.703  32.866  1.00  0.00     0.074 A 
ATOM     28  C   UNL A   1      43.022  30.686  36.826  1.00  0.00     0.029 A 
ATOM     29  N   UNL A   1      41.668  30.943  35.077  1.00  0.00    -0.354 N 
ATOM     30  N   UNL A   1      39.394  32.226  33.580  1.00  0.00    -0.248 NA
ATOM     31  C   UNL A   1      37.613  33.740  33.541  1.00  0.00     0.031 C 
ATOM     32  C   UNL A   1      42.066  31.660  37.136  1.00  0.00     0.029 A 
ATOM     33  C   UNL A   1      41.239  31.840  36.036  1.00  0.00     0.049 A 
ATOM     34  H   UNL A   1      41.263  30.831  34.187  1.00  0.00     0.167 HD
ATOM     35  C   UNL A   1      39.359  32.911  34.788  1.00  0.00     0.074 A 
ATOM     36  C   UNL A   1      38.264  33.858  34.690  1.00  0.00     0.031 C 
ATOM     37  C   UNL A   1      40.144  32.767  35.885  1.00  0.00     0.037 A 
BRANCH  24  38
ATOM     38  C   UNL A   1      44.647  28.530  35.397  1.00  0.00     0.058 A 
ATOM     39  C   UNL A   1      45.945  29.032  35.220  1.00  0.00     0.135 A 
ATOM     40  C   UNL A   1      44.497  27.355  36.151  1.00  0.00     0.135 A 
ATOM     41  F   UNL A   1      46.151  30.130  34.475  1.00  0.00    -0.206 F 
ATOM     42  C   UNL A   1      47.055  28.387  35.763  1.00  0.00     0.059 A 
ATOM     43  C   UNL A   1      45.588  26.706  36.721  1.00  0.00     0.059 A 
ATOM     44  F   UNL A   1      43.279  26.820  36.331  1.00  0.00    -0.206 F 
ATOM     45  C   UNL A   1      46.864  27.226  36.514  1.00  0.00     0.060 A 
BRANCH  45  46
ATOM     46  S   UNL A   1      48.310  26.410  37.224  1.00  0.00     0.124 S 
ATOM     47  O   UNL A   1      47.806  25.059  37.444  1.00  0.00    -0.237 OA
ATOM     48  O   UNL A   1      49.300  26.552  36.160  1.00  0.00    -0.237 OA
ATOM     49  O   UNL A   1      48.579  27.183  38.433  1.00  0.00    -0.744 OA
ENDBRANCH  45  46
ENDBRANCH  24  38
BRANCH  25  50
ATOM     50  C   UNL A   1      36.807  32.967  30.807  1.00  0.00     0.058 A 
ATOM     51  C   UNL A   1      36.969  33.982  29.854  1.00  0.00     0.135 A 
ATOM     52  C   UNL A   1      35.491  32.601  31.143  1.00  0.00     0.135 A 
ATOM     53  F   UNL A   1      38.201  34.375  29.495  1.00  0.00    -0.206 F 
ATOM     54  C   UNL A   1      35.876  34.636  29.287  1.00  0.00     0.059 A 
ATOM     55  C   UNL A   1      34.384  33.214  30.566  1.00  0.00     0.059 A 
ATOM     56  F   UNL A   1      35.270  31.627  32.041  1.00  0.00    -0.206 F 
ATOM     57  C   UNL A   1      34.587  34.248  29.657  1.00  0.00     0.060 A 
BRANCH  57  58
ATOM     58  S   UNL A   1      33.172  35.111  28.938  1.00  0.00     0.124 S 
ATOM     59  O   UNL A   1      32.612  34.081  28.072  1.00  0.00    -0.237 OA
ATOM     60  O   UNL A   1      32.384  35.452  30.118  1.00  0.00    -0.237 OA
ATOM     61  O   UNL A   1      33.784  36.247  28.254  1.00  0.00    -0.744 OA
ENDBRANCH  57  58
ENDBRANCH  25  50
BRANCH  37  62
ATOM     62  C   UNL A   1      39.848  33.676  37.041  1.00  0.00     0.058 A 
ATOM     63  C   UNL A   1      38.959  33.302  38.059  1.00  0.00     0.135 A 
ATOM     64  C   UNL A   1      40.489  34.920  37.142  1.00  0.00     0.135 A 
ATOM     65  F   UNL A   1      38.319  32.124  38.000  1.00  0.00    -0.206 F 
ATOM     66  C   UNL A   1      38.687  34.149  39.125  1.00  0.00     0.059 A 
ATOM     67  C   UNL A   1      40.256  35.769  38.216  1.00  0.00     0.059 A 
ATOM     68  F   UNL A   1      41.358  35.314  36.197  1.00  0.00    -0.206 F 
ATOM     69  C   UNL A   1      39.341  35.382  39.193  1.00  0.00     0.060 A 
BRANCH  69  70
ATOM     70  S   UNL A   1      38.995  36.465  40.593  1.00  0.00     0.124 S 
ATOM     71  O   UNL A   1      38.575  37.689  39.918  1.00  0.00    -0.237 OA
ATOM     72  O   UNL A   1      37.944  35.738  41.299  1.00  0.00    -0.237 OA
ATOM     73  O   UNL A   1      40.275  36.538  41.290  1.00  0.00    -0.744 OA
ENDBRANCH  69  70
ENDBRANCH  37  62
ENDBRANCH  11  12
ENDBRANCH   4   6
ENDBRANCH   3   4
ENDBRANCH   2   3
ENDBRANCH   1   2
BRANCH   1  74
ATOM     74  O   UNL A   1      40.246  21.764  25.949  1.00  0.00    -0.374 OA
BRANCH  74  75
ATOM     75  C   UNL A   1      39.498  22.580  26.862  1.00  0.00     0.202 C 
BRANCH  75  76
ATOM     76  C   UNL A   1      38.665  23.603  26.089  1.00  0.00     0.261 C 
BRANCH  76  77
ATOM     77  O   UNL A   1      37.306  23.149  26.129  1.00  0.00    -0.463 OA
BRANCH  77  78
ATOM     78  C   UNL A   1      36.668  23.280  24.933  1.00  0.00     0.310 C 
ATOM     79  O   UNL A   1      37.215  23.263  23.839  1.00  0.00    -0.252 OA
BRANCH  78  80
ATOM     80  C   UNL A   1      35.180  23.365  25.169  1.00  0.00     0.119 C 
ATOM     81  C   UNL A   1      34.627  24.696  24.674  1.00  0.00     0.019 C 
ATOM     82  C   UNL A   1      34.498  22.141  24.558  1.00  0.00     0.135 C 
ATOM     83  C   UNL A   1      33.106  24.707  24.769  1.00  0.00     0.022 C 
ATOM     84  N   UNL A   1      33.041  22.265  24.542  1.00  0.00    -0.338 N 
ATOM     85  C   UNL A   1      32.519  23.524  24.012  1.00  0.00     0.120 C 
BRANCH  84  86
ATOM     86  C   UNL A   1      32.272  21.151  24.876  1.00  0.00     0.255 C 
ATOM     87  O   UNL A   1      31.354  21.168  25.690  1.00  0.00    -0.269 OA
BRANCH  86  88
ATOM     88  C   UNL A   1      32.539  19.875  24.184  1.00  0.00     0.059 A 
ATOM     89  C   UNL A   1      33.069  18.826  24.946  1.00  0.00     0.031 A 
ATOM     90  C   UNL A   1      32.295  19.704  22.815  1.00  0.00     0.053 A 
ATOM     91  C   UNL A   1      33.289  17.588  24.344  1.00  0.00     0.018 A 
ATOM     92  C   UNL A   1      32.502  18.452  22.230  1.00  0.00     0.022 A 
ATOM     93  Cl  UNL A   1      31.762  20.985  21.786  1.00  0.00    -0.083 Cl
ATOM     94  Br  UNL A   1      33.990  16.159  25.363  1.00  0.00    -0.051 Br
ATOM     95  C   UNL A   1      32.991  17.391  22.996  1.00  0.00     0.017 A 
ENDBRANCH  86  88
ENDBRANCH  84  86
ENDBRANCH  78  80
ENDBRANCH  77  78
ENDBRANCH  76  77
ENDBRANCH  75  76
ENDBRANCH  74  75
ENDBRANCH   1  74
TORSDOF 19
ENDMDL
