MODEL 1
REMARK VINA RESULT:      -9.7      0.000      0.000
REMARK SMILES CCCNC(=O)CN(C)C(=O)C[N@H+]1CCCC[C@H]1C(=O)OCCOCCOC(=O)c1ccc(-c2c3nc(c(-c4c(F)cc(S(=O)(=O)[O-])cc4F)c4ccc([nH]4)c(-c4c(F)cc(S(=O)(=O)[O-])cc4F)c4nc(c(-c5c(F)cc(S(=O)(=O)[O-])cc5F)c5ccc2[nH]5)C=C4)C=C3)cc1
REMARK SMILES IDX 22 1 21 2 19 3 20 4 18 5 13 6 14 7 15 9 17 10 16 11 12 12
REMARK SMILES IDX 10 13 11 14 8 15 9 16 7 17 5 18 4 19 6 21 3 22 2 23 1 24
REMARK SMILES IDX 23 25 24 26 25 27 26 28 27 29 28 30 29 31 30 32 31 33 95 34
REMARK SMILES IDX 32 35 94 36 33 37 34 38 35 39 88 40 36 41 93 42 87 43 89 44
REMARK SMILES IDX 37 45 92 46 86 47 85 48 38 50 72 51 51 52 71 53 52 54 55 55
REMARK SMILES IDX 70 56 90 57 53 58 54 59 69 61 91 62 56 63 39 64 40 65 49 66
REMARK SMILES IDX 41 67 42 68 48 69 50 70 43 71 44 72 45 73 46 74 47 75 73 76
REMARK SMILES IDX 74 77 83 78 75 79 76 80 82 81 84 82 77 83 78 84 79 85 80 86
REMARK SMILES IDX 81 87 57 88 58 89 67 90 59 91 60 92 66 93 68 94 61 95 62 96
REMARK SMILES IDX 63 97 64 98 65 99
REMARK H PARENT 13 8 4 20 89 49 55 60
REMARK Flexibility Score: inf
ROOT
ATOM      1  C   UNL A   1      32.602  29.467  25.625  1.00  0.00     0.261 C 
ENDROOT
BRANCH   1   2
ATOM      2  O   UNL A   1      32.463  28.051  25.440  1.00  0.00    -0.459 OA
BRANCH   2   3
ATOM      3  C   UNL A   1      32.999  27.599  24.269  1.00  0.00     0.365 C 
ATOM      4  O   UNL A   1      33.934  28.147  23.694  1.00  0.00    -0.245 OA
BRANCH   3   5
ATOM      5  C   UNL A   1      32.274  26.323  23.769  1.00  0.00     0.295 C 
ATOM      6  N   UNL A   1      32.290  25.228  24.781  1.00  0.00    -0.315 N 
ATOM      7  C   UNL A   1      31.457  25.539  25.940  1.00  0.00     0.263 C 
ATOM      8  H   UNL A   1      31.861  24.412  24.345  1.00  0.00     0.349 HD
ATOM      9  C   UNL A   1      30.004  25.524  25.488  1.00  0.00     0.062 C 
ATOM     10  C   UNL A   1      30.826  26.573  23.293  1.00  0.00     0.078 C 
ATOM     11  C   UNL A   1      29.739  26.528  24.376  1.00  0.00     0.013 C 
BRANCH   6  12
ATOM     12  C   UNL A   1      33.658  24.811  25.135  1.00  0.00     0.364 C 
BRANCH  12  13
ATOM     13  C   UNL A   1      33.594  23.484  25.901  1.00  0.00     0.277 C 
ATOM     14  O   UNL A   1      33.967  23.427  27.074  1.00  0.00    -0.268 OA
BRANCH  13  15
ATOM     15  N   UNL A   1      33.115  22.364  25.223  1.00  0.00    -0.332 N 
ATOM     16  C   UNL A   1      31.826  21.753  25.509  1.00  0.00     0.147 C 
BRANCH  15  17
ATOM     17  C   UNL A   1      34.041  21.687  24.316  1.00  0.00     0.219 C 
BRANCH  17  18
ATOM     18  C   UNL A   1      34.998  20.648  24.922  1.00  0.00     0.239 C 
ATOM     19  N   UNL A   1      34.690  19.320  24.951  1.00  0.00    -0.355 N 
ATOM     20  H   UNL A   1      35.405  18.736  25.294  1.00  0.00     0.163 HD
ATOM     21  O   UNL A   1      35.986  21.004  25.572  1.00  0.00    -0.273 OA
BRANCH  19  22
ATOM     22  C   UNL A   1      33.481  18.634  24.556  1.00  0.00     0.115 C 
BRANCH  22  23
ATOM     23  C   UNL A   1      33.735  17.613  23.457  1.00  0.00     0.018 C 
ATOM     24  C   UNL A   1      33.665  16.177  23.959  1.00  0.00     0.006 C 
ENDBRANCH  22  23
ENDBRANCH  19  22
ENDBRANCH  17  18
ENDBRANCH  15  17
ENDBRANCH  13  15
ENDBRANCH  12  13
ENDBRANCH   6  12
ENDBRANCH   3   5
ENDBRANCH   2   3
ENDBRANCH   1   2
BRANCH   1  25
ATOM     25  C   UNL A   1      33.599  29.871  26.719  1.00  0.00     0.202 C 
BRANCH  25  26
ATOM     26  O   UNL A   1      33.661  31.226  27.157  1.00  0.00    -0.374 OA
BRANCH  26  27
ATOM     27  C   UNL A   1      34.869  31.673  27.763  1.00  0.00     0.202 C 
BRANCH  27  28
ATOM     28  C   UNL A   1      35.143  31.327  29.230  1.00  0.00     0.261 C 
BRANCH  28  29
ATOM     29  O   UNL A   1      35.903  30.120  29.374  1.00  0.00    -0.460 OA
BRANCH  29  30
ATOM     30  C   UNL A   1      36.612  30.051  30.524  1.00  0.00     0.338 C 
ATOM     31  O   UNL A   1      36.171  29.871  31.653  1.00  0.00    -0.246 OA
BRANCH  30  32
ATOM     32  C   UNL A   1      38.051  30.005  30.224  1.00  0.00     0.060 A 
ATOM     33  C   UNL A   1      38.436  30.340  28.918  1.00  0.00     0.016 A 
ATOM     34  C   UNL A   1      38.993  29.592  31.166  1.00  0.00     0.016 A 
ATOM     35  C   UNL A   1      39.761  30.196  28.527  1.00  0.00     0.010 A 
ATOM     36  C   UNL A   1      40.323  29.431  30.767  1.00  0.00     0.010 A 
ATOM     37  C   UNL A   1      40.697  29.689  29.434  1.00  0.00    -0.014 A 
BRANCH  37  38
ATOM     38  C   UNL A   1      42.009  29.241  28.919  1.00  0.00     0.031 A 
ATOM     39  C   UNL A   1      43.125  30.249  28.841  1.00  0.00     0.074 A 
ATOM     40  C   UNL A   1      42.212  27.953  28.587  1.00  0.00     0.049 A 
ATOM     41  N   UNL A   1      44.353  30.093  28.425  1.00  0.00    -0.248 NA
ATOM     42  C   UNL A   1      42.815  31.616  29.297  1.00  0.00     0.031 C 
ATOM     43  C   UNL A   1      41.208  26.892  28.669  1.00  0.00     0.029 A 
ATOM     44  N   UNL A   1      43.331  27.321  28.114  1.00  0.00    -0.354 N 
ATOM     45  C   UNL A   1      44.954  31.340  28.548  1.00  0.00     0.074 A 
ATOM     46  C   UNL A   1      43.956  32.248  29.064  1.00  0.00     0.031 C 
ATOM     47  C   UNL A   1      41.756  25.740  28.245  1.00  0.00     0.029 A 
ATOM     48  C   UNL A   1      43.137  25.989  27.838  1.00  0.00     0.049 A 
ATOM     49  H   UNL A   1      44.194  27.778  27.984  1.00  0.00     0.167 HD
ATOM     50  C   UNL A   1      46.229  31.690  28.259  1.00  0.00     0.037 A 
ATOM     51  C   UNL A   1      43.977  25.086  27.295  1.00  0.00     0.037 A 
ATOM     52  C   UNL A   1      47.218  30.766  27.771  1.00  0.00     0.049 A 
ATOM     53  C   UNL A   1      45.378  25.517  26.942  1.00  0.00     0.074 A 
ATOM     54  C   UNL A   1      48.551  31.006  27.491  1.00  0.00     0.029 A 
ATOM     55  N   UNL A   1      46.980  29.430  27.485  1.00  0.00    -0.354 N 
ATOM     56  N   UNL A   1      45.947  26.689  27.105  1.00  0.00    -0.248 NA
ATOM     57  C   UNL A   1      46.253  24.506  26.334  1.00  0.00     0.031 C 
ATOM     58  C   UNL A   1      49.106  29.827  26.983  1.00  0.00     0.029 A 
ATOM     59  C   UNL A   1      48.134  28.840  27.002  1.00  0.00     0.049 A 
ATOM     60  H   UNL A   1      46.119  28.970  27.608  1.00  0.00     0.167 HD
ATOM     61  C   UNL A   1      47.254  26.543  26.652  1.00  0.00     0.074 A 
ATOM     62  C   UNL A   1      47.395  25.168  26.220  1.00  0.00     0.031 C 
ATOM     63  C   UNL A   1      48.252  27.461  26.598  1.00  0.00     0.037 A 
BRANCH  50  64
ATOM     64  C   UNL A   1      46.629  33.128  28.431  1.00  0.00     0.058 A 
ATOM     65  C   UNL A   1      46.496  34.067  27.397  1.00  0.00     0.135 A 
ATOM     66  C   UNL A   1      47.079  33.586  29.680  1.00  0.00     0.135 A 
ATOM     67  F   UNL A   1      46.094  33.677  26.176  1.00  0.00    -0.206 F 
ATOM     68  C   UNL A   1      46.791  35.412  27.596  1.00  0.00     0.059 A 
ATOM     69  C   UNL A   1      47.357  34.930  29.909  1.00  0.00     0.059 A 
ATOM     70  F   UNL A   1      47.234  32.726  30.698  1.00  0.00    -0.206 F 
ATOM     71  C   UNL A   1      47.212  35.835  28.859  1.00  0.00     0.060 A 
BRANCH  71  72
ATOM     72  S   UNL A   1      47.535  37.593  29.117  1.00  0.00     0.124 S 
ATOM     73  O   UNL A   1      46.219  38.172  28.863  1.00  0.00    -0.237 OA
ATOM     74  O   UNL A   1      47.983  37.626  30.505  1.00  0.00    -0.237 OA
ATOM     75  O   UNL A   1      48.558  37.902  28.123  1.00  0.00    -0.744 OA
ENDBRANCH  71  72
ENDBRANCH  50  64
BRANCH  51  76
ATOM     76  C   UNL A   1      43.519  23.696  27.023  1.00  0.00     0.058 A 
ATOM     77  C   UNL A   1      43.165  23.285  25.729  1.00  0.00     0.135 A 
ATOM     78  C   UNL A   1      43.382  22.762  28.063  1.00  0.00     0.135 A 
ATOM     79  F   UNL A   1      43.271  24.140  24.701  1.00  0.00    -0.206 F 
ATOM     80  C   UNL A   1      42.654  22.015  25.482  1.00  0.00     0.059 A 
ATOM     81  C   UNL A   1      42.903  21.477  27.836  1.00  0.00     0.059 A 
ATOM     82  F   UNL A   1      43.721  23.099  29.317  1.00  0.00    -0.206 F 
ATOM     83  C   UNL A   1      42.519  21.120  26.544  1.00  0.00     0.060 A 
BRANCH  83  84
ATOM     84  S   UNL A   1      41.847  19.476  26.216  1.00  0.00     0.124 S 
ATOM     85  O   UNL A   1      42.603  19.083  25.032  1.00  0.00    -0.237 OA
ATOM     86  O   UNL A   1      42.168  18.761  27.446  1.00  0.00    -0.237 OA
ATOM     87  O   UNL A   1      40.425  19.733  26.001  1.00  0.00    -0.744 OA
ENDBRANCH  83  84
ENDBRANCH  51  76
BRANCH  63  88
ATOM     88  C   UNL A   1      49.592  27.000  26.099  1.00  0.00     0.058 A 
ATOM     89  C   UNL A   1      50.546  26.433  26.958  1.00  0.00     0.135 A 
ATOM     90  C   UNL A   1      49.901  27.075  24.731  1.00  0.00     0.135 A 
ATOM     91  F   UNL A   1      50.300  26.343  28.275  1.00  0.00    -0.206 F 
ATOM     92  C   UNL A   1      51.771  25.979  26.482  1.00  0.00     0.059 A 
ATOM     93  C   UNL A   1      51.108  26.600  24.229  1.00  0.00     0.059 A 
ATOM     94  F   UNL A   1      49.018  27.596  23.865  1.00  0.00    -0.206 F 
ATOM     95  C   UNL A   1      52.042  26.066  25.114  1.00  0.00     0.060 A 
BRANCH  95  96
ATOM     96  S   UNL A   1      53.622  25.441  24.505  1.00  0.00     0.124 S 
ATOM     97  O   UNL A   1      53.546  25.785  23.089  1.00  0.00    -0.237 OA
ATOM     98  O   UNL A   1      54.585  26.204  25.292  1.00  0.00    -0.237 OA
ATOM     99  O   UNL A   1      53.563  24.015  24.808  1.00  0.00    -0.744 OA
ENDBRANCH  95  96
ENDBRANCH  63  88
ENDBRANCH  37  38
ENDBRANCH  30  32
ENDBRANCH  29  30
ENDBRANCH  28  29
ENDBRANCH  27  28
ENDBRANCH  26  27
ENDBRANCH  25  26
ENDBRANCH   1  25
TORSDOF 24
ENDMDL
MODEL 2
REMARK VINA RESULT:      -9.6      3.255      9.767
REMARK SMILES CCCNC(=O)CN(C)C(=O)C[N@H+]1CCCC[C@H]1C(=O)OCCOCCOC(=O)c1ccc(-c2c3nc(c(-c4c(F)cc(S(=O)(=O)[O-])cc4F)c4ccc([nH]4)c(-c4c(F)cc(S(=O)(=O)[O-])cc4F)c4nc(c(-c5c(F)cc(S(=O)(=O)[O-])cc5F)c5ccc2[nH]5)C=C4)C=C3)cc1
REMARK SMILES IDX 22 1 21 2 19 3 20 4 18 5 13 6 14 7 15 9 17 10 16 11 12 12
REMARK SMILES IDX 10 13 11 14 8 15 9 16 7 17 5 18 4 19 6 21 3 22 2 23 1 24
REMARK SMILES IDX 23 25 24 26 25 27 26 28 27 29 28 30 29 31 30 32 31 33 95 34
REMARK SMILES IDX 32 35 94 36 33 37 34 38 35 39 88 40 36 41 93 42 87 43 89 44
REMARK SMILES IDX 37 45 92 46 86 47 85 48 38 50 72 51 51 52 71 53 52 54 55 55
REMARK SMILES IDX 70 56 90 57 53 58 54 59 69 61 91 62 56 63 39 64 40 65 49 66
REMARK SMILES IDX 41 67 42 68 48 69 50 70 43 71 44 72 45 73 46 74 47 75 73 76
REMARK SMILES IDX 74 77 83 78 75 79 76 80 82 81 84 82 77 83 78 84 79 85 80 86
REMARK SMILES IDX 81 87 57 88 58 89 67 90 59 91 60 92 66 93 68 94 61 95 62 96
REMARK SMILES IDX 63 97 64 98 65 99
REMARK H PARENT 13 8 4 20 89 49 55 60
REMARK Flexibility Score: inf
ROOT
ATOM      1  C   UNL A   1      34.686  23.376  25.851  1.00  0.00     0.261 C 
ENDROOT
BRANCH   1   2
ATOM      2  O   UNL A   1      33.461  24.098  25.655  1.00  0.00    -0.459 OA
BRANCH   2   3
ATOM      3  C   UNL A   1      32.345  23.354  25.903  1.00  0.00     0.365 C 
ATOM      4  O   UNL A   1      32.113  22.816  26.981  1.00  0.00    -0.245 OA
BRANCH   3   5
ATOM      5  C   UNL A   1      31.424  23.278  24.657  1.00  0.00     0.295 C 
ATOM      6  N   UNL A   1      31.126  24.625  24.090  1.00  0.00    -0.315 N 
ATOM      7  C   UNL A   1      32.304  25.239  23.482  1.00  0.00     0.263 C 
ATOM      8  H   UNL A   1      30.463  24.486  23.327  1.00  0.00     0.349 HD
ATOM      9  C   UNL A   1      32.651  24.444  22.232  1.00  0.00     0.062 C 
ATOM     10  C   UNL A   1      31.956  22.349  23.544  1.00  0.00     0.078 C 
ATOM     11  C   UNL A   1      32.933  22.981  22.542  1.00  0.00     0.013 C 
BRANCH   6  12
ATOM     12  C   UNL A   1      30.438  25.500  25.055  1.00  0.00     0.364 C 
BRANCH  12  13
ATOM     13  C   UNL A   1      30.145  26.849  24.386  1.00  0.00     0.277 C 
ATOM     14  O   UNL A   1      29.283  26.932  23.511  1.00  0.00    -0.268 OA
BRANCH  13  15
ATOM     15  N   UNL A   1      30.891  27.954  24.796  1.00  0.00    -0.332 N 
ATOM     16  C   UNL A   1      31.771  27.933  25.953  1.00  0.00     0.147 C 
BRANCH  15  17
ATOM     17  C   UNL A   1      30.624  29.225  24.122  1.00  0.00     0.219 C 
BRANCH  17  18
ATOM     18  C   UNL A   1      31.216  29.422  22.718  1.00  0.00     0.239 C 
ATOM     19  N   UNL A   1      30.471  29.917  21.688  1.00  0.00    -0.355 N 
ATOM     20  H   UNL A   1      30.968  30.071  20.852  1.00  0.00     0.163 HD
ATOM     21  O   UNL A   1      32.325  28.962  22.430  1.00  0.00    -0.273 OA
BRANCH  19  22
ATOM     22  C   UNL A   1      29.066  30.250  21.630  1.00  0.00     0.115 C 
BRANCH  22  23
ATOM     23  C   UNL A   1      28.773  31.607  22.253  1.00  0.00     0.018 C 
ATOM     24  C   UNL A   1      27.662  31.551  23.293  1.00  0.00     0.006 C 
ENDBRANCH  22  23
ENDBRANCH  19  22
ENDBRANCH  17  18
ENDBRANCH  15  17
ENDBRANCH  13  15
ENDBRANCH  12  13
ENDBRANCH   6  12
ENDBRANCH   3   5
ENDBRANCH   2   3
ENDBRANCH   1   2
BRANCH   1  25
ATOM     25  C   UNL A   1      35.672  23.467  24.679  1.00  0.00     0.202 C 
BRANCH  25  26
ATOM     26  O   UNL A   1      36.093  22.279  24.012  1.00  0.00    -0.374 OA
BRANCH  26  27
ATOM     27  C   UNL A   1      36.531  21.188  24.814  1.00  0.00     0.202 C 
BRANCH  27  28
ATOM     28  C   UNL A   1      37.997  21.123  25.254  1.00  0.00     0.261 C 
BRANCH  28  29
ATOM     29  O   UNL A   1      38.337  22.170  26.174  1.00  0.00    -0.460 OA
BRANCH  29  30
ATOM     30  C   UNL A   1      39.651  22.215  26.492  1.00  0.00     0.338 C 
ATOM     31  O   UNL A   1      40.525  21.436  26.129  1.00  0.00    -0.246 OA
BRANCH  30  32
ATOM     32  C   UNL A   1      39.958  23.478  27.179  1.00  0.00     0.060 A 
ATOM     33  C   UNL A   1      39.260  24.616  26.753  1.00  0.00     0.016 A 
ATOM     34  C   UNL A   1      40.937  23.566  28.169  1.00  0.00     0.016 A 
ATOM     35  C   UNL A   1      39.587  25.864  27.267  1.00  0.00     0.010 A 
ATOM     36  C   UNL A   1      41.278  24.824  28.673  1.00  0.00     0.010 A 
ATOM     37  C   UNL A   1      40.634  25.978  28.187  1.00  0.00    -0.014 A 
BRANCH  37  38
ATOM     38  C   UNL A   1      41.179  27.324  28.474  1.00  0.00     0.031 A 
ATOM     39  C   UNL A   1      42.640  27.571  28.214  1.00  0.00     0.074 A 
ATOM     40  C   UNL A   1      40.371  28.313  28.897  1.00  0.00     0.049 A 
ATOM     41  N   UNL A   1      43.339  28.660  28.390  1.00  0.00    -0.248 NA
ATOM     42  C   UNL A   1      43.419  26.437  27.683  1.00  0.00     0.031 C 
ATOM     43  C   UNL A   1      38.933  28.186  29.136  1.00  0.00     0.029 A 
ATOM     44  N   UNL A   1      40.648  29.619  29.202  1.00  0.00    -0.354 N 
ATOM     45  C   UNL A   1      44.638  28.340  28.011  1.00  0.00     0.074 A 
ATOM     46  C   UNL A   1      44.638  26.952  27.610  1.00  0.00     0.031 C 
ATOM     47  C   UNL A   1      38.456  29.367  29.565  1.00  0.00     0.029 A 
ATOM     48  C   UNL A   1      39.558  30.323  29.656  1.00  0.00     0.049 A 
ATOM     49  H   UNL A   1      41.544  30.017  29.104  1.00  0.00     0.167 HD
ATOM     50  C   UNL A   1      45.730  29.139  27.999  1.00  0.00     0.037 A 
ATOM     51  C   UNL A   1      39.473  31.587  30.115  1.00  0.00     0.037 A 
ATOM     52  C   UNL A   1      45.707  30.527  28.376  1.00  0.00     0.049 A 
ATOM     53  C   UNL A   1      40.717  32.439  30.130  1.00  0.00     0.074 A 
ATOM     54  C   UNL A   1      46.746  31.440  28.354  1.00  0.00     0.029 A 
ATOM     55  N   UNL A   1      44.589  31.200  28.849  1.00  0.00    -0.354 N 
ATOM     56  N   UNL A   1      41.930  32.138  29.727  1.00  0.00    -0.248 NA
ATOM     57  C   UNL A   1      40.583  33.805  30.656  1.00  0.00     0.031 C 
ATOM     58  C   UNL A   1      46.270  32.650  28.866  1.00  0.00     0.029 A 
ATOM     59  C   UNL A   1      44.922  32.508  29.152  1.00  0.00     0.049 A 
ATOM     60  H   UNL A   1      43.694  30.806  28.952  1.00  0.00     0.167 HD
ATOM     61  C   UNL A   1      42.692  33.285  29.921  1.00  0.00     0.074 A 
ATOM     62  C   UNL A   1      41.801  34.290  30.464  1.00  0.00     0.031 C 
ATOM     63  C   UNL A   1      44.009  33.494  29.673  1.00  0.00     0.037 A 
BRANCH  50  64
ATOM     64  C   UNL A   1      47.046  28.540  27.592  1.00  0.00     0.058 A 
ATOM     65  C   UNL A   1      47.959  28.040  28.534  1.00  0.00     0.135 A 
ATOM     66  C   UNL A   1      47.361  28.393  26.231  1.00  0.00     0.135 A 
ATOM     67  F   UNL A   1      47.719  28.176  29.848  1.00  0.00    -0.206 F 
ATOM     68  C   UNL A   1      49.136  27.411  28.140  1.00  0.00     0.059 A 
ATOM     69  C   UNL A   1      48.520  27.747  25.815  1.00  0.00     0.059 A 
ATOM     70  F   UNL A   1      46.527  28.864  25.292  1.00  0.00    -0.206 F 
ATOM     71  C   UNL A   1      49.403  27.261  26.777  1.00  0.00     0.060 A 
BRANCH  71  72
ATOM     72  S   UNL A   1      50.906  26.391  26.282  1.00  0.00     0.124 S 
ATOM     73  O   UNL A   1      50.937  26.656  24.847  1.00  0.00    -0.237 OA
ATOM     74  O   UNL A   1      51.930  27.065  27.073  1.00  0.00    -0.237 OA
ATOM     75  O   UNL A   1      50.638  25.006  26.658  1.00  0.00    -0.744 OA
ENDBRANCH  71  72
ENDBRANCH  50  64
BRANCH  51  76
ATOM     76  C   UNL A   1      38.181  32.121  30.624  1.00  0.00     0.058 A 
ATOM     77  C   UNL A   1      37.283  32.788  29.778  1.00  0.00     0.135 A 
ATOM     78  C   UNL A   1      37.839  32.016  31.982  1.00  0.00     0.135 A 
ATOM     79  F   UNL A   1      37.565  32.921  28.473  1.00  0.00    -0.206 F 
ATOM     80  C   UNL A   1      36.115  33.366  30.264  1.00  0.00     0.059 A 
ATOM     81  C   UNL A   1      36.662  32.559  32.486  1.00  0.00     0.059 A 
ATOM     82  F   UNL A   1      38.656  31.375  32.834  1.00  0.00    -0.206 F 
ATOM     83  C   UNL A   1      35.817  33.252  31.622  1.00  0.00     0.060 A 
BRANCH  83  84
ATOM     84  S   UNL A   1      34.302  34.013  32.246  1.00  0.00     0.124 S 
ATOM     85  O   UNL A   1      33.654  32.881  32.897  1.00  0.00    -0.237 OA
ATOM     86  O   UNL A   1      34.822  35.049  33.133  1.00  0.00    -0.237 OA
ATOM     87  O   UNL A   1      33.651  34.504  31.035  1.00  0.00    -0.744 OA
ENDBRANCH  83  84
ENDBRANCH  51  76
BRANCH  63  88
ATOM     88  C   UNL A   1      44.555  34.869  29.939  1.00  0.00     0.058 A 
ATOM     89  C   UNL A   1      44.513  35.882  28.970  1.00  0.00     0.135 A 
ATOM     90  C   UNL A   1      45.076  35.189  31.204  1.00  0.00     0.135 A 
ATOM     91  F   UNL A   1      44.029  35.625  27.744  1.00  0.00    -0.206 F 
ATOM     92  C   UNL A   1      44.992  37.160  29.237  1.00  0.00     0.059 A 
ATOM     93  C   UNL A   1      45.532  36.469  31.502  1.00  0.00     0.059 A 
ATOM     94  F   UNL A   1      45.126  34.260  32.171  1.00  0.00    -0.206 F 
ATOM     95  C   UNL A   1      45.498  37.444  30.507  1.00  0.00     0.060 A 
BRANCH  95  96
ATOM     96  S   UNL A   1      46.085  39.116  30.851  1.00  0.00     0.124 S 
ATOM     97  O   UNL A   1      44.900  39.726  31.445  1.00  0.00    -0.237 OA
ATOM     98  O   UNL A   1      47.199  38.877  31.761  1.00  0.00    -0.237 OA
ATOM     99  O   UNL A   1      46.457  39.623  29.533  1.00  0.00    -0.744 OA
ENDBRANCH  95  96
ENDBRANCH  63  88
ENDBRANCH  37  38
ENDBRANCH  30  32
ENDBRANCH  29  30
ENDBRANCH  28  29
ENDBRANCH  27  28
ENDBRANCH  26  27
ENDBRANCH  25  26
ENDBRANCH   1  25
TORSDOF 24
ENDMDL
MODEL 3
REMARK VINA RESULT:      -9.4      2.247      8.853
REMARK SMILES CCCNC(=O)CN(C)C(=O)C[N@H+]1CCCC[C@H]1C(=O)OCCOCCOC(=O)c1ccc(-c2c3nc(c(-c4c(F)cc(S(=O)(=O)[O-])cc4F)c4ccc([nH]4)c(-c4c(F)cc(S(=O)(=O)[O-])cc4F)c4nc(c(-c5c(F)cc(S(=O)(=O)[O-])cc5F)c5ccc2[nH]5)C=C4)C=C3)cc1
REMARK SMILES IDX 22 1 21 2 19 3 20 4 18 5 13 6 14 7 15 9 17 10 16 11 12 12
REMARK SMILES IDX 10 13 11 14 8 15 9 16 7 17 5 18 4 19 6 21 3 22 2 23 1 24
REMARK SMILES IDX 23 25 24 26 25 27 26 28 27 29 28 30 29 31 30 32 31 33 95 34
REMARK SMILES IDX 32 35 94 36 33 37 34 38 35 39 88 40 36 41 93 42 87 43 89 44
REMARK SMILES IDX 37 45 92 46 86 47 85 48 38 50 72 51 51 52 71 53 52 54 55 55
REMARK SMILES IDX 70 56 90 57 53 58 54 59 69 61 91 62 56 63 39 64 40 65 49 66
REMARK SMILES IDX 41 67 42 68 48 69 50 70 43 71 44 72 45 73 46 74 47 75 73 76
REMARK SMILES IDX 74 77 83 78 75 79 76 80 82 81 84 82 77 83 78 84 79 85 80 86
REMARK SMILES IDX 81 87 57 88 58 89 67 90 59 91 60 92 66 93 68 94 61 95 62 96
REMARK SMILES IDX 63 97 64 98 65 99
REMARK H PARENT 13 8 4 20 89 49 55 60
REMARK Flexibility Score: inf
ROOT
ATOM      1  C   UNL A   1      36.154  23.129  25.479  1.00  0.00     0.261 C 
ENDROOT
BRANCH   1   2
ATOM      2  O   UNL A   1      34.813  23.414  25.904  1.00  0.00    -0.459 OA
BRANCH   2   3
ATOM      3  C   UNL A   1      34.192  22.353  26.497  1.00  0.00     0.365 C 
ATOM      4  O   UNL A   1      34.738  21.616  27.312  1.00  0.00    -0.245 OA
BRANCH   3   5
ATOM      5  C   UNL A   1      32.729  22.206  26.006  1.00  0.00     0.295 C 
ATOM      6  N   UNL A   1      32.245  23.422  25.291  1.00  0.00    -0.315 N 
ATOM      7  C   UNL A   1      32.913  23.604  24.005  1.00  0.00     0.263 C 
ATOM      8  H   UNL A   1      31.261  23.267  25.071  1.00  0.00     0.349 HD
ATOM      9  C   UNL A   1      32.448  22.491  23.076  1.00  0.00     0.062 C 
ATOM     10  C   UNL A   1      32.486  20.955  25.134  1.00  0.00     0.078 C 
ATOM     11  C   UNL A   1      32.767  21.111  23.632  1.00  0.00     0.013 C 
BRANCH   6  12
ATOM     12  C   UNL A   1      32.273  24.623  26.144  1.00  0.00     0.364 C 
BRANCH  12  13
ATOM     13  C   UNL A   1      30.942  25.372  25.996  1.00  0.00     0.277 C 
ATOM     14  O   UNL A   1      29.931  24.953  26.561  1.00  0.00    -0.268 OA
BRANCH  13  15
ATOM     15  N   UNL A   1      30.925  26.518  25.202  1.00  0.00    -0.332 N 
ATOM     16  C   UNL A   1      31.618  27.744  25.563  1.00  0.00     0.147 C 
BRANCH  15  17
ATOM     17  C   UNL A   1      30.020  26.519  24.053  1.00  0.00     0.219 C 
BRANCH  17  18
ATOM     18  C   UNL A   1      30.265  27.568  22.957  1.00  0.00     0.239 C 
ATOM     19  N   UNL A   1      31.227  27.400  22.006  1.00  0.00    -0.355 N 
ATOM     20  H   UNL A   1      31.249  28.098  21.310  1.00  0.00     0.163 HD
ATOM     21  O   UNL A   1      29.731  28.680  23.018  1.00  0.00    -0.273 OA
BRANCH  19  22
ATOM     22  C   UNL A   1      32.220  26.361  21.856  1.00  0.00     0.115 C 
BRANCH  22  23
ATOM     23  C   UNL A   1      33.634  26.890  22.043  1.00  0.00     0.018 C 
ATOM     24  C   UNL A   1      33.668  28.372  22.392  1.00  0.00     0.006 C 
ENDBRANCH  22  23
ENDBRANCH  19  22
ENDBRANCH  17  18
ENDBRANCH  15  17
ENDBRANCH  13  15
ENDBRANCH  12  13
ENDBRANCH   6  12
ENDBRANCH   3   5
ENDBRANCH   2   3
ENDBRANCH   1   2
BRANCH   1  25
ATOM     25  C   UNL A   1      36.256  22.114  24.333  1.00  0.00     0.202 C 
BRANCH  25  26
ATOM     26  O   UNL A   1      37.047  20.940  24.493  1.00  0.00    -0.374 OA
BRANCH  26  27
ATOM     27  C   UNL A   1      38.084  20.966  25.468  1.00  0.00     0.202 C 
BRANCH  27  28
ATOM     28  C   UNL A   1      39.171  19.886  25.435  1.00  0.00     0.261 C 
BRANCH  28  29
ATOM     29  O   UNL A   1      40.050  19.962  26.566  1.00  0.00    -0.460 OA
BRANCH  29  30
ATOM     30  C   UNL A   1      41.340  19.679  26.277  1.00  0.00     0.338 C 
ATOM     31  O   UNL A   1      41.775  18.651  25.771  1.00  0.00    -0.246 OA
BRANCH  30  32
ATOM     32  C   UNL A   1      42.168  20.882  26.452  1.00  0.00     0.060 A 
ATOM     33  C   UNL A   1      42.349  21.341  27.764  1.00  0.00     0.016 A 
ATOM     34  C   UNL A   1      42.704  21.578  25.368  1.00  0.00     0.016 A 
ATOM     35  C   UNL A   1      43.011  22.539  27.995  1.00  0.00     0.010 A 
ATOM     36  C   UNL A   1      43.355  22.793  25.600  1.00  0.00     0.010 A 
ATOM     37  C   UNL A   1      43.466  23.296  26.910  1.00  0.00    -0.014 A 
BRANCH  37  38
ATOM     38  C   UNL A   1      43.870  24.699  27.148  1.00  0.00     0.031 A 
ATOM     39  C   UNL A   1      45.313  25.070  26.936  1.00  0.00     0.074 A 
ATOM     40  C   UNL A   1      42.957  25.627  27.486  1.00  0.00     0.049 A 
ATOM     41  N   UNL A   1      45.900  26.228  27.083  1.00  0.00    -0.248 NA
ATOM     42  C   UNL A   1      46.217  23.991  26.497  1.00  0.00     0.031 C 
ATOM     43  C   UNL A   1      41.527  25.377  27.672  1.00  0.00     0.029 A 
ATOM     44  N   UNL A   1      43.098  26.967  27.733  1.00  0.00    -0.354 N 
ATOM     45  C   UNL A   1      47.239  26.014  26.775  1.00  0.00     0.074 A 
ATOM     46  C   UNL A   1      47.385  24.615  26.447  1.00  0.00     0.031 C 
ATOM     47  C   UNL A   1      40.924  26.528  28.019  1.00  0.00     0.029 A 
ATOM     48  C   UNL A   1      41.929  27.586  28.104  1.00  0.00     0.049 A 
ATOM     49  H   UNL A   1      43.957  27.443  27.651  1.00  0.00     0.167 HD
ATOM     50  C   UNL A   1      48.252  26.911  26.765  1.00  0.00     0.037 A 
ATOM     51  C   UNL A   1      41.706  28.857  28.493  1.00  0.00     0.037 A 
ATOM     52  C   UNL A   1      48.084  28.307  27.067  1.00  0.00     0.049 A 
ATOM     53  C   UNL A   1      42.865  29.823  28.513  1.00  0.00     0.074 A 
ATOM     54  C   UNL A   1      49.034  29.311  27.040  1.00  0.00     0.029 A 
ATOM     55  N   UNL A   1      46.889  28.893  27.458  1.00  0.00    -0.354 N 
ATOM     56  N   UNL A   1      44.117  29.618  28.177  1.00  0.00    -0.248 NA
ATOM     57  C   UNL A   1      42.582  31.193  28.961  1.00  0.00     0.031 C 
ATOM     58  C   UNL A   1      48.426  30.495  27.468  1.00  0.00     0.029 A 
ATOM     59  C   UNL A   1      47.086  30.240  27.706  1.00  0.00     0.049 A 
ATOM     60  H   UNL A   1      46.030  28.422  27.546  1.00  0.00     0.167 HD
ATOM     61  C   UNL A   1      44.760  30.840  28.342  1.00  0.00     0.074 A 
ATOM     62  C   UNL A   1      43.757  31.781  28.794  1.00  0.00     0.031 C 
ATOM     63  C   UNL A   1      46.063  31.160  28.137  1.00  0.00     0.037 A 
BRANCH  50  64
ATOM     64  C   UNL A   1      49.635  26.419  26.444  1.00  0.00     0.058 A 
ATOM     65  C   UNL A   1      50.109  26.337  25.126  1.00  0.00     0.135 A 
ATOM     66  C   UNL A   1      50.526  26.103  27.483  1.00  0.00     0.135 A 
ATOM     67  F   UNL A   1      49.292  26.604  24.095  1.00  0.00    -0.206 F 
ATOM     68  C   UNL A   1      51.420  25.960  24.849  1.00  0.00     0.059 A 
ATOM     69  C   UNL A   1      51.847  25.747  27.230  1.00  0.00     0.059 A 
ATOM     70  F   UNL A   1      50.118  26.155  28.761  1.00  0.00    -0.206 F 
ATOM     71  C   UNL A   1      52.284  25.677  25.909  1.00  0.00     0.060 A 
BRANCH  71  72
ATOM     72  S   UNL A   1      53.997  25.247  25.535  1.00  0.00     0.124 S 
ATOM     73  O   UNL A   1      54.527  24.973  26.868  1.00  0.00    -0.237 OA
ATOM     74  O   UNL A   1      53.844  24.087  24.664  1.00  0.00    -0.237 OA
ATOM     75  O   UNL A   1      54.517  26.448  24.890  1.00  0.00    -0.744 OA
ENDBRANCH  71  72
ENDBRANCH  50  64
BRANCH  51  76
ATOM     76  C   UNL A   1      40.349  29.291  28.920  1.00  0.00     0.058 A 
ATOM     77  C   UNL A   1      39.355  29.605  27.982  1.00  0.00     0.135 A 
ATOM     78  C   UNL A   1      40.033  29.445  30.280  1.00  0.00     0.135 A 
ATOM     79  F   UNL A   1      39.607  29.481  26.670  1.00  0.00    -0.206 F 
ATOM     80  C   UNL A   1      38.112  30.095  28.372  1.00  0.00     0.059 A 
ATOM     81  C   UNL A   1      38.787  29.904  30.695  1.00  0.00     0.059 A 
ATOM     82  F   UNL A   1      40.943  29.145  31.220  1.00  0.00    -0.206 F 
ATOM     83  C   UNL A   1      37.841  30.248  29.732  1.00  0.00     0.060 A 
BRANCH  83  84
ATOM     84  S   UNL A   1      36.229  30.893  30.229  1.00  0.00     0.124 S 
ATOM     85  O   UNL A   1      35.902  30.024  31.355  1.00  0.00    -0.237 OA
ATOM     86  O   UNL A   1      36.541  32.279  30.561  1.00  0.00    -0.237 OA
ATOM     87  O   UNL A   1      35.412  30.711  29.033  1.00  0.00    -0.744 OA
ENDBRANCH  83  84
ENDBRANCH  51  76
BRANCH  63  88
ATOM     88  C   UNL A   1      46.468  32.591  28.353  1.00  0.00     0.058 A 
ATOM     89  C   UNL A   1      46.387  33.545  27.327  1.00  0.00     0.135 A 
ATOM     90  C   UNL A   1      46.887  33.023  29.622  1.00  0.00     0.135 A 
ATOM     91  F   UNL A   1      45.997  33.182  26.095  1.00  0.00    -0.206 F 
ATOM     92  C   UNL A   1      46.734  34.874  27.545  1.00  0.00     0.059 A 
ATOM     93  C   UNL A   1      47.208  34.353  29.870  1.00  0.00     0.059 A 
ATOM     94  F   UNL A   1      46.967  32.153  30.641  1.00  0.00    -0.206 F 
ATOM     95  C   UNL A   1      47.142  35.269  28.822  1.00  0.00     0.060 A 
BRANCH  95  96
ATOM     96  S   UNL A   1      47.555  37.004  29.100  1.00  0.00     0.124 S 
ATOM     97  O   UNL A   1      48.749  37.156  28.274  1.00  0.00    -0.237 OA
ATOM     98  O   UNL A   1      46.361  37.691  28.622  1.00  0.00    -0.237 OA
ATOM     99  O   UNL A   1      47.777  37.072  30.541  1.00  0.00    -0.744 OA
ENDBRANCH  95  96
ENDBRANCH  63  88
ENDBRANCH  37  38
ENDBRANCH  30  32
ENDBRANCH  29  30
ENDBRANCH  28  29
ENDBRANCH  27  28
ENDBRANCH  26  27
ENDBRANCH  25  26
ENDBRANCH   1  25
TORSDOF 24
ENDMDL
