MODEL 1
REMARK VINA RESULT:     -11.9      0.000      0.000
REMARK SMILES N#CC1=C(N)N2C(=O)[C@@H](CC(=O)OCCOCCOC(=O)c3ccc(-c4c5nc(c(-c6c(F)cc(S(=O)(=O)[O-])cc6F)c6ccc([nH]6)c(-c6c(F)cc(S(=O)(=O)[O-])cc6F)c6nc(c(-c7c(F)cc(S(=O)(=O)[O-])cc7F)c7ccc4[nH]7)C=C6)C=C5)cc3)SC2=C(C#N)[C@H]1c1ccc(Cl)cc1
REMARK SMILES IDX 17 1 16 2 15 3 14 4 13 5 11 6 12 7 10 8 9 9 3 10 4 11 93 12
REMARK SMILES IDX 6 13 90 14 7 15 89 16 8 17 88 18 2 19 1 20 5 21 94 24 95 25
REMARK SMILES IDX 100 26 96 27 99 28 97 29 98 30 91 31 92 32 18 33 19 34 20 35
REMARK SMILES IDX 21 36 22 37 23 38 87 39 24 40 86 41 25 42 26 43 27 44 80 45
REMARK SMILES IDX 28 46 85 47 79 48 81 49 29 50 84 51 78 52 77 53 30 55 64 56
REMARK SMILES IDX 43 57 63 58 44 59 47 60 62 61 82 62 45 63 46 64 61 66 83 67
REMARK SMILES IDX 48 68 31 69 32 70 41 71 33 72 34 73 40 74 42 75 35 76 36 77
REMARK SMILES IDX 37 78 38 79 39 80 65 81 66 82 75 83 67 84 68 85 74 86 76 87
REMARK SMILES IDX 69 88 70 89 71 90 72 91 73 92 49 93 50 94 59 95 51 96 52 97
REMARK SMILES IDX 58 98 60 99 53 100 54 101 55 102 56 103 57 104
REMARK H PARENT 5 22 5 23 81 54 47 65
REMARK Flexibility Score: inf
ROOT
ATOM      1  C   UNL A   1      40.777  21.497  26.254  1.00  0.00     0.202 C 
ENDROOT
BRANCH   1   2
ATOM      2  O   UNL A   1      39.614  22.311  26.316  1.00  0.00    -0.374 OA
BRANCH   2   3
ATOM      3  C   UNL A   1      38.426  21.781  25.734  1.00  0.00     0.202 C 
BRANCH   3   4
ATOM      4  C   UNL A   1      37.191  22.697  25.704  1.00  0.00     0.261 C 
BRANCH   4   5
ATOM      5  O   UNL A   1      37.104  23.573  24.546  1.00  0.00    -0.463 OA
BRANCH   5   6
ATOM      6  C   UNL A   1      36.233  23.169  23.595  1.00  0.00     0.307 C 
ATOM      7  O   UNL A   1      36.552  22.910  22.435  1.00  0.00    -0.252 OA
BRANCH   6   8
ATOM      8  C   UNL A   1      34.831  22.838  24.051  1.00  0.00     0.147 C 
BRANCH   8   9
ATOM      9  C   UNL A   1      33.637  22.526  23.151  1.00  0.00     0.154 C 
ATOM     10  C   UNL A   1      31.157  26.586  23.137  1.00  0.00     0.083 C 
ATOM     11  C   UNL A   1      31.696  25.650  22.311  1.00  0.00     0.126 C 
ATOM     12  C   UNL A   1      30.965  26.321  24.626  1.00  0.00     0.107 C 
ATOM     13  N   UNL A   1      32.240  24.480  22.862  1.00  0.00    -0.258 N 
ATOM     14  C   UNL A   1      31.068  24.830  24.925  1.00  0.00     0.073 C 
ATOM     15  C   UNL A   1      33.122  23.604  22.201  1.00  0.00     0.247 C 
ATOM     16  C   UNL A   1      31.760  24.047  24.080  1.00  0.00     0.099 C 
ATOM     17  O   UNL A   1      33.450  23.661  21.019  1.00  0.00    -0.273 OA
ATOM     18  S   UNL A   1      32.188  22.379  24.332  1.00  0.00    -0.093 SA
BRANCH  10  19
ATOM     19  C   UNL A   1      30.493  27.824  22.557  1.00  0.00     0.100 C 
ATOM     20  N   UNL A   1      29.942  28.852  22.076  1.00  0.00    -0.193 NA
ENDBRANCH  10  19
BRANCH  11  21
ATOM     21  N   UNL A   1      31.758  25.832  20.957  1.00  0.00    -0.384 N 
ATOM     22  H   UNL A   1      32.622  26.017  20.524  1.00  0.00     0.158 HD
ATOM     23  H   UNL A   1      30.938  25.776  20.414  1.00  0.00     0.158 HD
ENDBRANCH  11  21
BRANCH  12  24
ATOM     24  C   UNL A   1      31.903  27.179  25.499  1.00  0.00    -0.034 A 
ATOM     25  C   UNL A   1      31.471  27.847  26.662  1.00  0.00     0.006 A 
ATOM     26  C   UNL A   1      33.250  27.340  25.122  1.00  0.00     0.006 A 
ATOM     27  C   UNL A   1      32.343  28.648  27.408  1.00  0.00     0.021 A 
ATOM     28  C   UNL A   1      34.129  28.117  25.884  1.00  0.00     0.021 A 
ATOM     29  C   UNL A   1      33.670  28.774  27.020  1.00  0.00     0.041 A 
ATOM     30  Cl  UNL A   1      34.742  29.755  27.938  1.00  0.00    -0.084 Cl
ENDBRANCH  12  24
BRANCH  14  31
ATOM     31  C   UNL A   1      30.487  24.336  26.126  1.00  0.00     0.098 C 
ATOM     32  N   UNL A   1      29.978  23.939  27.093  1.00  0.00    -0.193 NA
ENDBRANCH  14  31
ENDBRANCH   8   9
ENDBRANCH   6   8
ENDBRANCH   5   6
ENDBRANCH   4   5
ENDBRANCH   3   4
ENDBRANCH   2   3
ENDBRANCH   1   2
BRANCH   1  33
ATOM     33  C   UNL A   1      42.121  22.224  26.197  1.00  0.00     0.261 C 
BRANCH  33  34
ATOM     34  O   UNL A   1      41.982  23.655  26.095  1.00  0.00    -0.460 OA
BRANCH  34  35
ATOM     35  C   UNL A   1      42.944  24.378  26.720  1.00  0.00     0.338 C 
ATOM     36  O   UNL A   1      44.148  24.265  26.561  1.00  0.00    -0.246 OA
BRANCH  35  37
ATOM     37  C   UNL A   1      42.360  25.471  27.531  1.00  0.00     0.060 A 
ATOM     38  C   UNL A   1      43.111  26.641  27.690  1.00  0.00     0.016 A 
ATOM     39  C   UNL A   1      41.195  25.288  28.282  1.00  0.00     0.016 A 
ATOM     40  C   UNL A   1      42.723  27.609  28.621  1.00  0.00     0.010 A 
ATOM     41  C   UNL A   1      40.804  26.265  29.213  1.00  0.00     0.010 A 
ATOM     42  C   UNL A   1      41.586  27.416  29.420  1.00  0.00    -0.014 A 
BRANCH  42  43
ATOM     43  C   UNL A   1      41.297  28.373  30.528  1.00  0.00     0.031 A 
ATOM     44  C   UNL A   1      42.139  28.351  31.781  1.00  0.00     0.074 A 
ATOM     45  C   UNL A   1      40.331  29.304  30.395  1.00  0.00     0.049 A 
ATOM     46  N   UNL A   1      42.059  29.108  32.848  1.00  0.00    -0.248 NA
ATOM     47  C   UNL A   1      43.215  27.349  31.841  1.00  0.00     0.031 C 
ATOM     48  C   UNL A   1      39.469  29.460  29.225  1.00  0.00     0.029 A 
ATOM     49  N   UNL A   1      39.916  30.298  31.250  1.00  0.00    -0.354 N 
ATOM     50  C   UNL A   1      43.068  28.675  33.703  1.00  0.00     0.074 A 
ATOM     51  C   UNL A   1      43.723  27.564  33.047  1.00  0.00     0.031 C 
ATOM     52  C   UNL A   1      38.629  30.488  29.433  1.00  0.00     0.029 A 
ATOM     53  C   UNL A   1      38.861  31.039  30.767  1.00  0.00     0.049 A 
ATOM     54  H   UNL A   1      40.333  30.464  32.126  1.00  0.00     0.167 HD
ATOM     55  C   UNL A   1      43.425  29.165  34.916  1.00  0.00     0.037 A 
ATOM     56  C   UNL A   1      38.147  32.030  31.339  1.00  0.00     0.037 A 
ATOM     57  C   UNL A   1      42.773  30.275  35.568  1.00  0.00     0.049 A 
ATOM     58  C   UNL A   1      38.513  32.504  32.723  1.00  0.00     0.074 A 
ATOM     59  C   UNL A   1      43.077  30.851  36.790  1.00  0.00     0.029 A 
ATOM     60  N   UNL A   1      41.684  30.968  35.063  1.00  0.00    -0.354 N 
ATOM     61  N   UNL A   1      39.488  32.102  33.503  1.00  0.00    -0.248 NA
ATOM     62  C   UNL A   1      37.686  33.572  33.304  1.00  0.00     0.031 C 
ATOM     63  C   UNL A   1      42.129  31.845  37.055  1.00  0.00     0.029 A 
ATOM     64  C   UNL A   1      41.283  31.943  35.964  1.00  0.00     0.049 A 
ATOM     65  H   UNL A   1      41.256  30.794  34.193  1.00  0.00     0.167 HD
ATOM     66  C   UNL A   1      39.412  32.890  34.648  1.00  0.00     0.074 A 
ATOM     67  C   UNL A   1      38.306  33.803  34.452  1.00  0.00     0.031 C 
ATOM     68  C   UNL A   1      40.188  32.860  35.760  1.00  0.00     0.037 A 
BRANCH  55  69
ATOM     69  C   UNL A   1      44.565  28.497  35.642  1.00  0.00     0.058 A 
ATOM     70  C   UNL A   1      45.900  28.893  35.456  1.00  0.00     0.135 A 
ATOM     71  C   UNL A   1      44.311  27.495  36.596  1.00  0.00     0.135 A 
ATOM     72  F   UNL A   1      46.205  29.836  34.550  1.00  0.00    -0.206 F 
ATOM     73  C   UNL A   1      46.941  28.307  36.171  1.00  0.00     0.059 A 
ATOM     74  C   UNL A   1      45.333  26.919  37.346  1.00  0.00     0.059 A 
ATOM     75  F   UNL A   1      43.055  27.079  36.819  1.00  0.00    -0.206 F 
ATOM     76  C   UNL A   1      46.646  27.325  37.119  1.00  0.00     0.060 A 
BRANCH  76  77
ATOM     77  S   UNL A   1      48.007  26.595  38.054  1.00  0.00     0.124 S 
ATOM     78  O   UNL A   1      48.220  27.597  39.093  1.00  0.00    -0.237 OA
ATOM     79  O   UNL A   1      47.433  25.331  38.501  1.00  0.00    -0.237 OA
ATOM     80  O   UNL A   1      49.078  26.481  37.066  1.00  0.00    -0.744 OA
ENDBRANCH  76  77
ENDBRANCH  55  69
BRANCH  56  81
ATOM     81  C   UNL A   1      36.986  32.628  30.619  1.00  0.00     0.058 A 
ATOM     82  C   UNL A   1      37.154  33.672  29.697  1.00  0.00     0.135 A 
ATOM     83  C   UNL A   1      35.676  32.184  30.866  1.00  0.00     0.135 A 
ATOM     84  F   UNL A   1      38.382  34.144  29.434  1.00  0.00    -0.206 F 
ATOM     85  C   UNL A   1      36.067  34.271  29.064  1.00  0.00     0.059 A 
ATOM     86  C   UNL A   1      34.579  32.741  30.220  1.00  0.00     0.059 A 
ATOM     87  F   UNL A   1      35.457  31.183  31.733  1.00  0.00    -0.206 F 
ATOM     88  C   UNL A   1      34.782  33.795  29.331  1.00  0.00     0.060 A 
BRANCH  88  89
ATOM     89  S   UNL A   1      33.383  34.555  28.482  1.00  0.00     0.124 S 
ATOM     90  O   UNL A   1      32.514  34.905  29.600  1.00  0.00    -0.237 OA
ATOM     91  O   UNL A   1      34.018  35.673  27.791  1.00  0.00    -0.237 OA
ATOM     92  O   UNL A   1      32.896  33.488  27.614  1.00  0.00    -0.744 OA
ENDBRANCH  88  89
ENDBRANCH  56  81
BRANCH  68  93
ATOM     93  C   UNL A   1      39.910  33.875  36.840  1.00  0.00     0.058 A 
ATOM     94  C   UNL A   1      39.093  33.587  37.945  1.00  0.00     0.135 A 
ATOM     95  C   UNL A   1      40.513  35.145  36.791  1.00  0.00     0.135 A 
ATOM     96  F   UNL A   1      38.486  32.394  38.044  1.00  0.00    -0.206 F 
ATOM     97  C   UNL A   1      38.862  34.527  38.946  1.00  0.00     0.059 A 
ATOM     98  C   UNL A   1      40.326  36.086  37.799  1.00  0.00     0.059 A 
ATOM     99  F   UNL A   1      41.312  35.475  35.764  1.00  0.00    -0.206 F 
ATOM    100  C   UNL A   1      39.486  35.772  38.866  1.00  0.00     0.060 A 
BRANCH 100 101
ATOM    101  S   UNL A   1      39.204  36.968  40.189  1.00  0.00     0.124 S 
ATOM    102  O   UNL A   1      38.355  36.205  41.099  1.00  0.00    -0.237 OA
ATOM    103  O   UNL A   1      40.560  37.234  40.661  1.00  0.00    -0.237 OA
ATOM    104  O   UNL A   1      38.552  38.083  39.510  1.00  0.00    -0.744 OA
ENDBRANCH 100 101
ENDBRANCH  68  93
ENDBRANCH  42  43
ENDBRANCH  35  37
ENDBRANCH  34  35
ENDBRANCH  33  34
ENDBRANCH   1  33
TORSDOF 22
ENDMDL
MODEL 2
REMARK VINA RESULT:     -11.6      1.074      7.975
REMARK SMILES N#CC1=C(N)N2C(=O)[C@@H](CC(=O)OCCOCCOC(=O)c3ccc(-c4c5nc(c(-c6c(F)cc(S(=O)(=O)[O-])cc6F)c6ccc([nH]6)c(-c6c(F)cc(S(=O)(=O)[O-])cc6F)c6nc(c(-c7c(F)cc(S(=O)(=O)[O-])cc7F)c7ccc4[nH]7)C=C6)C=C5)cc3)SC2=C(C#N)[C@H]1c1ccc(Cl)cc1
REMARK SMILES IDX 17 1 16 2 15 3 14 4 13 5 11 6 12 7 10 8 9 9 3 10 4 11 93 12
REMARK SMILES IDX 6 13 90 14 7 15 89 16 8 17 88 18 2 19 1 20 5 21 94 24 95 25
REMARK SMILES IDX 100 26 96 27 99 28 97 29 98 30 91 31 92 32 18 33 19 34 20 35
REMARK SMILES IDX 21 36 22 37 23 38 87 39 24 40 86 41 25 42 26 43 27 44 80 45
REMARK SMILES IDX 28 46 85 47 79 48 81 49 29 50 84 51 78 52 77 53 30 55 64 56
REMARK SMILES IDX 43 57 63 58 44 59 47 60 62 61 82 62 45 63 46 64 61 66 83 67
REMARK SMILES IDX 48 68 31 69 32 70 41 71 33 72 34 73 40 74 42 75 35 76 36 77
REMARK SMILES IDX 37 78 38 79 39 80 65 81 66 82 75 83 67 84 68 85 74 86 76 87
REMARK SMILES IDX 69 88 70 89 71 90 72 91 73 92 49 93 50 94 59 95 51 96 52 97
REMARK SMILES IDX 58 98 60 99 53 100 54 101 55 102 56 103 57 104
REMARK H PARENT 5 22 5 23 81 54 47 65
REMARK Flexibility Score: inf
ROOT
ATOM      1  C   UNL A   1      39.631  21.841  26.311  1.00  0.00     0.202 C 
ENDROOT
BRANCH   1   2
ATOM      2  O   UNL A   1      38.268  22.051  25.966  1.00  0.00    -0.374 OA
BRANCH   2   3
ATOM      3  C   UNL A   1      37.663  21.080  25.116  1.00  0.00     0.202 C 
BRANCH   3   4
ATOM      4  C   UNL A   1      36.127  21.005  25.121  1.00  0.00     0.261 C 
BRANCH   4   5
ATOM      5  O   UNL A   1      35.467  21.985  25.968  1.00  0.00    -0.463 OA
BRANCH   5   6
ATOM      6  C   UNL A   1      35.057  23.102  25.328  1.00  0.00     0.307 C 
ATOM      7  O   UNL A   1      34.882  24.188  25.881  1.00  0.00    -0.252 OA
BRANCH   6   8
ATOM      8  C   UNL A   1      35.003  23.041  23.819  1.00  0.00     0.147 C 
BRANCH   8   9
ATOM      9  C   UNL A   1      33.785  22.677  22.972  1.00  0.00     0.154 C 
ATOM     10  C   UNL A   1      31.085  26.590  23.155  1.00  0.00     0.083 C 
ATOM     11  C   UNL A   1      31.633  25.700  22.286  1.00  0.00     0.126 C 
ATOM     12  C   UNL A   1      30.982  26.291  24.647  1.00  0.00     0.107 C 
ATOM     13  N   UNL A   1      32.268  24.554  22.789  1.00  0.00    -0.258 N 
ATOM     14  C   UNL A   1      31.183  24.803  24.912  1.00  0.00     0.073 C 
ATOM     15  C   UNL A   1      33.164  23.740  22.069  1.00  0.00     0.247 C 
ATOM     16  C   UNL A   1      31.874  24.074  24.021  1.00  0.00     0.099 C 
ATOM     17  O   UNL A   1      33.429  23.834  20.874  1.00  0.00    -0.273 OA
ATOM     18  S   UNL A   1      32.406  22.430  24.219  1.00  0.00    -0.093 SA
BRANCH  10  19
ATOM     19  C   UNL A   1      30.324  27.798  22.632  1.00  0.00     0.100 C 
ATOM     20  N   UNL A   1      29.694  28.800  22.198  1.00  0.00    -0.193 NA
ENDBRANCH  10  19
BRANCH  11  21
ATOM     21  N   UNL A   1      31.618  25.906  20.935  1.00  0.00    -0.384 N 
ATOM     22  H   UNL A   1      31.935  25.202  20.325  1.00  0.00     0.158 HD
ATOM     23  H   UNL A   1      31.288  26.760  20.571  1.00  0.00     0.158 HD
ENDBRANCH  11  21
BRANCH  12  24
ATOM     24  C   UNL A   1      31.913  27.186  25.489  1.00  0.00    -0.034 A 
ATOM     25  C   UNL A   1      31.493  27.836  26.667  1.00  0.00     0.006 A 
ATOM     26  C   UNL A   1      33.239  27.402  25.067  1.00  0.00     0.006 A 
ATOM     27  C   UNL A   1      32.356  28.672  27.384  1.00  0.00     0.021 A 
ATOM     28  C   UNL A   1      34.111  28.215  25.801  1.00  0.00     0.021 A 
ATOM     29  C   UNL A   1      33.664  28.852  26.952  1.00  0.00     0.041 A 
ATOM     30  Cl  UNL A   1      34.725  29.876  27.835  1.00  0.00    -0.084 Cl
ENDBRANCH  12  24
BRANCH  14  31
ATOM     31  C   UNL A   1      30.691  24.258  26.131  1.00  0.00     0.098 C 
ATOM     32  N   UNL A   1      30.259  23.798  27.108  1.00  0.00    -0.193 NA
ENDBRANCH  14  31
ENDBRANCH   8   9
ENDBRANCH   6   8
ENDBRANCH   5   6
ENDBRANCH   4   5
ENDBRANCH   3   4
ENDBRANCH   2   3
ENDBRANCH   1   2
BRANCH   1  33
ATOM     33  C   UNL A   1      40.436  23.077  26.711  1.00  0.00     0.261 C 
BRANCH  33  34
ATOM     34  O   UNL A   1      39.724  24.309  26.483  1.00  0.00    -0.460 OA
BRANCH  34  35
ATOM     35  C   UNL A   1      40.501  25.414  26.352  1.00  0.00     0.338 C 
ATOM     36  O   UNL A   1      40.905  25.890  25.304  1.00  0.00    -0.246 OA
BRANCH  35  37
ATOM     37  C   UNL A   1      40.688  26.102  27.649  1.00  0.00     0.060 A 
ATOM     38  C   UNL A   1      39.655  26.018  28.590  1.00  0.00     0.016 A 
ATOM     39  C   UNL A   1      41.759  26.972  27.873  1.00  0.00     0.016 A 
ATOM     40  C   UNL A   1      39.669  26.826  29.731  1.00  0.00     0.010 A 
ATOM     41  C   UNL A   1      41.775  27.779  29.024  1.00  0.00     0.010 A 
ATOM     42  C   UNL A   1      40.711  27.741  29.944  1.00  0.00    -0.014 A 
BRANCH  42  43
ATOM     43  C   UNL A   1      40.611  28.716  31.069  1.00  0.00     0.031 A 
ATOM     44  C   UNL A   1      39.578  29.817  31.024  1.00  0.00     0.074 A 
ATOM     45  C   UNL A   1      41.391  28.585  32.161  1.00  0.00     0.049 A 
ATOM     46  N   UNL A   1      39.323  30.751  31.906  1.00  0.00    -0.248 NA
ATOM     47  C   UNL A   1      38.719  29.872  29.832  1.00  0.00     0.031 C 
ATOM     48  C   UNL A   1      42.403  27.547  32.350  1.00  0.00     0.029 A 
ATOM     49  N   UNL A   1      41.452  29.324  33.318  1.00  0.00    -0.354 N 
ATOM     50  C   UNL A   1      38.278  31.504  31.378  1.00  0.00     0.074 A 
ATOM     51  C   UNL A   1      37.973  30.939  30.080  1.00  0.00     0.031 C 
ATOM     52  C   UNL A   1      42.983  27.713  33.551  1.00  0.00     0.029 A 
ATOM     53  C   UNL A   1      42.417  28.895  34.201  1.00  0.00     0.049 A 
ATOM     54  H   UNL A   1      40.862  30.091  33.499  1.00  0.00     0.167 HD
ATOM     55  C   UNL A   1      37.624  32.557  31.927  1.00  0.00     0.037 A 
ATOM     56  C   UNL A   1      42.818  29.404  35.383  1.00  0.00     0.037 A 
ATOM     57  C   UNL A   1      37.928  33.116  33.221  1.00  0.00     0.049 A 
ATOM     58  C   UNL A   1      42.127  30.626  35.936  1.00  0.00     0.074 A 
ATOM     59  C   UNL A   1      37.308  34.174  33.867  1.00  0.00     0.029 A 
ATOM     60  N   UNL A   1      38.939  32.678  34.063  1.00  0.00    -0.354 N 
ATOM     61  N   UNL A   1      41.123  31.305  35.435  1.00  0.00    -0.248 NA
ATOM     62  C   UNL A   1      42.621  31.149  37.219  1.00  0.00     0.031 C 
ATOM     63  C   UNL A   1      37.988  34.418  35.064  1.00  0.00     0.029 A 
ATOM     64  C   UNL A   1      38.981  33.464  35.204  1.00  0.00     0.049 A 
ATOM     65  H   UNL A   1      39.540  31.919  33.877  1.00  0.00     0.167 HD
ATOM     66  C   UNL A   1      40.844  32.311  36.357  1.00  0.00     0.074 A 
ATOM     67  C   UNL A   1      41.774  32.141  37.453  1.00  0.00     0.031 C 
ATOM     68  C   UNL A   1      39.901  33.285  36.301  1.00  0.00     0.037 A 
BRANCH  55  69
ATOM     69  C   UNL A   1      36.520  33.201  31.127  1.00  0.00     0.058 A 
ATOM     70  C   UNL A   1      35.166  33.051  31.472  1.00  0.00     0.135 A 
ATOM     71  C   UNL A   1      36.825  34.042  30.042  1.00  0.00     0.135 A 
ATOM     72  F   UNL A   1      34.813  32.251  32.491  1.00  0.00    -0.206 F 
ATOM     73  C   UNL A   1      34.157  33.693  30.759  1.00  0.00     0.059 A 
ATOM     74  C   UNL A   1      35.834  34.719  29.336  1.00  0.00     0.059 A 
ATOM     75  F   UNL A   1      38.101  34.225  29.668  1.00  0.00    -0.206 F 
ATOM     76  C   UNL A   1      34.502  34.531  29.697  1.00  0.00     0.060 A 
BRANCH  76  77
ATOM     77  S   UNL A   1      33.180  35.373  28.801  1.00  0.00     0.124 S 
ATOM     78  O   UNL A   1      32.408  35.953  29.896  1.00  0.00    -0.237 OA
ATOM     79  O   UNL A   1      33.921  36.322  27.977  1.00  0.00    -0.237 OA
ATOM     80  O   UNL A   1      32.519  34.294  28.072  1.00  0.00    -0.744 OA
ENDBRANCH  76  77
ENDBRANCH  55  69
BRANCH  56  81
ATOM     81  C   UNL A   1      43.954  28.781  36.121  1.00  0.00     0.058 A 
ATOM     82  C   UNL A   1      45.263  29.270  36.001  1.00  0.00     0.135 A 
ATOM     83  C   UNL A   1      43.753  27.658  36.941  1.00  0.00     0.135 A 
ATOM     84  F   UNL A   1      45.514  30.331  35.220  1.00  0.00    -0.206 F 
ATOM     85  C   UNL A   1      46.335  28.656  36.644  1.00  0.00     0.059 A 
ATOM     86  C   UNL A   1      44.801  27.049  37.622  1.00  0.00     0.059 A 
ATOM     87  F   UNL A   1      42.520  27.152  37.099  1.00  0.00    -0.206 F 
ATOM     88  C   UNL A   1      46.092  27.546  37.455  1.00  0.00     0.060 A 
BRANCH  88  89
ATOM     89  S   UNL A   1      47.483  26.777  38.311  1.00  0.00     0.124 S 
ATOM     90  O   UNL A   1      48.030  25.916  37.269  1.00  0.00    -0.237 OA
ATOM     91  O   UNL A   1      48.292  27.935  38.676  1.00  0.00    -0.237 OA
ATOM     92  O   UNL A   1      46.849  26.087  39.430  1.00  0.00    -0.744 OA
ENDBRANCH  88  89
ENDBRANCH  56  81
BRANCH  68  93
ATOM     93  C   UNL A   1      39.786  34.221  37.477  1.00  0.00     0.058 A 
ATOM     94  C   UNL A   1      39.113  33.861  38.656  1.00  0.00     0.135 A 
ATOM     95  C   UNL A   1      40.404  35.484  37.441  1.00  0.00     0.135 A 
ATOM     96  F   UNL A   1      38.499  32.671  38.748  1.00  0.00    -0.206 F 
ATOM     97  C   UNL A   1      39.032  34.728  39.743  1.00  0.00     0.059 A 
ATOM     98  C   UNL A   1      40.367  36.350  38.529  1.00  0.00     0.059 A 
ATOM     99  F   UNL A   1      41.070  35.879  36.345  1.00  0.00    -0.206 F 
ATOM    100  C   UNL A   1      39.667  35.969  39.671  1.00  0.00     0.060 A 
BRANCH 100 101
ATOM    101  S   UNL A   1      39.583  37.067  41.102  1.00  0.00     0.124 S 
ATOM    102  O   UNL A   1      40.995  37.234  41.429  1.00  0.00    -0.237 OA
ATOM    103  O   UNL A   1      38.916  38.243  40.551  1.00  0.00    -0.237 OA
ATOM    104  O   UNL A   1      38.801  36.306  42.072  1.00  0.00    -0.744 OA
ENDBRANCH 100 101
ENDBRANCH  68  93
ENDBRANCH  42  43
ENDBRANCH  35  37
ENDBRANCH  34  35
ENDBRANCH  33  34
ENDBRANCH   1  33
TORSDOF 22
ENDMDL
MODEL 3
REMARK VINA RESULT:     -11.2      5.698     11.358
REMARK SMILES N#CC1=C(N)N2C(=O)[C@@H](CC(=O)OCCOCCOC(=O)c3ccc(-c4c5nc(c(-c6c(F)cc(S(=O)(=O)[O-])cc6F)c6ccc([nH]6)c(-c6c(F)cc(S(=O)(=O)[O-])cc6F)c6nc(c(-c7c(F)cc(S(=O)(=O)[O-])cc7F)c7ccc4[nH]7)C=C6)C=C5)cc3)SC2=C(C#N)[C@H]1c1ccc(Cl)cc1
REMARK SMILES IDX 17 1 16 2 15 3 14 4 13 5 11 6 12 7 10 8 9 9 3 10 4 11 93 12
REMARK SMILES IDX 6 13 90 14 7 15 89 16 8 17 88 18 2 19 1 20 5 21 94 24 95 25
REMARK SMILES IDX 100 26 96 27 99 28 97 29 98 30 91 31 92 32 18 33 19 34 20 35
REMARK SMILES IDX 21 36 22 37 23 38 87 39 24 40 86 41 25 42 26 43 27 44 80 45
REMARK SMILES IDX 28 46 85 47 79 48 81 49 29 50 84 51 78 52 77 53 30 55 64 56
REMARK SMILES IDX 43 57 63 58 44 59 47 60 62 61 82 62 45 63 46 64 61 66 83 67
REMARK SMILES IDX 48 68 31 69 32 70 41 71 33 72 34 73 40 74 42 75 35 76 36 77
REMARK SMILES IDX 37 78 38 79 39 80 65 81 66 82 75 83 67 84 68 85 74 86 76 87
REMARK SMILES IDX 69 88 70 89 71 90 72 91 73 92 49 93 50 94 59 95 51 96 52 97
REMARK SMILES IDX 58 98 60 99 53 100 54 101 55 102 56 103 57 104
REMARK H PARENT 5 22 5 23 81 54 47 65
REMARK Flexibility Score: inf
ROOT
ATOM      1  C   UNL A   1      34.559  33.317  28.271  1.00  0.00     0.202 C 
ENDROOT
BRANCH   1   2
ATOM      2  O   UNL A   1      33.291  32.788  27.910  1.00  0.00    -0.374 OA
BRANCH   2   3
ATOM      3  C   UNL A   1      33.285  31.527  27.247  1.00  0.00     0.202 C 
BRANCH   3   4
ATOM      4  C   UNL A   1      31.936  31.024  26.707  1.00  0.00     0.261 C 
BRANCH   4   5
ATOM      5  O   UNL A   1      31.995  29.762  25.987  1.00  0.00    -0.463 OA
BRANCH   5   6
ATOM      6  C   UNL A   1      31.719  28.670  26.734  1.00  0.00     0.307 C 
ATOM      7  O   UNL A   1      31.312  28.716  27.894  1.00  0.00    -0.252 OA
BRANCH   6   8
ATOM      8  C   UNL A   1      31.732  27.337  26.022  1.00  0.00     0.147 C 
BRANCH   8   9
ATOM      9  C   UNL A   1      30.515  26.592  25.477  1.00  0.00     0.154 C 
ATOM     10  C   UNL A   1      32.129  22.168  24.795  1.00  0.00     0.083 C 
ATOM     11  C   UNL A   1      31.117  22.868  25.374  1.00  0.00     0.126 C 
ATOM     12  C   UNL A   1      33.049  22.804  23.759  1.00  0.00     0.107 C 
ATOM     13  N   UNL A   1      31.018  24.248  25.141  1.00  0.00    -0.258 N 
ATOM     14  C   UNL A   1      32.442  24.093  23.219  1.00  0.00     0.073 C 
ATOM     15  C   UNL A   1      30.268  25.152  25.920  1.00  0.00     0.247 C 
ATOM     16  C   UNL A   1      31.550  24.755  23.974  1.00  0.00     0.099 C 
ATOM     17  O   UNL A   1      29.500  24.858  26.831  1.00  0.00    -0.273 OA
ATOM     18  S   UNL A   1      30.900  26.338  23.659  1.00  0.00    -0.093 SA
BRANCH  10  19
ATOM     19  C   UNL A   1      32.211  20.660  24.970  1.00  0.00     0.100 C 
ATOM     20  N   UNL A   1      32.279  19.409  25.115  1.00  0.00    -0.193 NA
ENDBRANCH  10  19
BRANCH  11  21
ATOM     21  N   UNL A   1      30.213  22.274  26.210  1.00  0.00    -0.384 N 
ATOM     22  H   UNL A   1      30.102  22.603  27.130  1.00  0.00     0.158 HD
ATOM     23  H   UNL A   1      29.672  21.516  25.890  1.00  0.00     0.158 HD
ENDBRANCH  11  21
BRANCH  12  24
ATOM     24  C   UNL A   1      34.486  22.988  24.287  1.00  0.00    -0.034 A 
ATOM     25  C   UNL A   1      35.619  22.474  23.624  1.00  0.00     0.006 A 
ATOM     26  C   UNL A   1      34.699  23.672  25.499  1.00  0.00     0.006 A 
ATOM     27  C   UNL A   1      36.905  22.629  24.155  1.00  0.00     0.021 A 
ATOM     28  C   UNL A   1      35.988  23.851  26.014  1.00  0.00     0.021 A 
ATOM     29  C   UNL A   1      37.085  23.323  25.344  1.00  0.00     0.041 A 
ATOM     30  Cl  UNL A   1      38.664  23.515  25.993  1.00  0.00    -0.084 Cl
ENDBRANCH  12  24
BRANCH  14  31
ATOM     31  C   UNL A   1      32.896  24.583  21.963  1.00  0.00     0.098 C 
ATOM     32  N   UNL A   1      33.282  25.014  20.953  1.00  0.00    -0.193 NA
ENDBRANCH  14  31
ENDBRANCH   8   9
ENDBRANCH   6   8
ENDBRANCH   5   6
ENDBRANCH   4   5
ENDBRANCH   3   4
ENDBRANCH   2   3
ENDBRANCH   1   2
BRANCH   1  33
ATOM     33  C   UNL A   1      35.040  33.035  29.695  1.00  0.00     0.261 C 
BRANCH  33  34
ATOM     34  O   UNL A   1      35.518  31.687  29.869  1.00  0.00    -0.460 OA
BRANCH  34  35
ATOM     35  C   UNL A   1      36.436  31.519  30.853  1.00  0.00     0.338 C 
ATOM     36  O   UNL A   1      36.315  31.862  32.018  1.00  0.00    -0.246 OA
BRANCH  35  37
ATOM     37  C   UNL A   1      37.584  30.705  30.391  1.00  0.00     0.060 A 
ATOM     38  C   UNL A   1      38.546  30.333  31.338  1.00  0.00     0.016 A 
ATOM     39  C   UNL A   1      37.822  30.472  29.034  1.00  0.00     0.016 A 
ATOM     40  C   UNL A   1      39.757  29.767  30.929  1.00  0.00     0.010 A 
ATOM     41  C   UNL A   1      39.038  29.897  28.626  1.00  0.00     0.010 A 
ATOM     42  C   UNL A   1      40.033  29.576  29.567  1.00  0.00    -0.014 A 
BRANCH  42  43
ATOM     43  C   UNL A   1      41.398  29.141  29.149  1.00  0.00     0.031 A 
ATOM     44  C   UNL A   1      42.547  30.121  29.191  1.00  0.00     0.074 A 
ATOM     45  C   UNL A   1      41.632  27.862  28.796  1.00  0.00     0.049 A 
ATOM     46  N   UNL A   1      43.806  29.936  28.884  1.00  0.00    -0.248 NA
ATOM     47  C   UNL A   1      42.237  31.488  29.640  1.00  0.00     0.031 C 
ATOM     48  C   UNL A   1      40.623  26.805  28.747  1.00  0.00     0.029 A 
ATOM     49  N   UNL A   1      42.793  27.231  28.417  1.00  0.00    -0.354 N 
ATOM     50  C   UNL A   1      44.439  31.157  29.101  1.00  0.00     0.074 A 
ATOM     51  C   UNL A   1      43.415  32.086  29.529  1.00  0.00     0.031 C 
ATOM     52  C   UNL A   1      41.207  25.658  28.362  1.00  0.00     0.029 A 
ATOM     53  C   UNL A   1      42.623  25.904  28.095  1.00  0.00     0.049 A 
ATOM     54  H   UNL A   1      43.666  27.686  28.378  1.00  0.00     0.167 HD
ATOM     55  C   UNL A   1      45.751  31.472  28.969  1.00  0.00     0.037 A 
ATOM     56  C   UNL A   1      43.498  24.995  27.616  1.00  0.00     0.037 A 
ATOM     57  C   UNL A   1      46.771  30.544  28.545  1.00  0.00     0.049 A 
ATOM     58  C   UNL A   1      44.937  25.392  27.402  1.00  0.00     0.074 A 
ATOM     59  C   UNL A   1      48.129  30.769  28.398  1.00  0.00     0.029 A 
ATOM     60  N   UNL A   1      46.548  29.222  28.189  1.00  0.00    -0.354 N 
ATOM     61  N   UNL A   1      45.521  26.543  27.640  1.00  0.00    -0.248 NA
ATOM     62  C   UNL A   1      45.839  24.366  26.859  1.00  0.00     0.031 C 
ATOM     63  C   UNL A   1      48.716  29.607  27.887  1.00  0.00     0.029 A 
ATOM     64  C   UNL A   1      47.738  28.631  27.791  1.00  0.00     0.049 A 
ATOM     65  H   UNL A   1      45.674  28.769  28.214  1.00  0.00     0.167 HD
ATOM     66  C   UNL A   1      46.862  26.366  27.309  1.00  0.00     0.074 A 
ATOM     67  C   UNL A   1      47.006  24.995  26.870  1.00  0.00     0.031 C 
ATOM     68  C   UNL A   1      47.881  27.260  27.366  1.00  0.00     0.037 A 
BRANCH  55  69
ATOM     69  C   UNL A   1      46.173  32.889  29.266  1.00  0.00     0.058 A 
ATOM     70  C   UNL A   1      46.171  33.888  28.278  1.00  0.00     0.135 A 
ATOM     71  C   UNL A   1      46.513  33.270  30.576  1.00  0.00     0.135 A 
ATOM     72  F   UNL A   1      45.868  33.581  27.007  1.00  0.00    -0.206 F 
ATOM     73  C   UNL A   1      46.511  35.205  28.573  1.00  0.00     0.059 A 
ATOM     74  C   UNL A   1      46.823  34.588  30.900  1.00  0.00     0.059 A 
ATOM     75  F   UNL A   1      46.528  32.359  31.562  1.00  0.00    -0.206 F 
ATOM     76  C   UNL A   1      46.829  35.547  29.889  1.00  0.00     0.060 A 
BRANCH  76  77
ATOM     77  S   UNL A   1      47.242  37.266  30.256  1.00  0.00     0.124 S 
ATOM     78  O   UNL A   1      45.922  37.888  30.270  1.00  0.00    -0.237 OA
ATOM     79  O   UNL A   1      47.904  37.156  31.552  1.00  0.00    -0.237 OA
ATOM     80  O   UNL A   1      48.106  37.655  29.145  1.00  0.00    -0.744 OA
ENDBRANCH  76  77
ENDBRANCH  55  69
BRANCH  56  81
ATOM     81  C   UNL A   1      43.036  23.618  27.275  1.00  0.00     0.058 A 
ATOM     82  C   UNL A   1      43.083  22.575  28.212  1.00  0.00     0.135 A 
ATOM     83  C   UNL A   1      42.565  23.314  25.987  1.00  0.00     0.135 A 
ATOM     84  F   UNL A   1      43.536  22.808  29.453  1.00  0.00    -0.206 F 
ATOM     85  C   UNL A   1      42.705  21.277  27.880  1.00  0.00     0.059 A 
ATOM     86  C   UNL A   1      42.148  22.033  25.642  1.00  0.00     0.059 A 
ATOM     87  F   UNL A   1      42.492  24.274  25.052  1.00  0.00    -0.206 F 
ATOM     88  C   UNL A   1      42.236  21.017  26.591  1.00  0.00     0.060 A 
BRANCH  88  89
ATOM     89  S   UNL A   1      41.717  19.338  26.179  1.00  0.00     0.124 S 
ATOM     90  O   UNL A   1      42.566  19.040  25.031  1.00  0.00    -0.237 OA
ATOM     91  O   UNL A   1      42.026  18.615  27.409  1.00  0.00    -0.237 OA
ATOM     92  O   UNL A   1      40.294  19.487  25.890  1.00  0.00    -0.744 OA
ENDBRANCH  88  89
ENDBRANCH  56  81
BRANCH  68  93
ATOM     93  C   UNL A   1      49.260  26.779  26.991  1.00  0.00     0.058 A 
ATOM     94  C   UNL A   1      49.777  26.924  25.694  1.00  0.00     0.135 A 
ATOM     95  C   UNL A   1      50.098  26.206  27.964  1.00  0.00     0.135 A 
ATOM     96  F   UNL A   1      49.020  27.459  24.721  1.00  0.00    -0.206 F 
ATOM     97  C   UNL A   1      51.060  26.494  25.367  1.00  0.00     0.059 A 
ATOM     98  C   UNL A   1      51.397  25.804  27.669  1.00  0.00     0.059 A 
ATOM     99  F   UNL A   1      49.664  26.049  29.224  1.00  0.00    -0.206 F 
ATOM    100  C   UNL A   1      51.864  25.939  26.364  1.00  0.00     0.060 A 
BRANCH 100 101
ATOM    101  S   UNL A   1      53.539  25.419  25.933  1.00  0.00     0.124 S 
ATOM    102  O   UNL A   1      53.878  26.364  24.873  1.00  0.00    -0.237 OA
ATOM    103  O   UNL A   1      54.253  25.597  27.193  1.00  0.00    -0.237 OA
ATOM    104  O   UNL A   1      53.368  24.034  25.505  1.00  0.00    -0.744 OA
ENDBRANCH 100 101
ENDBRANCH  68  93
ENDBRANCH  42  43
ENDBRANCH  35  37
ENDBRANCH  34  35
ENDBRANCH  33  34
ENDBRANCH   1  33
TORSDOF 22
ENDMDL
