MODEL 1
REMARK VINA RESULT:     -11.2      0.000      0.000
REMARK SMILES C[C@H](NC1=[NH+]S(=O)(=O)c2ccccc21)C(=O)OCCOCCOC(=O)c1ccc(-c2c3nc(c(-c4c(F)cc(S(=O)(=O)[O-])cc4F)c4ccc([nH]4)c(-c4c(F)cc(S(=O)(=O)[O-])cc4F)c4nc(c(-c5c(F)cc(S(=O)(=O)[O-])cc5F)c5ccc2[nH]5)C=C4)C=C3)cc1
REMARK SMILES IDX 21 1 20 2 19 3 18 4 17 5 15 6 16 7 2 8 1 9 3 10 4 11 5 13
REMARK SMILES IDX 14 14 6 15 9 17 13 18 7 19 8 20 10 21 12 22 11 23 22 24
REMARK SMILES IDX 23 25 24 26 25 27 26 28 27 29 91 30 28 31 90 32 29 33 30 34
REMARK SMILES IDX 31 35 84 36 32 37 89 38 83 39 85 40 33 41 88 42 82 43 81 44
REMARK SMILES IDX 34 46 68 47 47 48 67 49 48 50 51 51 66 52 86 53 49 54 50 55
REMARK SMILES IDX 65 57 87 58 52 59 35 60 36 61 45 62 37 63 38 64 44 65 46 66
REMARK SMILES IDX 39 67 40 68 41 69 42 70 43 71 69 72 70 73 79 74 71 75 72 76
REMARK SMILES IDX 78 77 80 78 73 79 74 80 75 81 76 82 77 83 53 84 54 85 63 86
REMARK SMILES IDX 55 87 56 88 62 89 64 90 57 91 58 92 59 93 60 94 61 95
REMARK H PARENT 3 12 5 16 85 45 51 56
REMARK Flexibility Score: inf
ROOT
ATOM      1  C   UNL A   1      35.065  33.697  31.153  1.00  0.00     0.202 C 
ENDROOT
BRANCH   1   2
ATOM      2  O   UNL A   1      33.927  33.498  30.312  1.00  0.00    -0.374 OA
BRANCH   2   3
ATOM      3  C   UNL A   1      34.022  33.905  28.952  1.00  0.00     0.202 C 
BRANCH   3   4
ATOM      4  C   UNL A   1      34.329  32.828  27.905  1.00  0.00     0.261 C 
BRANCH   4   5
ATOM      5  O   UNL A   1      33.281  31.858  27.747  1.00  0.00    -0.460 OA
BRANCH   5   6
ATOM      6  C   UNL A   1      33.719  30.623  27.367  1.00  0.00     0.350 C 
ATOM      7  O   UNL A   1      34.795  30.130  27.694  1.00  0.00    -0.247 OA
BRANCH   6   8
ATOM      8  C   UNL A   1      32.775  29.921  26.401  1.00  0.00     0.279 C 
ATOM      9  C   UNL A   1      32.285  28.628  27.042  1.00  0.00     0.071 C 
BRANCH   8  10
ATOM     10  N   UNL A   1      33.331  29.600  25.070  1.00  0.00    -0.260 N 
ATOM     11  C   UNL A   1      32.454  29.188  24.093  1.00  0.00     0.292 C 
ATOM     12  H   UNL A   1      34.295  29.679  24.888  1.00  0.00     0.306 HD
ATOM     13  N   UNL A   1      31.317  29.792  23.881  1.00  0.00    -0.162 N 
ATOM     14  C   UNL A   1      32.659  27.937  23.327  1.00  0.00     0.087 A 
ATOM     15  S   UNL A   1      30.388  28.956  22.826  1.00  0.00     0.329 S 
ATOM     16  H   UNL A   1      31.053  30.642  24.302  1.00  0.00     0.327 HD
ATOM     17  C   UNL A   1      31.505  27.642  22.622  1.00  0.00     0.124 A 
ATOM     18  C   UNL A   1      33.707  27.035  23.356  1.00  0.00     0.018 A 
ATOM     19  O   UNL A   1      30.300  29.644  21.560  1.00  0.00    -0.179 OA
ATOM     20  O   UNL A   1      29.224  28.423  23.507  1.00  0.00    -0.179 OA
ATOM     21  C   UNL A   1      31.292  26.441  21.975  1.00  0.00     0.025 A 
ATOM     22  C   UNL A   1      33.538  25.818  22.680  1.00  0.00     0.001 A 
ATOM     23  C   UNL A   1      32.335  25.516  22.011  1.00  0.00     0.002 A 
ENDBRANCH   8  10
ENDBRANCH   6   8
ENDBRANCH   5   6
ENDBRANCH   4   5
ENDBRANCH   3   4
ENDBRANCH   2   3
ENDBRANCH   1   2
BRANCH   1  24
ATOM     24  C   UNL A   1      35.835  32.453  31.618  1.00  0.00     0.261 C 
BRANCH  24  25
ATOM     25  O   UNL A   1      36.129  31.541  30.541  1.00  0.00    -0.460 OA
BRANCH  25  26
ATOM     26  C   UNL A   1      36.710  30.379  30.937  1.00  0.00     0.338 C 
ATOM     27  O   UNL A   1      36.162  29.427  31.466  1.00  0.00    -0.246 OA
BRANCH  26  28
ATOM     28  C   UNL A   1      38.111  30.315  30.476  1.00  0.00     0.060 A 
ATOM     29  C   UNL A   1      38.327  30.222  29.095  1.00  0.00     0.016 A 
ATOM     30  C   UNL A   1      39.182  30.236  31.368  1.00  0.00     0.016 A 
ATOM     31  C   UNL A   1      39.610  29.992  28.605  1.00  0.00     0.010 A 
ATOM     32  C   UNL A   1      40.471  29.998  30.872  1.00  0.00     0.010 A 
ATOM     33  C   UNL A   1      40.684  29.835  29.492  1.00  0.00    -0.014 A 
BRANCH  33  34
ATOM     34  C   UNL A   1      41.986  29.357  28.962  1.00  0.00     0.031 A 
ATOM     35  C   UNL A   1      43.146  30.315  28.885  1.00  0.00     0.074 A 
ATOM     36  C   UNL A   1      42.155  28.065  28.625  1.00  0.00     0.049 A 
ATOM     37  N   UNL A   1      44.377  30.096  28.502  1.00  0.00    -0.248 NA
ATOM     38  C   UNL A   1      42.881  31.704  29.295  1.00  0.00     0.031 C 
ATOM     39  C   UNL A   1      41.117  27.036  28.676  1.00  0.00     0.029 A 
ATOM     40  N   UNL A   1      43.267  27.398  28.175  1.00  0.00    -0.354 N 
ATOM     41  C   UNL A   1      45.040  31.311  28.640  1.00  0.00     0.074 A 
ATOM     42  C   UNL A   1      44.060  32.275  29.096  1.00  0.00     0.031 C 
ATOM     43  C   UNL A   1      41.640  25.867  28.268  1.00  0.00     0.029 A 
ATOM     44  C   UNL A   1      43.043  26.068  27.911  1.00  0.00     0.049 A 
ATOM     45  H   UNL A   1      44.142  27.831  28.053  1.00  0.00     0.167 HD
ATOM     46  C   UNL A   1      46.347  31.595  28.426  1.00  0.00     0.037 A 
ATOM     47  C   UNL A   1      43.873  25.122  27.428  1.00  0.00     0.037 A 
ATOM     48  C   UNL A   1      47.318  30.638  27.965  1.00  0.00     0.049 A 
ATOM     49  C   UNL A   1      45.313  25.472  27.154  1.00  0.00     0.074 A 
ATOM     50  C   UNL A   1      48.665  30.832  27.707  1.00  0.00     0.029 A 
ATOM     51  N   UNL A   1      47.050  29.304  27.693  1.00  0.00    -0.354 N 
ATOM     52  N   UNL A   1      45.926  26.622  27.304  1.00  0.00    -0.248 NA
ATOM     53  C   UNL A   1      46.177  24.392  26.659  1.00  0.00     0.031 C 
ATOM     54  C   UNL A   1      49.202  29.624  27.246  1.00  0.00     0.029 A 
ATOM     55  C   UNL A   1      48.201  28.667  27.260  1.00  0.00     0.049 A 
ATOM     56  H   UNL A   1      46.170  28.875  27.793  1.00  0.00     0.167 HD
ATOM     57  C   UNL A   1      47.250  26.399  26.942  1.00  0.00     0.074 A 
ATOM     58  C   UNL A   1      47.353  24.999  26.584  1.00  0.00     0.031 C 
ATOM     59  C   UNL A   1      48.287  27.272  26.907  1.00  0.00     0.037 A 
BRANCH  46  60
ATOM     60  C   UNL A   1      46.801  33.005  28.686  1.00  0.00     0.058 A 
ATOM     61  C   UNL A   1      46.747  33.988  27.685  1.00  0.00     0.135 A 
ATOM     62  C   UNL A   1      47.264  33.386  29.955  1.00  0.00     0.135 A 
ATOM     63  F   UNL A   1      46.330  33.671  26.449  1.00  0.00    -0.206 F 
ATOM     64  C   UNL A   1      47.155  35.295  27.928  1.00  0.00     0.059 A 
ATOM     65  C   UNL A   1      47.655  34.695  30.226  1.00  0.00     0.059 A 
ATOM     66  F   UNL A   1      47.339  32.484  30.946  1.00  0.00    -0.206 F 
ATOM     67  C   UNL A   1      47.609  35.639  29.202  1.00  0.00     0.060 A 
BRANCH  67  68
ATOM     68  S   UNL A   1      48.129  37.342  29.503  1.00  0.00     0.124 S 
ATOM     69  O   UNL A   1      47.810  37.497  30.919  1.00  0.00    -0.237 OA
ATOM     70  O   UNL A   1      49.551  37.297  29.176  1.00  0.00    -0.237 OA
ATOM     71  O   UNL A   1      47.302  38.117  28.584  1.00  0.00    -0.744 OA
ENDBRANCH  67  68
ENDBRANCH  46  60
BRANCH  47  72
ATOM     72  C   UNL A   1      43.363  23.752  27.161  1.00  0.00     0.058 A 
ATOM     73  C   UNL A   1      43.040  23.330  25.863  1.00  0.00     0.135 A 
ATOM     74  C   UNL A   1      43.178  22.838  28.210  1.00  0.00     0.135 A 
ATOM     75  F   UNL A   1      43.192  24.170  24.827  1.00  0.00    -0.206 F 
ATOM     76  C   UNL A   1      42.531  22.058  25.615  1.00  0.00     0.059 A 
ATOM     77  C   UNL A   1      42.695  21.553  27.986  1.00  0.00     0.059 A 
ATOM     78  F   UNL A   1      43.485  23.188  29.469  1.00  0.00    -0.206 F 
ATOM     79  C   UNL A   1      42.363  21.177  26.685  1.00  0.00     0.060 A 
BRANCH  79  80
ATOM     80  S   UNL A   1      41.740  19.514  26.354  1.00  0.00     0.124 S 
ATOM     81  O   UNL A   1      42.183  18.794  27.542  1.00  0.00    -0.237 OA
ATOM     82  O   UNL A   1      40.303  19.740  26.240  1.00  0.00    -0.237 OA
ATOM     83  O   UNL A   1      42.410  19.151  25.107  1.00  0.00    -0.744 OA
ENDBRANCH  79  80
ENDBRANCH  47  72
BRANCH  59  84
ATOM     84  C   UNL A   1      49.628  26.732  26.491  1.00  0.00     0.058 A 
ATOM     85  C   UNL A   1      50.473  26.075  27.399  1.00  0.00     0.135 A 
ATOM     86  C   UNL A   1      50.062  26.851  25.160  1.00  0.00     0.135 A 
ATOM     87  F   UNL A   1      50.107  25.937  28.682  1.00  0.00    -0.206 F 
ATOM     88  C   UNL A   1      51.718  25.588  27.013  1.00  0.00     0.059 A 
ATOM     89  C   UNL A   1      51.292  26.349  24.745  1.00  0.00     0.059 A 
ATOM     90  F   UNL A   1      49.287  27.459  24.248  1.00  0.00    -0.206 F 
ATOM     91  C   UNL A   1      52.120  25.734  25.684  1.00  0.00     0.060 A 
BRANCH  91  92
ATOM     92  S   UNL A   1      53.736  25.096  25.190  1.00  0.00     0.124 S 
ATOM     93  O   UNL A   1      53.497  23.657  25.198  1.00  0.00    -0.237 OA
ATOM     94  O   UNL A   1      53.924  25.701  23.874  1.00  0.00    -0.237 OA
ATOM     95  O   UNL A   1      54.628  25.592  26.233  1.00  0.00    -0.744 OA
ENDBRANCH  91  92
ENDBRANCH  59  84
ENDBRANCH  33  34
ENDBRANCH  26  28
ENDBRANCH  25  26
ENDBRANCH  24  25
ENDBRANCH   1  24
TORSDOF 18
ENDMDL
MODEL 2
REMARK VINA RESULT:     -11.0      6.549     12.267
REMARK SMILES C[C@H](NC1=[NH+]S(=O)(=O)c2ccccc21)C(=O)OCCOCCOC(=O)c1ccc(-c2c3nc(c(-c4c(F)cc(S(=O)(=O)[O-])cc4F)c4ccc([nH]4)c(-c4c(F)cc(S(=O)(=O)[O-])cc4F)c4nc(c(-c5c(F)cc(S(=O)(=O)[O-])cc5F)c5ccc2[nH]5)C=C4)C=C3)cc1
REMARK SMILES IDX 21 1 20 2 19 3 18 4 17 5 15 6 16 7 2 8 1 9 3 10 4 11 5 13
REMARK SMILES IDX 14 14 6 15 9 17 13 18 7 19 8 20 10 21 12 22 11 23 22 24
REMARK SMILES IDX 23 25 24 26 25 27 26 28 27 29 91 30 28 31 90 32 29 33 30 34
REMARK SMILES IDX 31 35 84 36 32 37 89 38 83 39 85 40 33 41 88 42 82 43 81 44
REMARK SMILES IDX 34 46 68 47 47 48 67 49 48 50 51 51 66 52 86 53 49 54 50 55
REMARK SMILES IDX 65 57 87 58 52 59 35 60 36 61 45 62 37 63 38 64 44 65 46 66
REMARK SMILES IDX 39 67 40 68 41 69 42 70 43 71 69 72 70 73 79 74 71 75 72 76
REMARK SMILES IDX 78 77 80 78 73 79 74 80 75 81 76 82 77 83 53 84 54 85 63 86
REMARK SMILES IDX 55 87 56 88 62 89 64 90 57 91 58 92 59 93 60 94 61 95
REMARK H PARENT 3 12 5 16 85 45 51 56
REMARK Flexibility Score: inf
ROOT
ATOM      1  C   UNL A   1      41.303  21.699  26.177  1.00  0.00     0.202 C 
ENDROOT
BRANCH   1   2
ATOM      2  O   UNL A   1      39.970  21.542  26.666  1.00  0.00    -0.374 OA
BRANCH   2   3
ATOM      3  C   UNL A   1      38.962  21.142  25.745  1.00  0.00     0.202 C 
BRANCH   3   4
ATOM      4  C   UNL A   1      37.872  22.161  25.394  1.00  0.00     0.261 C 
BRANCH   4   5
ATOM      5  O   UNL A   1      36.899  21.669  24.458  1.00  0.00    -0.460 OA
BRANCH   5   6
ATOM      6  C   UNL A   1      36.382  22.629  23.638  1.00  0.00     0.350 C 
ATOM      7  O   UNL A   1      36.993  23.168  22.719  1.00  0.00    -0.247 OA
BRANCH   6   8
ATOM      8  C   UNL A   1      34.971  23.054  24.023  1.00  0.00     0.279 C 
ATOM      9  C   UNL A   1      34.357  23.831  22.864  1.00  0.00     0.071 C 
BRANCH   8  10
ATOM     10  N   UNL A   1      34.853  23.872  25.248  1.00  0.00    -0.260 N 
ATOM     11  C   UNL A   1      33.588  24.133  25.721  1.00  0.00     0.292 C 
ATOM     12  H   UNL A   1      35.651  24.217  25.709  1.00  0.00     0.306 HD
ATOM     13  N   UNL A   1      32.673  23.207  25.807  1.00  0.00    -0.162 N 
ATOM     14  C   UNL A   1      33.125  25.510  26.010  1.00  0.00     0.087 A 
ATOM     15  S   UNL A   1      31.214  23.846  26.182  1.00  0.00     0.329 S 
ATOM     16  H   UNL A   1      32.839  22.247  25.664  1.00  0.00     0.327 HD
ATOM     17  C   UNL A   1      31.754  25.497  26.206  1.00  0.00     0.124 A 
ATOM     18  C   UNL A   1      33.808  26.711  25.956  1.00  0.00     0.018 A 
ATOM     19  O   UNL A   1      30.833  23.500  27.532  1.00  0.00    -0.179 OA
ATOM     20  O   UNL A   1      30.310  23.710  25.057  1.00  0.00    -0.179 OA
ATOM     21  C   UNL A   1      30.984  26.639  26.290  1.00  0.00     0.025 A 
ATOM     22  C   UNL A   1      33.060  27.893  26.071  1.00  0.00     0.001 A 
ATOM     23  C   UNL A   1      31.659  27.857  26.218  1.00  0.00     0.002 A 
ENDBRANCH   8  10
ENDBRANCH   6   8
ENDBRANCH   5   6
ENDBRANCH   4   5
ENDBRANCH   3   4
ENDBRANCH   2   3
ENDBRANCH   1   2
BRANCH   1  24
ATOM     24  C   UNL A   1      41.877  23.121  26.114  1.00  0.00     0.261 C 
BRANCH  24  25
ATOM     25  O   UNL A   1      40.890  24.136  26.383  1.00  0.00    -0.460 OA
BRANCH  25  26
ATOM     26  C   UNL A   1      41.333  25.407  26.202  1.00  0.00     0.338 C 
ATOM     27  O   UNL A   1      41.537  25.970  25.139  1.00  0.00    -0.246 OA
BRANCH  26  28
ATOM     28  C   UNL A   1      41.376  26.130  27.488  1.00  0.00     0.060 A 
ATOM     29  C   UNL A   1      40.312  25.923  28.375  1.00  0.00     0.016 A 
ATOM     30  C   UNL A   1      42.367  27.070  27.778  1.00  0.00     0.016 A 
ATOM     31  C   UNL A   1      40.205  26.696  29.528  1.00  0.00     0.010 A 
ATOM     32  C   UNL A   1      42.253  27.851  28.936  1.00  0.00     0.010 A 
ATOM     33  C   UNL A   1      41.151  27.696  29.795  1.00  0.00    -0.014 A 
BRANCH  33  34
ATOM     34  C   UNL A   1      40.886  28.657  30.895  1.00  0.00     0.031 A 
ATOM     35  C   UNL A   1      41.729  28.600  32.142  1.00  0.00     0.074 A 
ATOM     36  C   UNL A   1      39.956  29.620  30.752  1.00  0.00     0.049 A 
ATOM     37  N   UNL A   1      41.700  29.372  33.197  1.00  0.00    -0.248 NA
ATOM     38  C   UNL A   1      42.739  27.531  32.205  1.00  0.00     0.031 C 
ATOM     39  C   UNL A   1      39.092  29.794  29.585  1.00  0.00     0.029 A 
ATOM     40  N   UNL A   1      39.586  30.635  31.598  1.00  0.00    -0.354 N 
ATOM     41  C   UNL A   1      42.695  28.895  34.044  1.00  0.00     0.074 A 
ATOM     42  C   UNL A   1      43.277  27.737  33.399  1.00  0.00     0.031 C 
ATOM     43  C   UNL A   1      38.288  30.851  29.791  1.00  0.00     0.029 A 
ATOM     44  C   UNL A   1      38.568  31.418  31.109  1.00  0.00     0.049 A 
ATOM     45  H   UNL A   1      40.011  30.790  32.473  1.00  0.00     0.167 HD
ATOM     46  C   UNL A   1      43.101  29.386  35.239  1.00  0.00     0.037 A 
ATOM     47  C   UNL A   1      37.928  32.466  31.665  1.00  0.00     0.037 A 
ATOM     48  C   UNL A   1      42.516  30.533  35.883  1.00  0.00     0.049 A 
ATOM     49  C   UNL A   1      38.367  32.968  33.016  1.00  0.00     0.074 A 
ATOM     50  C   UNL A   1      42.851  31.102  37.101  1.00  0.00     0.029 A 
ATOM     51  N   UNL A   1      41.475  31.290  35.364  1.00  0.00    -0.354 N 
ATOM     52  N   UNL A   1      39.320  32.514  33.796  1.00  0.00    -0.248 NA
ATOM     53  C   UNL A   1      37.653  34.133  33.557  1.00  0.00     0.031 C 
ATOM     54  C   UNL A   1      41.989  32.180  37.333  1.00  0.00     0.029 A 
ATOM     55  C   UNL A   1      41.148  32.311  36.240  1.00  0.00     0.049 A 
ATOM     56  H   UNL A   1      41.035  31.123  34.500  1.00  0.00     0.167 HD
ATOM     57  C   UNL A   1      39.333  33.350  34.907  1.00  0.00     0.074 A 
ATOM     58  C   UNL A   1      38.306  34.348  34.690  1.00  0.00     0.031 C 
ATOM     59  C   UNL A   1      40.122  33.297  36.009  1.00  0.00     0.037 A 
BRANCH  46  60
ATOM     60  C   UNL A   1      44.234  28.680  35.930  1.00  0.00     0.058 A 
ATOM     61  C   UNL A   1      45.568  29.071  35.736  1.00  0.00     0.135 A 
ATOM     62  C   UNL A   1      43.984  27.624  36.821  1.00  0.00     0.135 A 
ATOM     63  F   UNL A   1      45.864  30.063  34.881  1.00  0.00    -0.206 F 
ATOM     64  C   UNL A   1      46.616  28.427  36.385  1.00  0.00     0.059 A 
ATOM     65  C   UNL A   1      45.016  26.981  37.499  1.00  0.00     0.059 A 
ATOM     66  F   UNL A   1      42.727  27.208  37.040  1.00  0.00    -0.206 F 
ATOM     67  C   UNL A   1      46.330  27.382  37.265  1.00  0.00     0.060 A 
BRANCH  67  68
ATOM     68  S   UNL A   1      47.701  26.560  38.104  1.00  0.00     0.124 S 
ATOM     69  O   UNL A   1      47.042  25.377  38.647  1.00  0.00    -0.237 OA
ATOM     70  O   UNL A   1      48.638  26.318  37.011  1.00  0.00    -0.237 OA
ATOM     71  O   UNL A   1      48.134  27.546  39.090  1.00  0.00    -0.744 OA
ENDBRANCH  67  68
ENDBRANCH  46  60
BRANCH  47  72
ATOM     72  C   UNL A   1      36.794  33.109  30.950  1.00  0.00     0.058 A 
ATOM     73  C   UNL A   1      37.006  33.972  29.865  1.00  0.00     0.135 A 
ATOM     74  C   UNL A   1      35.469  32.876  31.351  1.00  0.00     0.135 A 
ATOM     75  F   UNL A   1      38.255  34.232  29.449  1.00  0.00    -0.206 F 
ATOM     76  C   UNL A   1      35.947  34.599  29.216  1.00  0.00     0.059 A 
ATOM     77  C   UNL A   1      34.392  33.471  30.702  1.00  0.00     0.059 A 
ATOM     78  F   UNL A   1      35.212  32.046  32.375  1.00  0.00    -0.206 F 
ATOM     79  C   UNL A   1      34.643  34.342  29.643  1.00  0.00     0.060 A 
BRANCH  79  80
ATOM     80  S   UNL A   1      33.269  35.127  28.772  1.00  0.00     0.124 S 
ATOM     81  O   UNL A   1      33.959  36.157  28.004  1.00  0.00    -0.237 OA
ATOM     82  O   UNL A   1      32.718  34.016  28.002  1.00  0.00    -0.237 OA
ATOM     83  O   UNL A   1      32.419  35.608  29.858  1.00  0.00    -0.744 OA
ENDBRANCH  79  80
ENDBRANCH  47  72
BRANCH  59  84
ATOM     84  C   UNL A   1      39.921  34.363  37.051  1.00  0.00     0.058 A 
ATOM     85  C   UNL A   1      39.077  34.166  38.155  1.00  0.00     0.135 A 
ATOM     86  C   UNL A   1      40.600  35.590  36.956  1.00  0.00     0.135 A 
ATOM     87  F   UNL A   1      38.403  33.014  38.292  1.00  0.00    -0.206 F 
ATOM     88  C   UNL A   1      38.883  35.160  39.110  1.00  0.00     0.059 A 
ATOM     89  C   UNL A   1      40.442  36.588  37.913  1.00  0.00     0.059 A 
ATOM     90  F   UNL A   1      41.430  35.825  35.927  1.00  0.00    -0.206 F 
ATOM     91  C   UNL A   1      39.567  36.370  38.977  1.00  0.00     0.060 A 
BRANCH  91  92
ATOM     92  S   UNL A   1      39.313  37.653  40.221  1.00  0.00     0.124 S 
ATOM     93  O   UNL A   1      40.625  38.288  40.260  1.00  0.00    -0.237 OA
ATOM     94  O   UNL A   1      38.240  38.451  39.634  1.00  0.00    -0.237 OA
ATOM     95  O   UNL A   1      38.942  36.899  41.414  1.00  0.00    -0.744 OA
ENDBRANCH  91  92
ENDBRANCH  59  84
ENDBRANCH  33  34
ENDBRANCH  26  28
ENDBRANCH  25  26
ENDBRANCH  24  25
ENDBRANCH   1  24
TORSDOF 18
ENDMDL
MODEL 3
REMARK VINA RESULT:     -10.9      6.575     12.481
REMARK SMILES C[C@H](NC1=[NH+]S(=O)(=O)c2ccccc21)C(=O)OCCOCCOC(=O)c1ccc(-c2c3nc(c(-c4c(F)cc(S(=O)(=O)[O-])cc4F)c4ccc([nH]4)c(-c4c(F)cc(S(=O)(=O)[O-])cc4F)c4nc(c(-c5c(F)cc(S(=O)(=O)[O-])cc5F)c5ccc2[nH]5)C=C4)C=C3)cc1
REMARK SMILES IDX 21 1 20 2 19 3 18 4 17 5 15 6 16 7 2 8 1 9 3 10 4 11 5 13
REMARK SMILES IDX 14 14 6 15 9 17 13 18 7 19 8 20 10 21 12 22 11 23 22 24
REMARK SMILES IDX 23 25 24 26 25 27 26 28 27 29 91 30 28 31 90 32 29 33 30 34
REMARK SMILES IDX 31 35 84 36 32 37 89 38 83 39 85 40 33 41 88 42 82 43 81 44
REMARK SMILES IDX 34 46 68 47 47 48 67 49 48 50 51 51 66 52 86 53 49 54 50 55
REMARK SMILES IDX 65 57 87 58 52 59 35 60 36 61 45 62 37 63 38 64 44 65 46 66
REMARK SMILES IDX 39 67 40 68 41 69 42 70 43 71 69 72 70 73 79 74 71 75 72 76
REMARK SMILES IDX 78 77 80 78 73 79 74 80 75 81 76 82 77 83 53 84 54 85 63 86
REMARK SMILES IDX 55 87 56 88 62 89 64 90 57 91 58 92 59 93 60 94 61 95
REMARK H PARENT 3 12 5 16 85 45 51 56
REMARK Flexibility Score: inf
ROOT
ATOM      1  C   UNL A   1      43.411  22.240  25.323  1.00  0.00     0.202 C 
ENDROOT
BRANCH   1   2
ATOM      2  O   UNL A   1      42.851  21.474  26.391  1.00  0.00    -0.374 OA
BRANCH   2   3
ATOM      3  C   UNL A   1      41.671  20.723  26.127  1.00  0.00     0.202 C 
BRANCH   3   4
ATOM      4  C   UNL A   1      40.373  21.174  26.807  1.00  0.00     0.261 C 
BRANCH   4   5
ATOM      5  O   UNL A   1      39.204  21.018  25.985  1.00  0.00    -0.460 OA
BRANCH   5   6
ATOM      6  C   UNL A   1      38.460  22.154  25.856  1.00  0.00     0.350 C 
ATOM      7  O   UNL A   1      38.844  23.281  26.159  1.00  0.00    -0.247 OA
BRANCH   6   8
ATOM      8  C   UNL A   1      37.040  21.893  25.374  1.00  0.00     0.279 C 
ATOM      9  C   UNL A   1      36.690  22.911  24.295  1.00  0.00     0.071 C 
BRANCH   8  10
ATOM     10  N   UNL A   1      35.988  21.931  26.410  1.00  0.00    -0.260 N 
ATOM     11  C   UNL A   1      34.764  21.384  26.098  1.00  0.00     0.292 C 
ATOM     12  H   UNL A   1      36.155  22.333  27.292  1.00  0.00     0.306 HD
ATOM     13  N   UNL A   1      34.651  20.229  25.501  1.00  0.00    -0.162 N 
ATOM     14  C   UNL A   1      33.499  22.136  26.267  1.00  0.00     0.087 A 
ATOM     15  S   UNL A   1      33.104  19.939  25.055  1.00  0.00     0.329 S 
ATOM     16  H   UNL A   1      35.401  19.612  25.341  1.00  0.00     0.327 HD
ATOM     17  C   UNL A   1      32.477  21.454  25.630  1.00  0.00     0.124 A 
ATOM     18  C   UNL A   1      33.273  23.394  26.795  1.00  0.00     0.018 A 
ATOM     19  O   UNL A   1      32.521  18.897  25.867  1.00  0.00    -0.179 OA
ATOM     20  O   UNL A   1      32.996  19.955  23.609  1.00  0.00    -0.179 OA
ATOM     21  C   UNL A   1      31.219  21.984  25.421  1.00  0.00     0.025 A 
ATOM     22  C   UNL A   1      31.995  23.950  26.631  1.00  0.00     0.001 A 
ATOM     23  C   UNL A   1      30.984  23.258  25.934  1.00  0.00     0.002 A 
ENDBRANCH   8  10
ENDBRANCH   6   8
ENDBRANCH   5   6
ENDBRANCH   4   5
ENDBRANCH   3   4
ENDBRANCH   2   3
ENDBRANCH   1   2
BRANCH   1  24
ATOM     24  C   UNL A   1      43.205  23.761  25.351  1.00  0.00     0.261 C 
BRANCH  24  25
ATOM     25  O   UNL A   1      42.120  24.163  26.211  1.00  0.00    -0.460 OA
BRANCH  25  26
ATOM     26  C   UNL A   1      41.750  25.463  26.071  1.00  0.00     0.338 C 
ATOM     27  O   UNL A   1      41.314  25.998  25.066  1.00  0.00    -0.246 OA
BRANCH  26  28
ATOM     28  C   UNL A   1      41.766  26.150  27.377  1.00  0.00     0.060 A 
ATOM     29  C   UNL A   1      40.665  25.950  28.220  1.00  0.00     0.016 A 
ATOM     30  C   UNL A   1      42.772  27.053  27.728  1.00  0.00     0.016 A 
ATOM     31  C   UNL A   1      40.539  26.695  29.389  1.00  0.00     0.010 A 
ATOM     32  C   UNL A   1      42.639  27.805  28.902  1.00  0.00     0.010 A 
ATOM     33  C   UNL A   1      41.502  27.660  29.717  1.00  0.00    -0.014 A 
BRANCH  33  34
ATOM     34  C   UNL A   1      41.225  28.599  30.832  1.00  0.00     0.031 A 
ATOM     35  C   UNL A   1      42.079  28.543  32.072  1.00  0.00     0.074 A 
ATOM     36  C   UNL A   1      40.272  29.543  30.712  1.00  0.00     0.049 A 
ATOM     37  N   UNL A   1      42.042  29.299  33.138  1.00  0.00    -0.248 NA
ATOM     38  C   UNL A   1      43.114  27.497  32.111  1.00  0.00     0.031 C 
ATOM     39  C   UNL A   1      39.395  29.714  29.554  1.00  0.00     0.029 A 
ATOM     40  N   UNL A   1      39.887  30.537  31.575  1.00  0.00    -0.354 N 
ATOM     41  C   UNL A   1      43.054  28.833  33.970  1.00  0.00     0.074 A 
ATOM     42  C   UNL A   1      43.657  27.698  33.303  1.00  0.00     0.031 C 
ATOM     43  C   UNL A   1      38.569  30.749  29.782  1.00  0.00     0.029 A 
ATOM     44  C   UNL A   1      38.847  31.303  31.105  1.00  0.00     0.049 A 
ATOM     45  H   UNL A   1      40.315  30.689  32.448  1.00  0.00     0.167 HD
ATOM     46  C   UNL A   1      43.459  29.316  35.169  1.00  0.00     0.037 A 
ATOM     47  C   UNL A   1      38.189  32.329  31.681  1.00  0.00     0.037 A 
ATOM     48  C   UNL A   1      42.854  30.441  35.834  1.00  0.00     0.049 A 
ATOM     49  C   UNL A   1      38.627  32.821  33.036  1.00  0.00     0.074 A 
ATOM     50  C   UNL A   1      43.186  30.999  37.058  1.00  0.00     0.029 A 
ATOM     51  N   UNL A   1      41.793  31.180  35.335  1.00  0.00    -0.354 N 
ATOM     52  N   UNL A   1      39.597  32.378  33.801  1.00  0.00    -0.248 NA
ATOM     53  C   UNL A   1      37.892  33.962  33.599  1.00  0.00     0.031 C 
ATOM     54  C   UNL A   1      42.302  32.054  37.312  1.00  0.00     0.029 A 
ATOM     55  C   UNL A   1      41.449  32.181  36.228  1.00  0.00     0.049 A 
ATOM     56  H   UNL A   1      41.348  31.016  34.472  1.00  0.00     0.167 HD
ATOM     57  C   UNL A   1      39.600  33.198  34.925  1.00  0.00     0.074 A 
ATOM     58  C   UNL A   1      38.550  34.176  34.730  1.00  0.00     0.031 C 
ATOM     59  C   UNL A   1      40.400  33.147  36.020  1.00  0.00     0.037 A 
BRANCH  46  60
ATOM     60  C   UNL A   1      44.614  28.626  35.841  1.00  0.00     0.058 A 
ATOM     61  C   UNL A   1      44.408  27.615  36.794  1.00  0.00     0.135 A 
ATOM     62  C   UNL A   1      45.937  28.951  35.506  1.00  0.00     0.135 A 
ATOM     63  F   UNL A   1      43.162  27.278  37.163  1.00  0.00    -0.206 F 
ATOM     64  C   UNL A   1      45.474  26.966  37.407  1.00  0.00     0.059 A 
ATOM     65  C   UNL A   1      47.020  28.297  36.090  1.00  0.00     0.059 A 
ATOM     66  F   UNL A   1      46.190  29.912  34.604  1.00  0.00    -0.206 F 
ATOM     67  C   UNL A   1      46.778  27.316  37.049  1.00  0.00     0.060 A 
BRANCH  67  68
ATOM     68  S   UNL A   1      48.151  26.460  37.849  1.00  0.00     0.124 S 
ATOM     69  O   UNL A   1      48.439  27.353  38.967  1.00  0.00    -0.237 OA
ATOM     70  O   UNL A   1      47.556  25.174  38.202  1.00  0.00    -0.237 OA
ATOM     71  O   UNL A   1      49.173  26.409  36.807  1.00  0.00    -0.744 OA
ENDBRANCH  67  68
ENDBRANCH  46  60
BRANCH  47  72
ATOM     72  C   UNL A   1      37.035  32.956  30.985  1.00  0.00     0.058 A 
ATOM     73  C   UNL A   1      35.714  32.701  31.380  1.00  0.00     0.135 A 
ATOM     74  C   UNL A   1      37.237  33.819  29.896  1.00  0.00     0.135 A 
ATOM     75  F   UNL A   1      35.469  31.877  32.411  1.00  0.00    -0.206 F 
ATOM     76  C   UNL A   1      34.631  33.261  30.708  1.00  0.00     0.059 A 
ATOM     77  C   UNL A   1      36.173  34.411  29.224  1.00  0.00     0.059 A 
ATOM     78  F   UNL A   1      38.483  34.106  29.487  1.00  0.00    -0.206 F 
ATOM     79  C   UNL A   1      34.872  34.116  29.631  1.00  0.00     0.060 A 
BRANCH  79  80
ATOM     80  S   UNL A   1      33.466  34.873  28.787  1.00  0.00     0.124 S 
ATOM     81  O   UNL A   1      34.052  36.115  28.298  1.00  0.00    -0.237 OA
ATOM     82  O   UNL A   1      33.141  33.875  27.774  1.00  0.00    -0.237 OA
ATOM     83  O   UNL A   1      32.477  35.015  29.854  1.00  0.00    -0.744 OA
ENDBRANCH  79  80
ENDBRANCH  47  72
BRANCH  59  84
ATOM     84  C   UNL A   1      40.184  34.193  37.079  1.00  0.00     0.058 A 
ATOM     85  C   UNL A   1      40.901  35.400  37.081  1.00  0.00     0.135 A 
ATOM     86  C   UNL A   1      39.229  33.997  38.090  1.00  0.00     0.135 A 
ATOM     87  F   UNL A   1      41.826  35.636  36.138  1.00  0.00    -0.206 F 
ATOM     88  C   UNL A   1      40.707  36.359  38.070  1.00  0.00     0.059 A 
ATOM     89  C   UNL A   1      39.000  34.953  39.074  1.00  0.00     0.059 A 
ATOM     90  F   UNL A   1      38.506  32.866  38.127  1.00  0.00    -0.206 F 
ATOM     91  C   UNL A   1      39.757  36.124  39.065  1.00  0.00     0.060 A 
BRANCH  91  92
ATOM     92  S   UNL A   1      39.510  37.376  40.343  1.00  0.00     0.124 S 
ATOM     93  O   UNL A   1      38.195  37.900  39.989  1.00  0.00    -0.237 OA
ATOM     94  O   UNL A   1      39.568  36.587  41.571  1.00  0.00    -0.237 OA
ATOM     95  O   UNL A   1      40.627  38.292  40.141  1.00  0.00    -0.744 OA
ENDBRANCH  91  92
ENDBRANCH  59  84
ENDBRANCH  33  34
ENDBRANCH  26  28
ENDBRANCH  25  26
ENDBRANCH  24  25
ENDBRANCH   1  24
TORSDOF 18
ENDMDL
