MODEL 1
REMARK VINA RESULT:     -10.9      0.000      0.000
REMARK SMILES Cc1nc([C@@H]2C[N@@H+]3CCC[C@@H]3CO2)sc1CC(=O)OCCOCCOC(=O)c1ccc(-c2c3nc(c(-c4c(F)cc(S(=O)(=O)[O-])cc4F)c4ccc([nH]4)c(-c4c(F)cc(S(=O)(=O)[O-])cc4F)c4nc(c(-c5c(F)cc(S(=O)(=O)[O-])cc5F)c5ccc2[nH]5)C=C4)C=C3)cc1
REMARK SMILES IDX 23 1 22 2 21 3 20 4 19 5 17 6 18 7 16 8 15 9 1 10 2 11 3 12
REMARK SMILES IDX 4 13 14 14 5 15 6 16 13 17 7 18 12 19 8 20 11 21 9 23 10 24
REMARK SMILES IDX 24 25 25 26 26 27 27 28 28 29 29 30 93 31 30 32 92 33 31 34
REMARK SMILES IDX 32 35 33 36 86 37 34 38 91 39 85 40 87 41 35 42 90 43 84 44
REMARK SMILES IDX 83 45 36 47 70 48 49 49 69 50 50 51 53 52 68 53 88 54 51 55
REMARK SMILES IDX 52 56 67 58 89 59 54 60 37 61 38 62 47 63 39 64 40 65 46 66
REMARK SMILES IDX 48 67 41 68 42 69 43 70 44 71 45 72 71 73 72 74 81 75 73 76
REMARK SMILES IDX 74 77 80 78 82 79 75 80 76 81 77 82 78 83 79 84 55 85 56 86
REMARK SMILES IDX 65 87 57 88 58 89 64 90 66 91 59 92 60 93 61 94 62 95 63 96
REMARK H PARENT 7 22 87 46 53 57
REMARK Flexibility Score: inf
ROOT
ATOM      1  C   UNL A   1      33.250  31.021  27.484  1.00  0.00     0.202 C 
ENDROOT
BRANCH   1   2
ATOM      2  O   UNL A   1      32.937  29.629  27.566  1.00  0.00    -0.374 OA
BRANCH   2   3
ATOM      3  C   UNL A   1      32.198  29.073  26.478  1.00  0.00     0.202 C 
BRANCH   3   4
ATOM      4  C   UNL A   1      32.117  29.921  25.203  1.00  0.00     0.261 C 
BRANCH   4   5
ATOM      5  O   UNL A   1      31.931  29.125  24.017  1.00  0.00    -0.463 OA
BRANCH   5   6
ATOM      6  C   UNL A   1      30.693  29.168  23.461  1.00  0.00     0.311 C 
ATOM      7  O   UNL A   1      29.867  30.054  23.672  1.00  0.00    -0.252 OA
BRANCH   6   8
ATOM      8  C   UNL A   1      30.387  28.055  22.482  1.00  0.00     0.171 C 
BRANCH   8   9
ATOM      9  C   UNL A   1      30.929  26.703  22.823  1.00  0.00     0.039 A 
ATOM     10  C   UNL A   1      29.568  26.058  24.922  1.00  0.00     0.068 C 
ATOM     11  C   UNL A   1      30.572  25.842  23.847  1.00  0.00     0.052 A 
ATOM     12  N   UNL A   1      31.228  24.626  23.832  1.00  0.00    -0.243 NA
ATOM     13  C   UNL A   1      32.133  24.585  22.875  1.00  0.00     0.128 A 
ATOM     14  S   UNL A   1      32.090  25.929  21.812  1.00  0.00    -0.120 S 
BRANCH  13  15
ATOM     15  C   UNL A   1      33.100  23.436  22.642  1.00  0.00     0.232 C 
ATOM     16  C   UNL A   1      32.828  22.270  23.635  1.00  0.00     0.302 C 
ATOM     17  O   UNL A   1      34.443  23.955  22.677  1.00  0.00    -0.359 OA
ATOM     18  N   UNL A   1      33.956  21.755  24.422  1.00  0.00    -0.328 N 
ATOM     19  C   UNL A   1      34.930  24.102  24.012  1.00  0.00     0.226 C 
ATOM     20  C   UNL A   1      33.535  21.111  25.675  1.00  0.00     0.262 C 
ATOM     21  C   UNL A   1      34.997  22.754  24.734  1.00  0.00     0.210 C 
ATOM     22  H   UNL A   1      34.367  21.059  23.800  1.00  0.00     0.348 HD
ATOM     23  C   UNL A   1      34.575  21.514  26.708  1.00  0.00     0.068 C 
ATOM     24  C   UNL A   1      34.979  22.901  26.251  1.00  0.00     0.073 C 
ENDBRANCH  13  15
ENDBRANCH   8   9
ENDBRANCH   6   8
ENDBRANCH   5   6
ENDBRANCH   4   5
ENDBRANCH   3   4
ENDBRANCH   2   3
ENDBRANCH   1   2
BRANCH   1  25
ATOM     25  C   UNL A   1      34.699  31.416  27.799  1.00  0.00     0.261 C 
BRANCH  25  26
ATOM     26  O   UNL A   1      35.347  30.461  28.661  1.00  0.00    -0.460 OA
BRANCH  26  27
ATOM     27  C   UNL A   1      36.370  30.964  29.393  1.00  0.00     0.338 C 
ATOM     28  O   UNL A   1      36.292  31.792  30.292  1.00  0.00    -0.246 OA
BRANCH  27  29
ATOM     29  C   UNL A   1      37.620  30.237  29.105  1.00  0.00     0.060 A 
ATOM     30  C   UNL A   1      38.506  30.035  30.172  1.00  0.00     0.016 A 
ATOM     31  C   UNL A   1      37.968  29.846  27.811  1.00  0.00     0.016 A 
ATOM     32  C   UNL A   1      39.763  29.478  29.943  1.00  0.00     0.010 A 
ATOM     33  C   UNL A   1      39.238  29.299  27.581  1.00  0.00     0.010 A 
ATOM     34  C   UNL A   1      40.153  29.141  28.640  1.00  0.00    -0.014 A 
BRANCH  34  35
ATOM     35  C   UNL A   1      41.554  28.723  28.378  1.00  0.00     0.031 A 
ATOM     36  C   UNL A   1      42.649  29.756  28.403  1.00  0.00     0.074 A 
ATOM     37  C   UNL A   1      41.852  27.433  28.146  1.00  0.00     0.049 A 
ATOM     38  N   UNL A   1      43.928  29.612  28.170  1.00  0.00    -0.248 NA
ATOM     39  C   UNL A   1      42.250  31.132  28.741  1.00  0.00     0.031 C 
ATOM     40  C   UNL A   1      40.887  26.334  28.137  1.00  0.00     0.029 A 
ATOM     41  N   UNL A   1      43.053  26.828  27.865  1.00  0.00    -0.354 N 
ATOM     42  C   UNL A   1      44.487  30.875  28.324  1.00  0.00     0.074 A 
ATOM     43  C   UNL A   1      43.405  31.778  28.654  1.00  0.00     0.031 C 
ATOM     44  C   UNL A   1      41.531  25.191  27.841  1.00  0.00     0.029 A 
ATOM     45  C   UNL A   1      42.946  25.482  27.612  1.00  0.00     0.049 A 
ATOM     46  H   UNL A   1      43.909  27.314  27.846  1.00  0.00     0.167 HD
ATOM     47  C   UNL A   1      45.784  31.248  28.204  1.00  0.00     0.037 A 
ATOM     48  C   UNL A   1      43.875  24.590  27.214  1.00  0.00     0.037 A 
ATOM     49  C   UNL A   1      46.859  30.346  27.877  1.00  0.00     0.049 A 
ATOM     50  C   UNL A   1      45.299  25.041  27.016  1.00  0.00     0.074 A 
ATOM     51  C   UNL A   1      48.211  30.625  27.769  1.00  0.00     0.029 A 
ATOM     52  N   UNL A   1      46.704  28.999  27.593  1.00  0.00    -0.354 N 
ATOM     53  N   UNL A   1      45.819  26.232  27.198  1.00  0.00    -0.248 NA
ATOM     54  C   UNL A   1      46.262  24.031  26.555  1.00  0.00     0.031 C 
ATOM     55  C   UNL A   1      48.867  29.455  27.372  1.00  0.00     0.029 A 
ATOM     56  C   UNL A   1      47.932  28.437  27.276  1.00  0.00     0.049 A 
ATOM     57  H   UNL A   1      45.849  28.511  27.613  1.00  0.00     0.167 HD
ATOM     58  C   UNL A   1      47.169  26.110  26.889  1.00  0.00     0.074 A 
ATOM     59  C   UNL A   1      47.391  24.727  26.522  1.00  0.00     0.031 C 
ATOM     60  C   UNL A   1      48.138  27.059  26.910  1.00  0.00     0.037 A 
BRANCH  47  61
ATOM     61  C   UNL A   1      46.115  32.699  28.403  1.00  0.00     0.058 A 
ATOM     62  C   UNL A   1      46.489  33.207  29.657  1.00  0.00     0.135 A 
ATOM     63  C   UNL A   1      46.102  33.586  27.314  1.00  0.00     0.135 A 
ATOM     64  F   UNL A   1      46.504  32.405  30.733  1.00  0.00    -0.206 F 
ATOM     65  C   UNL A   1      46.820  34.548  29.829  1.00  0.00     0.059 A 
ATOM     66  C   UNL A   1      46.450  34.927  27.459  1.00  0.00     0.059 A 
ATOM     67  F   UNL A   1      45.749  33.152  26.094  1.00  0.00    -0.206 F 
ATOM     68  C   UNL A   1      46.796  35.400  28.723  1.00  0.00     0.060 A 
BRANCH  68  69
ATOM     69  S   UNL A   1      47.238  37.135  28.959  1.00  0.00     0.124 S 
ATOM     70  O   UNL A   1      45.933  37.782  28.873  1.00  0.00    -0.237 OA
ATOM     71  O   UNL A   1      47.853  37.125  30.282  1.00  0.00    -0.237 OA
ATOM     72  O   UNL A   1      48.148  37.408  27.851  1.00  0.00    -0.744 OA
ENDBRANCH  68  69
ENDBRANCH  47  61
BRANCH  48  73
ATOM     73  C   UNL A   1      43.480  23.183  26.940  1.00  0.00     0.058 A 
ATOM     74  C   UNL A   1      43.410  22.689  25.630  1.00  0.00     0.135 A 
ATOM     75  C   UNL A   1      43.167  22.305  27.989  1.00  0.00     0.135 A 
ATOM     76  F   UNL A   1      43.685  23.495  24.593  1.00  0.00    -0.206 F 
ATOM     77  C   UNL A   1      43.038  21.374  25.368  1.00  0.00     0.059 A 
ATOM     78  C   UNL A   1      42.815  20.981  27.754  1.00  0.00     0.059 A 
ATOM     79  F   UNL A   1      43.227  22.728  29.261  1.00  0.00    -0.206 F 
ATOM     80  C   UNL A   1      42.745  20.526  26.437  1.00  0.00     0.060 A 
BRANCH  80  81
ATOM     81  S   UNL A   1      42.318  18.805  26.092  1.00  0.00     0.124 S 
ATOM     82  O   UNL A   1      42.594  18.171  27.375  1.00  0.00    -0.237 OA
ATOM     83  O   UNL A   1      40.911  18.906  25.718  1.00  0.00    -0.237 OA
ATOM     84  O   UNL A   1      43.223  18.449  25.003  1.00  0.00    -0.744 OA
ENDBRANCH  80  81
ENDBRANCH  48  73
BRANCH  60  85
ATOM     85  C   UNL A   1      49.533  26.638  26.537  1.00  0.00     0.058 A 
ATOM     86  C   UNL A   1      50.375  25.994  27.455  1.00  0.00     0.135 A 
ATOM     87  C   UNL A   1      50.007  26.819  25.226  1.00  0.00     0.135 A 
ATOM     88  F   UNL A   1      49.974  25.805  28.722  1.00  0.00    -0.206 F 
ATOM     89  C   UNL A   1      51.643  25.552  27.092  1.00  0.00     0.059 A 
ATOM     90  C   UNL A   1      51.262  26.365  24.835  1.00  0.00     0.059 A 
ATOM     91  F   UNL A   1      49.237  27.422  24.307  1.00  0.00    -0.206 F 
ATOM     92  C   UNL A   1      52.077  25.739  25.777  1.00  0.00     0.060 A 
BRANCH  92  93
ATOM     93  S   UNL A   1      53.705  25.116  25.305  1.00  0.00     0.124 S 
ATOM     94  O   UNL A   1      54.557  25.712  26.329  1.00  0.00    -0.237 OA
ATOM     95  O   UNL A   1      53.526  23.670  25.394  1.00  0.00    -0.237 OA
ATOM     96  O   UNL A   1      53.889  25.636  23.953  1.00  0.00    -0.744 OA
ENDBRANCH  92  93
ENDBRANCH  60  85
ENDBRANCH  34  35
ENDBRANCH  27  29
ENDBRANCH  26  27
ENDBRANCH  25  26
ENDBRANCH   1  25
TORSDOF 19
ENDMDL
MODEL 2
REMARK VINA RESULT:     -10.7      6.590     12.142
REMARK SMILES Cc1nc([C@@H]2C[N@@H+]3CCC[C@@H]3CO2)sc1CC(=O)OCCOCCOC(=O)c1ccc(-c2c3nc(c(-c4c(F)cc(S(=O)(=O)[O-])cc4F)c4ccc([nH]4)c(-c4c(F)cc(S(=O)(=O)[O-])cc4F)c4nc(c(-c5c(F)cc(S(=O)(=O)[O-])cc5F)c5ccc2[nH]5)C=C4)C=C3)cc1
REMARK SMILES IDX 23 1 22 2 21 3 20 4 19 5 17 6 18 7 16 8 15 9 1 10 2 11 3 12
REMARK SMILES IDX 4 13 14 14 5 15 6 16 13 17 7 18 12 19 8 20 11 21 9 23 10 24
REMARK SMILES IDX 24 25 25 26 26 27 27 28 28 29 29 30 93 31 30 32 92 33 31 34
REMARK SMILES IDX 32 35 33 36 86 37 34 38 91 39 85 40 87 41 35 42 90 43 84 44
REMARK SMILES IDX 83 45 36 47 70 48 49 49 69 50 50 51 53 52 68 53 88 54 51 55
REMARK SMILES IDX 52 56 67 58 89 59 54 60 37 61 38 62 47 63 39 64 40 65 46 66
REMARK SMILES IDX 48 67 41 68 42 69 43 70 44 71 45 72 71 73 72 74 81 75 73 76
REMARK SMILES IDX 74 77 80 78 82 79 75 80 76 81 77 82 78 83 79 84 55 85 56 86
REMARK SMILES IDX 65 87 57 88 58 89 64 90 66 91 59 92 60 93 61 94 62 95 63 96
REMARK H PARENT 7 22 87 46 53 57
REMARK Flexibility Score: inf
ROOT
ATOM      1  C   UNL A   1      41.247  22.170  26.637  1.00  0.00     0.202 C 
ENDROOT
BRANCH   1   2
ATOM      2  O   UNL A   1      39.977  21.768  26.120  1.00  0.00    -0.374 OA
BRANCH   2   3
ATOM      3  C   UNL A   1      38.928  22.735  26.174  1.00  0.00     0.202 C 
BRANCH   3   4
ATOM      4  C   UNL A   1      37.544  22.269  25.706  1.00  0.00     0.261 C 
BRANCH   4   5
ATOM      5  O   UNL A   1      36.859  23.260  24.917  1.00  0.00    -0.463 OA
BRANCH   5   6
ATOM      6  C   UNL A   1      36.024  22.784  23.958  1.00  0.00     0.311 C 
ATOM      7  O   UNL A   1      36.184  22.953  22.751  1.00  0.00    -0.252 OA
BRANCH   6   8
ATOM      8  C   UNL A   1      34.869  21.948  24.467  1.00  0.00     0.171 C 
BRANCH   8   9
ATOM      9  C   UNL A   1      33.750  22.692  25.124  1.00  0.00     0.039 A 
ATOM     10  C   UNL A   1      33.954  21.960  27.593  1.00  0.00     0.068 C 
ATOM     11  C   UNL A   1      33.368  22.716  26.455  1.00  0.00     0.052 A 
ATOM     12  N   UNL A   1      32.324  23.575  26.738  1.00  0.00    -0.243 NA
ATOM     13  C   UNL A   1      31.854  24.133  25.642  1.00  0.00     0.128 A 
ATOM     14  S   UNL A   1      32.786  23.811  24.238  1.00  0.00    -0.120 S 
BRANCH  13  15
ATOM     15  C   UNL A   1      30.645  25.051  25.582  1.00  0.00     0.232 C 
ATOM     16  C   UNL A   1      30.418  25.578  24.136  1.00  0.00     0.302 C 
ATOM     17  O   UNL A   1      30.802  26.079  26.580  1.00  0.00    -0.359 OA
ATOM     18  N   UNL A   1      30.289  27.028  23.941  1.00  0.00    -0.328 N 
ATOM     19  C   UNL A   1      31.640  27.144  26.129  1.00  0.00     0.226 C 
ATOM     20  C   UNL A   1      30.650  27.459  22.582  1.00  0.00     0.262 C 
ATOM     21  C   UNL A   1      31.042  27.850  24.909  1.00  0.00     0.210 C 
ATOM     22  H   UNL A   1      29.294  27.191  24.100  1.00  0.00     0.348 HD
ATOM     23  C   UNL A   1      31.391  28.775  22.756  1.00  0.00     0.068 C 
ATOM     24  C   UNL A   1      32.091  28.590  24.087  1.00  0.00     0.073 C 
ENDBRANCH  13  15
ENDBRANCH   8   9
ENDBRANCH   6   8
ENDBRANCH   5   6
ENDBRANCH   4   5
ENDBRANCH   3   4
ENDBRANCH   2   3
ENDBRANCH   1   2
BRANCH   1  25
ATOM     25  C   UNL A   1      42.161  22.946  25.680  1.00  0.00     0.261 C 
BRANCH  25  26
ATOM     26  O   UNL A   1      42.680  24.148  26.281  1.00  0.00    -0.460 OA
BRANCH  26  27
ATOM     27  C   UNL A   1      41.867  25.226  26.181  1.00  0.00     0.338 C 
ATOM     28  O   UNL A   1      41.101  25.486  25.261  1.00  0.00    -0.246 OA
BRANCH  27  29
ATOM     29  C   UNL A   1      41.864  25.994  27.440  1.00  0.00     0.060 A 
ATOM     30  C   UNL A   1      40.752  25.846  28.281  1.00  0.00     0.016 A 
ATOM     31  C   UNL A   1      42.872  26.907  27.753  1.00  0.00     0.016 A 
ATOM     32  C   UNL A   1      40.622  26.643  29.416  1.00  0.00     0.010 A 
ATOM     33  C   UNL A   1      42.732  27.717  28.888  1.00  0.00     0.010 A 
ATOM     34  C   UNL A   1      41.593  27.611  29.709  1.00  0.00    -0.014 A 
BRANCH  34  35
ATOM     35  C   UNL A   1      41.356  28.577  30.811  1.00  0.00     0.031 A 
ATOM     36  C   UNL A   1      42.201  28.500  32.054  1.00  0.00     0.074 A 
ATOM     37  C   UNL A   1      40.414  29.530  30.696  1.00  0.00     0.049 A 
ATOM     38  N   UNL A   1      42.139  29.221  33.144  1.00  0.00    -0.248 NA
ATOM     39  C   UNL A   1      43.261  27.479  32.068  1.00  0.00     0.031 C 
ATOM     40  C   UNL A   1      39.558  29.733  29.528  1.00  0.00     0.029 A 
ATOM     41  N   UNL A   1      40.012  30.501  31.580  1.00  0.00    -0.354 N 
ATOM     42  C   UNL A   1      43.142  28.740  33.977  1.00  0.00     0.074 A 
ATOM     43  C   UNL A   1      43.789  27.652  33.273  1.00  0.00     0.031 C 
ATOM     44  C   UNL A   1      38.717  30.752  29.775  1.00  0.00     0.029 A 
ATOM     45  C   UNL A   1      38.954  31.253  31.128  1.00  0.00     0.049 A 
ATOM     46  H   UNL A   1      40.442  30.645  32.454  1.00  0.00     0.167 HD
ATOM     47  C   UNL A   1      43.495  29.167  35.213  1.00  0.00     0.037 A 
ATOM     48  C   UNL A   1      38.239  32.215  31.745  1.00  0.00     0.037 A 
ATOM     49  C   UNL A   1      42.851  30.251  35.909  1.00  0.00     0.049 A 
ATOM     50  C   UNL A   1      38.601  32.625  33.148  1.00  0.00     0.074 A 
ATOM     51  C   UNL A   1      43.161  30.780  37.150  1.00  0.00     0.029 A 
ATOM     52  N   UNL A   1      41.760  30.962  35.433  1.00  0.00    -0.354 N 
ATOM     53  N   UNL A   1      39.574  32.184  33.910  1.00  0.00    -0.248 NA
ATOM     54  C   UNL A   1      37.768  33.660  33.778  1.00  0.00     0.031 C 
ATOM     55  C   UNL A   1      42.228  31.779  37.446  1.00  0.00     0.029 A 
ATOM     56  C   UNL A   1      41.363  31.903  36.371  1.00  0.00     0.049 A 
ATOM     57  H   UNL A   1      41.331  30.820  34.559  1.00  0.00     0.167 HD
ATOM     58  C   UNL A   1      39.479  32.896  35.101  1.00  0.00     0.074 A 
ATOM     59  C   UNL A   1      38.364  33.808  34.955  1.00  0.00     0.031 C 
ATOM     60  C   UNL A   1      40.249  32.804  36.213  1.00  0.00     0.037 A 
BRANCH  47  61
ATOM     61  C   UNL A   1      44.614  28.446  35.908  1.00  0.00     0.058 A 
ATOM     62  C   UNL A   1      45.952  28.846  35.765  1.00  0.00     0.135 A 
ATOM     63  C   UNL A   1      44.340  27.369  36.766  1.00  0.00     0.135 A 
ATOM     64  F   UNL A   1      46.270  29.862  34.947  1.00  0.00    -0.206 F 
ATOM     65  C   UNL A   1      46.982  28.191  36.433  1.00  0.00     0.059 A 
ATOM     66  C   UNL A   1      45.352  26.712  37.461  1.00  0.00     0.059 A 
ATOM     67  F   UNL A   1      43.078  26.946  36.936  1.00  0.00    -0.206 F 
ATOM     68  C   UNL A   1      46.671  27.123  37.278  1.00  0.00     0.060 A 
BRANCH  68  69
ATOM     69  S   UNL A   1      48.017  26.288  38.146  1.00  0.00     0.124 S 
ATOM     70  O   UNL A   1      48.519  25.391  37.111  1.00  0.00    -0.237 OA
ATOM     71  O   UNL A   1      48.895  27.397  38.504  1.00  0.00    -0.237 OA
ATOM     72  O   UNL A   1      47.346  25.638  39.268  1.00  0.00    -0.744 OA
ENDBRANCH  68  69
ENDBRANCH  47  61
BRANCH  48  73
ATOM     73  C   UNL A   1      37.080  32.835  31.049  1.00  0.00     0.058 A 
ATOM     74  C   UNL A   1      35.763  32.476  31.367  1.00  0.00     0.135 A 
ATOM     75  C   UNL A   1      37.272  33.803  30.051  1.00  0.00     0.135 A 
ATOM     76  F   UNL A   1      35.529  31.544  32.304  1.00  0.00    -0.206 F 
ATOM     77  C   UNL A   1      34.675  33.050  30.717  1.00  0.00     0.059 A 
ATOM     78  C   UNL A   1      36.200  34.408  29.403  1.00  0.00     0.059 A 
ATOM     79  F   UNL A   1      38.513  34.186  29.715  1.00  0.00    -0.206 F 
ATOM     80  C   UNL A   1      34.904  34.018  29.738  1.00  0.00     0.060 A 
BRANCH  80  81
ATOM     81  S   UNL A   1      33.486  34.801  28.938  1.00  0.00     0.124 S 
ATOM     82  O   UNL A   1      33.128  33.806  27.935  1.00  0.00    -0.237 OA
ATOM     83  O   UNL A   1      32.552  34.955  30.049  1.00  0.00    -0.237 OA
ATOM     84  O   UNL A   1      34.042  36.048  28.420  1.00  0.00    -0.744 OA
ENDBRANCH  80  81
ENDBRANCH  48  73
BRANCH  60  85
ATOM     85  C   UNL A   1      39.924  33.718  37.363  1.00  0.00     0.058 A 
ATOM     86  C   UNL A   1      40.533  34.975  37.494  1.00  0.00     0.135 A 
ATOM     87  C   UNL A   1      38.942  33.363  38.303  1.00  0.00     0.135 A 
ATOM     88  F   UNL A   1      41.484  35.359  36.628  1.00  0.00    -0.206 F 
ATOM     89  C   UNL A   1      40.189  35.845  38.525  1.00  0.00     0.059 A 
ATOM     90  C   UNL A   1      38.566  34.226  39.327  1.00  0.00     0.059 A 
ATOM     91  F   UNL A   1      38.323  32.175  38.216  1.00  0.00    -0.206 F 
ATOM     92  C   UNL A   1      39.201  35.462  39.434  1.00  0.00     0.060 A 
BRANCH  92  93
ATOM     93  S   UNL A   1      38.727  36.621  40.736  1.00  0.00     0.124 S 
ATOM     94  O   UNL A   1      37.778  35.825  41.508  1.00  0.00    -0.237 OA
ATOM     95  O   UNL A   1      40.002  36.896  41.391  1.00  0.00    -0.237 OA
ATOM     96  O   UNL A   1      38.153  37.743  40.000  1.00  0.00    -0.744 OA
ENDBRANCH  92  93
ENDBRANCH  60  85
ENDBRANCH  34  35
ENDBRANCH  27  29
ENDBRANCH  26  27
ENDBRANCH  25  26
ENDBRANCH   1  25
TORSDOF 19
ENDMDL
MODEL 3
REMARK VINA RESULT:     -10.7      1.342      8.275
REMARK SMILES Cc1nc([C@@H]2C[N@@H+]3CCC[C@@H]3CO2)sc1CC(=O)OCCOCCOC(=O)c1ccc(-c2c3nc(c(-c4c(F)cc(S(=O)(=O)[O-])cc4F)c4ccc([nH]4)c(-c4c(F)cc(S(=O)(=O)[O-])cc4F)c4nc(c(-c5c(F)cc(S(=O)(=O)[O-])cc5F)c5ccc2[nH]5)C=C4)C=C3)cc1
REMARK SMILES IDX 23 1 22 2 21 3 20 4 19 5 17 6 18 7 16 8 15 9 1 10 2 11 3 12
REMARK SMILES IDX 4 13 14 14 5 15 6 16 13 17 7 18 12 19 8 20 11 21 9 23 10 24
REMARK SMILES IDX 24 25 25 26 26 27 27 28 28 29 29 30 93 31 30 32 92 33 31 34
REMARK SMILES IDX 32 35 33 36 86 37 34 38 91 39 85 40 87 41 35 42 90 43 84 44
REMARK SMILES IDX 83 45 36 47 70 48 49 49 69 50 50 51 53 52 68 53 88 54 51 55
REMARK SMILES IDX 52 56 67 58 89 59 54 60 37 61 38 62 47 63 39 64 40 65 46 66
REMARK SMILES IDX 48 67 41 68 42 69 43 70 44 71 45 72 71 73 72 74 81 75 73 76
REMARK SMILES IDX 74 77 80 78 82 79 75 80 76 81 77 82 78 83 79 84 55 85 56 86
REMARK SMILES IDX 65 87 57 88 58 89 64 90 66 91 59 92 60 93 61 94 62 95 63 96
REMARK H PARENT 7 22 87 46 53 57
REMARK Flexibility Score: inf
ROOT
ATOM      1  C   UNL A   1      34.881  32.327  28.680  1.00  0.00     0.202 C 
ENDROOT
BRANCH   1   2
ATOM      2  O   UNL A   1      34.858  31.453  27.550  1.00  0.00    -0.374 OA
BRANCH   2   3
ATOM      3  C   UNL A   1      33.890  30.404  27.571  1.00  0.00     0.202 C 
BRANCH   3   4
ATOM      4  C   UNL A   1      34.140  29.224  26.624  1.00  0.00     0.261 C 
BRANCH   4   5
ATOM      5  O   UNL A   1      33.435  28.032  27.021  1.00  0.00    -0.463 OA
BRANCH   5   6
ATOM      6  C   UNL A   1      32.086  28.062  26.871  1.00  0.00     0.311 C 
ATOM      7  O   UNL A   1      31.284  28.067  27.803  1.00  0.00    -0.252 OA
BRANCH   6   8
ATOM      8  C   UNL A   1      31.598  28.153  25.441  1.00  0.00     0.171 C 
BRANCH   8   9
ATOM      9  C   UNL A   1      32.224  27.209  24.465  1.00  0.00     0.039 A 
ATOM     10  C   UNL A   1      33.722  28.766  23.048  1.00  0.00     0.068 C 
ATOM     11  C   UNL A   1      33.141  27.460  23.458  1.00  0.00     0.052 A 
ATOM     12  N   UNL A   1      33.573  26.337  22.780  1.00  0.00    -0.243 NA
ATOM     13  C   UNL A   1      32.940  25.258  23.191  1.00  0.00     0.128 A 
ATOM     14  S   UNL A   1      31.944  25.512  24.564  1.00  0.00    -0.120 S 
BRANCH  13  15
ATOM     15  C   UNL A   1      33.100  23.872  22.590  1.00  0.00     0.232 C 
ATOM     16  C   UNL A   1      32.249  22.827  23.366  1.00  0.00     0.302 C 
ATOM     17  O   UNL A   1      34.505  23.567  22.512  1.00  0.00    -0.359 OA
ATOM     18  N   UNL A   1      32.919  21.612  23.850  1.00  0.00    -0.328 N 
ATOM     19  C   UNL A   1      35.023  23.092  23.756  1.00  0.00     0.226 C 
ATOM     20  C   UNL A   1      32.241  21.004  25.004  1.00  0.00     0.262 C 
ATOM     21  C   UNL A   1      34.346  21.787  24.183  1.00  0.00     0.210 C 
ATOM     22  H   UNL A   1      32.860  20.986  23.047  1.00  0.00     0.348 HD
ATOM     23  C   UNL A   1      33.354  20.517  25.919  1.00  0.00     0.068 C 
ATOM     24  C   UNL A   1      34.449  21.537  25.683  1.00  0.00     0.073 C 
ENDBRANCH  13  15
ENDBRANCH   8   9
ENDBRANCH   6   8
ENDBRANCH   5   6
ENDBRANCH   4   5
ENDBRANCH   3   4
ENDBRANCH   2   3
ENDBRANCH   1   2
BRANCH   1  25
ATOM     25  C   UNL A   1      35.343  31.715  30.010  1.00  0.00     0.261 C 
BRANCH  25  26
ATOM     26  O   UNL A   1      36.048  30.474  29.819  1.00  0.00    -0.460 OA
BRANCH  26  27
ATOM     27  C   UNL A   1      36.866  30.125  30.841  1.00  0.00     0.338 C 
ATOM     28  O   UNL A   1      36.527  29.724  31.948  1.00  0.00    -0.246 OA
BRANCH  27  29
ATOM     29  C   UNL A   1      38.271  30.101  30.398  1.00  0.00     0.060 A 
ATOM     30  C   UNL A   1      38.511  30.147  29.017  1.00  0.00     0.016 A 
ATOM     31  C   UNL A   1      39.329  29.942  31.295  1.00  0.00     0.016 A 
ATOM     32  C   UNL A   1      39.805  29.990  28.526  1.00  0.00     0.010 A 
ATOM     33  C   UNL A   1      40.628  29.771  30.797  1.00  0.00     0.010 A 
ATOM     34  C   UNL A   1      40.868  29.763  29.410  1.00  0.00    -0.014 A 
BRANCH  34  35
ATOM     35  C   UNL A   1      42.208  29.414  28.872  1.00  0.00     0.031 A 
ATOM     36  C   UNL A   1      42.475  28.007  28.410  1.00  0.00     0.074 A 
ATOM     37  C   UNL A   1      43.170  30.349  28.773  1.00  0.00     0.049 A 
ATOM     38  N   UNL A   1      43.578  27.485  27.941  1.00  0.00    -0.248 NA
ATOM     39  C   UNL A   1      41.345  27.065  28.480  1.00  0.00     0.031 C 
ATOM     40  C   UNL A   1      43.023  31.754  29.149  1.00  0.00     0.029 A 
ATOM     41  N   UNL A   1      44.468  30.253  28.334  1.00  0.00    -0.354 N 
ATOM     42  C   UNL A   1      43.283  26.154  27.667  1.00  0.00     0.074 A 
ATOM     43  C   UNL A   1      41.899  25.944  28.038  1.00  0.00     0.031 C 
ATOM     44  C   UNL A   1      44.192  32.385  28.945  1.00  0.00     0.029 A 
ATOM     45  C   UNL A   1      45.178  31.423  28.452  1.00  0.00     0.049 A 
ATOM     46  H   UNL A   1      44.853  29.423  27.968  1.00  0.00     0.167 HD
ATOM     47  C   UNL A   1      44.090  25.197  27.150  1.00  0.00     0.037 A 
ATOM     48  C   UNL A   1      46.480  31.685  28.218  1.00  0.00     0.037 A 
ATOM     49  C   UNL A   1      45.466  25.409  26.780  1.00  0.00     0.049 A 
ATOM     50  C   UNL A   1      47.377  30.586  27.713  1.00  0.00     0.074 A 
ATOM     51  C   UNL A   1      46.352  24.509  26.216  1.00  0.00     0.029 A 
ATOM     52  N   UNL A   1      46.157  26.599  26.950  1.00  0.00    -0.354 N 
ATOM     53  N   UNL A   1      47.076  29.341  27.427  1.00  0.00    -0.248 NA
ATOM     54  C   UNL A   1      48.793  30.923  27.502  1.00  0.00     0.031 C 
ATOM     55  C   UNL A   1      47.594  25.140  26.088  1.00  0.00     0.029 A 
ATOM     56  C   UNL A   1      47.470  26.447  26.532  1.00  0.00     0.049 A 
ATOM     57  H   UNL A   1      45.773  27.429  27.314  1.00  0.00     0.167 HD
ATOM     58  C   UNL A   1      48.257  28.753  26.989  1.00  0.00     0.074 A 
ATOM     59  C   UNL A   1      49.277  29.780  27.033  1.00  0.00     0.031 C 
ATOM     60  C   UNL A   1      48.476  27.477  26.584  1.00  0.00     0.037 A 
BRANCH  47  61
ATOM     61  C   UNL A   1      43.516  23.820  26.975  1.00  0.00     0.058 A 
ATOM     62  C   UNL A   1      43.408  22.922  28.049  1.00  0.00     0.135 A 
ATOM     63  C   UNL A   1      43.023  23.409  25.726  1.00  0.00     0.135 A 
ATOM     64  F   UNL A   1      43.876  23.260  29.261  1.00  0.00    -0.206 F 
ATOM     65  C   UNL A   1      42.851  21.658  27.887  1.00  0.00     0.059 A 
ATOM     66  C   UNL A   1      42.442  22.157  25.545  1.00  0.00     0.059 A 
ATOM     67  F   UNL A   1      43.103  24.229  24.666  1.00  0.00    -0.206 F 
ATOM     68  C   UNL A   1      42.372  21.284  26.629  1.00  0.00     0.060 A 
BRANCH  68  69
ATOM     69  S   UNL A   1      41.641  19.643  26.434  1.00  0.00     0.124 S 
ATOM     70  O   UNL A   1      42.039  18.999  27.681  1.00  0.00    -0.237 OA
ATOM     71  O   UNL A   1      40.220  19.947  26.303  1.00  0.00    -0.237 OA
ATOM     72  O   UNL A   1      42.282  19.127  25.229  1.00  0.00    -0.744 OA
ENDBRANCH  68  69
ENDBRANCH  47  61
BRANCH  48  73
ATOM     73  C   UNL A   1      47.023  33.041  28.495  1.00  0.00     0.058 A 
ATOM     74  C   UNL A   1      47.048  34.031  27.503  1.00  0.00     0.135 A 
ATOM     75  C   UNL A   1      47.525  33.371  29.764  1.00  0.00     0.135 A 
ATOM     76  F   UNL A   1      46.594  33.758  26.271  1.00  0.00    -0.206 F 
ATOM     77  C   UNL A   1      47.558  35.301  27.756  1.00  0.00     0.059 A 
ATOM     78  C   UNL A   1      48.018  34.640  30.047  1.00  0.00     0.059 A 
ATOM     79  F   UNL A   1      47.516  32.461  30.749  1.00  0.00    -0.206 F 
ATOM     80  C   UNL A   1      48.038  35.597  29.033  1.00  0.00     0.060 A 
BRANCH  80  81
ATOM     81  S   UNL A   1      48.646  37.264  29.370  1.00  0.00     0.124 S 
ATOM     82  O   UNL A   1      47.509  38.080  28.962  1.00  0.00    -0.237 OA
ATOM     83  O   UNL A   1      48.912  37.211  30.804  1.00  0.00    -0.237 OA
ATOM     84  O   UNL A   1      49.832  37.364  28.524  1.00  0.00    -0.744 OA
ENDBRANCH  80  81
ENDBRANCH  48  73
BRANCH  60  85
ATOM     85  C   UNL A   1      49.868  27.115  26.145  1.00  0.00     0.058 A 
ATOM     86  C   UNL A   1      50.809  26.594  27.045  1.00  0.00     0.135 A 
ATOM     87  C   UNL A   1      50.242  27.224  24.795  1.00  0.00     0.135 A 
ATOM     88  F   UNL A   1      50.506  26.478  28.348  1.00  0.00    -0.206 F 
ATOM     89  C   UNL A   1      52.077  26.204  26.626  1.00  0.00     0.059 A 
ATOM     90  C   UNL A   1      51.495  26.818  24.349  1.00  0.00     0.059 A 
ATOM     91  F   UNL A   1      49.375  27.708  23.891  1.00  0.00    -0.206 F 
ATOM     92  C   UNL A   1      52.410  26.316  25.274  1.00  0.00     0.060 A 
BRANCH  92  93
ATOM     93  S   UNL A   1      54.040  25.758  24.734  1.00  0.00     0.124 S 
ATOM     94  O   UNL A   1      54.055  26.196  23.342  1.00  0.00    -0.237 OA
ATOM     95  O   UNL A   1      54.934  26.480  25.634  1.00  0.00    -0.237 OA
ATOM     96  O   UNL A   1      53.989  24.313  24.937  1.00  0.00    -0.744 OA
ENDBRANCH  92  93
ENDBRANCH  60  85
ENDBRANCH  34  35
ENDBRANCH  27  29
ENDBRANCH  26  27
ENDBRANCH  25  26
ENDBRANCH   1  25
TORSDOF 19
ENDMDL
