MODEL 1
REMARK VINA RESULT:     -11.4      0.000      0.000
REMARK SMILES COc1cccc(C[N@@H+]2C[C@H](C(=O)OCCOCCOC(=O)c3ccc(-c4c5nc(c(-c6c(F)cc(S(=O)(=O)[O-])cc6F)c6ccc([nH]6)c(-c6c(F)cc(S(=O)(=O)[O-])cc6F)c6nc(c(-c7c(F)cc(S(=O)(=O)[O-])cc7F)c7ccc4[nH]7)C=C6)C=C5)cc3)C3(CC[NH+](C)CC3)C2)c1
REMARK SMILES IDX 17 1 16 2 15 3 14 4 12 5 13 6 11 7 9 8 10 9 96 10 89 12
REMARK SMILES IDX 90 13 95 14 91 15 94 16 92 17 93 18 8 20 7 21 3 22 4 23
REMARK SMILES IDX 97 24 5 25 6 26 2 27 1 28 18 29 19 30 20 31 21 32 22 33
REMARK SMILES IDX 23 34 24 35 88 36 25 37 87 38 26 39 27 40 28 41 81 42 29 43
REMARK SMILES IDX 86 44 80 45 82 46 30 47 85 48 79 49 78 50 31 52 65 53 44 54
REMARK SMILES IDX 64 55 45 56 48 57 63 58 83 59 46 60 47 61 62 63 84 64 49 65
REMARK SMILES IDX 32 66 33 67 42 68 34 69 35 70 41 71 43 72 36 73 37 74 38 75
REMARK SMILES IDX 39 76 40 77 66 78 67 79 76 80 68 81 69 82 75 83 77 84 70 85
REMARK SMILES IDX 71 86 72 87 73 88 74 89 50 90 51 91 60 92 52 93 53 94 59 95
REMARK SMILES IDX 61 96 54 97 55 98 56 99 57 100 58 101
REMARK H PARENT 9 11 92 19 82 51 48 62
REMARK Flexibility Score: inf
ROOT
ATOM      1  O   UNL A   1      33.557  30.398  27.005  1.00  0.00    -0.374 OA
ENDROOT
BRANCH   1   2
ATOM      2  C   UNL A   1      32.389  29.610  27.267  1.00  0.00     0.202 C 
BRANCH   2   3
ATOM      3  C   UNL A   1      32.532  28.121  26.932  1.00  0.00     0.261 C 
BRANCH   3   4
ATOM      4  O   UNL A   1      31.238  27.476  26.949  1.00  0.00    -0.463 OA
BRANCH   4   5
ATOM      5  C   UNL A   1      31.067  26.428  26.129  1.00  0.00     0.315 C 
ATOM      6  O   UNL A   1      30.263  25.523  26.339  1.00  0.00    -0.252 OA
BRANCH   5   7
ATOM      7  C   UNL A   1      31.908  26.457  24.860  1.00  0.00     0.166 C 
ATOM      8  N   UNL A   1      32.896  24.949  23.334  1.00  0.00    -0.330 N 
ATOM      9  C   UNL A   1      32.238  24.988  24.622  1.00  0.00     0.278 C 
ATOM     10  C   UNL A   1      32.362  26.021  22.504  1.00  0.00     0.271 C 
ATOM     11  H   UNL A   1      33.890  25.143  23.455  1.00  0.00     0.348 HD
ATOM     12  C   UNL A   1      31.532  26.982  23.433  1.00  0.00     0.049 C 
ATOM     13  C   UNL A   1      31.993  28.446  23.247  1.00  0.00     0.075 C 
ATOM     14  C   UNL A   1      30.081  26.920  22.905  1.00  0.00     0.075 C 
ATOM     15  C   UNL A   1      31.038  29.436  23.919  1.00  0.00     0.262 C 
ATOM     16  C   UNL A   1      29.123  28.017  23.366  1.00  0.00     0.262 C 
ATOM     17  N   UNL A   1      29.666  29.369  23.420  1.00  0.00    -0.337 N 
ATOM     18  C   UNL A   1      29.466  30.102  22.176  1.00  0.00     0.332 C 
ATOM     19  H   UNL A   1      29.114  29.857  24.126  1.00  0.00     0.347 HD
BRANCH   8  20
ATOM     20  C   UNL A   1      33.006  23.616  22.733  1.00  0.00     0.299 C 
BRANCH  20  21
ATOM     21  C   UNL A   1      33.436  22.470  23.635  1.00  0.00     0.010 A 
ATOM     22  C   UNL A   1      32.950  20.391  24.787  1.00  0.00     0.119 A 
ATOM     23  C   UNL A   1      34.228  20.367  25.339  1.00  0.00     0.046 A 
ATOM     24  C   UNL A   1      32.539  21.447  23.969  1.00  0.00     0.056 A 
ATOM     25  C   UNL A   1      35.135  21.364  24.999  1.00  0.00     0.004 A 
ATOM     26  C   UNL A   1      34.751  22.389  24.132  1.00  0.00     0.010 A 
BRANCH  22  27
ATOM     27  O   UNL A   1      32.096  19.370  25.103  1.00  0.00    -0.497 OA
ATOM     28  C   UNL A   1      32.808  18.132  25.148  1.00  0.00     0.278 C 
ENDBRANCH  22  27
ENDBRANCH  20  21
ENDBRANCH   8  20
ENDBRANCH   5   7
ENDBRANCH   4   5
ENDBRANCH   3   4
ENDBRANCH   2   3
ENDBRANCH   1   2
BRANCH   1  29
ATOM     29  C   UNL A   1      33.613  31.666  27.657  1.00  0.00     0.202 C 
BRANCH  29  30
ATOM     30  C   UNL A   1      34.784  31.852  28.630  1.00  0.00     0.261 C 
BRANCH  30  31
ATOM     31  O   UNL A   1      35.533  30.634  28.786  1.00  0.00    -0.460 OA
BRANCH  31  32
ATOM     32  C   UNL A   1      36.388  30.620  29.837  1.00  0.00     0.338 C 
ATOM     33  O   UNL A   1      36.123  30.878  31.001  1.00  0.00    -0.246 OA
BRANCH  32  34
ATOM     34  C   UNL A   1      37.684  30.048  29.418  1.00  0.00     0.060 A 
ATOM     35  C   UNL A   1      38.559  29.644  30.432  1.00  0.00     0.016 A 
ATOM     36  C   UNL A   1      38.055  29.915  28.076  1.00  0.00     0.016 A 
ATOM     37  C   UNL A   1      39.822  29.150  30.111  1.00  0.00     0.010 A 
ATOM     38  C   UNL A   1      39.317  29.398  27.755  1.00  0.00     0.010 A 
ATOM     39  C   UNL A   1      40.226  29.052  28.772  1.00  0.00    -0.014 A 
BRANCH  39  40
ATOM     40  C   UNL A   1      41.648  28.742  28.469  1.00  0.00     0.031 A 
ATOM     41  C   UNL A   1      42.015  27.343  28.038  1.00  0.00     0.074 A 
ATOM     42  C   UNL A   1      42.593  29.702  28.506  1.00  0.00     0.049 A 
ATOM     43  N   UNL A   1      43.177  26.870  27.669  1.00  0.00    -0.248 NA
ATOM     44  C   UNL A   1      40.932  26.346  28.022  1.00  0.00     0.031 C 
ATOM     45  C   UNL A   1      42.372  31.093  28.902  1.00  0.00     0.029 A 
ATOM     46  N   UNL A   1      43.931  29.651  28.199  1.00  0.00    -0.354 N 
ATOM     47  C   UNL A   1      42.969  25.524  27.394  1.00  0.00     0.074 A 
ATOM     48  C   UNL A   1      41.577  25.245  27.665  1.00  0.00     0.031 C 
ATOM     49  C   UNL A   1      43.534  31.763  28.808  1.00  0.00     0.029 A 
ATOM     50  C   UNL A   1      44.587  30.848  28.369  1.00  0.00     0.049 A 
ATOM     51  H   UNL A   1      44.380  28.832  27.886  1.00  0.00     0.167 HD
ATOM     52  C   UNL A   1      43.852  24.604  26.940  1.00  0.00     0.037 A 
ATOM     53  C   UNL A   1      45.887  31.167  28.200  1.00  0.00     0.037 A 
ATOM     54  C   UNL A   1      45.228  24.886  26.625  1.00  0.00     0.049 A 
ATOM     55  C   UNL A   1      46.853  30.115  27.711  1.00  0.00     0.074 A 
ATOM     56  C   UNL A   1      46.175  24.032  26.088  1.00  0.00     0.029 A 
ATOM     57  N   UNL A   1      45.854  26.106  26.822  1.00  0.00    -0.354 N 
ATOM     58  N   UNL A   1      46.619  28.867  27.383  1.00  0.00    -0.248 NA
ATOM     59  C   UNL A   1      48.260  30.518  27.561  1.00  0.00     0.031 C 
ATOM     60  C   UNL A   1      47.390  24.720  26.011  1.00  0.00     0.029 A 
ATOM     61  C   UNL A   1      47.184  26.018  26.450  1.00  0.00     0.049 A 
ATOM     62  H   UNL A   1      45.417  26.915  27.174  1.00  0.00     0.167 HD
ATOM     63  C   UNL A   1      47.840  28.348  26.962  1.00  0.00     0.074 A 
ATOM     64  C   UNL A   1      48.808  29.419  27.062  1.00  0.00     0.031 C 
ATOM     65  C   UNL A   1      48.135  27.096  26.533  1.00  0.00     0.037 A 
BRANCH  52  66
ATOM     66  C   UNL A   1      43.373  23.192  26.759  1.00  0.00     0.058 A 
ATOM     67  C   UNL A   1      43.174  22.635  25.487  1.00  0.00     0.135 A 
ATOM     68  C   UNL A   1      43.196  22.361  27.876  1.00  0.00     0.135 A 
ATOM     69  F   UNL A   1      43.310  23.393  24.387  1.00  0.00    -0.206 F 
ATOM     70  C   UNL A   1      42.812  21.302  25.328  1.00  0.00     0.059 A 
ATOM     71  C   UNL A   1      42.859  21.018  27.742  1.00  0.00     0.059 A 
ATOM     72  F   UNL A   1      43.370  22.848  29.116  1.00  0.00    -0.206 F 
ATOM     73  C   UNL A   1      42.665  20.499  26.462  1.00  0.00     0.060 A 
BRANCH  73  74
ATOM     74  S   UNL A   1      42.247  18.757  26.238  1.00  0.00     0.124 S 
ATOM     75  O   UNL A   1      42.429  18.238  27.591  1.00  0.00    -0.237 OA
ATOM     76  O   UNL A   1      40.868  18.827  25.767  1.00  0.00    -0.237 OA
ATOM     77  O   UNL A   1      43.220  18.297  25.255  1.00  0.00    -0.744 OA
ENDBRANCH  73  74
ENDBRANCH  52  66
BRANCH  53  78
ATOM     78  C   UNL A   1      46.376  32.538  28.517  1.00  0.00     0.058 A 
ATOM     79  C   UNL A   1      46.454  33.533  27.532  1.00  0.00     0.135 A 
ATOM     80  C   UNL A   1      46.835  32.858  29.805  1.00  0.00     0.135 A 
ATOM     81  F   UNL A   1      46.039  33.274  26.282  1.00  0.00    -0.206 F 
ATOM     82  C   UNL A   1      47.005  34.784  27.799  1.00  0.00     0.059 A 
ATOM     83  C   UNL A   1      47.363  34.111  30.104  1.00  0.00     0.059 A 
ATOM     84  F   UNL A   1      46.773  31.946  30.787  1.00  0.00    -0.206 F 
ATOM     85  C   UNL A   1      47.464  35.060  29.088  1.00  0.00     0.060 A 
BRANCH  85  86
ATOM     86  S   UNL A   1      48.183  36.681  29.429  1.00  0.00     0.124 S 
ATOM     87  O   UNL A   1      47.117  37.572  28.988  1.00  0.00    -0.237 OA
ATOM     88  O   UNL A   1      48.411  36.620  30.871  1.00  0.00    -0.237 OA
ATOM     89  O   UNL A   1      49.393  36.689  28.612  1.00  0.00    -0.744 OA
ENDBRANCH  85  86
ENDBRANCH  53  78
BRANCH  65  90
ATOM     90  C   UNL A   1      49.548  26.816  26.097  1.00  0.00     0.058 A 
ATOM     91  C   UNL A   1      50.499  26.277  26.976  1.00  0.00     0.135 A 
ATOM     92  C   UNL A   1      49.936  27.031  24.764  1.00  0.00     0.135 A 
ATOM     93  F   UNL A   1      50.182  26.056  28.263  1.00  0.00    -0.206 F 
ATOM     94  C   UNL A   1      51.793  25.982  26.556  1.00  0.00     0.059 A 
ATOM     95  C   UNL A   1      51.215  26.716  24.315  1.00  0.00     0.059 A 
ATOM     96  F   UNL A   1      49.061  27.532  23.877  1.00  0.00    -0.206 F 
ATOM     97  C   UNL A   1      52.141  26.202  25.222  1.00  0.00     0.060 A 
BRANCH  97  98
ATOM     98  S   UNL A   1      53.810  25.780  24.679  1.00  0.00     0.124 S 
ATOM     99  O   UNL A   1      54.627  26.543  25.617  1.00  0.00    -0.237 OA
ATOM    100  O   UNL A   1      53.837  24.330  24.849  1.00  0.00    -0.237 OA
ATOM    101  O   UNL A   1      53.846  26.242  23.295  1.00  0.00    -0.744 OA
ENDBRANCH  97  98
ENDBRANCH  65  90
ENDBRANCH  39  40
ENDBRANCH  32  34
ENDBRANCH  31  32
ENDBRANCH  30  31
ENDBRANCH  29  30
ENDBRANCH   1  29
TORSDOF 20
ENDMDL
MODEL 2
REMARK VINA RESULT:     -11.2      1.118      8.167
REMARK SMILES COc1cccc(C[N@@H+]2C[C@H](C(=O)OCCOCCOC(=O)c3ccc(-c4c5nc(c(-c6c(F)cc(S(=O)(=O)[O-])cc6F)c6ccc([nH]6)c(-c6c(F)cc(S(=O)(=O)[O-])cc6F)c6nc(c(-c7c(F)cc(S(=O)(=O)[O-])cc7F)c7ccc4[nH]7)C=C6)C=C5)cc3)C3(CC[NH+](C)CC3)C2)c1
REMARK SMILES IDX 17 1 16 2 15 3 14 4 12 5 13 6 11 7 9 8 10 9 96 10 89 12
REMARK SMILES IDX 90 13 95 14 91 15 94 16 92 17 93 18 8 20 7 21 3 22 4 23
REMARK SMILES IDX 97 24 5 25 6 26 2 27 1 28 18 29 19 30 20 31 21 32 22 33
REMARK SMILES IDX 23 34 24 35 88 36 25 37 87 38 26 39 27 40 28 41 81 42 29 43
REMARK SMILES IDX 86 44 80 45 82 46 30 47 85 48 79 49 78 50 31 52 65 53 44 54
REMARK SMILES IDX 64 55 45 56 48 57 63 58 83 59 46 60 47 61 62 63 84 64 49 65
REMARK SMILES IDX 32 66 33 67 42 68 34 69 35 70 41 71 43 72 36 73 37 74 38 75
REMARK SMILES IDX 39 76 40 77 66 78 67 79 76 80 68 81 69 82 75 83 77 84 70 85
REMARK SMILES IDX 71 86 72 87 73 88 74 89 50 90 51 91 60 92 52 93 53 94 59 95
REMARK SMILES IDX 61 96 54 97 55 98 56 99 57 100 58 101
REMARK H PARENT 9 11 92 19 82 51 48 62
REMARK Flexibility Score: inf
ROOT
ATOM      1  O   UNL A   1      34.255  30.485  27.472  1.00  0.00    -0.374 OA
ENDROOT
BRANCH   1   2
ATOM      2  C   UNL A   1      33.030  29.775  27.253  1.00  0.00     0.202 C 
BRANCH   2   3
ATOM      3  C   UNL A   1      33.153  28.249  27.316  1.00  0.00     0.261 C 
BRANCH   3   4
ATOM      4  O   UNL A   1      31.860  27.631  27.121  1.00  0.00    -0.463 OA
BRANCH   4   5
ATOM      5  C   UNL A   1      31.816  26.537  26.346  1.00  0.00     0.315 C 
ATOM      6  O   UNL A   1      31.145  25.543  26.609  1.00  0.00    -0.252 OA
BRANCH   5   7
ATOM      7  C   UNL A   1      32.623  26.626  25.058  1.00  0.00     0.166 C 
ATOM      8  N   UNL A   1      33.896  25.225  23.644  1.00  0.00    -0.330 N 
ATOM      9  C   UNL A   1      33.254  25.243  24.941  1.00  0.00     0.278 C 
ATOM     10  C   UNL A   1      33.141  26.081  22.737  1.00  0.00     0.271 C 
ATOM     11  H   UNL A   1      34.827  25.633  23.721  1.00  0.00     0.348 HD
ATOM     12  C   UNL A   1      32.134  26.928  23.600  1.00  0.00     0.049 C 
ATOM     13  C   UNL A   1      32.274  28.433  23.274  1.00  0.00     0.075 C 
ATOM     14  C   UNL A   1      30.725  26.515  23.119  1.00  0.00     0.075 C 
ATOM     15  C   UNL A   1      31.137  29.257  23.882  1.00  0.00     0.262 C 
ATOM     16  C   UNL A   1      29.561  27.424  23.506  1.00  0.00     0.262 C 
ATOM     17  N   UNL A   1      29.806  28.859  23.427  1.00  0.00    -0.337 N 
ATOM     18  C   UNL A   1      29.446  29.417  22.129  1.00  0.00     0.332 C 
ATOM     19  H   UNL A   1      29.169  29.283  24.102  1.00  0.00     0.347 HD
BRANCH   8  20
ATOM     20  C   UNL A   1      34.280  23.896  23.159  1.00  0.00     0.299 C 
BRANCH  20  21
ATOM     21  C   UNL A   1      35.182  23.055  24.049  1.00  0.00     0.010 A 
ATOM     22  C   UNL A   1      37.272  22.736  25.240  1.00  0.00     0.119 A 
ATOM     23  C   UNL A   1      36.866  21.474  25.667  1.00  0.00     0.046 A 
ATOM     24  C   UNL A   1      36.457  23.511  24.410  1.00  0.00     0.056 A 
ATOM     25  C   UNL A   1      35.597  21.018  25.335  1.00  0.00     0.004 A 
ATOM     26  C   UNL A   1      34.752  21.814  24.557  1.00  0.00     0.010 A 
BRANCH  22  27
ATOM     27  O   UNL A   1      38.509  23.177  25.624  1.00  0.00    -0.497 OA
ATOM     28  C   UNL A   1      39.173  22.168  26.388  1.00  0.00     0.278 C 
ENDBRANCH  22  27
ENDBRANCH  20  21
ENDBRANCH   8  20
ENDBRANCH   5   7
ENDBRANCH   4   5
ENDBRANCH   3   4
ENDBRANCH   2   3
ENDBRANCH   1   2
BRANCH   1  29
ATOM     29  C   UNL A   1      34.123  31.850  27.868  1.00  0.00     0.202 C 
BRANCH  29  30
ATOM     30  C   UNL A   1      34.854  32.232  29.161  1.00  0.00     0.261 C 
BRANCH  30  31
ATOM     31  O   UNL A   1      35.635  31.134  29.664  1.00  0.00    -0.460 OA
BRANCH  31  32
ATOM     32  C   UNL A   1      36.727  31.493  30.383  1.00  0.00     0.338 C 
ATOM     33  O   UNL A   1      36.746  32.174  31.396  1.00  0.00    -0.246 OA
BRANCH  32  34
ATOM     34  C   UNL A   1      37.914  30.772  29.879  1.00  0.00     0.060 A 
ATOM     35  C   UNL A   1      38.909  30.457  30.811  1.00  0.00     0.016 A 
ATOM     36  C   UNL A   1      38.072  30.418  28.536  1.00  0.00     0.016 A 
ATOM     37  C   UNL A   1      40.083  29.830  30.396  1.00  0.00     0.010 A 
ATOM     38  C   UNL A   1      39.244  29.768  28.125  1.00  0.00     0.010 A 
ATOM     39  C   UNL A   1      40.275  29.509  29.046  1.00  0.00    -0.014 A 
BRANCH  39  40
ATOM     40  C   UNL A   1      41.619  29.054  28.597  1.00  0.00     0.031 A 
ATOM     41  C   UNL A   1      42.758  30.043  28.583  1.00  0.00     0.074 A 
ATOM     42  C   UNL A   1      41.845  27.766  28.274  1.00  0.00     0.049 A 
ATOM     43  N   UNL A   1      44.017  29.850  28.288  1.00  0.00    -0.248 NA
ATOM     44  C   UNL A   1      42.436  31.433  28.947  1.00  0.00     0.031 C 
ATOM     45  C   UNL A   1      40.834  26.708  28.249  1.00  0.00     0.029 A 
ATOM     46  N   UNL A   1      43.005  27.126  27.908  1.00  0.00    -0.354 N 
ATOM     47  C   UNL A   1      44.632  31.089  28.414  1.00  0.00     0.074 A 
ATOM     48  C   UNL A   1      43.605  32.037  28.784  1.00  0.00     0.031 C 
ATOM     49  C   UNL A   1      41.421  25.552  27.893  1.00  0.00     0.029 A 
ATOM     50  C   UNL A   1      42.842  25.787  27.641  1.00  0.00     0.049 A 
ATOM     51  H   UNL A   1      43.874  27.585  27.843  1.00  0.00     0.167 HD
ATOM     52  C   UNL A   1      45.937  31.410  28.253  1.00  0.00     0.037 A 
ATOM     53  C   UNL A   1      43.732  24.861  27.230  1.00  0.00     0.037 A 
ATOM     54  C   UNL A   1      46.971  30.463  27.929  1.00  0.00     0.049 A 
ATOM     55  C   UNL A   1      45.178  25.251  27.041  1.00  0.00     0.074 A 
ATOM     56  C   UNL A   1      48.333  30.687  27.821  1.00  0.00     0.029 A 
ATOM     57  N   UNL A   1      46.762  29.121  27.656  1.00  0.00    -0.354 N 
ATOM     58  N   UNL A   1      45.753  26.413  27.241  1.00  0.00    -0.248 NA
ATOM     59  C   UNL A   1      46.099  24.202  26.578  1.00  0.00     0.031 C 
ATOM     60  C   UNL A   1      48.942  29.492  27.428  1.00  0.00     0.029 A 
ATOM     61  C   UNL A   1      47.966  28.512  27.345  1.00  0.00     0.049 A 
ATOM     62  H   UNL A   1      45.888  28.669  27.680  1.00  0.00     0.167 HD
ATOM     63  C   UNL A   1      47.103  26.225  26.956  1.00  0.00     0.074 A 
ATOM     64  C   UNL A   1      47.263  24.836  26.585  1.00  0.00     0.031 C 
ATOM     65  C   UNL A   1      48.118  27.123  26.997  1.00  0.00     0.037 A 
BRANCH  52  66
ATOM     66  C   UNL A   1      46.337  32.849  28.414  1.00  0.00     0.058 A 
ATOM     67  C   UNL A   1      46.325  33.745  27.334  1.00  0.00     0.135 A 
ATOM     68  C   UNL A   1      46.651  33.354  29.685  1.00  0.00     0.135 A 
ATOM     69  F   UNL A   1      46.051  33.308  26.095  1.00  0.00    -0.206 F 
ATOM     70  C   UNL A   1      46.616  35.094  27.510  1.00  0.00     0.059 A 
ATOM     71  C   UNL A   1      46.920  34.703  29.889  1.00  0.00     0.059 A 
ATOM     72  F   UNL A   1      46.680  32.536  30.749  1.00  0.00    -0.206 F 
ATOM     73  C   UNL A   1      46.904  35.565  28.793  1.00  0.00     0.060 A 
BRANCH  73  74
ATOM     74  S   UNL A   1      47.226  37.328  29.013  1.00  0.00     0.124 S 
ATOM     75  O   UNL A   1      46.776  37.868  27.733  1.00  0.00    -0.237 OA
ATOM     76  O   UNL A   1      46.393  37.654  30.166  1.00  0.00    -0.237 OA
ATOM     77  O   UNL A   1      48.664  37.385  29.246  1.00  0.00    -0.744 OA
ENDBRANCH  73  74
ENDBRANCH  52  66
BRANCH  53  78
ATOM     78  C   UNL A   1      43.294  23.467  26.940  1.00  0.00     0.058 A 
ATOM     79  C   UNL A   1      43.047  22.548  27.971  1.00  0.00     0.135 A 
ATOM     80  C   UNL A   1      43.174  23.011  25.618  1.00  0.00     0.135 A 
ATOM     81  F   UNL A   1      43.160  22.930  29.252  1.00  0.00    -0.206 F 
ATOM     82  C   UNL A   1      42.736  21.217  27.703  1.00  0.00     0.059 A 
ATOM     83  C   UNL A   1      42.835  21.694  25.325  1.00  0.00     0.059 A 
ATOM     84  F   UNL A   1      43.387  23.853  24.594  1.00  0.00    -0.206 F 
ATOM     85  C   UNL A   1      42.640  20.798  26.375  1.00  0.00     0.060 A 
BRANCH  85  86
ATOM     86  S   UNL A   1      42.242  19.070  26.032  1.00  0.00     0.124 S 
ATOM     87  O   UNL A   1      43.060  18.810  24.854  1.00  0.00    -0.237 OA
ATOM     88  O   UNL A   1      42.662  18.407  27.263  1.00  0.00    -0.237 OA
ATOM     89  O   UNL A   1      40.799  19.099  25.806  1.00  0.00    -0.744 OA
ENDBRANCH  85  86
ENDBRANCH  53  78
BRANCH  65  90
ATOM     90  C   UNL A   1      49.503  26.633  26.673  1.00  0.00     0.058 A 
ATOM     91  C   UNL A   1      49.981  26.585  25.354  1.00  0.00     0.135 A 
ATOM     92  C   UNL A   1      50.387  26.266  27.702  1.00  0.00     0.135 A 
ATOM     93  F   UNL A   1      49.177  26.920  24.332  1.00  0.00    -0.206 F 
ATOM     94  C   UNL A   1      51.277  26.169  25.065  1.00  0.00     0.059 A 
ATOM     95  C   UNL A   1      51.696  25.876  27.439  1.00  0.00     0.059 A 
ATOM     96  F   UNL A   1      49.986  26.307  28.983  1.00  0.00    -0.206 F 
ATOM     97  C   UNL A   1      52.129  25.820  26.115  1.00  0.00     0.060 A 
BRANCH  97  98
ATOM     98  S   UNL A   1      53.821  25.319  25.730  1.00  0.00     0.124 S 
ATOM     99  O   UNL A   1      53.599  24.255  24.756  1.00  0.00    -0.237 OA
ATOM    100  O   UNL A   1      54.399  26.551  25.202  1.00  0.00    -0.237 OA
ATOM    101  O   UNL A   1      54.350  24.889  27.020  1.00  0.00    -0.744 OA
ENDBRANCH  97  98
ENDBRANCH  65  90
ENDBRANCH  39  40
ENDBRANCH  32  34
ENDBRANCH  31  32
ENDBRANCH  30  31
ENDBRANCH  29  30
ENDBRANCH   1  29
TORSDOF 20
ENDMDL
MODEL 3
REMARK VINA RESULT:     -11.0      1.218      4.127
REMARK SMILES COc1cccc(C[N@@H+]2C[C@H](C(=O)OCCOCCOC(=O)c3ccc(-c4c5nc(c(-c6c(F)cc(S(=O)(=O)[O-])cc6F)c6ccc([nH]6)c(-c6c(F)cc(S(=O)(=O)[O-])cc6F)c6nc(c(-c7c(F)cc(S(=O)(=O)[O-])cc7F)c7ccc4[nH]7)C=C6)C=C5)cc3)C3(CC[NH+](C)CC3)C2)c1
REMARK SMILES IDX 17 1 16 2 15 3 14 4 12 5 13 6 11 7 9 8 10 9 96 10 89 12
REMARK SMILES IDX 90 13 95 14 91 15 94 16 92 17 93 18 8 20 7 21 3 22 4 23
REMARK SMILES IDX 97 24 5 25 6 26 2 27 1 28 18 29 19 30 20 31 21 32 22 33
REMARK SMILES IDX 23 34 24 35 88 36 25 37 87 38 26 39 27 40 28 41 81 42 29 43
REMARK SMILES IDX 86 44 80 45 82 46 30 47 85 48 79 49 78 50 31 52 65 53 44 54
REMARK SMILES IDX 64 55 45 56 48 57 63 58 83 59 46 60 47 61 62 63 84 64 49 65
REMARK SMILES IDX 32 66 33 67 42 68 34 69 35 70 41 71 43 72 36 73 37 74 38 75
REMARK SMILES IDX 39 76 40 77 66 78 67 79 76 80 68 81 69 82 75 83 77 84 70 85
REMARK SMILES IDX 71 86 72 87 73 88 74 89 50 90 51 91 60 92 52 93 53 94 59 95
REMARK SMILES IDX 61 96 54 97 55 98 56 99 57 100 58 101
REMARK H PARENT 9 11 92 19 82 51 48 62
REMARK Flexibility Score: inf
ROOT
ATOM      1  O   UNL A   1      34.020  29.503  27.048  1.00  0.00    -0.374 OA
ENDROOT
BRANCH   1   2
ATOM      2  C   UNL A   1      32.736  28.871  26.972  1.00  0.00     0.202 C 
BRANCH   2   3
ATOM      3  C   UNL A   1      32.778  27.343  26.866  1.00  0.00     0.261 C 
BRANCH   3   4
ATOM      4  O   UNL A   1      31.439  26.800  26.889  1.00  0.00    -0.463 OA
BRANCH   4   5
ATOM      5  C   UNL A   1      31.295  25.511  26.544  1.00  0.00     0.315 C 
ATOM      6  O   UNL A   1      31.350  24.582  27.346  1.00  0.00    -0.252 OA
BRANCH   5   7
ATOM      7  C   UNL A   1      30.996  25.266  25.071  1.00  0.00     0.166 C 
ATOM      8  N   UNL A   1      30.631  26.501  23.091  1.00  0.00    -0.330 N 
ATOM      9  C   UNL A   1      30.754  26.668  24.523  1.00  0.00     0.278 C 
ATOM     10  C   UNL A   1      31.459  25.375  22.679  1.00  0.00     0.271 C 
ATOM     11  H   UNL A   1      29.670  26.254  22.860  1.00  0.00     0.348 HD
ATOM     12  C   UNL A   1      31.894  24.596  23.976  1.00  0.00     0.049 C 
ATOM     13  C   UNL A   1      31.565  23.092  23.840  1.00  0.00     0.075 C 
ATOM     14  C   UNL A   1      33.435  24.695  24.023  1.00  0.00     0.075 C 
ATOM     15  C   UNL A   1      32.213  22.263  24.952  1.00  0.00     0.262 C 
ATOM     16  C   UNL A   1      34.168  23.733  24.956  1.00  0.00     0.262 C 
ATOM     17  N   UNL A   1      33.670  22.363  24.995  1.00  0.00    -0.337 N 
ATOM     18  C   UNL A   1      34.339  21.497  24.031  1.00  0.00     0.332 C 
ATOM     19  H   UNL A   1      33.923  22.006  25.917  1.00  0.00     0.347 HD
BRANCH   8  20
ATOM     20  C   UNL A   1      30.733  27.738  22.310  1.00  0.00     0.299 C 
BRANCH  20  21
ATOM     21  C   UNL A   1      29.610  28.754  22.452  1.00  0.00     0.010 A 
ATOM     22  C   UNL A   1      28.738  30.997  22.143  1.00  0.00     0.119 A 
ATOM     23  C   UNL A   1      27.538  30.643  22.753  1.00  0.00     0.046 A 
ATOM     24  C   UNL A   1      29.783  30.076  22.020  1.00  0.00     0.056 A 
ATOM     25  C   UNL A   1      27.345  29.331  23.166  1.00  0.00     0.004 A 
ATOM     26  C   UNL A   1      28.361  28.388  22.990  1.00  0.00     0.010 A 
BRANCH  22  27
ATOM     27  O   UNL A   1      28.880  32.285  21.703  1.00  0.00    -0.497 OA
ATOM     28  C   UNL A   1      27.887  32.578  20.717  1.00  0.00     0.278 C 
ENDBRANCH  22  27
ENDBRANCH  20  21
ENDBRANCH   8  20
ENDBRANCH   5   7
ENDBRANCH   4   5
ENDBRANCH   3   4
ENDBRANCH   2   3
ENDBRANCH   1   2
BRANCH   1  29
ATOM     29  C   UNL A   1      34.033  30.825  27.585  1.00  0.00     0.202 C 
BRANCH  29  30
ATOM     30  C   UNL A   1      35.080  31.079  28.677  1.00  0.00     0.261 C 
BRANCH  30  31
ATOM     31  O   UNL A   1      35.859  29.898  28.940  1.00  0.00    -0.460 OA
BRANCH  31  32
ATOM     32  C   UNL A   1      36.559  29.923  30.100  1.00  0.00     0.338 C 
ATOM     33  O   UNL A   1      36.105  29.863  31.231  1.00  0.00    -0.246 OA
BRANCH  32  34
ATOM     34  C   UNL A   1      38.006  29.833  29.811  1.00  0.00     0.060 A 
ATOM     35  C   UNL A   1      38.384  29.811  28.464  1.00  0.00     0.016 A 
ATOM     36  C   UNL A   1      38.976  29.757  30.815  1.00  0.00     0.016 A 
ATOM     37  C   UNL A   1      39.727  29.668  28.117  1.00  0.00     0.010 A 
ATOM     38  C   UNL A   1      40.327  29.636  30.464  1.00  0.00     0.010 A 
ATOM     39  C   UNL A   1      40.707  29.547  29.112  1.00  0.00    -0.014 A 
BRANCH  39  40
ATOM     40  C   UNL A   1      42.090  29.168  28.719  1.00  0.00     0.031 A 
ATOM     41  C   UNL A   1      42.356  27.759  28.250  1.00  0.00     0.074 A 
ATOM     42  C   UNL A   1      43.084  30.077  28.709  1.00  0.00     0.049 A 
ATOM     43  N   UNL A   1      43.468  27.232  27.805  1.00  0.00    -0.248 NA
ATOM     44  C   UNL A   1      41.224  26.820  28.289  1.00  0.00     0.031 C 
ATOM     45  C   UNL A   1      42.961  31.472  29.134  1.00  0.00     0.029 A 
ATOM     46  N   UNL A   1      44.398  29.962  28.320  1.00  0.00    -0.354 N 
ATOM     47  C   UNL A   1      43.174  25.903  27.529  1.00  0.00     0.074 A 
ATOM     48  C   UNL A   1      41.788  25.692  27.881  1.00  0.00     0.031 C 
ATOM     49  C   UNL A   1      44.149  32.083  28.977  1.00  0.00     0.029 A 
ATOM     50  C   UNL A   1      45.124  31.122  28.464  1.00  0.00     0.049 A 
ATOM     51  H   UNL A   1      44.783  29.126  27.971  1.00  0.00     0.167 HD
ATOM     52  C   UNL A   1      43.978  24.945  27.011  1.00  0.00     0.037 A 
ATOM     53  C   UNL A   1      46.426  31.375  28.220  1.00  0.00     0.037 A 
ATOM     54  C   UNL A   1      45.345  25.160  26.616  1.00  0.00     0.049 A 
ATOM     55  C   UNL A   1      47.305  30.282  27.661  1.00  0.00     0.074 A 
ATOM     56  C   UNL A   1      46.212  24.266  26.013  1.00  0.00     0.029 A 
ATOM     57  N   UNL A   1      46.045  26.343  26.789  1.00  0.00    -0.354 N 
ATOM     58  N   UNL A   1      46.987  29.053  27.333  1.00  0.00    -0.248 NA
ATOM     59  C   UNL A   1      48.719  30.614  27.430  1.00  0.00     0.031 C 
ATOM     60  C   UNL A   1      47.455  24.891  25.870  1.00  0.00     0.029 A 
ATOM     61  C   UNL A   1      47.344  26.192  26.335  1.00  0.00     0.049 A 
ATOM     62  H   UNL A   1      45.674  27.169  27.175  1.00  0.00     0.167 HD
ATOM     63  C   UNL A   1      48.151  28.477  26.833  1.00  0.00     0.074 A 
ATOM     64  C   UNL A   1      49.178  29.496  26.886  1.00  0.00     0.031 C 
ATOM     65  C   UNL A   1      48.354  27.218  26.372  1.00  0.00     0.037 A 
BRANCH  52  66
ATOM     66  C   UNL A   1      43.415  23.563  26.844  1.00  0.00     0.058 A 
ATOM     67  C   UNL A   1      43.034  23.066  25.588  1.00  0.00     0.135 A 
ATOM     68  C   UNL A   1      43.341  22.695  27.945  1.00  0.00     0.135 A 
ATOM     69  F   UNL A   1      43.068  23.861  24.507  1.00  0.00    -0.206 F 
ATOM     70  C   UNL A   1      42.594  21.756  25.431  1.00  0.00     0.059 A 
ATOM     71  C   UNL A   1      42.928  21.375  27.808  1.00  0.00     0.059 A 
ATOM     72  F   UNL A   1      43.690  23.125  29.168  1.00  0.00    -0.206 F 
ATOM     73  C   UNL A   1      42.552  20.915  26.546  1.00  0.00     0.060 A 
BRANCH  73  74
ATOM     74  S   UNL A   1      42.030  19.202  26.317  1.00  0.00     0.124 S 
ATOM     75  O   UNL A   1      40.641  19.375  25.900  1.00  0.00    -0.237 OA
ATOM     76  O   UNL A   1      42.948  18.733  25.284  1.00  0.00    -0.237 OA
ATOM     77  O   UNL A   1      42.218  18.609  27.636  1.00  0.00    -0.744 OA
ENDBRANCH  73  74
ENDBRANCH  52  66
BRANCH  53  78
ATOM     78  C   UNL A   1      47.005  32.714  28.522  1.00  0.00     0.058 A 
ATOM     79  C   UNL A   1      47.489  33.031  29.800  1.00  0.00     0.135 A 
ATOM     80  C   UNL A   1      47.026  33.725  27.548  1.00  0.00     0.135 A 
ATOM     81  F   UNL A   1      47.479  32.104  30.770  1.00  0.00    -0.206 F 
ATOM     82  C   UNL A   1      47.936  34.312  30.114  1.00  0.00     0.059 A 
ATOM     83  C   UNL A   1      47.496  35.004  27.830  1.00  0.00     0.059 A 
ATOM     84  F   UNL A   1      46.586  33.472  26.306  1.00  0.00    -0.206 F 
ATOM     85  C   UNL A   1      47.928  35.294  29.123  1.00  0.00     0.060 A 
BRANCH  85  86
ATOM     86  S   UNL A   1      48.505  36.955  29.536  1.00  0.00     0.124 S 
ATOM     87  O   UNL A   1      48.104  37.706  28.353  1.00  0.00    -0.237 OA
ATOM     88  O   UNL A   1      47.762  37.244  30.759  1.00  0.00    -0.237 OA
ATOM     89  O   UNL A   1      49.943  36.775  29.714  1.00  0.00    -0.744 OA
ENDBRANCH  85  86
ENDBRANCH  53  78
BRANCH  65  90
ATOM     90  C   UNL A   1      49.720  26.872  25.848  1.00  0.00     0.058 A 
ATOM     91  C   UNL A   1      50.107  27.180  24.534  1.00  0.00     0.135 A 
ATOM     92  C   UNL A   1      50.678  26.283  26.691  1.00  0.00     0.135 A 
ATOM     93  F   UNL A   1      49.231  27.740  23.685  1.00  0.00    -0.206 F 
ATOM     94  C   UNL A   1      51.387  26.895  24.067  1.00  0.00     0.059 A 
ATOM     95  C   UNL A   1      51.972  26.015  26.254  1.00  0.00     0.059 A 
ATOM     96  F   UNL A   1      50.365  25.981  27.961  1.00  0.00    -0.206 F 
ATOM     97  C   UNL A   1      52.314  26.315  24.937  1.00  0.00     0.060 A 
BRANCH  97  98
ATOM     98  S   UNL A   1      53.983  25.985  24.331  1.00  0.00     0.124 S 
ATOM     99  O   UNL A   1      54.752  27.025  25.007  1.00  0.00    -0.237 OA
ATOM    100  O   UNL A   1      54.219  24.621  24.795  1.00  0.00    -0.237 OA
ATOM    101  O   UNL A   1      53.857  26.136  22.885  1.00  0.00    -0.744 OA
ENDBRANCH  97  98
ENDBRANCH  65  90
ENDBRANCH  39  40
ENDBRANCH  32  34
ENDBRANCH  31  32
ENDBRANCH  30  31
ENDBRANCH  29  30
ENDBRANCH   1  29
TORSDOF 20
ENDMDL
