MODEL 1
REMARK VINA RESULT:     -11.1      0.000      0.000
REMARK SMILES Cc1ccc(N2CC[C@H]([NH+]3CCOCC3)[C@H](CCC(=O)OCCOCCOC(=O)c3ccc(-c4c5nc(c(-c6c(F)cc(S(=O)(=O)[O-])cc6F)c6ccc([nH]6)c(-c6c(F)cc(S(=O)(=O)[O-])cc6F)c6nc(c(-c7c(F)cc(S(=O)(=O)[O-])cc7F)c7ccc4[nH]7)C=C6)C=C5)cc3)C2)nc1
REMARK SMILES IDX 24 1 23 2 22 3 21 4 19 5 20 6 18 7 17 8 16 9 6 10 7 11 96 12
REMARK SMILES IDX 8 13 9 14 5 15 1 16 2 17 3 18 98 19 4 20 97 21 10 22 11 23
REMARK SMILES IDX 15 24 12 26 14 27 13 28 25 29 26 30 27 31 28 32 29 33 30 34
REMARK SMILES IDX 31 35 95 36 32 37 94 38 33 39 34 40 35 41 88 42 36 43 93 44
REMARK SMILES IDX 87 45 89 46 37 47 92 48 86 49 85 50 38 52 72 53 51 54 71 55
REMARK SMILES IDX 52 56 55 57 70 58 90 59 53 60 54 61 69 63 91 64 56 65 39 66
REMARK SMILES IDX 40 67 49 68 41 69 42 70 48 71 50 72 43 73 44 74 45 75 46 76
REMARK SMILES IDX 47 77 73 78 74 79 83 80 75 81 76 82 82 83 84 84 77 85 78 86
REMARK SMILES IDX 79 87 80 88 81 89 57 90 58 91 67 92 59 93 60 94 66 95 68 96
REMARK SMILES IDX 61 97 62 98 63 99 64 100 65 101
REMARK H PARENT 10 25 89 51 55 62
REMARK Flexibility Score: inf
ROOT
ATOM      1  O   UNL A   1      34.949  32.127  27.780  1.00  0.00    -0.374 OA
ENDROOT
BRANCH   1   2
ATOM      2  C   UNL A   1      34.531  30.769  27.947  1.00  0.00     0.202 C 
BRANCH   2   3
ATOM      3  C   UNL A   1      33.762  30.126  26.790  1.00  0.00     0.261 C 
BRANCH   3   4
ATOM      4  O   UNL A   1      32.436  29.764  27.214  1.00  0.00    -0.463 OA
BRANCH   4   5
ATOM      5  C   UNL A   1      32.209  28.437  27.358  1.00  0.00     0.305 C 
ATOM      6  O   UNL A   1      31.255  27.943  27.950  1.00  0.00    -0.252 OA
BRANCH   5   7
ATOM      7  C   UNL A   1      33.169  27.591  26.550  1.00  0.00     0.123 C 
BRANCH   7   8
ATOM      8  C   UNL A   1      32.855  26.131  26.222  1.00  0.00     0.023 C 
BRANCH   8   9
ATOM      9  C   UNL A   1      33.641  25.276  25.190  1.00  0.00     0.067 C 
ATOM     10  N   UNL A   1      32.187  25.812  23.222  1.00  0.00    -0.356 N 
ATOM     11  C   UNL A   1      31.758  24.439  23.033  1.00  0.00     0.124 C 
ATOM     12  C   UNL A   1      33.508  26.023  23.811  1.00  0.00     0.127 C 
ATOM     13  C   UNL A   1      31.843  23.658  24.340  1.00  0.00     0.087 C 
ATOM     14  C   UNL A   1      33.259  23.763  24.932  1.00  0.00     0.190 C 
BRANCH  10  15
ATOM     15  C   UNL A   1      31.188  26.762  23.310  1.00  0.00     0.128 A 
ATOM     16  C   UNL A   1      27.983  29.580  23.138  1.00  0.00     0.046 C 
ATOM     17  C   UNL A   1      29.134  28.631  23.208  1.00  0.00    -0.033 A 
ATOM     18  C   UNL A   1      30.454  29.049  23.072  1.00  0.00     0.009 A 
ATOM     19  C   UNL A   1      28.926  27.277  23.423  1.00  0.00     0.117 A 
ATOM     20  C   UNL A   1      31.487  28.111  23.137  1.00  0.00     0.047 A 
ATOM     21  N   UNL A   1      29.910  26.350  23.458  1.00  0.00    -0.239 NA
ENDBRANCH  10  15
BRANCH  14  22
ATOM     22  N   UNL A   1      33.635  22.738  25.931  1.00  0.00    -0.328 N 
ATOM     23  C   UNL A   1      35.016  22.864  26.462  1.00  0.00     0.291 C 
ATOM     24  C   UNL A   1      33.388  21.321  25.690  1.00  0.00     0.291 C 
ATOM     25  H   UNL A   1      32.922  23.010  26.608  1.00  0.00     0.348 HD
ATOM     26  C   UNL A   1      36.102  22.017  25.749  1.00  0.00     0.221 C 
ATOM     27  C   UNL A   1      34.451  20.596  24.869  1.00  0.00     0.221 C 
ATOM     28  O   UNL A   1      35.710  20.654  25.539  1.00  0.00    -0.370 OA
ENDBRANCH  14  22
ENDBRANCH   8   9
ENDBRANCH   7   8
ENDBRANCH   5   7
ENDBRANCH   4   5
ENDBRANCH   3   4
ENDBRANCH   2   3
ENDBRANCH   1   2
BRANCH   1  29
ATOM     29  C   UNL A   1      35.413  32.836  28.924  1.00  0.00     0.202 C 
BRANCH  29  30
ATOM     30  C   UNL A   1      35.137  32.246  30.317  1.00  0.00     0.261 C 
BRANCH  30  31
ATOM     31  O   UNL A   1      36.309  31.950  31.093  1.00  0.00    -0.460 OA
BRANCH  31  32
ATOM     32  C   UNL A   1      36.737  30.671  30.971  1.00  0.00     0.338 C 
ATOM     33  O   UNL A   1      36.064  29.651  31.113  1.00  0.00    -0.246 OA
BRANCH  32  34
ATOM     34  C   UNL A   1      38.129  30.611  30.500  1.00  0.00     0.060 A 
ATOM     35  C   UNL A   1      38.332  30.502  29.120  1.00  0.00     0.016 A 
ATOM     36  C   UNL A   1      39.205  30.520  31.386  1.00  0.00     0.016 A 
ATOM     37  C   UNL A   1      39.607  30.245  28.621  1.00  0.00     0.010 A 
ATOM     38  C   UNL A   1      40.486  30.253  30.882  1.00  0.00     0.010 A 
ATOM     39  C   UNL A   1      40.684  30.075  29.500  1.00  0.00    -0.014 A 
BRANCH  39  40
ATOM     40  C   UNL A   1      41.973  29.577  28.957  1.00  0.00     0.031 A 
ATOM     41  C   UNL A   1      43.152  30.510  28.874  1.00  0.00     0.074 A 
ATOM     42  C   UNL A   1      42.112  28.283  28.614  1.00  0.00     0.049 A 
ATOM     43  N   UNL A   1      44.382  30.258  28.506  1.00  0.00    -0.248 NA
ATOM     44  C   UNL A   1      42.914  31.909  29.261  1.00  0.00     0.031 C 
ATOM     45  C   UNL A   1      41.052  27.277  28.669  1.00  0.00     0.029 A 
ATOM     46  N   UNL A   1      43.207  27.593  28.158  1.00  0.00    -0.354 N 
ATOM     47  C   UNL A   1      45.066  31.463  28.620  1.00  0.00     0.074 A 
ATOM     48  C   UNL A   1      44.107  32.453  29.061  1.00  0.00     0.031 C 
ATOM     49  C   UNL A   1      41.550  26.096  28.263  1.00  0.00     0.029 A 
ATOM     50  C   UNL A   1      42.957  26.267  27.903  1.00  0.00     0.049 A 
ATOM     51  H   UNL A   1      44.090  28.010  28.027  1.00  0.00     0.167 HD
ATOM     52  C   UNL A   1      46.377  31.720  28.389  1.00  0.00     0.037 A 
ATOM     53  C   UNL A   1      43.767  25.301  27.427  1.00  0.00     0.037 A 
ATOM     54  C   UNL A   1      47.332  30.733  27.957  1.00  0.00     0.049 A 
ATOM     55  C   UNL A   1      45.211  25.618  27.143  1.00  0.00     0.074 A 
ATOM     56  C   UNL A   1      48.690  30.889  27.733  1.00  0.00     0.029 A 
ATOM     57  N   UNL A   1      47.032  29.409  27.677  1.00  0.00    -0.354 N 
ATOM     58  N   UNL A   1      45.851  26.752  27.296  1.00  0.00    -0.248 NA
ATOM     59  C   UNL A   1      46.044  24.522  26.628  1.00  0.00     0.031 C 
ATOM     60  C   UNL A   1      49.201  29.670  27.274  1.00  0.00     0.029 A 
ATOM     61  C   UNL A   1      48.171  28.744  27.254  1.00  0.00     0.049 A 
ATOM     62  H   UNL A   1      46.140  29.001  27.765  1.00  0.00     0.167 HD
ATOM     63  C   UNL A   1      47.165  26.503  26.911  1.00  0.00     0.074 A 
ATOM     64  C   UNL A   1      47.231  25.106  26.535  1.00  0.00     0.031 C 
ATOM     65  C   UNL A   1      48.220  27.354  26.873  1.00  0.00     0.037 A 
BRANCH  52  66
ATOM     66  C   UNL A   1      46.854  33.132  28.583  1.00  0.00     0.058 A 
ATOM     67  C   UNL A   1      47.360  33.577  29.814  1.00  0.00     0.135 A 
ATOM     68  C   UNL A   1      46.841  34.039  27.512  1.00  0.00     0.135 A 
ATOM     69  F   UNL A   1      47.379  32.756  30.875  1.00  0.00    -0.206 F 
ATOM     70  C   UNL A   1      47.817  34.881  29.983  1.00  0.00     0.059 A 
ATOM     71  C   UNL A   1      47.315  35.340  27.652  1.00  0.00     0.059 A 
ATOM     72  F   UNL A   1      46.366  33.664  26.314  1.00  0.00    -0.206 F 
ATOM     73  C   UNL A   1      47.789  35.756  28.894  1.00  0.00     0.060 A 
BRANCH  73  74
ATOM     74  S   UNL A   1      48.391  37.443  29.125  1.00  0.00     0.124 S 
ATOM     75  O   UNL A   1      47.154  38.210  29.022  1.00  0.00    -0.237 OA
ATOM     76  O   UNL A   1      48.992  37.383  30.454  1.00  0.00    -0.237 OA
ATOM     77  O   UNL A   1      49.333  37.620  28.024  1.00  0.00    -0.744 OA
ENDBRANCH  73  74
ENDBRANCH  52  66
BRANCH  53  78
ATOM     78  C   UNL A   1      43.225  23.939  27.182  1.00  0.00     0.058 A 
ATOM     79  C   UNL A   1      42.713  23.571  25.929  1.00  0.00     0.135 A 
ATOM     80  C   UNL A   1      43.212  22.976  28.203  1.00  0.00     0.135 A 
ATOM     81  F   UNL A   1      42.693  24.462  24.925  1.00  0.00    -0.206 F 
ATOM     82  C   UNL A   1      42.201  22.298  25.698  1.00  0.00     0.059 A 
ATOM     83  C   UNL A   1      42.726  21.691  27.990  1.00  0.00     0.059 A 
ATOM     84  F   UNL A   1      43.699  23.277  29.417  1.00  0.00    -0.206 F 
ATOM     85  C   UNL A   1      42.214  21.364  26.735  1.00  0.00     0.060 A 
BRANCH  85  86
ATOM     86  S   UNL A   1      41.600  19.696  26.414  1.00  0.00     0.124 S 
ATOM     87  O   UNL A   1      42.444  19.283  25.299  1.00  0.00    -0.237 OA
ATOM     88  O   UNL A   1      41.847  19.025  27.687  1.00  0.00    -0.237 OA
ATOM     89  O   UNL A   1      40.193  19.915  26.094  1.00  0.00    -0.744 OA
ENDBRANCH  85  86
ENDBRANCH  53  78
BRANCH  65  90
ATOM     90  C   UNL A   1      49.539  26.795  26.415  1.00  0.00     0.058 A 
ATOM     91  C   UNL A   1      49.985  26.958  25.094  1.00  0.00     0.135 A 
ATOM     92  C   UNL A   1      50.381  26.121  27.313  1.00  0.00     0.135 A 
ATOM     93  F   UNL A   1      49.216  27.591  24.194  1.00  0.00    -0.206 F 
ATOM     94  C   UNL A   1      51.208  26.446  24.672  1.00  0.00     0.059 A 
ATOM     95  C   UNL A   1      51.617  25.621  26.919  1.00  0.00     0.059 A 
ATOM     96  F   UNL A   1      50.007  25.949  28.592  1.00  0.00    -0.206 F 
ATOM     97  C   UNL A   1      52.016  25.775  25.592  1.00  0.00     0.060 A 
BRANCH  97  98
ATOM     98  S   UNL A   1      53.608  25.128  25.039  1.00  0.00     0.124 S 
ATOM     99  O   UNL A   1      53.435  23.697  25.257  1.00  0.00    -0.237 OA
ATOM    100  O   UNL A   1      53.655  25.556  23.643  1.00  0.00    -0.237 OA
ATOM    101  O   UNL A   1      54.567  25.788  25.921  1.00  0.00    -0.744 OA
ENDBRANCH  97  98
ENDBRANCH  65  90
ENDBRANCH  39  40
ENDBRANCH  32  34
ENDBRANCH  31  32
ENDBRANCH  30  31
ENDBRANCH  29  30
ENDBRANCH   1  29
TORSDOF 21
ENDMDL
MODEL 2
REMARK VINA RESULT:     -10.9      6.135     11.949
REMARK SMILES Cc1ccc(N2CC[C@H]([NH+]3CCOCC3)[C@H](CCC(=O)OCCOCCOC(=O)c3ccc(-c4c5nc(c(-c6c(F)cc(S(=O)(=O)[O-])cc6F)c6ccc([nH]6)c(-c6c(F)cc(S(=O)(=O)[O-])cc6F)c6nc(c(-c7c(F)cc(S(=O)(=O)[O-])cc7F)c7ccc4[nH]7)C=C6)C=C5)cc3)C2)nc1
REMARK SMILES IDX 24 1 23 2 22 3 21 4 19 5 20 6 18 7 17 8 16 9 6 10 7 11 96 12
REMARK SMILES IDX 8 13 9 14 5 15 1 16 2 17 3 18 98 19 4 20 97 21 10 22 11 23
REMARK SMILES IDX 15 24 12 26 14 27 13 28 25 29 26 30 27 31 28 32 29 33 30 34
REMARK SMILES IDX 31 35 95 36 32 37 94 38 33 39 34 40 35 41 88 42 36 43 93 44
REMARK SMILES IDX 87 45 89 46 37 47 92 48 86 49 85 50 38 52 72 53 51 54 71 55
REMARK SMILES IDX 52 56 55 57 70 58 90 59 53 60 54 61 69 63 91 64 56 65 39 66
REMARK SMILES IDX 40 67 49 68 41 69 42 70 48 71 50 72 43 73 44 74 45 75 46 76
REMARK SMILES IDX 47 77 73 78 74 79 83 80 75 81 76 82 82 83 84 84 77 85 78 86
REMARK SMILES IDX 79 87 80 88 81 89 57 90 58 91 67 92 59 93 60 94 66 95 68 96
REMARK SMILES IDX 61 97 62 98 63 99 64 100 65 101
REMARK H PARENT 10 25 89 51 55 62
REMARK Flexibility Score: inf
ROOT
ATOM      1  O   UNL A   1      40.129  20.725  26.711  1.00  0.00    -0.374 OA
ENDROOT
BRANCH   1   2
ATOM      2  C   UNL A   1      39.270  20.636  25.571  1.00  0.00     0.202 C 
BRANCH   2   3
ATOM      3  C   UNL A   1      37.909  21.331  25.664  1.00  0.00     0.261 C 
BRANCH   3   4
ATOM      4  O   UNL A   1      37.541  21.877  24.385  1.00  0.00    -0.463 OA
BRANCH   4   5
ATOM      5  C   UNL A   1      36.886  23.062  24.420  1.00  0.00     0.305 C 
ATOM      6  O   UNL A   1      37.117  23.975  25.205  1.00  0.00    -0.252 OA
BRANCH   5   7
ATOM      7  C   UNL A   1      35.933  23.234  23.257  1.00  0.00     0.123 C 
BRANCH   7   8
ATOM      8  C   UNL A   1      34.419  23.174  23.458  1.00  0.00     0.023 C 
BRANCH   8   9
ATOM      9  C   UNL A   1      33.671  23.792  24.672  1.00  0.00     0.067 C 
ATOM     10  N   UNL A   1      32.699  21.645  25.522  1.00  0.00    -0.356 N 
ATOM     11  C   UNL A   1      31.325  22.063  25.312  1.00  0.00     0.124 C 
ATOM     12  C   UNL A   1      33.679  22.693  25.798  1.00  0.00     0.127 C 
ATOM     13  C   UNL A   1      31.239  23.118  24.214  1.00  0.00     0.087 C 
ATOM     14  C   UNL A   1      32.177  24.296  24.533  1.00  0.00     0.190 C 
BRANCH  10  15
ATOM     15  C   UNL A   1      33.063  20.431  24.974  1.00  0.00     0.128 A 
ATOM     16  C   UNL A   1      34.064  16.480  23.695  1.00  0.00     0.046 C 
ATOM     17  C   UNL A   1      33.759  17.876  24.133  1.00  0.00    -0.033 A 
ATOM     18  C   UNL A   1      34.754  18.772  24.509  1.00  0.00     0.009 A 
ATOM     19  C   UNL A   1      32.453  18.337  24.174  1.00  0.00     0.117 A 
ATOM     20  C   UNL A   1      34.404  20.062  24.918  1.00  0.00     0.047 A 
ATOM     21  N   UNL A   1      32.092  19.570  24.597  1.00  0.00    -0.239 NA
ENDBRANCH  10  15
BRANCH  14  22
ATOM     22  N   UNL A   1      31.901  25.568  23.829  1.00  0.00    -0.328 N 
ATOM     23  C   UNL A   1      31.528  25.420  22.400  1.00  0.00     0.291 C 
ATOM     24  C   UNL A   1      32.817  26.698  23.926  1.00  0.00     0.291 C 
ATOM     25  H   UNL A   1      31.112  25.827  24.422  1.00  0.00     0.348 HD
ATOM     26  C   UNL A   1      32.684  25.548  21.375  1.00  0.00     0.221 C 
ATOM     27  C   UNL A   1      34.000  26.676  22.962  1.00  0.00     0.221 C 
ATOM     28  O   UNL A   1      33.531  26.679  21.613  1.00  0.00    -0.370 OA
ENDBRANCH  14  22
ENDBRANCH   8   9
ENDBRANCH   7   8
ENDBRANCH   5   7
ENDBRANCH   4   5
ENDBRANCH   3   4
ENDBRANCH   2   3
ENDBRANCH   1   2
BRANCH   1  29
ATOM     29  C   UNL A   1      41.422  21.295  26.540  1.00  0.00     0.202 C 
BRANCH  29  30
ATOM     30  C   UNL A   1      41.526  22.782  26.157  1.00  0.00     0.261 C 
BRANCH  30  31
ATOM     31  O   UNL A   1      42.366  23.571  27.014  1.00  0.00    -0.460 OA
BRANCH  31  32
ATOM     32  C   UNL A   1      42.590  24.826  26.556  1.00  0.00     0.338 C 
ATOM     33  O   UNL A   1      43.121  25.138  25.491  1.00  0.00    -0.246 OA
BRANCH  32  34
ATOM     34  C   UNL A   1      41.988  25.836  27.439  1.00  0.00     0.060 A 
ATOM     35  C   UNL A   1      42.680  27.043  27.593  1.00  0.00     0.016 A 
ATOM     36  C   UNL A   1      40.855  25.564  28.209  1.00  0.00     0.016 A 
ATOM     37  C   UNL A   1      42.274  27.960  28.559  1.00  0.00     0.010 A 
ATOM     38  C   UNL A   1      40.453  26.486  29.185  1.00  0.00     0.010 A 
ATOM     39  C   UNL A   1      41.186  27.670  29.392  1.00  0.00    -0.014 A 
BRANCH  39  40
ATOM     40  C   UNL A   1      40.923  28.555  30.554  1.00  0.00     0.031 A 
ATOM     41  C   UNL A   1      41.791  28.443  31.780  1.00  0.00     0.074 A 
ATOM     42  C   UNL A   1      39.971  29.502  30.486  1.00  0.00     0.049 A 
ATOM     43  N   UNL A   1      41.782  29.169  32.869  1.00  0.00    -0.248 NA
ATOM     44  C   UNL A   1      42.804  27.377  31.777  1.00  0.00     0.031 C 
ATOM     45  C   UNL A   1      39.081  29.725  29.348  1.00  0.00     0.029 A 
ATOM     46  N   UNL A   1      39.600  30.461  31.395  1.00  0.00    -0.354 N 
ATOM     47  C   UNL A   1      42.787  28.651  33.679  1.00  0.00     0.074 A 
ATOM     48  C   UNL A   1      43.364  27.531  32.969  1.00  0.00     0.031 C 
ATOM     49  C   UNL A   1      38.265  30.756  29.626  1.00  0.00     0.029 A 
ATOM     50  C   UNL A   1      38.564  31.256  30.967  1.00  0.00     0.049 A 
ATOM     51  H   UNL A   1      40.035  30.571  32.272  1.00  0.00     0.167 HD
ATOM     52  C   UNL A   1      43.199  29.079  34.897  1.00  0.00     0.037 A 
ATOM     53  C   UNL A   1      37.924  32.266  31.587  1.00  0.00     0.037 A 
ATOM     54  C   UNL A   1      42.628  30.199  35.599  1.00  0.00     0.049 A 
ATOM     55  C   UNL A   1      38.375  32.700  32.957  1.00  0.00     0.074 A 
ATOM     56  C   UNL A   1      43.003  30.730  36.822  1.00  0.00     0.029 A 
ATOM     57  N   UNL A   1      41.558  30.956  35.147  1.00  0.00    -0.354 N 
ATOM     58  N   UNL A   1      39.355  32.227  33.689  1.00  0.00    -0.248 NA
ATOM     59  C   UNL A   1      37.639  33.809  33.580  1.00  0.00     0.031 C 
ATOM     60  C   UNL A   1      42.131  31.781  37.129  1.00  0.00     0.029 A 
ATOM     61  C   UNL A   1      41.240  31.931  36.078  1.00  0.00     0.049 A 
ATOM     62  H   UNL A   1      41.092  30.820  34.290  1.00  0.00     0.167 HD
ATOM     63  C   UNL A   1      39.362  32.990  34.853  1.00  0.00     0.074 A 
ATOM     64  C   UNL A   1      38.300  33.966  34.718  1.00  0.00     0.031 C 
ATOM     65  C   UNL A   1      40.174  32.891  35.935  1.00  0.00     0.037 A 
BRANCH  52  66
ATOM     66  C   UNL A   1      44.313  28.319  35.560  1.00  0.00     0.058 A 
ATOM     67  C   UNL A   1      45.661  28.631  35.323  1.00  0.00     0.135 A 
ATOM     68  C   UNL A   1      44.028  27.293  36.474  1.00  0.00     0.135 A 
ATOM     69  F   UNL A   1      45.990  29.592  34.446  1.00  0.00    -0.206 F 
ATOM     70  C   UNL A   1      46.689  27.936  35.954  1.00  0.00     0.059 A 
ATOM     71  C   UNL A   1      45.039  26.600  37.133  1.00  0.00     0.059 A 
ATOM     72  F   UNL A   1      42.756  26.954  36.734  1.00  0.00    -0.206 F 
ATOM     73  C   UNL A   1      46.368  26.920  36.857  1.00  0.00     0.060 A 
BRANCH  73  74
ATOM     74  S   UNL A   1      47.710  26.030  37.673  1.00  0.00     0.124 S 
ATOM     75  O   UNL A   1      47.984  24.969  36.709  1.00  0.00    -0.237 OA
ATOM     76  O   UNL A   1      48.740  27.058  37.795  1.00  0.00    -0.237 OA
ATOM     77  O   UNL A   1      47.113  25.596  38.932  1.00  0.00    -0.744 OA
ENDBRANCH  73  74
ENDBRANCH  52  66
BRANCH  53  78
ATOM     78  C   UNL A   1      36.777  32.934  30.917  1.00  0.00     0.058 A 
ATOM     79  C   UNL A   1      35.455  32.680  31.307  1.00  0.00     0.135 A 
ATOM     80  C   UNL A   1      36.989  33.847  29.871  1.00  0.00     0.135 A 
ATOM     81  F   UNL A   1      35.202  31.807  32.294  1.00  0.00    -0.206 F 
ATOM     82  C   UNL A   1      34.380  33.301  30.679  1.00  0.00     0.059 A 
ATOM     83  C   UNL A   1      35.932  34.496  29.243  1.00  0.00     0.059 A 
ATOM     84  F   UNL A   1      38.238  34.130  29.469  1.00  0.00    -0.206 F 
ATOM     85  C   UNL A   1      34.630  34.210  29.648  1.00  0.00     0.060 A 
BRANCH  85  86
ATOM     86  S   UNL A   1      33.234  35.055  28.874  1.00  0.00     0.124 S 
ATOM     87  O   UNL A   1      32.366  35.298  30.020  1.00  0.00    -0.237 OA
ATOM     88  O   UNL A   1      33.871  36.233  28.292  1.00  0.00    -0.237 OA
ATOM     89  O   UNL A   1      32.746  34.076  27.908  1.00  0.00    -0.744 OA
ENDBRANCH  85  86
ENDBRANCH  53  78
BRANCH  65  90
ATOM     90  C   UNL A   1      39.951  33.868  37.055  1.00  0.00     0.058 A 
ATOM     91  C   UNL A   1      40.537  35.144  37.043  1.00  0.00     0.135 A 
ATOM     92  C   UNL A   1      39.116  33.540  38.135  1.00  0.00     0.135 A 
ATOM     93  F   UNL A   1      41.348  35.505  36.036  1.00  0.00    -0.206 F 
ATOM     94  C   UNL A   1      40.325  36.050  38.076  1.00  0.00     0.059 A 
ATOM     95  C   UNL A   1      38.871  34.440  39.167  1.00  0.00     0.059 A 
ATOM     96  F   UNL A   1      38.521  32.338  38.189  1.00  0.00    -0.206 F 
ATOM     97  C   UNL A   1      39.493  35.688  39.137  1.00  0.00     0.060 A 
BRANCH  97  98
ATOM     98  S   UNL A   1      39.212  36.877  40.466  1.00  0.00     0.124 S 
ATOM     99  O   UNL A   1      40.575  37.166  40.894  1.00  0.00    -0.237 OA
ATOM    100  O   UNL A   1      38.520  37.963  39.777  1.00  0.00    -0.237 OA
ATOM    101  O   UNL A   1      38.396  36.131  41.421  1.00  0.00    -0.744 OA
ENDBRANCH  97  98
ENDBRANCH  65  90
ENDBRANCH  39  40
ENDBRANCH  32  34
ENDBRANCH  31  32
ENDBRANCH  30  31
ENDBRANCH  29  30
ENDBRANCH   1  29
TORSDOF 21
ENDMDL
MODEL 3
REMARK VINA RESULT:     -10.4      6.203     11.433
REMARK SMILES Cc1ccc(N2CC[C@H]([NH+]3CCOCC3)[C@H](CCC(=O)OCCOCCOC(=O)c3ccc(-c4c5nc(c(-c6c(F)cc(S(=O)(=O)[O-])cc6F)c6ccc([nH]6)c(-c6c(F)cc(S(=O)(=O)[O-])cc6F)c6nc(c(-c7c(F)cc(S(=O)(=O)[O-])cc7F)c7ccc4[nH]7)C=C6)C=C5)cc3)C2)nc1
REMARK SMILES IDX 24 1 23 2 22 3 21 4 19 5 20 6 18 7 17 8 16 9 6 10 7 11 96 12
REMARK SMILES IDX 8 13 9 14 5 15 1 16 2 17 3 18 98 19 4 20 97 21 10 22 11 23
REMARK SMILES IDX 15 24 12 26 14 27 13 28 25 29 26 30 27 31 28 32 29 33 30 34
REMARK SMILES IDX 31 35 95 36 32 37 94 38 33 39 34 40 35 41 88 42 36 43 93 44
REMARK SMILES IDX 87 45 89 46 37 47 92 48 86 49 85 50 38 52 72 53 51 54 71 55
REMARK SMILES IDX 52 56 55 57 70 58 90 59 53 60 54 61 69 63 91 64 56 65 39 66
REMARK SMILES IDX 40 67 49 68 41 69 42 70 48 71 50 72 43 73 44 74 45 75 46 76
REMARK SMILES IDX 47 77 73 78 74 79 83 80 75 81 76 82 82 83 84 84 77 85 78 86
REMARK SMILES IDX 79 87 80 88 81 89 57 90 58 91 67 92 59 93 60 94 66 95 68 96
REMARK SMILES IDX 61 97 62 98 63 99 64 100 65 101
REMARK H PARENT 10 25 89 51 55 62
REMARK Flexibility Score: inf
ROOT
ATOM      1  O   UNL A   1      39.214  22.328  26.691  1.00  0.00    -0.374 OA
ENDROOT
BRANCH   1   2
ATOM      2  C   UNL A   1      38.122  22.617  25.814  1.00  0.00     0.202 C 
BRANCH   2   3
ATOM      3  C   UNL A   1      37.605  21.472  24.939  1.00  0.00     0.261 C 
BRANCH   3   4
ATOM      4  O   UNL A   1      36.245  21.720  24.546  1.00  0.00    -0.463 OA
BRANCH   4   5
ATOM      5  C   UNL A   1      36.053  22.791  23.739  1.00  0.00     0.305 C 
ATOM      6  O   UNL A   1      36.623  22.981  22.669  1.00  0.00    -0.252 OA
BRANCH   5   7
ATOM      7  C   UNL A   1      34.913  23.671  24.201  1.00  0.00     0.123 C 
BRANCH   7   8
ATOM      8  C   UNL A   1      33.581  23.702  23.449  1.00  0.00     0.023 C 
BRANCH   8   9
ATOM      9  C   UNL A   1      32.441  22.664  23.643  1.00  0.00     0.067 C 
ATOM     10  N   UNL A   1      31.033  24.079  25.157  1.00  0.00    -0.356 N 
ATOM     11  C   UNL A   1      31.147  23.171  26.283  1.00  0.00     0.124 C 
ATOM     12  C   UNL A   1      31.117  23.497  23.819  1.00  0.00     0.127 C 
ATOM     13  C   UNL A   1      32.423  22.343  26.187  1.00  0.00     0.087 C 
ATOM     14  C   UNL A   1      32.488  21.620  24.830  1.00  0.00     0.190 C 
BRANCH  10  15
ATOM     15  C   UNL A   1      31.352  25.402  25.399  1.00  0.00     0.128 A 
ATOM     16  C   UNL A   1      32.555  29.487  25.722  1.00  0.00     0.046 C 
ATOM     17  C   UNL A   1      32.158  28.049  25.650  1.00  0.00    -0.033 A 
ATOM     18  C   UNL A   1      32.842  27.052  26.338  1.00  0.00     0.009 A 
ATOM     19  C   UNL A   1      31.071  27.650  24.888  1.00  0.00     0.117 A 
ATOM     20  C   UNL A   1      32.427  25.722  26.223  1.00  0.00     0.047 A 
ATOM     21  N   UNL A   1      30.674  26.366  24.739  1.00  0.00    -0.239 NA
ENDBRANCH  10  15
BRANCH  14  22
ATOM     22  N   UNL A   1      33.404  20.461  24.742  1.00  0.00    -0.328 N 
ATOM     23  C   UNL A   1      33.324  19.700  23.470  1.00  0.00     0.291 C 
ATOM     24  C   UNL A   1      33.501  19.490  25.825  1.00  0.00     0.291 C 
ATOM     25  H   UNL A   1      34.257  21.016  24.820  1.00  0.00     0.348 HD
ATOM     26  C   UNL A   1      32.382  18.468  23.469  1.00  0.00     0.221 C 
ATOM     27  C   UNL A   1      32.452  18.382  25.815  1.00  0.00     0.221 C 
ATOM     28  O   UNL A   1      32.556  17.621  24.612  1.00  0.00    -0.370 OA
ENDBRANCH  14  22
ENDBRANCH   8   9
ENDBRANCH   7   8
ENDBRANCH   5   7
ENDBRANCH   4   5
ENDBRANCH   3   4
ENDBRANCH   2   3
ENDBRANCH   1   2
BRANCH   1  29
ATOM     29  C   UNL A   1      40.360  21.678  26.152  1.00  0.00     0.202 C 
BRANCH  29  30
ATOM     30  C   UNL A   1      41.751  22.248  26.479  1.00  0.00     0.261 C 
BRANCH  30  31
ATOM     31  O   UNL A   1      41.754  23.339  27.413  1.00  0.00    -0.460 OA
BRANCH  31  32
ATOM     32  C   UNL A   1      42.100  24.529  26.864  1.00  0.00     0.338 C 
ATOM     33  O   UNL A   1      42.604  24.710  25.756  1.00  0.00    -0.246 OA
BRANCH  32  34
ATOM     34  C   UNL A   1      41.673  25.656  27.706  1.00  0.00     0.060 A 
ATOM     35  C   UNL A   1      42.575  26.714  27.863  1.00  0.00     0.016 A 
ATOM     36  C   UNL A   1      40.484  25.620  28.441  1.00  0.00     0.016 A 
ATOM     37  C   UNL A   1      42.319  27.715  28.797  1.00  0.00     0.010 A 
ATOM     38  C   UNL A   1      40.234  26.625  29.385  1.00  0.00     0.010 A 
ATOM     39  C   UNL A   1      41.170  27.655  29.596  1.00  0.00    -0.014 A 
BRANCH  39  40
ATOM     40  C   UNL A   1      41.043  28.601  30.732  1.00  0.00     0.031 A 
ATOM     41  C   UNL A   1      39.971  29.659  30.698  1.00  0.00     0.074 A 
ATOM     42  C   UNL A   1      41.825  28.469  31.818  1.00  0.00     0.049 A 
ATOM     43  N   UNL A   1      39.640  30.531  31.616  1.00  0.00    -0.248 NA
ATOM     44  C   UNL A   1      39.163  29.741  29.471  1.00  0.00     0.031 C 
ATOM     45  C   UNL A   1      42.883  27.473  31.980  1.00  0.00     0.029 A 
ATOM     46  N   UNL A   1      41.844  29.174  32.996  1.00  0.00    -0.354 N 
ATOM     47  C   UNL A   1      38.586  31.263  31.081  1.00  0.00     0.074 A 
ATOM     48  C   UNL A   1      38.353  30.753  29.746  1.00  0.00     0.031 C 
ATOM     49  C   UNL A   1      43.449  27.630  33.189  1.00  0.00     0.029 A 
ATOM     50  C   UNL A   1      42.805  28.746  33.879  1.00  0.00     0.049 A 
ATOM     51  H   UNL A   1      41.226  29.916  33.190  1.00  0.00     0.167 HD
ATOM     52  C   UNL A   1      37.869  32.261  31.653  1.00  0.00     0.037 A 
ATOM     53  C   UNL A   1      43.134  29.207  35.102  1.00  0.00     0.037 A 
ATOM     54  C   UNL A   1      38.097  32.762  32.984  1.00  0.00     0.049 A 
ATOM     55  C   UNL A   1      42.348  30.341  35.703  1.00  0.00     0.074 A 
ATOM     56  C   UNL A   1      37.399  33.746  33.664  1.00  0.00     0.029 A 
ATOM     57  N   UNL A   1      39.102  32.327  33.833  1.00  0.00    -0.354 N 
ATOM     58  N   UNL A   1      41.327  30.994  35.201  1.00  0.00    -0.248 NA
ATOM     59  C   UNL A   1      42.753  30.797  37.040  1.00  0.00     0.031 C 
ATOM     60  C   UNL A   1      38.010  33.935  34.909  1.00  0.00     0.029 A 
ATOM     61  C   UNL A   1      39.062  33.041  35.020  1.00  0.00     0.049 A 
ATOM     62  H   UNL A   1      39.750  31.615  33.624  1.00  0.00     0.167 HD
ATOM     63  C   UNL A   1      40.959  31.926  36.166  1.00  0.00     0.074 A 
ATOM     64  C   UNL A   1      41.856  31.741  37.288  1.00  0.00     0.031 C 
ATOM     65  C   UNL A   1      39.968  32.852  36.125  1.00  0.00     0.037 A 
BRANCH  52  66
ATOM     66  C   UNL A   1      36.778  32.892  30.835  1.00  0.00     0.058 A 
ATOM     67  C   UNL A   1      37.053  33.871  29.868  1.00  0.00     0.135 A 
ATOM     68  C   UNL A   1      35.444  32.483  30.993  1.00  0.00     0.135 A 
ATOM     69  F   UNL A   1      38.309  34.310  29.687  1.00  0.00    -0.206 F 
ATOM     70  C   UNL A   1      36.041  34.438  29.099  1.00  0.00     0.059 A 
ATOM     71  C   UNL A   1      34.419  33.020  30.220  1.00  0.00     0.059 A 
ATOM     72  F   UNL A   1      35.127  31.551  31.905  1.00  0.00    -0.206 F 
ATOM     73  C   UNL A   1      34.726  34.007  29.284  1.00  0.00     0.060 A 
BRANCH  73  74
ATOM     74  S   UNL A   1      33.422  34.747  28.277  1.00  0.00     0.124 S 
ATOM     75  O   UNL A   1      34.197  35.590  27.373  1.00  0.00    -0.237 OA
ATOM     76  O   UNL A   1      32.791  33.579  27.671  1.00  0.00    -0.237 OA
ATOM     77  O   UNL A   1      32.604  35.460  29.254  1.00  0.00    -0.744 OA
ENDBRANCH  73  74
ENDBRANCH  52  66
BRANCH  53  78
ATOM     78  C   UNL A   1      44.272  28.596  35.838  1.00  0.00     0.058 A 
ATOM     79  C   UNL A   1      44.073  27.556  36.757  1.00  0.00     0.135 A 
ATOM     80  C   UNL A   1      45.586  29.045  35.629  1.00  0.00     0.135 A 
ATOM     81  F   UNL A   1      42.834  27.102  36.997  1.00  0.00    -0.206 F 
ATOM     82  C   UNL A   1      45.137  26.985  37.449  1.00  0.00     0.059 A 
ATOM     83  C   UNL A   1      46.666  28.475  36.293  1.00  0.00     0.059 A 
ATOM     84  F   UNL A   1      45.828  30.033  34.753  1.00  0.00    -0.206 F 
ATOM     85  C   UNL A   1      46.430  27.451  37.209  1.00  0.00     0.060 A 
BRANCH  85  86
ATOM     86  S   UNL A   1      47.812  26.669  38.069  1.00  0.00     0.124 S 
ATOM     87  O   UNL A   1      47.477  25.256  37.939  1.00  0.00    -0.237 OA
ATOM     88  O   UNL A   1      48.960  27.128  37.291  1.00  0.00    -0.237 OA
ATOM     89  O   UNL A   1      47.720  27.219  39.418  1.00  0.00    -0.744 OA
ENDBRANCH  85  86
ENDBRANCH  53  78
BRANCH  65  90
ATOM     90  C   UNL A   1      39.797  33.730  37.334  1.00  0.00     0.058 A 
ATOM     91  C   UNL A   1      40.508  34.933  37.472  1.00  0.00     0.135 A 
ATOM     92  C   UNL A   1      38.890  33.383  38.348  1.00  0.00     0.135 A 
ATOM     93  F   UNL A   1      41.390  35.308  36.533  1.00  0.00    -0.206 F 
ATOM     94  C   UNL A   1      40.344  35.748  38.587  1.00  0.00     0.059 A 
ATOM     95  C   UNL A   1      38.694  34.195  39.460  1.00  0.00     0.059 A 
ATOM     96  F   UNL A   1      38.177  32.249  38.259  1.00  0.00    -0.206 F 
ATOM     97  C   UNL A   1      39.437  35.369  39.579  1.00  0.00     0.060 A 
BRANCH  97  98
ATOM     98  S   UNL A   1      39.222  36.442  41.015  1.00  0.00     0.124 S 
ATOM     99  O   UNL A   1      38.617  37.623  40.410  1.00  0.00    -0.237 OA
ATOM    100  O   UNL A   1      38.345  35.650  41.872  1.00  0.00    -0.237 OA
ATOM    101  O   UNL A   1      40.584  36.617  41.513  1.00  0.00    -0.744 OA
ENDBRANCH  97  98
ENDBRANCH  65  90
ENDBRANCH  39  40
ENDBRANCH  32  34
ENDBRANCH  31  32
ENDBRANCH  30  31
ENDBRANCH  29  30
ENDBRANCH   1  29
TORSDOF 21
ENDMDL
