MODEL 1
REMARK VINA RESULT:     -11.8      0.000      0.000
REMARK SMILES NS(=O)(=O)c1ccc(-n2nc(C(=O)OCCOCCOC(=O)c3ccc(-c4c5nc(c(-c6c(F)cc(S(=O)(=O)[O-])cc6F)c6ccc([nH]6)c(-c6c(F)cc(S(=O)(=O)[O-])cc6F)c6nc(c(-c7c(F)cc(S(=O)(=O)[O-])cc7F)c7ccc4[nH]7)C=C6)C=C5)cc3)c(Cl)c2-c2ccc(Cl)cc2)cc1
REMARK SMILES IDX 17 1 16 2 15 3 14 4 12 5 13 6 11 7 9 8 10 9 91 10 89 11
REMARK SMILES IDX 90 12 8 13 5 14 6 15 100 16 7 17 99 18 2 19 3 20 4 21 1 22
REMARK SMILES IDX 92 25 93 26 98 27 94 28 97 29 95 30 96 31 18 32 19 33 20 34
REMARK SMILES IDX 21 35 22 36 23 37 24 38 88 39 25 40 87 41 26 42 27 43 28 44
REMARK SMILES IDX 81 45 29 46 86 47 80 48 82 49 30 50 85 51 79 52 78 53 31 55
REMARK SMILES IDX 65 56 44 57 64 58 45 59 48 60 63 61 83 62 46 63 47 64 62 66
REMARK SMILES IDX 84 67 49 68 32 69 33 70 42 71 34 72 35 73 41 74 43 75 36 76
REMARK SMILES IDX 37 77 38 78 39 79 40 80 66 81 67 82 76 83 68 84 69 85 75 86
REMARK SMILES IDX 77 87 70 88 71 89 72 90 73 91 74 92 50 93 51 94 60 95 52 96
REMARK SMILES IDX 53 97 59 98 61 99 54 100 55 101 56 102 57 103 58 104
REMARK H PARENT 1 23 1 24 82 54 48 65
REMARK Flexibility Score: inf
ROOT
ATOM      1  O   UNL A   1      43.412  21.280  26.715  1.00  0.00    -0.374 OA
ENDROOT
BRANCH   1   2
ATOM      2  C   UNL A   1      42.022  21.125  27.005  1.00  0.00     0.202 C 
BRANCH   2   3
ATOM      3  C   UNL A   1      41.024  21.743  26.031  1.00  0.00     0.261 C 
BRANCH   3   4
ATOM      4  O   UNL A   1      39.704  21.785  26.589  1.00  0.00    -0.458 OA
BRANCH   4   5
ATOM      5  C   UNL A   1      39.033  22.972  26.506  1.00  0.00     0.360 C 
ATOM      6  O   UNL A   1      39.483  24.041  26.904  1.00  0.00    -0.244 OA
BRANCH   5   7
ATOM      7  C   UNL A   1      37.727  22.832  25.847  1.00  0.00     0.190 A 
ATOM      8  N   UNL A   1      35.699  23.283  25.316  1.00  0.00    -0.231 N 
ATOM      9  N   UNL A   1      36.827  23.840  25.819  1.00  0.00    -0.159 NA
ATOM     10  C   UNL A   1      35.863  21.945  25.006  1.00  0.00     0.094 A 
ATOM     11  C   UNL A   1      37.201  21.678  25.219  1.00  0.00     0.102 A 
ATOM     12  Cl  UNL A   1      37.985  20.190  24.940  1.00  0.00    -0.079 Cl
BRANCH   8  13
ATOM     13  C   UNL A   1      34.472  23.976  25.417  1.00  0.00     0.065 A 
ATOM     14  C   UNL A   1      32.214  25.561  25.728  1.00  0.00     0.082 A 
ATOM     15  C   UNL A   1      32.490  24.559  26.670  1.00  0.00     0.024 A 
ATOM     16  C   UNL A   1      33.036  25.739  24.611  1.00  0.00     0.024 A 
ATOM     17  C   UNL A   1      33.620  23.746  26.504  1.00  0.00     0.030 A 
ATOM     18  C   UNL A   1      34.176  24.955  24.462  1.00  0.00     0.030 A 
BRANCH  14  19
ATOM     19  S   UNL A   1      30.832  26.647  25.929  1.00  0.00     0.238 S 
ATOM     20  O   UNL A   1      30.780  27.549  24.792  1.00  0.00    -0.207 OA
ATOM     21  O   UNL A   1      30.802  27.114  27.288  1.00  0.00    -0.207 OA
BRANCH  19  22
ATOM     22  N   UNL A   1      29.489  25.657  25.740  1.00  0.00    -0.225 NA
ATOM     23  H   UNL A   1      29.008  25.562  26.634  1.00  0.00     0.137 HD
ATOM     24  H   UNL A   1      29.788  24.738  25.414  1.00  0.00     0.137 HD
ENDBRANCH  19  22
ENDBRANCH  14  19
ENDBRANCH   8  13
BRANCH  10  25
ATOM     25  C   UNL A   1      34.806  21.016  24.624  1.00  0.00     0.002 A 
ATOM     26  C   UNL A   1      34.981  19.657  24.930  1.00  0.00     0.012 A 
ATOM     27  C   UNL A   1      33.676  21.422  23.910  1.00  0.00     0.012 A 
ATOM     28  C   UNL A   1      34.057  18.708  24.500  1.00  0.00     0.021 A 
ATOM     29  C   UNL A   1      32.746  20.469  23.483  1.00  0.00     0.021 A 
ATOM     30  C   UNL A   1      32.946  19.119  23.770  1.00  0.00     0.041 A 
ATOM     31  Cl  UNL A   1      31.826  17.939  23.212  1.00  0.00    -0.084 Cl
ENDBRANCH  10  25
ENDBRANCH   5   7
ENDBRANCH   4   5
ENDBRANCH   3   4
ENDBRANCH   2   3
ENDBRANCH   1   2
BRANCH   1  32
ATOM     32  C   UNL A   1      43.886  21.167  25.376  1.00  0.00     0.202 C 
BRANCH  32  33
ATOM     33  C   UNL A   1      44.501  22.393  24.714  1.00  0.00     0.261 C 
BRANCH  33  34
ATOM     34  O   UNL A   1      43.531  23.394  24.465  1.00  0.00    -0.460 OA
BRANCH  34  35
ATOM     35  C   UNL A   1      43.844  24.605  24.983  1.00  0.00     0.338 C 
ATOM     36  O   UNL A   1      44.877  25.232  24.818  1.00  0.00    -0.246 OA
BRANCH  35  37
ATOM     37  C   UNL A   1      42.773  25.003  25.903  1.00  0.00     0.060 A 
ATOM     38  C   UNL A   1      41.906  25.977  25.408  1.00  0.00     0.016 A 
ATOM     39  C   UNL A   1      42.935  24.763  27.276  1.00  0.00     0.016 A 
ATOM     40  C   UNL A   1      41.496  26.954  26.278  1.00  0.00     0.010 A 
ATOM     41  C   UNL A   1      42.525  25.740  28.141  1.00  0.00     0.010 A 
ATOM     42  C   UNL A   1      41.940  26.881  27.600  1.00  0.00    -0.014 A 
BRANCH  42  43
ATOM     43  C   UNL A   1      41.764  28.034  28.445  1.00  0.00     0.031 A 
ATOM     44  C   UNL A   1      42.877  28.990  28.300  1.00  0.00     0.074 A 
ATOM     45  C   UNL A   1      40.641  28.221  29.162  1.00  0.00     0.049 A 
ATOM     46  N   UNL A   1      43.844  29.201  29.129  1.00  0.00    -0.248 NA
ATOM     47  C   UNL A   1      43.083  29.579  26.967  1.00  0.00     0.031 C 
ATOM     48  C   UNL A   1      39.393  27.452  29.150  1.00  0.00     0.029 A 
ATOM     49  N   UNL A   1      40.353  29.254  29.997  1.00  0.00    -0.354 N 
ATOM     50  C   UNL A   1      44.637  30.157  28.509  1.00  0.00     0.074 A 
ATOM     51  C   UNL A   1      44.288  30.129  27.115  1.00  0.00     0.031 C 
ATOM     52  C   UNL A   1      38.415  28.181  29.739  1.00  0.00     0.029 A 
ATOM     53  C   UNL A   1      38.994  29.400  30.274  1.00  0.00     0.049 A 
ATOM     54  H   UNL A   1      41.044  29.847  30.373  1.00  0.00     0.167 HD
ATOM     55  C   UNL A   1      45.281  31.115  29.228  1.00  0.00     0.037 A 
ATOM     56  C   UNL A   1      38.443  30.535  30.781  1.00  0.00     0.037 A 
ATOM     57  C   UNL A   1      45.357  30.759  30.624  1.00  0.00     0.049 A 
ATOM     58  C   UNL A   1      39.564  31.280  31.440  1.00  0.00     0.074 A 
ATOM     59  C   UNL A   1      45.895  29.690  31.315  1.00  0.00     0.029 A 
ATOM     60  N   UNL A   1      44.454  31.342  31.485  1.00  0.00    -0.354 N 
ATOM     61  N   UNL A   1      40.213  30.821  32.482  1.00  0.00    -0.248 NA
ATOM     62  C   UNL A   1      40.306  32.231  30.619  1.00  0.00     0.031 C 
ATOM     63  C   UNL A   1      44.938  29.386  32.328  1.00  0.00     0.029 A 
ATOM     64  C   UNL A   1      43.917  30.335  32.253  1.00  0.00     0.049 A 
ATOM     65  H   UNL A   1      44.233  32.300  31.539  1.00  0.00     0.167 HD
ATOM     66  C   UNL A   1      41.551  31.098  32.229  1.00  0.00     0.074 A 
ATOM     67  C   UNL A   1      41.540  32.000  31.075  1.00  0.00     0.031 C 
ATOM     68  C   UNL A   1      42.563  30.350  32.766  1.00  0.00     0.037 A 
BRANCH  55  69
ATOM     69  C   UNL A   1      45.484  32.520  28.727  1.00  0.00     0.058 A 
ATOM     70  C   UNL A   1      46.782  33.060  28.709  1.00  0.00     0.135 A 
ATOM     71  C   UNL A   1      44.434  33.444  28.509  1.00  0.00     0.135 A 
ATOM     72  F   UNL A   1      47.850  32.275  28.921  1.00  0.00    -0.206 F 
ATOM     73  C   UNL A   1      47.016  34.425  28.547  1.00  0.00     0.059 A 
ATOM     74  C   UNL A   1      44.647  34.795  28.280  1.00  0.00     0.059 A 
ATOM     75  F   UNL A   1      43.143  33.109  28.604  1.00  0.00    -0.206 F 
ATOM     76  C   UNL A   1      45.938  35.285  28.345  1.00  0.00     0.060 A 
BRANCH  76  77
ATOM     77  S   UNL A   1      46.224  37.057  28.241  1.00  0.00     0.124 S 
ATOM     78  O   UNL A   1      45.984  37.306  26.825  1.00  0.00    -0.237 OA
ATOM     79  O   UNL A   1      45.222  37.577  29.164  1.00  0.00    -0.237 OA
ATOM     80  O   UNL A   1      47.610  37.200  28.682  1.00  0.00    -0.744 OA
ENDBRANCH  76  77
ENDBRANCH  55  69
BRANCH  56  81
ATOM     81  C   UNL A   1      37.184  31.191  30.318  1.00  0.00     0.058 A 
ATOM     82  C   UNL A   1      36.233  31.699  31.223  1.00  0.00     0.135 A 
ATOM     83  C   UNL A   1      37.009  31.572  28.971  1.00  0.00     0.135 A 
ATOM     84  F   UNL A   1      36.330  31.413  32.531  1.00  0.00    -0.206 F 
ATOM     85  C   UNL A   1      35.197  32.558  30.822  1.00  0.00     0.059 A 
ATOM     86  C   UNL A   1      35.983  32.416  28.547  1.00  0.00     0.059 A 
ATOM     87  F   UNL A   1      37.886  31.208  28.024  1.00  0.00    -0.206 F 
ATOM     88  C   UNL A   1      35.093  32.926  29.481  1.00  0.00     0.060 A 
BRANCH  88  89
ATOM     89  S   UNL A   1      33.870  34.159  28.970  1.00  0.00     0.124 S 
ATOM     90  O   UNL A   1      33.056  33.405  28.023  1.00  0.00    -0.237 OA
ATOM     91  O   UNL A   1      33.228  34.500  30.234  1.00  0.00    -0.237 OA
ATOM     92  O   UNL A   1      34.684  35.220  28.381  1.00  0.00    -0.744 OA
ENDBRANCH  88  89
ENDBRANCH  56  81
BRANCH  68  93
ATOM     93  C   UNL A   1      42.228  29.311  33.809  1.00  0.00     0.058 A 
ATOM     94  C   UNL A   1      41.853  27.985  33.517  1.00  0.00     0.135 A 
ATOM     95  C   UNL A   1      42.482  29.614  35.155  1.00  0.00     0.135 A 
ATOM     96  F   UNL A   1      41.699  27.580  32.249  1.00  0.00    -0.206 F 
ATOM     97  C   UNL A   1      41.699  27.021  34.517  1.00  0.00     0.059 A 
ATOM     98  C   UNL A   1      42.365  28.663  36.165  1.00  0.00     0.059 A 
ATOM     99  F   UNL A   1      42.911  30.840  35.495  1.00  0.00    -0.206 F 
ATOM    100  C   UNL A   1      41.959  27.370  35.841  1.00  0.00     0.060 A 
BRANCH 100 101
ATOM    101  S   UNL A   1      41.822  26.112  37.131  1.00  0.00     0.124 S 
ATOM    102  O   UNL A   1      40.436  26.262  37.559  1.00  0.00    -0.237 OA
ATOM    103  O   UNL A   1      42.132  24.882  36.408  1.00  0.00    -0.237 OA
ATOM    104  O   UNL A   1      42.825  26.518  38.113  1.00  0.00    -0.744 OA
ENDBRANCH 100 101
ENDBRANCH  68  93
ENDBRANCH  42  43
ENDBRANCH  35  37
ENDBRANCH  34  35
ENDBRANCH  33  34
ENDBRANCH  32  33
ENDBRANCH   1  32
TORSDOF 21
ENDMDL
MODEL 2
REMARK VINA RESULT:     -10.3      7.160     14.857
REMARK SMILES NS(=O)(=O)c1ccc(-n2nc(C(=O)OCCOCCOC(=O)c3ccc(-c4c5nc(c(-c6c(F)cc(S(=O)(=O)[O-])cc6F)c6ccc([nH]6)c(-c6c(F)cc(S(=O)(=O)[O-])cc6F)c6nc(c(-c7c(F)cc(S(=O)(=O)[O-])cc7F)c7ccc4[nH]7)C=C6)C=C5)cc3)c(Cl)c2-c2ccc(Cl)cc2)cc1
REMARK SMILES IDX 17 1 16 2 15 3 14 4 12 5 13 6 11 7 9 8 10 9 91 10 89 11
REMARK SMILES IDX 90 12 8 13 5 14 6 15 100 16 7 17 99 18 2 19 3 20 4 21 1 22
REMARK SMILES IDX 92 25 93 26 98 27 94 28 97 29 95 30 96 31 18 32 19 33 20 34
REMARK SMILES IDX 21 35 22 36 23 37 24 38 88 39 25 40 87 41 26 42 27 43 28 44
REMARK SMILES IDX 81 45 29 46 86 47 80 48 82 49 30 50 85 51 79 52 78 53 31 55
REMARK SMILES IDX 65 56 44 57 64 58 45 59 48 60 63 61 83 62 46 63 47 64 62 66
REMARK SMILES IDX 84 67 49 68 32 69 33 70 42 71 34 72 35 73 41 74 43 75 36 76
REMARK SMILES IDX 37 77 38 78 39 79 40 80 66 81 67 82 76 83 68 84 69 85 75 86
REMARK SMILES IDX 77 87 70 88 71 89 72 90 73 91 74 92 50 93 51 94 60 95 52 96
REMARK SMILES IDX 53 97 59 98 61 99 54 100 55 101 56 102 57 103 58 104
REMARK H PARENT 1 23 1 24 82 54 48 65
REMARK Flexibility Score: inf
ROOT
ATOM      1  O   UNL A   1      41.517  41.060  31.220  1.00  0.00    -0.374 OA
ENDROOT
BRANCH   1   2
ATOM      2  C   UNL A   1      41.932  41.379  29.892  1.00  0.00     0.202 C 
BRANCH   2   3
ATOM      3  C   UNL A   1      41.287  40.607  28.745  1.00  0.00     0.261 C 
BRANCH   3   4
ATOM      4  O   UNL A   1      42.046  39.441  28.404  1.00  0.00    -0.458 OA
BRANCH   4   5
ATOM      5  C   UNL A   1      42.319  39.242  27.080  1.00  0.00     0.360 C 
ATOM      6  O   UNL A   1      42.166  38.171  26.504  1.00  0.00    -0.244 OA
BRANCH   5   7
ATOM      7  C   UNL A   1      42.775  40.469  26.413  1.00  0.00     0.190 A 
ATOM      8  N   UNL A   1      42.960  41.960  24.883  1.00  0.00    -0.231 N 
ATOM      9  N   UNL A   1      42.152  40.965  25.321  1.00  0.00    -0.159 NA
ATOM     10  C   UNL A   1      44.078  42.123  25.681  1.00  0.00     0.094 A 
ATOM     11  C   UNL A   1      43.903  41.259  26.743  1.00  0.00     0.102 A 
ATOM     12  Cl  UNL A   1      44.951  41.078  28.075  1.00  0.00    -0.079 Cl
BRANCH   8  13
ATOM     13  C   UNL A   1      42.763  42.505  23.594  1.00  0.00     0.065 A 
ATOM     14  C   UNL A   1      42.279  43.310  20.982  1.00  0.00     0.082 A 
ATOM     15  C   UNL A   1      43.588  42.995  21.376  1.00  0.00     0.024 A 
ATOM     16  C   UNL A   1      41.225  43.269  21.900  1.00  0.00     0.024 A 
ATOM     17  C   UNL A   1      43.836  42.606  22.700  1.00  0.00     0.030 A 
ATOM     18  C   UNL A   1      41.464  42.852  23.206  1.00  0.00     0.030 A 
BRANCH  14  19
ATOM     19  S   UNL A   1      41.911  43.750  19.309  1.00  0.00     0.238 S 
ATOM     20  O   UNL A   1      42.621  44.972  18.981  1.00  0.00    -0.207 OA
ATOM     21  O   UNL A   1      40.499  43.593  19.087  1.00  0.00    -0.207 OA
BRANCH  19  22
ATOM     22  N   UNL A   1      42.667  42.566  18.388  1.00  0.00    -0.225 NA
ATOM     23  H   UNL A   1      43.610  42.873  18.149  1.00  0.00     0.137 HD
ATOM     24  H   UNL A   1      42.134  42.408  17.533  1.00  0.00     0.137 HD
ENDBRANCH  19  22
ENDBRANCH  14  19
ENDBRANCH   8  13
BRANCH  10  25
ATOM     25  C   UNL A   1      45.226  42.972  25.387  1.00  0.00     0.002 A 
ATOM     26  C   UNL A   1      45.072  44.361  25.524  1.00  0.00     0.012 A 
ATOM     27  C   UNL A   1      46.435  42.457  24.911  1.00  0.00     0.012 A 
ATOM     28  C   UNL A   1      46.098  45.228  25.158  1.00  0.00     0.021 A 
ATOM     29  C   UNL A   1      47.467  43.329  24.549  1.00  0.00     0.021 A 
ATOM     30  C   UNL A   1      47.289  44.708  24.665  1.00  0.00     0.041 A 
ATOM     31  Cl  UNL A   1      48.541  45.784  24.183  1.00  0.00    -0.084 Cl
ENDBRANCH  10  25
ENDBRANCH   5   7
ENDBRANCH   4   5
ENDBRANCH   3   4
ENDBRANCH   2   3
ENDBRANCH   1   2
BRANCH   1  32
ATOM     32  C   UNL A   1      42.233  41.568  32.342  1.00  0.00     0.202 C 
BRANCH  32  33
ATOM     33  C   UNL A   1      43.252  40.666  33.026  1.00  0.00     0.261 C 
BRANCH  33  34
ATOM     34  O   UNL A   1      43.094  39.313  32.639  1.00  0.00    -0.460 OA
BRANCH  34  35
ATOM     35  C   UNL A   1      44.028  38.879  31.761  1.00  0.00     0.338 C 
ATOM     36  O   UNL A   1      44.534  39.514  30.850  1.00  0.00    -0.246 OA
BRANCH  35  37
ATOM     37  C   UNL A   1      44.253  37.449  31.996  1.00  0.00     0.060 A 
ATOM     38  C   UNL A   1      43.780  36.606  30.990  1.00  0.00     0.016 A 
ATOM     39  C   UNL A   1      44.479  37.006  33.308  1.00  0.00     0.016 A 
ATOM     40  C   UNL A   1      43.179  35.438  31.380  1.00  0.00     0.010 A 
ATOM     41  C   UNL A   1      43.878  35.840  33.694  1.00  0.00     0.010 A 
ATOM     42  C   UNL A   1      43.120  35.157  32.746  1.00  0.00    -0.014 A 
BRANCH  42  43
ATOM     43  C   UNL A   1      42.251  34.098  33.190  1.00  0.00     0.031 A 
ATOM     44  C   UNL A   1      42.794  32.770  32.849  1.00  0.00     0.074 A 
ATOM     45  C   UNL A   1      41.154  34.344  33.929  1.00  0.00     0.049 A 
ATOM     46  N   UNL A   1      42.397  31.974  31.914  1.00  0.00    -0.248 NA
ATOM     47  C   UNL A   1      44.093  32.408  33.441  1.00  0.00     0.031 C 
ATOM     48  C   UNL A   1      40.699  35.605  34.524  1.00  0.00     0.029 A 
ATOM     49  N   UNL A   1      40.253  33.443  34.402  1.00  0.00    -0.354 N 
ATOM     50  C   UNL A   1      43.256  30.887  31.988  1.00  0.00     0.074 A 
ATOM     51  C   UNL A   1      44.409  31.331  32.721  1.00  0.00     0.031 C 
ATOM     52  C   UNL A   1      39.766  35.339  35.469  1.00  0.00     0.029 A 
ATOM     53  C   UNL A   1      39.473  33.919  35.455  1.00  0.00     0.049 A 
ATOM     54  H   UNL A   1      40.160  32.535  34.033  1.00  0.00     0.167 HD
ATOM     55  C   UNL A   1      42.821  29.625  31.726  1.00  0.00     0.037 A 
ATOM     56  C   UNL A   1      38.771  33.116  36.300  1.00  0.00     0.037 A 
ATOM     57  C   UNL A   1      41.569  29.640  31.011  1.00  0.00     0.049 A 
ATOM     58  C   UNL A   1      38.580  31.819  35.573  1.00  0.00     0.074 A 
ATOM     59  C   UNL A   1      41.158  30.175  29.804  1.00  0.00     0.029 A 
ATOM     60  N   UNL A   1      40.416  29.416  31.730  1.00  0.00    -0.354 N 
ATOM     61  N   UNL A   1      37.876  31.712  34.473  1.00  0.00    -0.248 NA
ATOM     62  C   UNL A   1      39.606  30.796  35.753  1.00  0.00     0.031 C 
ATOM     63  C   UNL A   1      39.861  30.709  30.061  1.00  0.00     0.029 A 
ATOM     64  C   UNL A   1      39.520  30.397  31.378  1.00  0.00     0.049 A 
ATOM     65  H   UNL A   1      40.263  28.689  32.377  1.00  0.00     0.167 HD
ATOM     66  C   UNL A   1      38.619  30.879  33.644  1.00  0.00     0.074 A 
ATOM     67  C   UNL A   1      39.663  30.321  34.506  1.00  0.00     0.031 C 
ATOM     68  C   UNL A   1      38.526  30.939  32.280  1.00  0.00     0.037 A 
BRANCH  55  69
ATOM     69  C   UNL A   1      43.336  28.412  32.455  1.00  0.00     0.058 A 
ATOM     70  C   UNL A   1      43.885  27.350  31.716  1.00  0.00     0.135 A 
ATOM     71  C   UNL A   1      43.078  28.138  33.820  1.00  0.00     0.135 A 
ATOM     72  F   UNL A   1      44.154  27.497  30.408  1.00  0.00    -0.206 F 
ATOM     73  C   UNL A   1      44.105  26.092  32.275  1.00  0.00     0.059 A 
ATOM     74  C   UNL A   1      43.350  26.915  34.413  1.00  0.00     0.059 A 
ATOM     75  F   UNL A   1      42.458  29.005  34.628  1.00  0.00    -0.206 F 
ATOM     76  C   UNL A   1      43.822  25.883  33.623  1.00  0.00     0.060 A 
BRANCH  76  77
ATOM     77  S   UNL A   1      44.004  24.237  34.323  1.00  0.00     0.124 S 
ATOM     78  O   UNL A   1      42.680  24.018  34.893  1.00  0.00    -0.237 OA
ATOM     79  O   UNL A   1      44.336  23.445  33.145  1.00  0.00    -0.237 OA
ATOM     80  O   UNL A   1      45.089  24.401  35.289  1.00  0.00    -0.744 OA
ENDBRANCH  76  77
ENDBRANCH  55  69
BRANCH  56  81
ATOM     81  C   UNL A   1      38.703  33.239  37.787  1.00  0.00     0.058 A 
ATOM     82  C   UNL A   1      37.481  33.183  38.482  1.00  0.00     0.135 A 
ATOM     83  C   UNL A   1      39.864  33.151  38.583  1.00  0.00     0.135 A 
ATOM     84  F   UNL A   1      36.321  33.234  37.809  1.00  0.00    -0.206 F 
ATOM     85  C   UNL A   1      37.415  33.014  39.875  1.00  0.00     0.059 A 
ATOM     86  C   UNL A   1      39.825  32.992  39.968  1.00  0.00     0.059 A 
ATOM     87  F   UNL A   1      41.087  33.126  38.033  1.00  0.00    -0.206 F 
ATOM     88  C   UNL A   1      38.597  32.900  40.607  1.00  0.00     0.060 A 
BRANCH  88  89
ATOM     89  S   UNL A   1      38.536  32.517  42.375  1.00  0.00     0.124 S 
ATOM     90  O   UNL A   1      39.529  33.437  42.920  1.00  0.00    -0.237 OA
ATOM     91  O   UNL A   1      37.146  32.809  42.707  1.00  0.00    -0.237 OA
ATOM     92  O   UNL A   1      38.904  31.104  42.429  1.00  0.00    -0.744 OA
ENDBRANCH  88  89
ENDBRANCH  56  81
BRANCH  68  93
ATOM     93  C   UNL A   1      37.454  31.802  31.659  1.00  0.00     0.058 A 
ATOM     94  C   UNL A   1      37.622  33.160  31.326  1.00  0.00     0.135 A 
ATOM     95  C   UNL A   1      36.279  31.182  31.209  1.00  0.00     0.135 A 
ATOM     96  F   UNL A   1      38.762  33.802  31.618  1.00  0.00    -0.206 F 
ATOM     97  C   UNL A   1      36.653  33.875  30.616  1.00  0.00     0.059 A 
ATOM     98  C   UNL A   1      35.313  31.865  30.475  1.00  0.00     0.059 A 
ATOM     99  F   UNL A   1      36.087  29.872  31.432  1.00  0.00    -0.206 F 
ATOM    100  C   UNL A   1      35.499  33.216  30.194  1.00  0.00     0.060 A 
BRANCH 100 101
ATOM    101  S   UNL A   1      34.271  34.119  29.223  1.00  0.00     0.124 S 
ATOM    102  O   UNL A   1      33.705  33.064  28.388  1.00  0.00    -0.237 OA
ATOM    103  O   UNL A   1      33.385  34.656  30.252  1.00  0.00    -0.237 OA
ATOM    104  O   UNL A   1      35.065  35.119  28.511  1.00  0.00    -0.744 OA
ENDBRANCH 100 101
ENDBRANCH  68  93
ENDBRANCH  42  43
ENDBRANCH  35  37
ENDBRANCH  34  35
ENDBRANCH  33  34
ENDBRANCH  32  33
ENDBRANCH   1  32
TORSDOF 21
ENDMDL
MODEL 3
REMARK VINA RESULT:     -10.2      4.427     10.442
REMARK SMILES NS(=O)(=O)c1ccc(-n2nc(C(=O)OCCOCCOC(=O)c3ccc(-c4c5nc(c(-c6c(F)cc(S(=O)(=O)[O-])cc6F)c6ccc([nH]6)c(-c6c(F)cc(S(=O)(=O)[O-])cc6F)c6nc(c(-c7c(F)cc(S(=O)(=O)[O-])cc7F)c7ccc4[nH]7)C=C6)C=C5)cc3)c(Cl)c2-c2ccc(Cl)cc2)cc1
REMARK SMILES IDX 17 1 16 2 15 3 14 4 12 5 13 6 11 7 9 8 10 9 91 10 89 11
REMARK SMILES IDX 90 12 8 13 5 14 6 15 100 16 7 17 99 18 2 19 3 20 4 21 1 22
REMARK SMILES IDX 92 25 93 26 98 27 94 28 97 29 95 30 96 31 18 32 19 33 20 34
REMARK SMILES IDX 21 35 22 36 23 37 24 38 88 39 25 40 87 41 26 42 27 43 28 44
REMARK SMILES IDX 81 45 29 46 86 47 80 48 82 49 30 50 85 51 79 52 78 53 31 55
REMARK SMILES IDX 65 56 44 57 64 58 45 59 48 60 63 61 83 62 46 63 47 64 62 66
REMARK SMILES IDX 84 67 49 68 32 69 33 70 42 71 34 72 35 73 41 74 43 75 36 76
REMARK SMILES IDX 37 77 38 78 39 79 40 80 66 81 67 82 76 83 68 84 69 85 75 86
REMARK SMILES IDX 77 87 70 88 71 89 72 90 73 91 74 92 50 93 51 94 60 95 52 96
REMARK SMILES IDX 53 97 59 98 61 99 54 100 55 101 56 102 57 103 58 104
REMARK H PARENT 1 23 1 24 82 54 48 65
REMARK Flexibility Score: inf
ROOT
ATOM      1  O   UNL A   1      34.037  33.128  31.057  1.00  0.00    -0.374 OA
ENDROOT
BRANCH   1   2
ATOM      2  C   UNL A   1      34.308  34.048  30.000  1.00  0.00     0.202 C 
BRANCH   2   3
ATOM      3  C   UNL A   1      34.448  33.484  28.590  1.00  0.00     0.261 C 
BRANCH   3   4
ATOM      4  O   UNL A   1      34.000  32.124  28.522  1.00  0.00    -0.458 OA
BRANCH   4   5
ATOM      5  C   UNL A   1      34.705  31.277  27.715  1.00  0.00     0.360 C 
ATOM      6  O   UNL A   1      35.924  31.306  27.594  1.00  0.00    -0.244 OA
BRANCH   5   7
ATOM      7  C   UNL A   1      33.841  30.298  27.041  1.00  0.00     0.190 A 
ATOM      8  N   UNL A   1      33.288  28.514  25.988  1.00  0.00    -0.231 N 
ATOM      9  N   UNL A   1      34.257  29.039  26.775  1.00  0.00    -0.159 NA
ATOM     10  C   UNL A   1      32.254  29.403  25.758  1.00  0.00     0.094 A 
ATOM     11  C   UNL A   1      32.535  30.506  26.538  1.00  0.00     0.102 A 
ATOM     12  Cl  UNL A   1      31.564  31.899  26.696  1.00  0.00    -0.079 Cl
BRANCH   8  13
ATOM     13  C   UNL A   1      33.532  27.312  25.286  1.00  0.00     0.065 A 
ATOM     14  C   UNL A   1      33.732  24.963  23.820  1.00  0.00     0.082 A 
ATOM     15  C   UNL A   1      33.577  24.897  25.213  1.00  0.00     0.024 A 
ATOM     16  C   UNL A   1      33.834  26.195  23.169  1.00  0.00     0.024 A 
ATOM     17  C   UNL A   1      33.494  26.083  25.956  1.00  0.00     0.030 A 
ATOM     18  C   UNL A   1      33.720  27.374  23.900  1.00  0.00     0.030 A 
BRANCH  14  19
ATOM     19  S   UNL A   1      33.781  23.493  22.838  1.00  0.00     0.238 S 
ATOM     20  O   UNL A   1      33.414  23.831  21.475  1.00  0.00    -0.207 OA
ATOM     21  O   UNL A   1      33.151  22.425  23.566  1.00  0.00    -0.207 OA
BRANCH  19  22
ATOM     22  N   UNL A   1      35.413  23.104  22.747  1.00  0.00    -0.225 NA
ATOM     23  H   UNL A   1      35.813  23.094  23.685  1.00  0.00     0.137 HD
ATOM     24  H   UNL A   1      35.896  23.799  22.177  1.00  0.00     0.137 HD
ENDBRANCH  19  22
ENDBRANCH  14  19
ENDBRANCH   8  13
BRANCH  10  25
ATOM     25  C   UNL A   1      31.158  29.220  24.813  1.00  0.00     0.002 A 
ATOM     26  C   UNL A   1      30.525  30.367  24.308  1.00  0.00     0.012 A 
ATOM     27  C   UNL A   1      30.681  27.956  24.457  1.00  0.00     0.012 A 
ATOM     28  C   UNL A   1      29.407  30.256  23.485  1.00  0.00     0.021 A 
ATOM     29  C   UNL A   1      29.561  27.846  23.626  1.00  0.00     0.021 A 
ATOM     30  C   UNL A   1      28.925  28.994  23.154  1.00  0.00     0.041 A 
ATOM     31  Cl  UNL A   1      27.525  28.863  22.165  1.00  0.00    -0.084 Cl
ENDBRANCH  10  25
ENDBRANCH   5   7
ENDBRANCH   4   5
ENDBRANCH   3   4
ENDBRANCH   2   3
ENDBRANCH   1   2
BRANCH   1  32
ATOM     32  C   UNL A   1      35.081  32.704  31.930  1.00  0.00     0.202 C 
BRANCH  32  33
ATOM     33  C   UNL A   1      35.981  31.558  31.487  1.00  0.00     0.261 C 
BRANCH  33  34
ATOM     34  O   UNL A   1      36.563  30.894  32.594  1.00  0.00    -0.460 OA
BRANCH  34  35
ATOM     35  C   UNL A   1      37.835  31.273  32.858  1.00  0.00     0.338 C 
ATOM     36  O   UNL A   1      38.369  32.325  32.548  1.00  0.00    -0.246 OA
BRANCH  35  37
ATOM     37  C   UNL A   1      38.533  30.143  33.479  1.00  0.00     0.060 A 
ATOM     38  C   UNL A   1      39.605  30.494  34.301  1.00  0.00     0.016 A 
ATOM     39  C   UNL A   1      38.410  28.870  32.902  1.00  0.00     0.016 A 
ATOM     40  C   UNL A   1      40.729  29.713  34.236  1.00  0.00     0.010 A 
ATOM     41  C   UNL A   1      39.534  28.093  32.838  1.00  0.00     0.010 A 
ATOM     42  C   UNL A   1      40.706  28.604  33.388  1.00  0.00    -0.014 A 
BRANCH  42  43
ATOM     43  C   UNL A   1      41.953  27.949  33.087  1.00  0.00     0.031 A 
ATOM     44  C   UNL A   1      42.435  27.145  34.225  1.00  0.00     0.074 A 
ATOM     45  C   UNL A   1      42.501  27.998  31.858  1.00  0.00     0.049 A 
ATOM     46  N   UNL A   1      43.399  27.428  35.035  1.00  0.00    -0.248 NA
ATOM     47  C   UNL A   1      41.573  26.039  34.674  1.00  0.00     0.031 C 
ATOM     48  C   UNL A   1      41.950  28.553  30.618  1.00  0.00     0.029 A 
ATOM     49  N   UNL A   1      43.666  27.434  31.447  1.00  0.00    -0.354 N 
ATOM     50  C   UNL A   1      43.418  26.378  35.941  1.00  0.00     0.074 A 
ATOM     51  C   UNL A   1      42.136  25.736  35.844  1.00  0.00     0.031 C 
ATOM     52  C   UNL A   1      42.658  28.078  29.565  1.00  0.00     0.029 A 
ATOM     53  C   UNL A   1      43.775  27.297  30.063  1.00  0.00     0.049 A 
ATOM     54  H   UNL A   1      44.372  27.147  32.071  1.00  0.00     0.167 HD
ATOM     55  C   UNL A   1      44.585  25.919  36.467  1.00  0.00     0.037 A 
ATOM     56  C   UNL A   1      44.664  26.468  29.452  1.00  0.00     0.037 A 
ATOM     57  C   UNL A   1      45.651  26.874  36.289  1.00  0.00     0.049 A 
ATOM     58  C   UNL A   1      45.750  26.217  30.453  1.00  0.00     0.074 A 
ATOM     59  C   UNL A   1      45.838  28.188  36.677  1.00  0.00     0.029 A 
ATOM     60  N   UNL A   1      46.540  26.660  35.259  1.00  0.00    -0.354 N 
ATOM     61  N   UNL A   1      46.544  27.159  30.900  1.00  0.00    -0.248 NA
ATOM     62  C   UNL A   1      45.583  25.074  31.346  1.00  0.00     0.031 C 
ATOM     63  C   UNL A   1      46.441  28.822  35.552  1.00  0.00     0.029 A 
ATOM     64  C   UNL A   1      46.665  27.848  34.577  1.00  0.00     0.049 A 
ATOM     65  H   UNL A   1      46.999  25.815  35.050  1.00  0.00     0.167 HD
ATOM     66  C   UNL A   1      46.648  26.929  32.267  1.00  0.00     0.074 A 
ATOM     67  C   UNL A   1      46.057  25.607  32.476  1.00  0.00     0.031 C 
ATOM     68  C   UNL A   1      46.920  27.935  33.155  1.00  0.00     0.037 A 
BRANCH  55  69
ATOM     69  C   UNL A   1      44.829  24.467  36.781  1.00  0.00     0.058 A 
ATOM     70  C   UNL A   1      45.285  24.110  38.062  1.00  0.00     0.135 A 
ATOM     71  C   UNL A   1      44.881  23.442  35.805  1.00  0.00     0.135 A 
ATOM     72  F   UNL A   1      45.294  25.010  39.058  1.00  0.00    -0.206 F 
ATOM     73  C   UNL A   1      45.812  22.849  38.338  1.00  0.00     0.059 A 
ATOM     74  C   UNL A   1      45.339  22.161  36.074  1.00  0.00     0.059 A 
ATOM     75  F   UNL A   1      44.587  23.651  34.518  1.00  0.00    -0.206 F 
ATOM     76  C   UNL A   1      45.844  21.886  37.331  1.00  0.00     0.060 A 
BRANCH  76  77
ATOM     77  S   UNL A   1      46.616  20.294  37.651  1.00  0.00     0.124 S 
ATOM     78  O   UNL A   1      48.029  20.625  37.512  1.00  0.00    -0.237 OA
ATOM     79  O   UNL A   1      46.155  20.003  39.004  1.00  0.00    -0.237 OA
ATOM     80  O   UNL A   1      46.062  19.436  36.607  1.00  0.00    -0.744 OA
ENDBRANCH  76  77
ENDBRANCH  55  69
BRANCH  56  81
ATOM     81  C   UNL A   1      44.377  25.553  28.307  1.00  0.00     0.058 A 
ATOM     82  C   UNL A   1      45.248  25.445  27.207  1.00  0.00     0.135 A 
ATOM     83  C   UNL A   1      43.371  24.568  28.390  1.00  0.00     0.135 A 
ATOM     84  F   UNL A   1      46.253  26.321  27.055  1.00  0.00    -0.206 F 
ATOM     85  C   UNL A   1      45.149  24.403  26.270  1.00  0.00     0.059 A 
ATOM     86  C   UNL A   1      43.247  23.529  27.468  1.00  0.00     0.059 A 
ATOM     87  F   UNL A   1      42.522  24.525  29.427  1.00  0.00    -0.206 F 
ATOM     88  C   UNL A   1      44.153  23.438  26.422  1.00  0.00     0.060 A 
BRANCH  88  89
ATOM     89  S   UNL A   1      44.109  21.998  25.325  1.00  0.00     0.124 S 
ATOM     90  O   UNL A   1      43.208  21.099  26.039  1.00  0.00    -0.237 OA
ATOM     91  O   UNL A   1      43.592  22.568  24.086  1.00  0.00    -0.237 OA
ATOM     92  O   UNL A   1      45.504  21.567  25.275  1.00  0.00    -0.744 OA
ENDBRANCH  88  89
ENDBRANCH  56  81
BRANCH  68  93
ATOM     93  C   UNL A   1      47.300  29.296  32.622  1.00  0.00     0.058 A 
ATOM     94  C   UNL A   1      46.378  30.316  32.320  1.00  0.00     0.135 A 
ATOM     95  C   UNL A   1      48.658  29.645  32.599  1.00  0.00     0.135 A 
ATOM     96  F   UNL A   1      45.059  30.102  32.426  1.00  0.00    -0.206 F 
ATOM     97  C   UNL A   1      46.787  31.607  31.973  1.00  0.00     0.059 A 
ATOM     98  C   UNL A   1      49.089  30.931  32.286  1.00  0.00     0.059 A 
ATOM     99  F   UNL A   1      49.589  28.740  32.944  1.00  0.00    -0.206 F 
ATOM    100  C   UNL A   1      48.149  31.906  31.960  1.00  0.00     0.060 A 
BRANCH 100 101
ATOM    101  S   UNL A   1      48.681  33.588  31.573  1.00  0.00     0.124 S 
ATOM    102  O   UNL A   1      50.110  33.531  31.861  1.00  0.00    -0.237 OA
ATOM    103  O   UNL A   1      48.323  33.718  30.163  1.00  0.00    -0.237 OA
ATOM    104  O   UNL A   1      47.894  34.415  32.486  1.00  0.00    -0.744 OA
ENDBRANCH 100 101
ENDBRANCH  68  93
ENDBRANCH  42  43
ENDBRANCH  35  37
ENDBRANCH  34  35
ENDBRANCH  33  34
ENDBRANCH  32  33
ENDBRANCH   1  32
TORSDOF 21
ENDMDL
