MODEL 1
REMARK VINA RESULT:     -10.9      0.000      0.000
REMARK SMILES CCc1ccnc(C(=O)c2[nH]c3ccc(OC(F)(F)F)cc3c2CC(=O)OCCOCCOC(=O)c2ccc(-c3c4nc(c(-c5c(F)cc(S(=O)(=O)[O-])cc5F)c5ccc([nH]5)c(-c5c(F)cc(S(=O)(=O)[O-])cc5F)c5nc(c(-c6c(F)cc(S(=O)(=O)[O-])cc6F)c6ccc3[nH]6)C=C5)C=C4)cc2)c1
REMARK SMILES IDX 29 1 28 2 27 3 25 4 26 5 24 6 23 7 10 8 11 9 12 10 22 12
REMARK SMILES IDX 13 13 21 14 14 15 15 16 8 17 9 18 7 19 3 20 4 21 102 22 5 23
REMARK SMILES IDX 6 24 2 25 1 26 16 27 17 28 18 29 19 30 20 31 30 32 31 33
REMARK SMILES IDX 32 34 33 35 34 36 35 37 36 38 37 39 101 40 38 41 100 42
REMARK SMILES IDX 39 43 40 44 41 45 94 46 42 47 99 48 93 49 95 50 43 51 98 52
REMARK SMILES IDX 92 53 91 54 44 56 78 57 57 58 77 59 58 60 61 61 76 62 96 63
REMARK SMILES IDX 59 64 60 65 75 67 97 68 62 69 45 70 46 71 55 72 47 73 48 74
REMARK SMILES IDX 54 75 56 76 49 77 50 78 51 79 52 80 53 81 79 82 80 83 89 84
REMARK SMILES IDX 81 85 82 86 88 87 90 88 83 89 84 90 85 91 86 92 87 93 63 94
REMARK SMILES IDX 64 95 73 96 65 97 66 98 72 99 74 100 67 101 68 102 69 103
REMARK SMILES IDX 70 104 71 105
REMARK H PARENT 11 11 95 55 61 66
REMARK Flexibility Score: inf
ROOT
ATOM      1  C   UNL A   1      36.541  21.891  24.285  1.00  0.00     0.202 C 
ENDROOT
BRANCH   1   2
ATOM      2  C   UNL A   1      36.295  23.069  23.335  1.00  0.00     0.261 C 
BRANCH   2   3
ATOM      3  O   UNL A   1      34.889  23.234  23.033  1.00  0.00    -0.463 OA
BRANCH   3   4
ATOM      4  C   UNL A   1      34.384  24.475  23.264  1.00  0.00     0.310 C 
ATOM      5  O   UNL A   1      33.855  25.174  22.401  1.00  0.00    -0.252 OA
BRANCH   4   6
ATOM      6  C   UNL A   1      34.585  25.002  24.668  1.00  0.00     0.161 C 
BRANCH   6   7
ATOM      7  C   UNL A   1      33.380  25.441  25.461  1.00  0.00     0.000 A 
ATOM      8  C   UNL A   1      32.129  24.819  25.519  1.00  0.00     0.093 A 
ATOM      9  N   UNL A   1      31.365  25.560  26.398  1.00  0.00    -0.352 N 
ATOM     10  C   UNL A   1      31.956  26.777  26.641  1.00  0.00     0.046 A 
ATOM     11  H   UNL A   1      30.515  25.259  26.795  1.00  0.00     0.167 HD
ATOM     12  C   UNL A   1      33.234  26.718  26.096  1.00  0.00     0.008 A 
ATOM     13  C   UNL A   1      31.462  27.916  27.288  1.00  0.00     0.030 A 
ATOM     14  C   UNL A   1      34.055  27.860  26.196  1.00  0.00     0.057 A 
ATOM     15  C   UNL A   1      32.283  29.054  27.327  1.00  0.00     0.049 A 
ATOM     16  C   UNL A   1      33.560  29.039  26.771  1.00  0.00     0.130 A 
BRANCH   8  17
ATOM     17  C   UNL A   1      31.696  23.619  24.810  1.00  0.00     0.227 C 
ATOM     18  O   UNL A   1      30.813  23.652  23.955  1.00  0.00    -0.285 OA
BRANCH  17  19
ATOM     19  C   UNL A   1      32.261  22.278  25.166  1.00  0.00     0.113 A 
ATOM     20  C   UNL A   1      32.813  20.006  24.595  1.00  0.00    -0.044 A 
ATOM     21  C   UNL A   1      33.580  19.964  25.766  1.00  0.00     0.024 A 
ATOM     22  C   UNL A   1      32.143  21.196  24.294  1.00  0.00     0.036 A 
ATOM     23  C   UNL A   1      33.637  21.085  26.581  1.00  0.00     0.112 A 
ATOM     24  N   UNL A   1      32.988  22.235  26.311  1.00  0.00    -0.253 NA
BRANCH  20  25
ATOM     25  C   UNL A   1      32.792  18.783  23.707  1.00  0.00     0.032 C 
ATOM     26  C   UNL A   1      33.869  17.737  23.964  1.00  0.00     0.009 C 
ENDBRANCH  20  25
ENDBRANCH  17  19
ENDBRANCH   8  17
BRANCH  16  27
ATOM     27  O   UNL A   1      34.431  30.091  26.712  1.00  0.00    -0.406 OA
BRANCH  27  28
ATOM     28  C   UNL A   1      35.531  30.085  27.605  1.00  0.00     0.573 C 
ATOM     29  F   UNL A   1      35.314  29.256  28.650  1.00  0.00    -0.132 F 
ATOM     30  F   UNL A   1      36.667  29.725  26.975  1.00  0.00    -0.132 F 
ATOM     31  F   UNL A   1      35.696  31.334  28.098  1.00  0.00    -0.132 F 
ENDBRANCH  27  28
ENDBRANCH  16  27
ENDBRANCH   6   7
ENDBRANCH   4   6
ENDBRANCH   3   4
ENDBRANCH   2   3
ENDBRANCH   1   2
BRANCH   1  32
ATOM     32  O   UNL A   1      36.968  22.234  25.609  1.00  0.00    -0.374 OA
BRANCH  32  33
ATOM     33  C   UNL A   1      38.376  22.216  25.837  1.00  0.00     0.202 C 
BRANCH  33  34
ATOM     34  C   UNL A   1      39.037  20.834  25.783  1.00  0.00     0.261 C 
BRANCH  34  35
ATOM     35  O   UNL A   1      40.048  20.676  26.791  1.00  0.00    -0.460 OA
BRANCH  35  36
ATOM     36  C   UNL A   1      41.284  20.445  26.292  1.00  0.00     0.338 C 
ATOM     37  O   UNL A   1      41.646  19.474  25.638  1.00  0.00    -0.246 OA
BRANCH  36  38
ATOM     38  C   UNL A   1      42.162  21.609  26.502  1.00  0.00     0.060 A 
ATOM     39  C   UNL A   1      42.630  21.813  27.804  1.00  0.00     0.016 A 
ATOM     40  C   UNL A   1      42.453  22.528  25.488  1.00  0.00     0.016 A 
ATOM     41  C   UNL A   1      43.322  22.976  28.117  1.00  0.00     0.010 A 
ATOM     42  C   UNL A   1      43.151  23.700  25.806  1.00  0.00     0.010 A 
ATOM     43  C   UNL A   1      43.545  23.949  27.133  1.00  0.00    -0.014 A 
BRANCH  43  44
ATOM     44  C   UNL A   1      44.071  25.266  27.567  1.00  0.00     0.031 A 
ATOM     45  C   UNL A   1      45.486  25.642  27.219  1.00  0.00     0.074 A 
ATOM     46  C   UNL A   1      43.251  26.158  28.152  1.00  0.00     0.049 A 
ATOM     47  N   UNL A   1      46.091  26.796  27.341  1.00  0.00    -0.248 NA
ATOM     48  C   UNL A   1      46.332  24.578  26.654  1.00  0.00     0.031 C 
ATOM     49  C   UNL A   1      41.859  25.903  28.524  1.00  0.00     0.029 A 
ATOM     50  N   UNL A   1      43.461  27.464  28.511  1.00  0.00    -0.354 N 
ATOM     51  C   UNL A   1      47.379  26.603  26.854  1.00  0.00     0.074 A 
ATOM     52  C   UNL A   1      47.484  25.209  26.478  1.00  0.00     0.031 C 
ATOM     53  C   UNL A   1      41.333  27.026  29.040  1.00  0.00     0.029 A 
ATOM     54  C   UNL A   1      42.349  28.076  29.039  1.00  0.00     0.049 A 
ATOM     55  H   UNL A   1      44.326  27.921  28.399  1.00  0.00     0.167 HD
ATOM     56  C   UNL A   1      48.377  27.509  26.717  1.00  0.00     0.037 A 
ATOM     57  C   UNL A   1      42.169  29.342  29.459  1.00  0.00     0.037 A 
ATOM     58  C   UNL A   1      48.264  28.893  27.101  1.00  0.00     0.049 A 
ATOM     59  C   UNL A   1      43.297  30.328  29.308  1.00  0.00     0.074 A 
ATOM     60  C   UNL A   1      49.211  29.897  27.002  1.00  0.00     0.029 A 
ATOM     61  N   UNL A   1      47.131  29.466  27.661  1.00  0.00    -0.354 N 
ATOM     62  N   UNL A   1      44.498  30.139  28.814  1.00  0.00    -0.248 NA
ATOM     63  C   UNL A   1      43.039  31.705  29.753  1.00  0.00     0.031 C 
ATOM     64  C   UNL A   1      48.663  31.069  27.538  1.00  0.00     0.029 A 
ATOM     65  C   UNL A   1      47.359  30.807  27.928  1.00  0.00     0.049 A 
ATOM     66  H   UNL A   1      46.288  28.991  27.842  1.00  0.00     0.167 HD
ATOM     67  C   UNL A   1      45.131  31.376  28.868  1.00  0.00     0.074 A 
ATOM     68  C   UNL A   1      44.172  32.309  29.426  1.00  0.00     0.031 C 
ATOM     69  C   UNL A   1      46.392  31.714  28.492  1.00  0.00     0.037 A 
BRANCH  56  70
ATOM     70  C   UNL A   1      49.682  27.024  26.146  1.00  0.00     0.058 A 
ATOM     71  C   UNL A   1      49.961  27.105  24.772  1.00  0.00     0.135 A 
ATOM     72  C   UNL A   1      50.674  26.490  26.983  1.00  0.00     0.135 A 
ATOM     73  F   UNL A   1      49.043  27.591  23.922  1.00  0.00    -0.206 F 
ATOM     74  C   UNL A   1      51.167  26.649  24.244  1.00  0.00     0.059 A 
ATOM     75  C   UNL A   1      51.897  26.050  26.481  1.00  0.00     0.059 A 
ATOM     76  F   UNL A   1      50.459  26.386  28.304  1.00  0.00    -0.206 F 
ATOM     77  C   UNL A   1      52.128  26.119  25.108  1.00  0.00     0.060 A 
BRANCH  77  78
ATOM     78  S   UNL A   1      53.685  25.527  24.413  1.00  0.00     0.124 S 
ATOM     79  O   UNL A   1      53.530  25.882  23.005  1.00  0.00    -0.237 OA
ATOM     80  O   UNL A   1      54.676  26.299  25.157  1.00  0.00    -0.237 OA
ATOM     81  O   UNL A   1      53.664  24.096  24.703  1.00  0.00    -0.744 OA
ENDBRANCH  77  78
ENDBRANCH  56  70
BRANCH  57  82
ATOM     82  C   UNL A   1      40.860  29.754  30.034  1.00  0.00     0.058 A 
ATOM     83  C   UNL A   1      39.736  29.958  29.221  1.00  0.00     0.135 A 
ATOM     84  C   UNL A   1      40.707  29.935  31.417  1.00  0.00     0.135 A 
ATOM     85  F   UNL A   1      39.833  29.804  27.891  1.00  0.00    -0.206 F 
ATOM     86  C   UNL A   1      38.510  30.340  29.756  1.00  0.00     0.059 A 
ATOM     87  C   UNL A   1      39.486  30.292  31.978  1.00  0.00     0.059 A 
ATOM     88  F   UNL A   1      41.750  29.738  32.240  1.00  0.00    -0.206 F 
ATOM     89  C   UNL A   1      38.394  30.502  31.138  1.00  0.00     0.060 A 
BRANCH  89  90
ATOM     90  S   UNL A   1      36.785  30.942  31.831  1.00  0.00     0.124 S 
ATOM     91  O   UNL A   1      36.466  32.154  31.086  1.00  0.00    -0.237 OA
ATOM     92  O   UNL A   1      35.981  29.766  31.515  1.00  0.00    -0.237 OA
ATOM     93  O   UNL A   1      37.074  31.131  33.250  1.00  0.00    -0.744 OA
ENDBRANCH  89  90
ENDBRANCH  57  82
BRANCH  69  94
ATOM     94  C   UNL A   1      46.787  33.156  28.655  1.00  0.00     0.058 A 
ATOM     95  C   UNL A   1      47.372  33.629  29.839  1.00  0.00     0.135 A 
ATOM     96  C   UNL A   1      46.581  34.072  27.612  1.00  0.00     0.135 A 
ATOM     97  F   UNL A   1      47.588  32.794  30.869  1.00  0.00    -0.206 F 
ATOM     98  C   UNL A   1      47.696  34.972  30.002  1.00  0.00     0.059 A 
ATOM     99  C   UNL A   1      46.923  35.414  27.742  1.00  0.00     0.059 A 
ATOM    100  F   UNL A   1      46.040  33.667  26.452  1.00  0.00    -0.206 F 
ATOM    101  C   UNL A   1      47.460  35.859  28.951  1.00  0.00     0.060 A 
BRANCH 101 102
ATOM    102  S   UNL A   1      47.867  37.603  29.175  1.00  0.00     0.124 S 
ATOM    103  O   UNL A   1      46.934  38.242  28.253  1.00  0.00    -0.237 OA
ATOM    104  O   UNL A   1      47.597  37.810  30.595  1.00  0.00    -0.237 OA
ATOM    105  O   UNL A   1      49.275  37.674  28.797  1.00  0.00    -0.744 OA
ENDBRANCH 101 102
ENDBRANCH  69  94
ENDBRANCH  43  44
ENDBRANCH  36  38
ENDBRANCH  35  36
ENDBRANCH  34  35
ENDBRANCH  33  34
ENDBRANCH  32  33
ENDBRANCH   1  32
TORSDOF 23
ENDMDL
MODEL 2
REMARK VINA RESULT:     -10.8      5.779      8.971
REMARK SMILES CCc1ccnc(C(=O)c2[nH]c3ccc(OC(F)(F)F)cc3c2CC(=O)OCCOCCOC(=O)c2ccc(-c3c4nc(c(-c5c(F)cc(S(=O)(=O)[O-])cc5F)c5ccc([nH]5)c(-c5c(F)cc(S(=O)(=O)[O-])cc5F)c5nc(c(-c6c(F)cc(S(=O)(=O)[O-])cc6F)c6ccc3[nH]6)C=C5)C=C4)cc2)c1
REMARK SMILES IDX 29 1 28 2 27 3 25 4 26 5 24 6 23 7 10 8 11 9 12 10 22 12
REMARK SMILES IDX 13 13 21 14 14 15 15 16 8 17 9 18 7 19 3 20 4 21 102 22 5 23
REMARK SMILES IDX 6 24 2 25 1 26 16 27 17 28 18 29 19 30 20 31 30 32 31 33
REMARK SMILES IDX 32 34 33 35 34 36 35 37 36 38 37 39 101 40 38 41 100 42
REMARK SMILES IDX 39 43 40 44 41 45 94 46 42 47 99 48 93 49 95 50 43 51 98 52
REMARK SMILES IDX 92 53 91 54 44 56 78 57 57 58 77 59 58 60 61 61 76 62 96 63
REMARK SMILES IDX 59 64 60 65 75 67 97 68 62 69 45 70 46 71 55 72 47 73 48 74
REMARK SMILES IDX 54 75 56 76 49 77 50 78 51 79 52 80 53 81 79 82 80 83 89 84
REMARK SMILES IDX 81 85 82 86 88 87 90 88 83 89 84 90 85 91 86 92 87 93 63 94
REMARK SMILES IDX 64 95 73 96 65 97 66 98 72 99 74 100 67 101 68 102 69 103
REMARK SMILES IDX 70 104 71 105
REMARK H PARENT 11 11 95 55 61 66
REMARK Flexibility Score: inf
ROOT
ATOM      1  C   UNL A   1      38.544  22.030  25.843  1.00  0.00     0.202 C 
ENDROOT
BRANCH   1   2
ATOM      2  C   UNL A   1      37.083  22.490  25.775  1.00  0.00     0.261 C 
BRANCH   2   3
ATOM      3  O   UNL A   1      36.906  23.594  24.856  1.00  0.00    -0.463 OA
BRANCH   3   4
ATOM      4  C   UNL A   1      36.425  23.262  23.629  1.00  0.00     0.310 C 
ATOM      5  O   UNL A   1      36.916  22.392  22.910  1.00  0.00    -0.252 OA
BRANCH   4   6
ATOM      6  C   UNL A   1      35.266  24.103  23.141  1.00  0.00     0.161 C 
BRANCH   6   7
ATOM      7  C   UNL A   1      33.904  23.888  23.748  1.00  0.00     0.000 A 
ATOM      8  C   UNL A   1      33.009  24.866  24.193  1.00  0.00     0.093 A 
ATOM      9  N   UNL A   1      31.885  24.196  24.634  1.00  0.00    -0.352 N 
ATOM     10  C   UNL A   1      32.154  22.856  24.787  1.00  0.00     0.046 A 
ATOM     11  H   UNL A   1      31.014  24.618  24.815  1.00  0.00     0.167 HD
ATOM     12  C   UNL A   1      33.397  22.628  24.209  1.00  0.00     0.008 A 
ATOM     13  C   UNL A   1      31.403  21.840  25.391  1.00  0.00     0.030 A 
ATOM     14  C   UNL A   1      33.920  21.319  24.245  1.00  0.00     0.057 A 
ATOM     15  C   UNL A   1      31.972  20.559  25.459  1.00  0.00     0.049 A 
ATOM     16  C   UNL A   1      33.226  20.298  24.910  1.00  0.00     0.130 A 
BRANCH   8  17
ATOM     17  C   UNL A   1      33.196  26.314  24.192  1.00  0.00     0.227 C 
ATOM     18  O   UNL A   1      33.486  26.931  23.169  1.00  0.00    -0.285 OA
BRANCH  17  19
ATOM     19  C   UNL A   1      33.125  27.091  25.470  1.00  0.00     0.113 A 
ATOM     20  C   UNL A   1      34.025  28.719  26.999  1.00  0.00    -0.044 A 
ATOM     21  C   UNL A   1      32.785  28.699  27.651  1.00  0.00     0.024 A 
ATOM     22  C   UNL A   1      34.189  27.894  25.881  1.00  0.00     0.036 A 
ATOM     23  C   UNL A   1      31.784  27.865  27.179  1.00  0.00     0.112 A 
ATOM     24  N   UNL A   1      31.929  27.055  26.112  1.00  0.00    -0.253 NA
BRANCH  20  25
ATOM     25  C   UNL A   1      35.090  29.660  27.510  1.00  0.00     0.032 C 
ATOM     26  C   UNL A   1      34.605  30.960  28.141  1.00  0.00     0.009 C 
ENDBRANCH  20  25
ENDBRANCH  17  19
ENDBRANCH   8  17
BRANCH  16  27
ATOM     27  O   UNL A   1      33.896  19.108  24.950  1.00  0.00    -0.406 OA
BRANCH  27  28
ATOM     28  C   UNL A   1      33.388  18.041  24.168  1.00  0.00     0.573 C 
ATOM     29  F   UNL A   1      34.347  17.505  23.380  1.00  0.00    -0.132 F 
ATOM     30  F   UNL A   1      32.857  17.077  24.947  1.00  0.00    -0.132 F 
ATOM     31  F   UNL A   1      32.413  18.520  23.361  1.00  0.00    -0.132 F 
ENDBRANCH  27  28
ENDBRANCH  16  27
ENDBRANCH   6   7
ENDBRANCH   4   6
ENDBRANCH   3   4
ENDBRANCH   2   3
ENDBRANCH   1   2
BRANCH   1  32
ATOM     32  O   UNL A   1      39.357  22.674  26.830  1.00  0.00    -0.374 OA
BRANCH  32  33
ATOM     33  C   UNL A   1      40.595  22.036  27.136  1.00  0.00     0.202 C 
BRANCH  33  34
ATOM     34  C   UNL A   1      41.846  22.705  26.558  1.00  0.00     0.261 C 
BRANCH  34  35
ATOM     35  O   UNL A   1      41.641  24.102  26.293  1.00  0.00    -0.460 OA
BRANCH  35  36
ATOM     36  C   UNL A   1      42.567  24.907  26.863  1.00  0.00     0.338 C 
ATOM     37  O   UNL A   1      43.768  24.941  26.616  1.00  0.00    -0.246 OA
BRANCH  36  38
ATOM     38  C   UNL A   1      41.932  25.891  27.754  1.00  0.00     0.060 A 
ATOM     39  C   UNL A   1      42.682  27.031  28.064  1.00  0.00     0.016 A 
ATOM     40  C   UNL A   1      40.682  25.680  28.345  1.00  0.00     0.016 A 
ATOM     41  C   UNL A   1      42.223  27.922  29.025  1.00  0.00     0.010 A 
ATOM     42  C   UNL A   1      40.221  26.580  29.315  1.00  0.00     0.010 A 
ATOM     43  C   UNL A   1      41.014  27.678  29.692  1.00  0.00    -0.014 A 
BRANCH  43  44
ATOM     44  C   UNL A   1      40.688  28.521  30.868  1.00  0.00     0.031 A 
ATOM     45  C   UNL A   1      41.541  28.418  32.103  1.00  0.00     0.074 A 
ATOM     46  C   UNL A   1      39.721  29.452  30.781  1.00  0.00     0.049 A 
ATOM     47  N   UNL A   1      41.550  29.175  33.170  1.00  0.00    -0.248 NA
ATOM     48  C   UNL A   1      42.520  27.319  32.138  1.00  0.00     0.031 C 
ATOM     49  C   UNL A   1      38.841  29.646  29.628  1.00  0.00     0.029 A 
ATOM     50  N   UNL A   1      39.335  30.425  31.666  1.00  0.00    -0.354 N 
ATOM     51  C   UNL A   1      42.541  28.657  33.996  1.00  0.00     0.074 A 
ATOM     52  C   UNL A   1      43.082  27.493  33.327  1.00  0.00     0.031 C 
ATOM     53  C   UNL A   1      38.031  30.690  29.868  1.00  0.00     0.029 A 
ATOM     54  C   UNL A   1      38.330  31.234  31.191  1.00  0.00     0.049 A 
ATOM     55  H   UNL A   1      39.739  30.534  32.557  1.00  0.00     0.167 HD
ATOM     56  C   UNL A   1      42.973  29.119  35.194  1.00  0.00     0.037 A 
ATOM     57  C   UNL A   1      37.734  32.303  31.753  1.00  0.00     0.037 A 
ATOM     58  C   UNL A   1      42.423  30.276  35.853  1.00  0.00     0.049 A 
ATOM     59  C   UNL A   1      38.222  32.791  33.091  1.00  0.00     0.074 A 
ATOM     60  C   UNL A   1      42.787  30.834  37.066  1.00  0.00     0.029 A 
ATOM     61  N   UNL A   1      41.385  31.051  35.354  1.00  0.00    -0.354 N 
ATOM     62  N   UNL A   1      39.184  32.311  33.844  1.00  0.00    -0.248 NA
ATOM     63  C   UNL A   1      37.558  33.978  33.646  1.00  0.00     0.031 C 
ATOM     64  C   UNL A   1      41.945  31.924  37.318  1.00  0.00     0.029 A 
ATOM     65  C   UNL A   1      41.086  32.073  36.240  1.00  0.00     0.049 A 
ATOM     66  H   UNL A   1      40.929  30.898  34.495  1.00  0.00     0.167 HD
ATOM     67  C   UNL A   1      39.255  33.150  34.951  1.00  0.00     0.074 A 
ATOM     68  C   UNL A   1      38.251  34.177  34.758  1.00  0.00     0.031 C 
ATOM     69  C   UNL A   1      40.076  33.080  36.031  1.00  0.00     0.037 A 
BRANCH  56  70
ATOM     70  C   UNL A   1      44.081  28.361  35.873  1.00  0.00     0.058 A 
ATOM     71  C   UNL A   1      45.433  28.650  35.624  1.00  0.00     0.135 A 
ATOM     72  C   UNL A   1      43.789  27.348  36.799  1.00  0.00     0.135 A 
ATOM     73  F   UNL A   1      45.769  29.597  34.735  1.00  0.00    -0.206 F 
ATOM     74  C   UNL A   1      46.456  27.942  36.249  1.00  0.00     0.059 A 
ATOM     75  C   UNL A   1      44.796  26.643  37.455  1.00  0.00     0.059 A 
ATOM     76  F   UNL A   1      42.515  27.029  37.073  1.00  0.00    -0.206 F 
ATOM     77  C   UNL A   1      46.127  26.936  37.161  1.00  0.00     0.060 A 
BRANCH  77  78
ATOM     78  S   UNL A   1      47.463  26.022  37.961  1.00  0.00     0.124 S 
ATOM     79  O   UNL A   1      47.384  24.734  37.278  1.00  0.00    -0.237 OA
ATOM     80  O   UNL A   1      48.633  26.836  37.646  1.00  0.00    -0.237 OA
ATOM     81  O   UNL A   1      47.072  26.010  39.367  1.00  0.00    -0.744 OA
ENDBRANCH  77  78
ENDBRANCH  56  70
BRANCH  57  82
ATOM     82  C   UNL A   1      36.629  32.996  31.038  1.00  0.00     0.058 A 
ATOM     83  C   UNL A   1      35.298  32.885  31.465  1.00  0.00     0.135 A 
ATOM     84  C   UNL A   1      36.891  33.801  29.917  1.00  0.00     0.135 A 
ATOM     85  F   UNL A   1      34.996  32.122  32.527  1.00  0.00    -0.206 F 
ATOM     86  C   UNL A   1      34.263  33.535  30.800  1.00  0.00     0.059 A 
ATOM     87  C   UNL A   1      35.876  34.480  29.251  1.00  0.00     0.059 A 
ATOM     88  F   UNL A   1      38.150  33.951  29.478  1.00  0.00    -0.206 F 
ATOM     89  C   UNL A   1      34.563  34.334  29.694  1.00  0.00     0.060 A 
BRANCH  89  90
ATOM     90  S   UNL A   1      33.222  35.220  28.870  1.00  0.00     0.124 S 
ATOM     91  O   UNL A   1      32.684  34.188  27.992  1.00  0.00    -0.237 OA
ATOM     92  O   UNL A   1      32.375  35.610  29.993  1.00  0.00    -0.237 OA
ATOM     93  O   UNL A   1      33.911  36.321  28.203  1.00  0.00    -0.744 OA
ENDBRANCH  89  90
ENDBRANCH  57  82
BRANCH  69  94
ATOM     94  C   UNL A   1      39.927  34.157  37.069  1.00  0.00     0.058 A 
ATOM     95  C   UNL A   1      39.194  33.950  38.247  1.00  0.00     0.135 A 
ATOM     96  C   UNL A   1      40.530  35.412  36.883  1.00  0.00     0.135 A 
ATOM     97  F   UNL A   1      38.595  32.768  38.472  1.00  0.00    -0.206 F 
ATOM     98  C   UNL A   1      39.023  34.963  39.184  1.00  0.00     0.059 A 
ATOM     99  C   UNL A   1      40.396  36.431  37.820  1.00  0.00     0.059 A 
ATOM    100  F   UNL A   1      41.257  35.657  35.781  1.00  0.00    -0.206 F 
ATOM    101  C   UNL A   1      39.620  36.204  38.957  1.00  0.00     0.060 A 
BRANCH 101 102
ATOM    102  S   UNL A   1      39.380  37.520  40.169  1.00  0.00     0.124 S 
ATOM    103  O   UNL A   1      38.744  36.796  41.265  1.00  0.00    -0.237 OA
ATOM    104  O   UNL A   1      40.746  37.974  40.417  1.00  0.00    -0.237 OA
ATOM    105  O   UNL A   1      38.528  38.475  39.467  1.00  0.00    -0.744 OA
ENDBRANCH 101 102
ENDBRANCH  69  94
ENDBRANCH  43  44
ENDBRANCH  36  38
ENDBRANCH  35  36
ENDBRANCH  34  35
ENDBRANCH  33  34
ENDBRANCH  32  33
ENDBRANCH   1  32
TORSDOF 23
ENDMDL
MODEL 3
REMARK VINA RESULT:     -10.3      5.878      9.052
REMARK SMILES CCc1ccnc(C(=O)c2[nH]c3ccc(OC(F)(F)F)cc3c2CC(=O)OCCOCCOC(=O)c2ccc(-c3c4nc(c(-c5c(F)cc(S(=O)(=O)[O-])cc5F)c5ccc([nH]5)c(-c5c(F)cc(S(=O)(=O)[O-])cc5F)c5nc(c(-c6c(F)cc(S(=O)(=O)[O-])cc6F)c6ccc3[nH]6)C=C5)C=C4)cc2)c1
REMARK SMILES IDX 29 1 28 2 27 3 25 4 26 5 24 6 23 7 10 8 11 9 12 10 22 12
REMARK SMILES IDX 13 13 21 14 14 15 15 16 8 17 9 18 7 19 3 20 4 21 102 22 5 23
REMARK SMILES IDX 6 24 2 25 1 26 16 27 17 28 18 29 19 30 20 31 30 32 31 33
REMARK SMILES IDX 32 34 33 35 34 36 35 37 36 38 37 39 101 40 38 41 100 42
REMARK SMILES IDX 39 43 40 44 41 45 94 46 42 47 99 48 93 49 95 50 43 51 98 52
REMARK SMILES IDX 92 53 91 54 44 56 78 57 57 58 77 59 58 60 61 61 76 62 96 63
REMARK SMILES IDX 59 64 60 65 75 67 97 68 62 69 45 70 46 71 55 72 47 73 48 74
REMARK SMILES IDX 54 75 56 76 49 77 50 78 51 79 52 80 53 81 79 82 80 83 89 84
REMARK SMILES IDX 81 85 82 86 88 87 90 88 83 89 84 90 85 91 86 92 87 93 63 94
REMARK SMILES IDX 64 95 73 96 65 97 66 98 72 99 74 100 67 101 68 102 69 103
REMARK SMILES IDX 70 104 71 105
REMARK H PARENT 11 11 95 55 61 66
REMARK Flexibility Score: inf
ROOT
ATOM      1  C   UNL A   1      38.530  22.091  25.692  1.00  0.00     0.202 C 
ENDROOT
BRANCH   1   2
ATOM      2  C   UNL A   1      37.068  22.555  25.699  1.00  0.00     0.261 C 
BRANCH   2   3
ATOM      3  O   UNL A   1      36.872  23.736  24.886  1.00  0.00    -0.463 OA
BRANCH   3   4
ATOM      4  C   UNL A   1      36.337  23.516  23.656  1.00  0.00     0.310 C 
ATOM      5  O   UNL A   1      36.898  22.876  22.767  1.00  0.00    -0.252 OA
BRANCH   4   6
ATOM      6  C   UNL A   1      35.008  24.191  23.399  1.00  0.00     0.161 C 
BRANCH   6   7
ATOM      7  C   UNL A   1      33.791  23.713  24.149  1.00  0.00     0.000 A 
ATOM      8  C   UNL A   1      32.919  24.479  24.928  1.00  0.00     0.093 A 
ATOM      9  N   UNL A   1      31.940  23.617  25.382  1.00  0.00    -0.352 N 
ATOM     10  C   UNL A   1      32.328  22.311  25.198  1.00  0.00     0.046 A 
ATOM     11  H   UNL A   1      31.086  23.898  25.783  1.00  0.00     0.167 HD
ATOM     12  C   UNL A   1      33.465  22.339  24.398  1.00  0.00     0.008 A 
ATOM     13  C   UNL A   1      31.770  21.119  25.676  1.00  0.00     0.030 A 
ATOM     14  C   UNL A   1      34.080  21.113  24.069  1.00  0.00     0.057 A 
ATOM     15  C   UNL A   1      32.433  19.919  25.376  1.00  0.00     0.049 A 
ATOM     16  C   UNL A   1      33.587  19.911  24.596  1.00  0.00     0.130 A 
BRANCH   8  17
ATOM     17  C   UNL A   1      32.998  25.909  25.211  1.00  0.00     0.227 C 
ATOM     18  O   UNL A   1      33.409  26.337  26.288  1.00  0.00    -0.285 OA
BRANCH  17  19
ATOM     19  C   UNL A   1      32.494  26.911  24.218  1.00  0.00     0.113 A 
ATOM     20  C   UNL A   1      30.700  28.168  23.220  1.00  0.00    -0.044 A 
ATOM     21  C   UNL A   1      31.680  28.961  22.610  1.00  0.00     0.024 A 
ATOM     22  C   UNL A   1      31.126  27.122  24.045  1.00  0.00     0.036 A 
ATOM     23  C   UNL A   1      33.019  28.676  22.831  1.00  0.00     0.112 A 
ATOM     24  N   UNL A   1      33.446  27.665  23.612  1.00  0.00    -0.253 NA
BRANCH  20  25
ATOM     25  C   UNL A   1      29.248  28.518  22.990  1.00  0.00     0.032 C 
ATOM     26  C   UNL A   1      28.218  27.527  23.515  1.00  0.00     0.009 C 
ENDBRANCH  20  25
ENDBRANCH  17  19
ENDBRANCH   8  17
BRANCH  16  27
ATOM     27  O   UNL A   1      34.339  18.816  24.273  1.00  0.00    -0.406 OA
BRANCH  27  28
ATOM     28  C   UNL A   1      33.653  17.610  23.984  1.00  0.00     0.573 C 
ATOM     29  F   UNL A   1      34.515  16.609  23.698  1.00  0.00    -0.132 F 
ATOM     30  F   UNL A   1      32.864  17.242  25.013  1.00  0.00    -0.132 F 
ATOM     31  F   UNL A   1      32.872  17.804  22.898  1.00  0.00    -0.132 F 
ENDBRANCH  27  28
ENDBRANCH  16  27
ENDBRANCH   6   7
ENDBRANCH   4   6
ENDBRANCH   3   4
ENDBRANCH   2   3
ENDBRANCH   1   2
BRANCH   1  32
ATOM     32  O   UNL A   1      39.345  22.574  26.766  1.00  0.00    -0.374 OA
BRANCH  32  33
ATOM     33  C   UNL A   1      40.624  21.959  26.907  1.00  0.00     0.202 C 
BRANCH  33  34
ATOM     34  C   UNL A   1      41.813  22.784  26.402  1.00  0.00     0.261 C 
BRANCH  34  35
ATOM     35  O   UNL A   1      41.503  24.184  26.313  1.00  0.00    -0.460 OA
BRANCH  35  36
ATOM     36  C   UNL A   1      42.429  24.986  26.889  1.00  0.00     0.338 C 
ATOM     37  O   UNL A   1      43.631  25.015  26.650  1.00  0.00    -0.246 OA
BRANCH  36  38
ATOM     38  C   UNL A   1      41.791  25.973  27.775  1.00  0.00     0.060 A 
ATOM     39  C   UNL A   1      42.519  27.139  28.040  1.00  0.00     0.016 A 
ATOM     40  C   UNL A   1      40.563  25.743  28.403  1.00  0.00     0.016 A 
ATOM     41  C   UNL A   1      42.062  28.039  28.994  1.00  0.00     0.010 A 
ATOM     42  C   UNL A   1      40.104  26.653  29.365  1.00  0.00     0.010 A 
ATOM     43  C   UNL A   1      40.877  27.779  29.697  1.00  0.00    -0.014 A 
BRANCH  43  44
ATOM     44  C   UNL A   1      40.560  28.640  30.863  1.00  0.00     0.031 A 
ATOM     45  C   UNL A   1      41.406  28.536  32.102  1.00  0.00     0.074 A 
ATOM     46  C   UNL A   1      39.608  29.585  30.762  1.00  0.00     0.049 A 
ATOM     47  N   UNL A   1      41.422  29.304  33.161  1.00  0.00    -0.248 NA
ATOM     48  C   UNL A   1      42.367  27.422  32.154  1.00  0.00     0.031 C 
ATOM     49  C   UNL A   1      38.737  29.781  29.603  1.00  0.00     0.029 A 
ATOM     50  N   UNL A   1      39.235  30.574  31.634  1.00  0.00    -0.354 N 
ATOM     51  C   UNL A   1      42.402  28.779  33.998  1.00  0.00     0.074 A 
ATOM     52  C   UNL A   1      42.927  27.599  33.343  1.00  0.00     0.031 C 
ATOM     53  C   UNL A   1      37.943  30.841  29.828  1.00  0.00     0.029 A 
ATOM     54  C   UNL A   1      38.245  31.394  31.146  1.00  0.00     0.049 A 
ATOM     55  H   UNL A   1      39.637  30.686  32.526  1.00  0.00     0.167 HD
ATOM     56  C   UNL A   1      42.836  29.247  35.192  1.00  0.00     0.037 A 
ATOM     57  C   UNL A   1      37.664  32.478  31.695  1.00  0.00     0.037 A 
ATOM     58  C   UNL A   1      42.302  30.420  35.837  1.00  0.00     0.049 A 
ATOM     59  C   UNL A   1      38.154  32.972  33.030  1.00  0.00     0.074 A 
ATOM     60  C   UNL A   1      42.670  30.985  37.046  1.00  0.00     0.029 A 
ATOM     61  N   UNL A   1      41.279  31.206  35.325  1.00  0.00    -0.354 N 
ATOM     62  N   UNL A   1      39.105  32.485  33.792  1.00  0.00    -0.248 NA
ATOM     63  C   UNL A   1      37.507  34.176  33.570  1.00  0.00     0.031 C 
ATOM     64  C   UNL A   1      41.844  32.090  37.282  1.00  0.00     0.029 A 
ATOM     65  C   UNL A   1      40.993  32.242  36.199  1.00  0.00     0.049 A 
ATOM     66  H   UNL A   1      40.824  31.051  34.466  1.00  0.00     0.167 HD
ATOM     67  C   UNL A   1      39.185  33.334  34.890  1.00  0.00     0.074 A 
ATOM     68  C   UNL A   1      38.198  34.376  34.682  1.00  0.00     0.031 C 
ATOM     69  C   UNL A   1      40.000  33.262  35.975  1.00  0.00     0.037 A 
BRANCH  56  70
ATOM     70  C   UNL A   1      43.929  28.478  35.885  1.00  0.00     0.058 A 
ATOM     71  C   UNL A   1      43.643  27.426  36.770  1.00  0.00     0.135 A 
ATOM     72  C   UNL A   1      45.278  28.783  35.646  1.00  0.00     0.135 A 
ATOM     73  F   UNL A   1      42.370  27.103  37.048  1.00  0.00    -0.206 F 
ATOM     74  C   UNL A   1      44.655  26.721  37.415  1.00  0.00     0.059 A 
ATOM     75  C   UNL A   1      46.308  28.075  36.261  1.00  0.00     0.059 A 
ATOM     76  F   UNL A   1      45.608  29.781  34.812  1.00  0.00    -0.206 F 
ATOM     77  C   UNL A   1      45.986  27.056  37.157  1.00  0.00     0.060 A 
BRANCH  77  78
ATOM     78  S   UNL A   1      47.291  26.138  38.003  1.00  0.00     0.124 S 
ATOM     79  O   UNL A   1      46.977  26.410  39.403  1.00  0.00    -0.237 OA
ATOM     80  O   UNL A   1      47.054  24.770  37.553  1.00  0.00    -0.237 OA
ATOM     81  O   UNL A   1      48.517  26.754  37.505  1.00  0.00    -0.744 OA
ENDBRANCH  77  78
ENDBRANCH  56  70
BRANCH  57  82
ATOM     82  C   UNL A   1      36.574  33.182  30.967  1.00  0.00     0.058 A 
ATOM     83  C   UNL A   1      36.842  34.001  29.862  1.00  0.00     0.135 A 
ATOM     84  C   UNL A   1      35.234  33.032  31.359  1.00  0.00     0.135 A 
ATOM     85  F   UNL A   1      38.108  34.182  29.453  1.00  0.00    -0.206 F 
ATOM     86  C   UNL A   1      35.825  34.659  29.178  1.00  0.00     0.059 A 
ATOM     87  C   UNL A   1      34.197  33.659  30.676  1.00  0.00     0.059 A 
ATOM     88  F   UNL A   1      34.923  32.247  32.403  1.00  0.00    -0.206 F 
ATOM     89  C   UNL A   1      34.503  34.479  29.592  1.00  0.00     0.060 A 
BRANCH  89  90
ATOM     90  S   UNL A   1      33.182  35.289  28.664  1.00  0.00     0.124 S 
ATOM     91  O   UNL A   1      32.434  35.945  29.730  1.00  0.00    -0.237 OA
ATOM     92  O   UNL A   1      33.928  36.170  27.770  1.00  0.00    -0.237 OA
ATOM     93  O   UNL A   1      32.503  34.175  28.009  1.00  0.00    -0.744 OA
ENDBRANCH  89  90
ENDBRANCH  57  82
BRANCH  69  94
ATOM     94  C   UNL A   1      39.864  34.354  37.001  1.00  0.00     0.058 A 
ATOM     95  C   UNL A   1      40.552  35.570  36.877  1.00  0.00     0.135 A 
ATOM     96  C   UNL A   1      39.032  34.179  38.118  1.00  0.00     0.135 A 
ATOM     97  F   UNL A   1      41.362  35.786  35.827  1.00  0.00    -0.206 F 
ATOM     98  C   UNL A   1      40.458  36.560  37.850  1.00  0.00     0.059 A 
ATOM     99  C   UNL A   1      38.901  35.166  39.089  1.00  0.00     0.059 A 
ATOM    100  F   UNL A   1      38.339  33.041  38.275  1.00  0.00    -0.206 F 
ATOM    101  C   UNL A   1      39.636  36.344  38.958  1.00  0.00     0.060 A 
BRANCH 101 102
ATOM    102  S   UNL A   1      39.532  37.625  40.226  1.00  0.00     0.124 S 
ATOM    103  O   UNL A   1      39.044  36.864  41.371  1.00  0.00    -0.237 OA
ATOM    104  O   UNL A   1      40.912  38.092  40.317  1.00  0.00    -0.237 OA
ATOM    105  O   UNL A   1      38.590  38.586  39.660  1.00  0.00    -0.744 OA
ENDBRANCH 101 102
ENDBRANCH  69  94
ENDBRANCH  43  44
ENDBRANCH  36  38
ENDBRANCH  35  36
ENDBRANCH  34  35
ENDBRANCH  33  34
ENDBRANCH  32  33
ENDBRANCH   1  32
TORSDOF 23
ENDMDL
