MODEL 1
REMARK VINA RESULT:      -9.9      0.000      0.000
REMARK SMILES CS(=O)(=O)CC(=O)N1CCO[C@@H](CC(=O)OCCOCCOC(=O)c2ccc(-c3c4nc(c(-c5c(F)cc(S(=O)(=O)[O-])cc5F)c5ccc([nH]5)c(-c5c(F)cc(S(=O)(=O)[O-])cc5F)c5nc(c(-c6c(F)cc(S(=O)(=O)[O-])cc6F)c6ccc3[nH]6)C=C5)C=C4)cc2)C1
REMARK SMILES IDX 18 1 17 2 16 3 14 4 15 5 13 6 12 7 8 8 9 9 91 10 10 11 11 12
REMARK SMILES IDX 6 13 7 14 5 15 2 16 1 17 3 18 4 19 19 20 20 21 21 22 22 23
REMARK SMILES IDX 23 24 24 25 25 26 26 27 90 28 27 29 89 30 28 31 29 32 30 33
REMARK SMILES IDX 83 34 31 35 88 36 82 37 84 38 32 39 87 40 81 41 80 42 33 44
REMARK SMILES IDX 67 45 46 46 66 47 47 48 50 49 65 50 85 51 48 52 49 53 64 55
REMARK SMILES IDX 86 56 51 57 34 58 35 59 44 60 36 61 37 62 43 63 45 64 38 65
REMARK SMILES IDX 39 66 40 67 41 68 42 69 68 70 69 71 78 72 70 73 71 74 77 75
REMARK SMILES IDX 79 76 72 77 73 78 74 79 75 80 76 81 52 82 53 83 62 84 54 85
REMARK SMILES IDX 55 86 61 87 63 88 56 89 57 90 58 91 59 92 60 93
REMARK H PARENT 84 43 50 54
REMARK Flexibility Score: inf
ROOT
ATOM      1  C   UNL A   1      40.521  22.488  26.407  1.00  0.00     0.202 C 
ENDROOT
BRANCH   1   2
ATOM      2  C   UNL A   1      39.086  22.024  26.154  1.00  0.00     0.261 C 
BRANCH   2   3
ATOM      3  O   UNL A   1      38.193  23.147  26.010  1.00  0.00    -0.463 OA
BRANCH   3   4
ATOM      4  C   UNL A   1      37.138  22.964  25.177  1.00  0.00     0.308 C 
ATOM      5  O   UNL A   1      36.968  23.549  24.115  1.00  0.00    -0.252 OA
BRANCH   4   6
ATOM      6  C   UNL A   1      36.145  21.985  25.733  1.00  0.00     0.156 C 
BRANCH   6   7
ATOM      7  C   UNL A   1      35.050  21.492  24.787  1.00  0.00     0.148 C 
ATOM      8  N   UNL A   1      33.190  19.882  24.467  1.00  0.00    -0.337 N 
ATOM      9  C   UNL A   1      32.248  20.976  24.639  1.00  0.00     0.148 C 
ATOM     10  C   UNL A   1      34.459  20.101  25.173  1.00  0.00     0.152 C 
ATOM     11  C   UNL A   1      32.868  22.238  24.076  1.00  0.00     0.182 C 
ATOM     12  O   UNL A   1      34.047  22.546  24.826  1.00  0.00    -0.374 OA
BRANCH   8  13
ATOM     13  C   UNL A   1      32.799  18.635  24.026  1.00  0.00     0.237 C 
ATOM     14  O   UNL A   1      32.259  18.471  22.935  1.00  0.00    -0.274 OA
BRANCH  13  15
ATOM     15  C   UNL A   1      32.863  17.518  25.030  1.00  0.00     0.236 C 
BRANCH  15  16
ATOM     16  S   UNL A   1      33.718  16.066  24.510  1.00  0.00     0.156 S 
ATOM     17  C   UNL A   1      35.288  16.070  25.346  1.00  0.00     0.158 C 
ATOM     18  O   UNL A   1      33.978  16.204  23.089  1.00  0.00    -0.229 OA
ATOM     19  O   UNL A   1      32.966  14.912  24.973  1.00  0.00    -0.229 OA
ENDBRANCH  15  16
ENDBRANCH  13  15
ENDBRANCH   8  13
ENDBRANCH   6   7
ENDBRANCH   4   6
ENDBRANCH   3   4
ENDBRANCH   2   3
ENDBRANCH   1   2
BRANCH   1  20
ATOM     20  O   UNL A   1      41.546  21.663  25.856  1.00  0.00    -0.374 OA
BRANCH  20  21
ATOM     21  C   UNL A   1      42.734  21.507  26.628  1.00  0.00     0.202 C 
BRANCH  21  22
ATOM     22  C   UNL A   1      43.805  22.593  26.455  1.00  0.00     0.261 C 
BRANCH  22  23
ATOM     23  O   UNL A   1      43.560  23.740  27.290  1.00  0.00    -0.460 OA
BRANCH  23  24
ATOM     24  C   UNL A   1      43.166  24.850  26.618  1.00  0.00     0.338 C 
ATOM     25  O   UNL A   1      43.157  25.004  25.401  1.00  0.00    -0.246 OA
BRANCH  24  26
ATOM     26  C   UNL A   1      42.560  25.826  27.544  1.00  0.00     0.060 A 
ATOM     27  C   UNL A   1      43.061  27.133  27.537  1.00  0.00     0.016 A 
ATOM     28  C   UNL A   1      41.557  25.464  28.442  1.00  0.00     0.016 A 
ATOM     29  C   UNL A   1      42.594  28.066  28.462  1.00  0.00     0.010 A 
ATOM     30  C   UNL A   1      41.079  26.403  29.363  1.00  0.00     0.010 A 
ATOM     31  C   UNL A   1      41.626  27.697  29.407  1.00  0.00    -0.014 A 
BRANCH  31  32
ATOM     32  C   UNL A   1      41.311  28.609  30.537  1.00  0.00     0.031 A 
ATOM     33  C   UNL A   1      42.160  28.544  31.781  1.00  0.00     0.074 A 
ATOM     34  C   UNL A   1      40.317  29.511  30.445  1.00  0.00     0.049 A 
ATOM     35  N   UNL A   1      42.059  29.230  32.891  1.00  0.00    -0.248 NA
ATOM     36  C   UNL A   1      43.267  27.574  31.773  1.00  0.00     0.031 C 
ATOM     37  C   UNL A   1      39.444  29.693  29.285  1.00  0.00     0.029 A 
ATOM     38  N   UNL A   1      39.876  30.449  31.346  1.00  0.00    -0.354 N 
ATOM     39  C   UNL A   1      43.087  28.775  33.711  1.00  0.00     0.074 A 
ATOM     40  C   UNL A   1      43.771  27.724  32.989  1.00  0.00     0.031 C 
ATOM     41  C   UNL A   1      38.573  30.685  29.546  1.00  0.00     0.029 A 
ATOM     42  C   UNL A   1      38.807  31.188  30.898  1.00  0.00     0.049 A 
ATOM     43  H   UNL A   1      40.287  30.579  32.230  1.00  0.00     0.167 HD
ATOM     44  C   UNL A   1      43.444  29.207  34.944  1.00  0.00     0.037 A 
ATOM     45  C   UNL A   1      38.093  32.152  31.513  1.00  0.00     0.037 A 
ATOM     46  C   UNL A   1      42.769  30.258  35.658  1.00  0.00     0.049 A 
ATOM     47  C   UNL A   1      38.469  32.570  32.913  1.00  0.00     0.074 A 
ATOM     48  C   UNL A   1      43.055  30.770  36.911  1.00  0.00     0.029 A 
ATOM     49  N   UNL A   1      41.675  30.965  35.179  1.00  0.00    -0.354 N 
ATOM     50  N   UNL A   1      39.451  32.139  33.669  1.00  0.00    -0.248 NA
ATOM     51  C   UNL A   1      37.642  33.611  33.542  1.00  0.00     0.031 C 
ATOM     52  C   UNL A   1      42.111  31.758  37.208  1.00  0.00     0.029 A 
ATOM     53  C   UNL A   1      41.266  31.897  36.118  1.00  0.00     0.049 A 
ATOM     54  H   UNL A   1      41.252  30.824  34.301  1.00  0.00     0.167 HD
ATOM     55  C   UNL A   1      39.379  32.879  34.845  1.00  0.00     0.074 A 
ATOM     56  C   UNL A   1      38.265  33.791  34.698  1.00  0.00     0.031 C 
ATOM     57  C   UNL A   1      40.166  32.812  35.948  1.00  0.00     0.037 A 
BRANCH  44  58
ATOM     58  C   UNL A   1      44.617  28.537  35.604  1.00  0.00     0.058 A 
ATOM     59  C   UNL A   1      44.453  27.402  36.415  1.00  0.00     0.135 A 
ATOM     60  C   UNL A   1      45.923  29.006  35.392  1.00  0.00     0.135 A 
ATOM     61  F   UNL A   1      43.224  26.923  36.668  1.00  0.00    -0.206 F 
ATOM     62  C   UNL A   1      45.540  26.770  37.009  1.00  0.00     0.059 A 
ATOM     63  C   UNL A   1      47.028  28.373  35.954  1.00  0.00     0.059 A 
ATOM     64  F   UNL A   1      46.135  30.089  34.626  1.00  0.00    -0.206 F 
ATOM     65  C   UNL A   1      46.824  27.262  36.771  1.00  0.00     0.060 A 
BRANCH  65  66
ATOM     66  S   UNL A   1      48.225  26.420  37.538  1.00  0.00     0.124 S 
ATOM     67  O   UNL A   1      48.521  27.309  38.657  1.00  0.00    -0.237 OA
ATOM     68  O   UNL A   1      47.654  25.124  37.892  1.00  0.00    -0.237 OA
ATOM     69  O   UNL A   1      49.226  26.393  36.477  1.00  0.00    -0.744 OA
ENDBRANCH  65  66
ENDBRANCH  44  58
BRANCH  45  70
ATOM     70  C   UNL A   1      36.942  32.794  30.822  1.00  0.00     0.058 A 
ATOM     71  C   UNL A   1      35.636  32.308  30.985  1.00  0.00     0.135 A 
ATOM     72  C   UNL A   1      37.129  33.885  29.959  1.00  0.00     0.135 A 
ATOM     73  F   UNL A   1      35.407  31.260  31.791  1.00  0.00    -0.206 F 
ATOM     74  C   UNL A   1      34.561  32.861  30.298  1.00  0.00     0.059 A 
ATOM     75  C   UNL A   1      36.065  34.473  29.282  1.00  0.00     0.059 A 
ATOM     76  F   UNL A   1      38.356  34.396  29.776  1.00  0.00    -0.206 F 
ATOM     77  C   UNL A   1      34.785  33.943  29.446  1.00  0.00     0.060 A 
BRANCH  77  78
ATOM     78  S   UNL A   1      33.381  34.670  28.574  1.00  0.00     0.124 S 
ATOM     79  O   UNL A   1      34.023  35.752  27.836  1.00  0.00    -0.237 OA
ATOM     80  O   UNL A   1      32.901  33.547  27.775  1.00  0.00    -0.237 OA
ATOM     81  O   UNL A   1      32.493  35.083  29.656  1.00  0.00    -0.744 OA
ENDBRANCH  77  78
ENDBRANCH  45  70
BRANCH  57  82
ATOM     82  C   UNL A   1      39.886  33.782  37.065  1.00  0.00     0.058 A 
ATOM     83  C   UNL A   1      39.043  33.453  38.137  1.00  0.00     0.135 A 
ATOM     84  C   UNL A   1      40.512  35.039  37.084  1.00  0.00     0.135 A 
ATOM     85  F   UNL A   1      38.417  32.265  38.165  1.00  0.00    -0.206 F 
ATOM     86  C   UNL A   1      38.810  34.347  39.178  1.00  0.00     0.059 A 
ATOM     87  C   UNL A   1      40.315  35.937  38.129  1.00  0.00     0.059 A 
ATOM     88  F   UNL A   1      41.337  35.399  36.089  1.00  0.00    -0.206 F 
ATOM     89  C   UNL A   1      39.451  35.587  39.165  1.00  0.00     0.060 A 
BRANCH  89  90
ATOM     90  S   UNL A   1      39.163  36.725  40.537  1.00  0.00     0.124 S 
ATOM     91  O   UNL A   1      38.537  37.853  39.856  1.00  0.00    -0.237 OA
ATOM     92  O   UNL A   1      38.290  35.948  41.411  1.00  0.00    -0.237 OA
ATOM     93  O   UNL A   1      40.504  36.973  41.059  1.00  0.00    -0.744 OA
ENDBRANCH  89  90
ENDBRANCH  57  82
ENDBRANCH  31  32
ENDBRANCH  24  26
ENDBRANCH  23  24
ENDBRANCH  22  23
ENDBRANCH  21  22
ENDBRANCH  20  21
ENDBRANCH   1  20
TORSDOF 21
ENDMDL
MODEL 2
REMARK VINA RESULT:      -9.9      5.079     10.190
REMARK SMILES CS(=O)(=O)CC(=O)N1CCO[C@@H](CC(=O)OCCOCCOC(=O)c2ccc(-c3c4nc(c(-c5c(F)cc(S(=O)(=O)[O-])cc5F)c5ccc([nH]5)c(-c5c(F)cc(S(=O)(=O)[O-])cc5F)c5nc(c(-c6c(F)cc(S(=O)(=O)[O-])cc6F)c6ccc3[nH]6)C=C5)C=C4)cc2)C1
REMARK SMILES IDX 18 1 17 2 16 3 14 4 15 5 13 6 12 7 8 8 9 9 91 10 10 11 11 12
REMARK SMILES IDX 6 13 7 14 5 15 2 16 1 17 3 18 4 19 19 20 20 21 21 22 22 23
REMARK SMILES IDX 23 24 24 25 25 26 26 27 90 28 27 29 89 30 28 31 29 32 30 33
REMARK SMILES IDX 83 34 31 35 88 36 82 37 84 38 32 39 87 40 81 41 80 42 33 44
REMARK SMILES IDX 67 45 46 46 66 47 47 48 50 49 65 50 85 51 48 52 49 53 64 55
REMARK SMILES IDX 86 56 51 57 34 58 35 59 44 60 36 61 37 62 43 63 45 64 38 65
REMARK SMILES IDX 39 66 40 67 41 68 42 69 68 70 69 71 78 72 70 73 71 74 77 75
REMARK SMILES IDX 79 76 72 77 73 78 74 79 75 80 76 81 52 82 53 83 62 84 54 85
REMARK SMILES IDX 55 86 61 87 63 88 56 89 57 90 58 91 59 92 60 93
REMARK H PARENT 84 43 50 54
REMARK Flexibility Score: inf
ROOT
ATOM      1  C   UNL A   1      34.161  28.442  23.705  1.00  0.00     0.202 C 
ENDROOT
BRANCH   1   2
ATOM      2  C   UNL A   1      33.074  27.917  22.766  1.00  0.00     0.261 C 
BRANCH   2   3
ATOM      3  O   UNL A   1      33.632  27.056  21.752  1.00  0.00    -0.463 OA
BRANCH   3   4
ATOM      4  C   UNL A   1      32.986  25.881  21.549  1.00  0.00     0.308 C 
ATOM      5  O   UNL A   1      33.163  25.134  20.596  1.00  0.00    -0.252 OA
BRANCH   4   6
ATOM      6  C   UNL A   1      31.961  25.612  22.613  1.00  0.00     0.156 C 
BRANCH   6   7
ATOM      7  C   UNL A   1      32.240  24.453  23.569  1.00  0.00     0.148 C 
ATOM      8  N   UNL A   1      33.348  23.757  25.677  1.00  0.00    -0.337 N 
ATOM      9  C   UNL A   1      32.041  23.678  26.308  1.00  0.00     0.148 C 
ATOM     10  C   UNL A   1      33.397  24.729  24.578  1.00  0.00     0.152 C 
ATOM     11  C   UNL A   1      31.031  23.239  25.269  1.00  0.00     0.182 C 
ATOM     12  O   UNL A   1      30.967  24.231  24.239  1.00  0.00    -0.374 OA
BRANCH   8  13
ATOM     13  C   UNL A   1      34.489  23.272  26.282  1.00  0.00     0.237 C 
ATOM     14  O   UNL A   1      34.474  22.801  27.416  1.00  0.00    -0.274 OA
BRANCH  13  15
ATOM     15  C   UNL A   1      35.789  23.545  25.578  1.00  0.00     0.236 C 
BRANCH  15  16
ATOM     16  S   UNL A   1      36.417  22.227  24.587  1.00  0.00     0.156 S 
ATOM     17  C   UNL A   1      37.964  21.735  25.313  1.00  0.00     0.158 C 
ATOM     18  O   UNL A   1      36.703  22.772  23.274  1.00  0.00    -0.229 OA
ATOM     19  O   UNL A   1      35.496  21.108  24.693  1.00  0.00    -0.229 OA
ENDBRANCH  15  16
ENDBRANCH  13  15
ENDBRANCH   8  13
ENDBRANCH   6   7
ENDBRANCH   4   6
ENDBRANCH   3   4
ENDBRANCH   2   3
ENDBRANCH   1   2
BRANCH   1  20
ATOM     20  O   UNL A   1      33.786  28.577  25.075  1.00  0.00    -0.374 OA
BRANCH  20  21
ATOM     21  C   UNL A   1      32.876  29.626  25.395  1.00  0.00     0.202 C 
BRANCH  21  22
ATOM     22  C   UNL A   1      32.857  30.087  26.859  1.00  0.00     0.261 C 
BRANCH  22  23
ATOM     23  O   UNL A   1      33.940  29.525  27.622  1.00  0.00    -0.460 OA
BRANCH  23  24
ATOM     24  C   UNL A   1      34.759  30.441  28.196  1.00  0.00     0.338 C 
ATOM     25  O   UNL A   1      34.423  31.511  28.695  1.00  0.00    -0.246 OA
BRANCH  24  26
ATOM     26  C   UNL A   1      36.129  29.908  28.316  1.00  0.00     0.060 A 
ATOM     27  C   UNL A   1      36.539  29.433  29.567  1.00  0.00     0.016 A 
ATOM     28  C   UNL A   1      37.020  29.920  27.243  1.00  0.00     0.016 A 
ATOM     29  C   UNL A   1      37.855  29.013  29.759  1.00  0.00     0.010 A 
ATOM     30  C   UNL A   1      38.337  29.489  27.432  1.00  0.00     0.010 A 
ATOM     31  C   UNL A   1      38.774  29.074  28.702  1.00  0.00    -0.014 A 
BRANCH  31  32
ATOM     32  C   UNL A   1      40.221  28.863  28.968  1.00  0.00     0.031 A 
ATOM     33  C   UNL A   1      40.835  27.529  28.629  1.00  0.00     0.074 A 
ATOM     34  C   UNL A   1      40.988  29.853  29.461  1.00  0.00     0.049 A 
ATOM     35  N   UNL A   1      42.067  27.118  28.788  1.00  0.00    -0.248 NA
ATOM     36  C   UNL A   1      39.939  26.524  28.034  1.00  0.00     0.031 C 
ATOM     37  C   UNL A   1      40.520  31.196  29.803  1.00  0.00     0.029 A 
ATOM     38  N   UNL A   1      42.328  29.880  29.758  1.00  0.00    -0.354 N 
ATOM     39  C   UNL A   1      42.093  25.810  28.315  1.00  0.00     0.074 A 
ATOM     40  C   UNL A   1      40.746  25.481  27.904  1.00  0.00     0.031 C 
ATOM     41  C   UNL A   1      41.559  31.917  30.260  1.00  0.00     0.029 A 
ATOM     42  C   UNL A   1      42.758  31.081  30.271  1.00  0.00     0.049 A 
ATOM     43  H   UNL A   1      42.926  29.111  29.616  1.00  0.00     0.167 HD
ATOM     44  C   UNL A   1      43.147  24.966  28.210  1.00  0.00     0.037 A 
ATOM     45  C   UNL A   1      43.976  31.457  30.710  1.00  0.00     0.037 A 
ATOM     46  C   UNL A   1      44.489  25.296  28.611  1.00  0.00     0.049 A 
ATOM     47  C   UNL A   1      45.120  30.476  30.644  1.00  0.00     0.074 A 
ATOM     48  C   UNL A   1      45.626  24.510  28.543  1.00  0.00     0.029 A 
ATOM     49  N   UNL A   1      44.877  26.515  29.149  1.00  0.00    -0.354 N 
ATOM     50  N   UNL A   1      45.131  29.248  30.182  1.00  0.00    -0.248 NA
ATOM     51  C   UNL A   1      46.420  30.935  31.156  1.00  0.00     0.031 C 
ATOM     52  C   UNL A   1      46.694  25.238  29.077  1.00  0.00     0.029 A 
ATOM     53  C   UNL A   1      46.233  26.496  29.431  1.00  0.00     0.049 A 
ATOM     54  H   UNL A   1      44.278  27.279  29.307  1.00  0.00     0.167 HD
ATOM     55  C   UNL A   1      46.443  28.803  30.315  1.00  0.00     0.074 A 
ATOM     56  C   UNL A   1      47.198  29.894  30.892  1.00  0.00     0.031 C 
ATOM     57  C   UNL A   1      46.975  27.599  29.988  1.00  0.00     0.037 A 
BRANCH  44  58
ATOM     58  C   UNL A   1      42.889  23.597  27.644  1.00  0.00     0.058 A 
ATOM     59  C   UNL A   1      43.067  23.323  26.278  1.00  0.00     0.135 A 
ATOM     60  C   UNL A   1      42.501  22.538  28.479  1.00  0.00     0.135 A 
ATOM     61  F   UNL A   1      43.417  24.304  25.431  1.00  0.00    -0.206 F 
ATOM     62  C   UNL A   1      42.848  22.052  25.757  1.00  0.00     0.059 A 
ATOM     63  C   UNL A   1      42.303  21.252  27.985  1.00  0.00     0.059 A 
ATOM     64  F   UNL A   1      42.316  22.746  29.792  1.00  0.00    -0.206 F 
ATOM     65  C   UNL A   1      42.468  21.022  26.619  1.00  0.00     0.060 A 
BRANCH  65  66
ATOM     66  S   UNL A   1      42.204  19.374  25.930  1.00  0.00     0.124 S 
ATOM     67  O   UNL A   1      40.759  19.374  25.723  1.00  0.00    -0.237 OA
ATOM     68  O   UNL A   1      43.017  19.410  24.717  1.00  0.00    -0.237 OA
ATOM     69  O   UNL A   1      42.688  18.485  26.979  1.00  0.00    -0.744 OA
ENDBRANCH  65  66
ENDBRANCH  44  58
BRANCH  45  70
ATOM     70  C   UNL A   1      44.189  32.824  31.258  1.00  0.00     0.058 A 
ATOM     71  C   UNL A   1      43.968  33.103  32.615  1.00  0.00     0.135 A 
ATOM     72  C   UNL A   1      44.588  33.885  30.431  1.00  0.00     0.135 A 
ATOM     73  F   UNL A   1      43.575  32.124  33.445  1.00  0.00    -0.206 F 
ATOM     74  C   UNL A   1      44.106  34.389  33.128  1.00  0.00     0.059 A 
ATOM     75  C   UNL A   1      44.760  35.174  30.926  1.00  0.00     0.059 A 
ATOM     76  F   UNL A   1      44.824  33.671  29.128  1.00  0.00    -0.206 F 
ATOM     77  C   UNL A   1      44.500  35.420  32.274  1.00  0.00     0.060 A 
BRANCH  77  78
ATOM     78  S   UNL A   1      44.699  37.082  32.951  1.00  0.00     0.124 S 
ATOM     79  O   UNL A   1      45.308  37.785  31.827  1.00  0.00    -0.237 OA
ATOM     80  O   UNL A   1      43.323  37.451  33.267  1.00  0.00    -0.237 OA
ATOM     81  O   UNL A   1      45.564  36.871  34.108  1.00  0.00    -0.744 OA
ENDBRANCH  77  78
ENDBRANCH  45  70
BRANCH  57  82
ATOM     82  C   UNL A   1      48.454  27.411  30.197  1.00  0.00     0.058 A 
ATOM     83  C   UNL A   1      48.963  26.744  31.322  1.00  0.00     0.135 A 
ATOM     84  C   UNL A   1      49.368  27.860  29.231  1.00  0.00     0.135 A 
ATOM     85  F   UNL A   1      48.132  26.298  32.277  1.00  0.00    -0.206 F 
ATOM     86  C   UNL A   1      50.331  26.552  31.495  1.00  0.00     0.059 A 
ATOM     87  C   UNL A   1      50.738  27.654  29.370  1.00  0.00     0.059 A 
ATOM     88  F   UNL A   1      48.933  28.493  28.130  1.00  0.00    -0.206 F 
ATOM     89  C   UNL A   1      51.211  27.011  30.512  1.00  0.00     0.060 A 
BRANCH  89  90
ATOM     90  S   UNL A   1      52.980  26.729  30.734  1.00  0.00     0.124 S 
ATOM     91  O   UNL A   1      52.985  25.659  31.725  1.00  0.00    -0.237 OA
ATOM     92  O   UNL A   1      53.408  26.351  29.390  1.00  0.00    -0.237 OA
ATOM     93  O   UNL A   1      53.474  28.021  31.202  1.00  0.00    -0.744 OA
ENDBRANCH  89  90
ENDBRANCH  57  82
ENDBRANCH  31  32
ENDBRANCH  24  26
ENDBRANCH  23  24
ENDBRANCH  22  23
ENDBRANCH  21  22
ENDBRANCH  20  21
ENDBRANCH   1  20
TORSDOF 21
ENDMDL
MODEL 3
REMARK VINA RESULT:      -9.7      1.990      8.733
REMARK SMILES CS(=O)(=O)CC(=O)N1CCO[C@@H](CC(=O)OCCOCCOC(=O)c2ccc(-c3c4nc(c(-c5c(F)cc(S(=O)(=O)[O-])cc5F)c5ccc([nH]5)c(-c5c(F)cc(S(=O)(=O)[O-])cc5F)c5nc(c(-c6c(F)cc(S(=O)(=O)[O-])cc6F)c6ccc3[nH]6)C=C5)C=C4)cc2)C1
REMARK SMILES IDX 18 1 17 2 16 3 14 4 15 5 13 6 12 7 8 8 9 9 91 10 10 11 11 12
REMARK SMILES IDX 6 13 7 14 5 15 2 16 1 17 3 18 4 19 19 20 20 21 21 22 22 23
REMARK SMILES IDX 23 24 24 25 25 26 26 27 90 28 27 29 89 30 28 31 29 32 30 33
REMARK SMILES IDX 83 34 31 35 88 36 82 37 84 38 32 39 87 40 81 41 80 42 33 44
REMARK SMILES IDX 67 45 46 46 66 47 47 48 50 49 65 50 85 51 48 52 49 53 64 55
REMARK SMILES IDX 86 56 51 57 34 58 35 59 44 60 36 61 37 62 43 63 45 64 38 65
REMARK SMILES IDX 39 66 40 67 41 68 42 69 68 70 69 71 78 72 70 73 71 74 77 75
REMARK SMILES IDX 79 76 72 77 73 78 74 79 75 80 76 81 52 82 53 83 62 84 54 85
REMARK SMILES IDX 55 86 61 87 63 88 56 89 57 90 58 91 59 92 60 93
REMARK H PARENT 84 43 50 54
REMARK Flexibility Score: inf
ROOT
ATOM      1  C   UNL A   1      39.976  21.394  26.250  1.00  0.00     0.202 C 
ENDROOT
BRANCH   1   2
ATOM      2  C   UNL A   1      38.702  22.223  26.085  1.00  0.00     0.261 C 
BRANCH   2   3
ATOM      3  O   UNL A   1      37.880  21.710  25.018  1.00  0.00    -0.463 OA
BRANCH   3   4
ATOM      4  C   UNL A   1      37.000  22.585  24.472  1.00  0.00     0.308 C 
ATOM      5  O   UNL A   1      36.667  22.609  23.294  1.00  0.00    -0.252 OA
BRANCH   4   6
ATOM      6  C   UNL A   1      36.505  23.585  25.476  1.00  0.00     0.156 C 
BRANCH   6   7
ATOM      7  C   UNL A   1      35.184  23.270  26.178  1.00  0.00     0.148 C 
ATOM      8  N   UNL A   1      32.726  23.600  26.163  1.00  0.00    -0.337 N 
ATOM      9  C   UNL A   1      32.570  22.224  25.721  1.00  0.00     0.148 C 
ATOM     10  C   UNL A   1      34.003  24.194  25.750  1.00  0.00     0.152 C 
ATOM     11  C   UNL A   1      33.676  21.393  26.336  1.00  0.00     0.182 C 
ATOM     12  O   UNL A   1      34.936  21.873  25.854  1.00  0.00    -0.374 OA
BRANCH   8  13
ATOM     13  C   UNL A   1      31.657  24.367  26.575  1.00  0.00     0.237 C 
ATOM     14  O   UNL A   1      30.716  23.889  27.205  1.00  0.00    -0.274 OA
BRANCH  13  15
ATOM     15  C   UNL A   1      31.586  25.767  26.031  1.00  0.00     0.236 C 
BRANCH  15  16
ATOM     16  S   UNL A   1      30.634  25.972  24.560  1.00  0.00     0.156 S 
ATOM     17  C   UNL A   1      31.146  27.511  23.831  1.00  0.00     0.158 C 
ATOM     18  O   UNL A   1      29.247  26.117  24.961  1.00  0.00    -0.229 OA
ATOM     19  O   UNL A   1      30.987  24.901  23.644  1.00  0.00    -0.229 OA
ENDBRANCH  15  16
ENDBRANCH  13  15
ENDBRANCH   8  13
ENDBRANCH   6   7
ENDBRANCH   4   6
ENDBRANCH   3   4
ENDBRANCH   2   3
ENDBRANCH   1   2
BRANCH   1  20
ATOM     20  O   UNL A   1      40.443  21.234  27.589  1.00  0.00    -0.374 OA
BRANCH  20  21
ATOM     21  C   UNL A   1      41.723  21.781  27.896  1.00  0.00     0.202 C 
BRANCH  21  22
ATOM     22  C   UNL A   1      42.423  22.550  26.767  1.00  0.00     0.261 C 
BRANCH  22  23
ATOM     23  O   UNL A   1      43.018  23.776  27.230  1.00  0.00    -0.460 OA
BRANCH  23  24
ATOM     24  C   UNL A   1      42.583  24.890  26.590  1.00  0.00     0.338 C 
ATOM     25  O   UNL A   1      42.438  25.028  25.379  1.00  0.00    -0.246 OA
BRANCH  24  26
ATOM     26  C   UNL A   1      42.117  25.897  27.562  1.00  0.00     0.060 A 
ATOM     27  C   UNL A   1      42.857  27.078  27.687  1.00  0.00     0.016 A 
ATOM     28  C   UNL A   1      41.009  25.673  28.378  1.00  0.00     0.016 A 
ATOM     29  C   UNL A   1      42.519  28.016  28.662  1.00  0.00     0.010 A 
ATOM     30  C   UNL A   1      40.662  26.619  29.349  1.00  0.00     0.010 A 
ATOM     31  C   UNL A   1      41.441  27.775  29.525  1.00  0.00    -0.014 A 
BRANCH  31  32
ATOM     32  C   UNL A   1      41.235  28.648  30.711  1.00  0.00     0.031 A 
ATOM     33  C   UNL A   1      40.135  29.677  30.672  1.00  0.00     0.074 A 
ATOM     34  C   UNL A   1      41.983  28.501  31.820  1.00  0.00     0.049 A 
ATOM     35  N   UNL A   1      39.785  30.552  31.580  1.00  0.00    -0.248 NA
ATOM     36  C   UNL A   1      39.323  29.728  29.446  1.00  0.00     0.031 C 
ATOM     37  C   UNL A   1      43.058  27.523  31.992  1.00  0.00     0.029 A 
ATOM     38  N   UNL A   1      41.947  29.174  33.016  1.00  0.00    -0.354 N 
ATOM     39  C   UNL A   1      38.716  31.256  31.035  1.00  0.00     0.074 A 
ATOM     40  C   UNL A   1      38.503  30.737  29.701  1.00  0.00     0.031 C 
ATOM     41  C   UNL A   1      43.577  27.660  33.226  1.00  0.00     0.029 A 
ATOM     42  C   UNL A   1      42.894  28.750  33.919  1.00  0.00     0.049 A 
ATOM     43  H   UNL A   1      41.304  29.894  33.209  1.00  0.00     0.167 HD
ATOM     44  C   UNL A   1      37.964  32.231  31.600  1.00  0.00     0.037 A 
ATOM     45  C   UNL A   1      43.183  29.200  35.156  1.00  0.00     0.037 A 
ATOM     46  C   UNL A   1      38.170  32.741  32.930  1.00  0.00     0.049 A 
ATOM     47  C   UNL A   1      42.374  30.332  35.739  1.00  0.00     0.074 A 
ATOM     48  C   UNL A   1      37.461  33.727  33.593  1.00  0.00     0.029 A 
ATOM     49  N   UNL A   1      39.156  32.302  33.802  1.00  0.00    -0.354 N 
ATOM     50  N   UNL A   1      41.359  30.977  35.215  1.00  0.00    -0.248 NA
ATOM     51  C   UNL A   1      42.747  30.793  37.084  1.00  0.00     0.031 C 
ATOM     52  C   UNL A   1      38.042  33.912  34.852  1.00  0.00     0.029 A 
ATOM     53  C   UNL A   1      39.082  33.007  34.991  1.00  0.00     0.049 A 
ATOM     54  H   UNL A   1      39.811  31.594  33.604  1.00  0.00     0.167 HD
ATOM     55  C   UNL A   1      40.952  31.894  36.180  1.00  0.00     0.074 A 
ATOM     56  C   UNL A   1      41.824  31.714  37.321  1.00  0.00     0.031 C 
ATOM     57  C   UNL A   1      39.946  32.803  36.127  1.00  0.00     0.037 A 
BRANCH  44  58
ATOM     58  C   UNL A   1      36.850  32.815  30.777  1.00  0.00     0.058 A 
ATOM     59  C   UNL A   1      35.519  32.394  30.940  1.00  0.00     0.135 A 
ATOM     60  C   UNL A   1      37.104  33.836  29.847  1.00  0.00     0.135 A 
ATOM     61  F   UNL A   1      35.222  31.408  31.800  1.00  0.00    -0.206 F 
ATOM     62  C   UNL A   1      34.485  32.949  30.193  1.00  0.00     0.059 A 
ATOM     63  C   UNL A   1      36.082  34.425  29.110  1.00  0.00     0.059 A 
ATOM     64  F   UNL A   1      38.358  34.274  29.652  1.00  0.00    -0.206 F 
ATOM     65  C   UNL A   1      34.776  33.966  29.282  1.00  0.00     0.060 A 
BRANCH  65  66
ATOM     66  S   UNL A   1      33.420  34.687  28.333  1.00  0.00     0.124 S 
ATOM     67  O   UNL A   1      34.137  35.600  27.449  1.00  0.00    -0.237 OA
ATOM     68  O   UNL A   1      32.832  33.515  27.690  1.00  0.00    -0.237 OA
ATOM     69  O   UNL A   1      32.592  35.322  29.352  1.00  0.00    -0.744 OA
ENDBRANCH  65  66
ENDBRANCH  44  58
BRANCH  45  70
ATOM     70  C   UNL A   1      44.291  28.589  35.939  1.00  0.00     0.058 A 
ATOM     71  C   UNL A   1      45.611  29.046  35.805  1.00  0.00     0.135 A 
ATOM     72  C   UNL A   1      44.059  27.515  36.813  1.00  0.00     0.135 A 
ATOM     73  F   UNL A   1      45.886  30.063  34.973  1.00  0.00    -0.206 F 
ATOM     74  C   UNL A   1      46.665  28.445  36.485  1.00  0.00     0.059 A 
ATOM     75  C   UNL A   1      45.092  26.915  37.526  1.00  0.00     0.059 A 
ATOM     76  F   UNL A   1      42.814  27.046  36.987  1.00  0.00    -0.206 F 
ATOM     77  C   UNL A   1      46.396  27.377  37.343  1.00  0.00     0.060 A 
BRANCH  77  78
ATOM     78  S   UNL A   1      47.765  26.616  38.240  1.00  0.00     0.124 S 
ATOM     79  O   UNL A   1      47.147  26.328  39.529  1.00  0.00    -0.237 OA
ATOM     80  O   UNL A   1      48.072  25.458  37.406  1.00  0.00    -0.237 OA
ATOM     81  O   UNL A   1      48.784  27.661  38.246  1.00  0.00    -0.744 OA
ENDBRANCH  77  78
ENDBRANCH  45  70
BRANCH  57  82
ATOM     82  C   UNL A   1      39.697  33.640  37.353  1.00  0.00     0.058 A 
ATOM     83  C   UNL A   1      38.840  33.213  38.378  1.00  0.00     0.135 A 
ATOM     84  C   UNL A   1      40.367  34.862  37.524  1.00  0.00     0.135 A 
ATOM     85  F   UNL A   1      38.172  32.054  38.263  1.00  0.00    -0.206 F 
ATOM     86  C   UNL A   1      38.635  33.982  39.521  1.00  0.00     0.059 A 
ATOM     87  C   UNL A   1      40.198  35.634  38.670  1.00  0.00     0.059 A 
ATOM     88  F   UNL A   1      41.207  35.311  36.578  1.00  0.00    -0.206 F 
ATOM     89  C   UNL A   1      39.319  35.192  39.657  1.00  0.00     0.060 A 
BRANCH  89  90
ATOM     90  S   UNL A   1      39.068  36.165  41.157  1.00  0.00     0.124 S 
ATOM     91  O   UNL A   1      37.829  35.593  41.673  1.00  0.00    -0.237 OA
ATOM     92  O   UNL A   1      40.272  35.870  41.927  1.00  0.00    -0.237 OA
ATOM     93  O   UNL A   1      38.968  37.534  40.660  1.00  0.00    -0.744 OA
ENDBRANCH  89  90
ENDBRANCH  57  82
ENDBRANCH  31  32
ENDBRANCH  24  26
ENDBRANCH  23  24
ENDBRANCH  22  23
ENDBRANCH  21  22
ENDBRANCH  20  21
ENDBRANCH   1  20
TORSDOF 21
ENDMDL
