MODEL 1
REMARK VINA RESULT:     -11.1      0.000      0.000
REMARK SMILES CC1=C(C)C[C@@H](C(=O)NNC(=O)c2sccc2C)[C@@H](C(=O)OCCOCCOC(=O)c2ccc(-c3c4nc(c(-c5c(F)cc(S(=O)(=O)[O-])cc5F)c5ccc([nH]5)c(-c5c(F)cc(S(=O)(=O)[O-])cc5F)c5nc(c(-c6c(F)cc(S(=O)(=O)[O-])cc6F)c6ccc3[nH]6)C=C5)C=C4)cc2)C1
REMARK SMILES IDX 25 1 24 2 23 3 22 4 20 5 21 6 19 7 1 8 2 9 3 10 97 11 4 12
REMARK SMILES IDX 5 13 6 14 7 15 8 16 9 17 10 19 11 20 12 22 13 23 14 24 17 25
REMARK SMILES IDX 15 26 16 27 18 28 26 29 27 30 28 31 29 32 30 33 31 34 32 35
REMARK SMILES IDX 96 36 33 37 95 38 34 39 35 40 36 41 89 42 37 43 94 44 88 45
REMARK SMILES IDX 90 46 38 47 93 48 87 49 86 50 39 52 73 53 52 54 72 55 53 56
REMARK SMILES IDX 56 57 71 58 91 59 54 60 55 61 70 63 92 64 57 65 40 66 41 67
REMARK SMILES IDX 50 68 42 69 43 70 49 71 51 72 44 73 45 74 46 75 47 76 48 77
REMARK SMILES IDX 74 78 75 79 84 80 76 81 77 82 83 83 85 84 78 85 79 86 80 87
REMARK SMILES IDX 81 88 82 89 58 90 59 91 68 92 60 93 61 94 67 95 69 96 62 97
REMARK SMILES IDX 63 98 64 99 65 100 66 101
REMARK H PARENT 9 18 10 21 90 51 56 62
REMARK Flexibility Score: inf
ROOT
ATOM      1  O   UNL A   1      36.831  23.640  25.281  1.00  0.00    -0.374 OA
ENDROOT
BRANCH   1   2
ATOM      2  C   UNL A   1      35.543  24.116  25.644  1.00  0.00     0.202 C 
BRANCH   2   3
ATOM      3  C   UNL A   1      34.523  24.532  24.571  1.00  0.00     0.261 C 
BRANCH   3   4
ATOM      4  O   UNL A   1      34.397  25.939  24.333  1.00  0.00    -0.463 OA
BRANCH   4   5
ATOM      5  C   UNL A   1      33.100  26.328  24.209  1.00  0.00     0.310 C 
ATOM      6  O   UNL A   1      32.371  25.913  23.316  1.00  0.00    -0.252 OA
BRANCH   5   7
ATOM      7  C   UNL A   1      32.599  27.184  25.377  1.00  0.00     0.116 C 
ATOM      8  C   UNL A   1      35.128  28.955  27.834  1.00  0.00     0.039 C 
ATOM      9  C   UNL A   1      33.910  28.826  26.949  1.00  0.00    -0.073 C 
ATOM     10  C   UNL A   1      33.136  29.868  26.584  1.00  0.00    -0.074 C 
ATOM     11  C   UNL A   1      33.645  27.409  26.488  1.00  0.00     0.046 C 
ATOM     12  C   UNL A   1      33.436  31.314  26.886  1.00  0.00     0.039 C 
ATOM     13  C   UNL A   1      31.879  29.665  25.788  1.00  0.00     0.045 C 
ATOM     14  C   UNL A   1      31.864  28.447  24.872  1.00  0.00     0.099 C 
BRANCH  14  15
ATOM     15  C   UNL A   1      32.122  28.883  23.427  1.00  0.00     0.242 C 
ATOM     16  O   UNL A   1      33.256  29.226  23.077  1.00  0.00    -0.273 OA
ATOM     17  N   UNL A   1      31.124  28.889  22.492  1.00  0.00    -0.267 N 
ATOM     18  H   UNL A   1      31.312  29.346  21.640  1.00  0.00     0.191 HD
BRANCH  17  19
ATOM     19  N   UNL A   1      29.877  28.315  22.632  1.00  0.00    -0.263 N 
ATOM     20  C   UNL A   1      28.664  28.969  22.740  1.00  0.00     0.280 C 
ATOM     21  H   UNL A   1      29.849  27.331  22.658  1.00  0.00     0.191 HD
ATOM     22  O   UNL A   1      27.707  28.264  23.077  1.00  0.00    -0.266 OA
BRANCH  20  23
ATOM     23  C   UNL A   1      28.549  30.395  22.468  1.00  0.00     0.096 A 
ATOM     24  S   UNL A   1      28.030  30.823  20.879  1.00  0.00    -0.138 S 
ATOM     25  C   UNL A   1      28.876  31.524  23.215  1.00  0.00    -0.027 A 
ATOM     26  C   UNL A   1      28.199  32.487  21.184  1.00  0.00     0.066 A 
ATOM     27  C   UNL A   1      28.628  32.729  22.466  1.00  0.00     0.016 A 
ATOM     28  C   UNL A   1      29.464  31.573  24.589  1.00  0.00     0.046 C 
ENDBRANCH  20  23
ENDBRANCH  17  19
ENDBRANCH  14  15
ENDBRANCH   5   7
ENDBRANCH   4   5
ENDBRANCH   3   4
ENDBRANCH   2   3
ENDBRANCH   1   2
BRANCH   1  29
ATOM     29  C   UNL A   1      37.155  22.262  25.437  1.00  0.00     0.202 C 
BRANCH  29  30
ATOM     30  C   UNL A   1      38.619  21.833  25.554  1.00  0.00     0.261 C 
BRANCH  30  31
ATOM     31  O   UNL A   1      39.255  22.330  26.739  1.00  0.00    -0.460 OA
BRANCH  31  32
ATOM     32  C   UNL A   1      40.399  23.017  26.510  1.00  0.00     0.338 C 
ATOM     33  O   UNL A   1      41.330  22.687  25.788  1.00  0.00    -0.246 OA
BRANCH  32  34
ATOM     34  C   UNL A   1      40.298  24.353  27.108  1.00  0.00     0.060 A 
ATOM     35  C   UNL A   1      41.288  25.295  26.791  1.00  0.00     0.016 A 
ATOM     36  C   UNL A   1      39.304  24.641  28.042  1.00  0.00     0.016 A 
ATOM     37  C   UNL A   1      41.319  26.519  27.447  1.00  0.00     0.010 A 
ATOM     38  C   UNL A   1      39.350  25.858  28.718  1.00  0.00     0.010 A 
ATOM     39  C   UNL A   1      40.381  26.778  28.452  1.00  0.00    -0.014 A 
BRANCH  39  40
ATOM     40  C   UNL A   1      40.594  27.903  29.385  1.00  0.00     0.031 A 
ATOM     41  C   UNL A   1      41.709  27.787  30.382  1.00  0.00     0.074 A 
ATOM     42  C   UNL A   1      39.784  28.973  29.369  1.00  0.00     0.049 A 
ATOM     43  N   UNL A   1      41.988  28.546  31.407  1.00  0.00    -0.248 NA
ATOM     44  C   UNL A   1      42.625  26.648  30.206  1.00  0.00     0.031 C 
ATOM     45  C   UNL A   1      38.705  29.199  28.410  1.00  0.00     0.029 A 
ATOM     46  N   UNL A   1      39.725  30.052  30.211  1.00  0.00    -0.354 N 
ATOM     47  C   UNL A   1      43.090  27.960  32.017  1.00  0.00     0.074 A 
ATOM     48  C   UNL A   1      43.423  26.778  31.254  1.00  0.00     0.031 C 
ATOM     49  C   UNL A   1      38.059  30.327  28.744  1.00  0.00     0.029 A 
ATOM     50  C   UNL A   1      38.654  30.874  29.964  1.00  0.00     0.049 A 
ATOM     51  H   UNL A   1      40.386  30.220  30.922  1.00  0.00     0.167 HD
ATOM     52  C   UNL A   1      43.754  28.370  33.123  1.00  0.00     0.037 A 
ATOM     53  C   UNL A   1      38.182  31.918  30.673  1.00  0.00     0.037 A 
ATOM     54  C   UNL A   1      43.401  29.548  33.868  1.00  0.00     0.049 A 
ATOM     55  C   UNL A   1      38.904  32.338  31.925  1.00  0.00     0.074 A 
ATOM     56  C   UNL A   1      44.019  30.079  34.984  1.00  0.00     0.029 A 
ATOM     57  N   UNL A   1      42.322  30.371  33.575  1.00  0.00    -0.354 N 
ATOM     58  N   UNL A   1      39.959  31.795  32.487  1.00  0.00    -0.248 NA
ATOM     59  C   UNL A   1      38.379  33.508  32.640  1.00  0.00     0.031 C 
ATOM     60  C   UNL A   1      43.283  31.194  35.398  1.00  0.00     0.029 A 
ATOM     61  C   UNL A   1      42.239  31.393  34.505  1.00  0.00     0.049 A 
ATOM     62  H   UNL A   1      41.705  30.246  32.818  1.00  0.00     0.167 HD
ATOM     63  C   UNL A   1      40.242  32.573  33.604  1.00  0.00     0.074 A 
ATOM     64  C   UNL A   1      39.243  33.622  33.642  1.00  0.00     0.031 C 
ATOM     65  C   UNL A   1      41.242  32.436  34.510  1.00  0.00     0.037 A 
BRANCH  52  66
ATOM     66  C   UNL A   1      44.880  27.503  33.613  1.00  0.00     0.058 A 
ATOM     67  C   UNL A   1      46.213  27.725  33.233  1.00  0.00     0.135 A 
ATOM     68  C   UNL A   1      44.614  26.417  34.464  1.00  0.00     0.135 A 
ATOM     69  F   UNL A   1      46.522  28.737  32.407  1.00  0.00    -0.206 F 
ATOM     70  C   UNL A   1      47.236  26.873  33.639  1.00  0.00     0.059 A 
ATOM     71  C   UNL A   1      45.625  25.570  34.905  1.00  0.00     0.059 A 
ATOM     72  F   UNL A   1      43.358  26.157  34.857  1.00  0.00    -0.206 F 
ATOM     73  C   UNL A   1      46.930  25.792  34.468  1.00  0.00     0.060 A 
BRANCH  73  74
ATOM     74  S   UNL A   1      48.258  24.672  34.956  1.00  0.00     0.124 S 
ATOM     75  O   UNL A   1      49.037  25.519  35.854  1.00  0.00    -0.237 OA
ATOM     76  O   UNL A   1      47.530  23.578  35.592  1.00  0.00    -0.237 OA
ATOM     77  O   UNL A   1      48.904  24.338  33.691  1.00  0.00    -0.744 OA
ENDBRANCH  73  74
ENDBRANCH  52  66
BRANCH  53  78
ATOM     78  C   UNL A   1      36.950  32.608  30.210  1.00  0.00     0.058 A 
ATOM     79  C   UNL A   1      35.715  32.379  30.830  1.00  0.00     0.135 A 
ATOM     80  C   UNL A   1      37.002  33.568  29.186  1.00  0.00     0.135 A 
ATOM     81  F   UNL A   1      35.613  31.465  31.807  1.00  0.00    -0.206 F 
ATOM     82  C   UNL A   1      34.575  33.086  30.461  1.00  0.00     0.059 A 
ATOM     83  C   UNL A   1      35.881  34.304  28.815  1.00  0.00     0.059 A 
ATOM     84  F   UNL A   1      38.165  33.831  28.569  1.00  0.00    -0.206 F 
ATOM     85  C   UNL A   1      34.670  34.054  29.459  1.00  0.00     0.060 A 
BRANCH  85  86
ATOM     86  S   UNL A   1      33.204  35.030  29.056  1.00  0.00     0.124 S 
ATOM     87  O   UNL A   1      32.572  34.203  28.034  1.00  0.00    -0.237 OA
ATOM     88  O   UNL A   1      32.516  35.093  30.341  1.00  0.00    -0.237 OA
ATOM     89  O   UNL A   1      33.760  36.296  28.588  1.00  0.00    -0.744 OA
ENDBRANCH  85  86
ENDBRANCH  53  78
BRANCH  65  90
ATOM     90  C   UNL A   1      41.350  33.465  35.600  1.00  0.00     0.058 A 
ATOM     91  C   UNL A   1      40.674  33.324  36.819  1.00  0.00     0.135 A 
ATOM     92  C   UNL A   1      42.243  34.542  35.461  1.00  0.00     0.135 A 
ATOM     93  F   UNL A   1      39.804  32.317  36.999  1.00  0.00    -0.206 F 
ATOM     94  C   UNL A   1      40.884  34.212  37.871  1.00  0.00     0.059 A 
ATOM     95  C   UNL A   1      42.486  35.426  36.505  1.00  0.00     0.059 A 
ATOM     96  F   UNL A   1      42.921  34.714  34.315  1.00  0.00    -0.206 F 
ATOM     97  C   UNL A   1      41.802  35.253  37.707  1.00  0.00     0.060 A 
BRANCH  97  98
ATOM     98  S   UNL A   1      42.134  36.342  39.109  1.00  0.00     0.124 S 
ATOM     99  O   UNL A   1      43.308  35.711  39.703  1.00  0.00    -0.237 OA
ATOM    100  O   UNL A   1      42.367  37.628  38.457  1.00  0.00    -0.237 OA
ATOM    101  O   UNL A   1      40.909  36.261  39.900  1.00  0.00    -0.744 OA
ENDBRANCH  97  98
ENDBRANCH  65  90
ENDBRANCH  39  40
ENDBRANCH  32  34
ENDBRANCH  31  32
ENDBRANCH  30  31
ENDBRANCH  29  30
ENDBRANCH   1  29
TORSDOF 20
ENDMDL
MODEL 2
REMARK VINA RESULT:     -10.8      2.952      4.883
REMARK SMILES CC1=C(C)C[C@@H](C(=O)NNC(=O)c2sccc2C)[C@@H](C(=O)OCCOCCOC(=O)c2ccc(-c3c4nc(c(-c5c(F)cc(S(=O)(=O)[O-])cc5F)c5ccc([nH]5)c(-c5c(F)cc(S(=O)(=O)[O-])cc5F)c5nc(c(-c6c(F)cc(S(=O)(=O)[O-])cc6F)c6ccc3[nH]6)C=C5)C=C4)cc2)C1
REMARK SMILES IDX 25 1 24 2 23 3 22 4 20 5 21 6 19 7 1 8 2 9 3 10 97 11 4 12
REMARK SMILES IDX 5 13 6 14 7 15 8 16 9 17 10 19 11 20 12 22 13 23 14 24 17 25
REMARK SMILES IDX 15 26 16 27 18 28 26 29 27 30 28 31 29 32 30 33 31 34 32 35
REMARK SMILES IDX 96 36 33 37 95 38 34 39 35 40 36 41 89 42 37 43 94 44 88 45
REMARK SMILES IDX 90 46 38 47 93 48 87 49 86 50 39 52 73 53 52 54 72 55 53 56
REMARK SMILES IDX 56 57 71 58 91 59 54 60 55 61 70 63 92 64 57 65 40 66 41 67
REMARK SMILES IDX 50 68 42 69 43 70 49 71 51 72 44 73 45 74 46 75 47 76 48 77
REMARK SMILES IDX 74 78 75 79 84 80 76 81 77 82 83 83 85 84 78 85 79 86 80 87
REMARK SMILES IDX 81 88 82 89 58 90 59 91 68 92 60 93 61 94 67 95 69 96 62 97
REMARK SMILES IDX 63 98 64 99 65 100 66 101
REMARK H PARENT 9 18 10 21 90 51 56 62
REMARK Flexibility Score: inf
ROOT
ATOM      1  O   UNL A   1      38.522  21.485  25.509  1.00  0.00    -0.374 OA
ENDROOT
BRANCH   1   2
ATOM      2  C   UNL A   1      37.931  22.715  25.112  1.00  0.00     0.202 C 
BRANCH   2   3
ATOM      3  C   UNL A   1      37.383  23.702  26.157  1.00  0.00     0.261 C 
BRANCH   3   4
ATOM      4  O   UNL A   1      36.246  24.476  25.758  1.00  0.00    -0.463 OA
BRANCH   4   5
ATOM      5  C   UNL A   1      35.075  23.932  26.183  1.00  0.00     0.310 C 
ATOM      6  O   UNL A   1      35.021  23.119  27.099  1.00  0.00    -0.252 OA
BRANCH   5   7
ATOM      7  C   UNL A   1      33.834  24.557  25.536  1.00  0.00     0.116 C 
ATOM      8  C   UNL A   1      33.974  28.154  23.921  1.00  0.00     0.039 C 
ATOM      9  C   UNL A   1      33.614  26.691  24.024  1.00  0.00    -0.073 C 
ATOM     10  C   UNL A   1      33.096  25.973  23.006  1.00  0.00    -0.074 C 
ATOM     11  C   UNL A   1      33.907  26.089  25.382  1.00  0.00     0.046 C 
ATOM     12  C   UNL A   1      32.925  26.475  21.595  1.00  0.00     0.039 C 
ATOM     13  C   UNL A   1      32.661  24.548  23.197  1.00  0.00     0.045 C 
ATOM     14  C   UNL A   1      33.402  23.768  24.277  1.00  0.00     0.099 C 
BRANCH  14  15
ATOM     15  C   UNL A   1      34.439  22.847  23.631  1.00  0.00     0.242 C 
ATOM     16  O   UNL A   1      35.135  23.257  22.695  1.00  0.00    -0.273 OA
ATOM     17  N   UNL A   1      34.635  21.568  24.073  1.00  0.00    -0.267 N 
ATOM     18  H   UNL A   1      35.182  20.977  23.506  1.00  0.00     0.191 HD
BRANCH  17  19
ATOM     19  N   UNL A   1      34.138  21.028  25.241  1.00  0.00    -0.263 N 
ATOM     20  C   UNL A   1      33.454  19.836  25.386  1.00  0.00     0.280 C 
ATOM     21  H   UNL A   1      34.287  21.550  26.062  1.00  0.00     0.191 HD
ATOM     22  O   UNL A   1      32.914  19.661  26.483  1.00  0.00    -0.266 OA
BRANCH  20  23
ATOM     23  C   UNL A   1      33.390  18.867  24.300  1.00  0.00     0.096 A 
ATOM     24  S   UNL A   1      32.153  19.126  23.126  1.00  0.00    -0.138 S 
ATOM     25  C   UNL A   1      34.079  17.680  24.057  1.00  0.00    -0.027 A 
ATOM     26  C   UNL A   1      32.545  17.703  22.281  1.00  0.00     0.066 A 
ATOM     27  C   UNL A   1      33.600  17.041  22.859  1.00  0.00     0.016 A 
ATOM     28  C   UNL A   1      35.141  17.049  24.901  1.00  0.00     0.046 C 
ENDBRANCH  20  23
ENDBRANCH  17  19
ENDBRANCH  14  15
ENDBRANCH   5   7
ENDBRANCH   4   5
ENDBRANCH   3   4
ENDBRANCH   2   3
ENDBRANCH   1   2
BRANCH   1  29
ATOM     29  C   UNL A   1      39.561  21.473  26.481  1.00  0.00     0.202 C 
BRANCH  29  30
ATOM     30  C   UNL A   1      40.952  21.997  26.115  1.00  0.00     0.261 C 
BRANCH  30  31
ATOM     31  O   UNL A   1      41.440  22.981  27.036  1.00  0.00    -0.460 OA
BRANCH  31  32
ATOM     32  C   UNL A   1      41.944  24.092  26.448  1.00  0.00     0.338 C 
ATOM     33  O   UNL A   1      42.512  24.166  25.367  1.00  0.00    -0.246 OA
BRANCH  32  34
ATOM     34  C   UNL A   1      41.536  25.279  27.208  1.00  0.00     0.060 A 
ATOM     35  C   UNL A   1      42.336  26.428  27.119  1.00  0.00     0.016 A 
ATOM     36  C   UNL A   1      40.443  25.229  28.072  1.00  0.00     0.016 A 
ATOM     37  C   UNL A   1      42.075  27.522  27.934  1.00  0.00     0.010 A 
ATOM     38  C   UNL A   1      40.197  26.316  28.908  1.00  0.00     0.010 A 
ATOM     39  C   UNL A   1      41.038  27.444  28.869  1.00  0.00    -0.014 A 
BRANCH  39  40
ATOM     40  C   UNL A   1      40.956  28.434  29.962  1.00  0.00     0.031 A 
ATOM     41  C   UNL A   1      41.848  28.242  31.153  1.00  0.00     0.074 A 
ATOM     42  C   UNL A   1      40.077  29.446  29.909  1.00  0.00     0.049 A 
ATOM     43  N   UNL A   1      41.845  28.861  32.302  1.00  0.00    -0.248 NA
ATOM     44  C   UNL A   1      42.877  27.194  31.034  1.00  0.00     0.031 C 
ATOM     45  C   UNL A   1      39.202  29.745  28.777  1.00  0.00     0.029 A 
ATOM     46  N   UNL A   1      39.753  30.389  30.849  1.00  0.00    -0.354 N 
ATOM     47  C   UNL A   1      42.844  28.259  33.055  1.00  0.00     0.074 A 
ATOM     48  C   UNL A   1      43.429  27.219  32.237  1.00  0.00     0.031 C 
ATOM     49  C   UNL A   1      38.406  30.774  29.105  1.00  0.00     0.029 A 
ATOM     50  C   UNL A   1      38.688  31.175  30.484  1.00  0.00     0.049 A 
ATOM     51  H   UNL A   1      40.236  30.492  31.701  1.00  0.00     0.167 HD
ATOM     52  C   UNL A   1      43.229  28.544  34.320  1.00  0.00     0.037 A 
ATOM     53  C   UNL A   1      37.992  32.078  31.202  1.00  0.00     0.037 A 
ATOM     54  C   UNL A   1      42.630  29.582  35.117  1.00  0.00     0.049 A 
ATOM     55  C   UNL A   1      38.403  32.355  32.624  1.00  0.00     0.074 A 
ATOM     56  C   UNL A   1      42.957  29.982  36.398  1.00  0.00     0.029 A 
ATOM     57  N   UNL A   1      41.566  30.374  34.705  1.00  0.00    -0.354 N 
ATOM     58  N   UNL A   1      39.362  31.799  33.325  1.00  0.00    -0.248 NA
ATOM     59  C   UNL A   1      37.642  33.378  33.352  1.00  0.00     0.031 C 
ATOM     60  C   UNL A   1      42.057  30.982  36.782  1.00  0.00     0.029 A 
ATOM     61  C   UNL A   1      41.206  31.245  35.718  1.00  0.00     0.049 A 
ATOM     62  H   UNL A   1      41.132  30.323  33.824  1.00  0.00     0.167 HD
ATOM     63  C   UNL A   1      39.341  32.424  34.567  1.00  0.00     0.074 A 
ATOM     64  C   UNL A   1      38.268  33.398  34.522  1.00  0.00     0.031 C 
ATOM     65  C   UNL A   1      40.142  32.218  35.642  1.00  0.00     0.037 A 
BRANCH  52  66
ATOM     66  C   UNL A   1      44.301  27.683  34.927  1.00  0.00     0.058 A 
ATOM     67  C   UNL A   1      44.008  26.478  35.585  1.00  0.00     0.135 A 
ATOM     68  C   UNL A   1      45.647  28.085  34.866  1.00  0.00     0.135 A 
ATOM     69  F   UNL A   1      42.738  26.056  35.690  1.00  0.00    -0.206 F 
ATOM     70  C   UNL A   1      45.003  25.726  36.203  1.00  0.00     0.059 A 
ATOM     71  C   UNL A   1      46.661  27.333  35.450  1.00  0.00     0.059 A 
ATOM     72  F   UNL A   1      45.984  29.228  34.251  1.00  0.00    -0.206 F 
ATOM     73  C   UNL A   1      46.327  26.168  36.138  1.00  0.00     0.060 A 
BRANCH  73  74
ATOM     74  S   UNL A   1      47.603  25.205  36.975  1.00  0.00     0.124 S 
ATOM     75  O   UNL A   1      46.956  24.913  38.250  1.00  0.00    -0.237 OA
ATOM     76  O   UNL A   1      47.778  24.066  36.078  1.00  0.00    -0.237 OA
ATOM     77  O   UNL A   1      48.734  26.125  37.042  1.00  0.00    -0.744 OA
ENDBRANCH  73  74
ENDBRANCH  52  66
BRANCH  53  78
ATOM     78  C   UNL A   1      36.826  32.754  30.577  1.00  0.00     0.058 A 
ATOM     79  C   UNL A   1      35.515  32.400  30.919  1.00  0.00     0.135 A 
ATOM     80  C   UNL A   1      37.005  33.821  29.681  1.00  0.00     0.135 A 
ATOM     81  F   UNL A   1      35.292  31.382  31.763  1.00  0.00    -0.206 F 
ATOM     82  C   UNL A   1      34.419  33.088  30.405  1.00  0.00     0.059 A 
ATOM     83  C   UNL A   1      35.928  34.538  29.171  1.00  0.00     0.059 A 
ATOM     84  F   UNL A   1      38.243  34.204  29.331  1.00  0.00    -0.206 F 
ATOM     85  C   UNL A   1      34.636  34.162  29.540  1.00  0.00     0.060 A 
BRANCH  85  86
ATOM     86  S   UNL A   1      33.211  35.105  28.955  1.00  0.00     0.124 S 
ATOM     87  O   UNL A   1      32.474  35.322  30.195  1.00  0.00    -0.237 OA
ATOM     88  O   UNL A   1      33.842  36.285  28.373  1.00  0.00    -0.237 OA
ATOM     89  O   UNL A   1      32.580  34.203  27.996  1.00  0.00    -0.744 OA
ENDBRANCH  85  86
ENDBRANCH  53  78
BRANCH  65  90
ATOM     90  C   UNL A   1      39.935  33.085  36.851  1.00  0.00     0.058 A 
ATOM     91  C   UNL A   1      38.976  32.777  37.826  1.00  0.00     0.135 A 
ATOM     92  C   UNL A   1      40.796  34.169  37.093  1.00  0.00     0.135 A 
ATOM     93  F   UNL A   1      38.124  31.756  37.639  1.00  0.00    -0.206 F 
ATOM     94  C   UNL A   1      38.882  33.509  39.006  1.00  0.00     0.059 A 
ATOM     95  C   UNL A   1      40.736  34.899  38.274  1.00  0.00     0.059 A 
ATOM     96  F   UNL A   1      41.737  34.498  36.193  1.00  0.00    -0.206 F 
ATOM     97  C   UNL A   1      39.775  34.561  39.226  1.00  0.00     0.060 A 
BRANCH  97  98
ATOM     98  S   UNL A   1      39.702  35.444  40.799  1.00  0.00     0.124 S 
ATOM     99  O   UNL A   1      38.291  35.815  40.865  1.00  0.00    -0.237 OA
ATOM    100  O   UNL A   1      40.135  34.426  41.751  1.00  0.00    -0.237 OA
ATOM    101  O   UNL A   1      40.634  36.553  40.610  1.00  0.00    -0.744 OA
ENDBRANCH  97  98
ENDBRANCH  65  90
ENDBRANCH  39  40
ENDBRANCH  32  34
ENDBRANCH  31  32
ENDBRANCH  30  31
ENDBRANCH  29  30
ENDBRANCH   1  29
TORSDOF 20
ENDMDL
MODEL 3
REMARK VINA RESULT:     -10.8      5.332     10.904
REMARK SMILES CC1=C(C)C[C@@H](C(=O)NNC(=O)c2sccc2C)[C@@H](C(=O)OCCOCCOC(=O)c2ccc(-c3c4nc(c(-c5c(F)cc(S(=O)(=O)[O-])cc5F)c5ccc([nH]5)c(-c5c(F)cc(S(=O)(=O)[O-])cc5F)c5nc(c(-c6c(F)cc(S(=O)(=O)[O-])cc6F)c6ccc3[nH]6)C=C5)C=C4)cc2)C1
REMARK SMILES IDX 25 1 24 2 23 3 22 4 20 5 21 6 19 7 1 8 2 9 3 10 97 11 4 12
REMARK SMILES IDX 5 13 6 14 7 15 8 16 9 17 10 19 11 20 12 22 13 23 14 24 17 25
REMARK SMILES IDX 15 26 16 27 18 28 26 29 27 30 28 31 29 32 30 33 31 34 32 35
REMARK SMILES IDX 96 36 33 37 95 38 34 39 35 40 36 41 89 42 37 43 94 44 88 45
REMARK SMILES IDX 90 46 38 47 93 48 87 49 86 50 39 52 73 53 52 54 72 55 53 56
REMARK SMILES IDX 56 57 71 58 91 59 54 60 55 61 70 63 92 64 57 65 40 66 41 67
REMARK SMILES IDX 50 68 42 69 43 70 49 71 51 72 44 73 45 74 46 75 47 76 48 77
REMARK SMILES IDX 74 78 75 79 84 80 76 81 77 82 83 83 85 84 78 85 79 86 80 87
REMARK SMILES IDX 81 88 82 89 58 90 59 91 68 92 60 93 61 94 67 95 69 96 62 97
REMARK SMILES IDX 63 98 64 99 65 100 66 101
REMARK H PARENT 9 18 10 21 90 51 56 62
REMARK Flexibility Score: inf
ROOT
ATOM      1  O   UNL A   1      33.666  32.869  27.459  1.00  0.00    -0.374 OA
ENDROOT
BRANCH   1   2
ATOM      2  C   UNL A   1      32.540  32.013  27.317  1.00  0.00     0.202 C 
BRANCH   2   3
ATOM      3  C   UNL A   1      32.683  30.618  26.686  1.00  0.00     0.261 C 
BRANCH   3   4
ATOM      4  O   UNL A   1      31.842  30.346  25.559  1.00  0.00    -0.463 OA
BRANCH   4   5
ATOM      5  C   UNL A   1      32.300  29.310  24.809  1.00  0.00     0.310 C 
ATOM      6  O   UNL A   1      33.485  28.997  24.773  1.00  0.00    -0.252 OA
BRANCH   5   7
ATOM      7  C   UNL A   1      31.189  28.477  24.162  1.00  0.00     0.116 C 
ATOM      8  C   UNL A   1      31.975  25.979  21.211  1.00  0.00     0.039 C 
ATOM      9  C   UNL A   1      31.349  26.450  22.503  1.00  0.00    -0.073 C 
ATOM     10  C   UNL A   1      30.693  25.638  23.357  1.00  0.00    -0.074 C 
ATOM     11  C   UNL A   1      31.544  27.928  22.766  1.00  0.00     0.046 C 
ATOM     12  C   UNL A   1      30.599  24.140  23.225  1.00  0.00     0.039 C 
ATOM     13  C   UNL A   1      30.003  26.181  24.575  1.00  0.00     0.045 C 
ATOM     14  C   UNL A   1      30.600  27.455  25.163  1.00  0.00     0.099 C 
BRANCH  14  15
ATOM     15  C   UNL A   1      31.439  27.112  26.397  1.00  0.00     0.242 C 
ATOM     16  O   UNL A   1      31.016  27.378  27.527  1.00  0.00    -0.273 OA
ATOM     17  N   UNL A   1      32.655  26.496  26.287  1.00  0.00    -0.267 N 
ATOM     18  H   UNL A   1      33.217  26.468  27.095  1.00  0.00     0.191 HD
BRANCH  17  19
ATOM     19  N   UNL A   1      33.168  25.911  25.148  1.00  0.00    -0.263 N 
ATOM     20  C   UNL A   1      33.744  24.659  25.039  1.00  0.00     0.280 C 
ATOM     21  H   UNL A   1      33.117  26.443  24.322  1.00  0.00     0.191 HD
ATOM     22  O   UNL A   1      34.329  24.433  23.975  1.00  0.00    -0.266 OA
BRANCH  20  23
ATOM     23  C   UNL A   1      33.652  23.690  26.122  1.00  0.00     0.096 A 
ATOM     24  S   UNL A   1      35.130  22.929  26.585  1.00  0.00    -0.138 S 
ATOM     25  C   UNL A   1      32.569  23.158  26.819  1.00  0.00    -0.027 A 
ATOM     26  C   UNL A   1      34.355  21.932  27.723  1.00  0.00     0.066 A 
ATOM     27  C   UNL A   1      33.003  22.168  27.770  1.00  0.00     0.016 A 
ATOM     28  C   UNL A   1      31.118  23.468  26.630  1.00  0.00     0.046 C 
ENDBRANCH  20  23
ENDBRANCH  17  19
ENDBRANCH  14  15
ENDBRANCH   5   7
ENDBRANCH   4   5
ENDBRANCH   3   4
ENDBRANCH   2   3
ENDBRANCH   1   2
BRANCH   1  29
ATOM     29  C   UNL A   1      33.812  33.669  28.628  1.00  0.00     0.202 C 
BRANCH  29  30
ATOM     30  C   UNL A   1      34.843  33.282  29.691  1.00  0.00     0.261 C 
BRANCH  30  31
ATOM     31  O   UNL A   1      35.533  32.063  29.384  1.00  0.00    -0.460 OA
BRANCH  31  32
ATOM     32  C   UNL A   1      36.009  31.406  30.468  1.00  0.00     0.338 C 
ATOM     33  O   UNL A   1      35.496  31.334  31.577  1.00  0.00    -0.246 OA
BRANCH  32  34
ATOM     34  C   UNL A   1      37.168  30.593  30.080  1.00  0.00     0.060 A 
ATOM     35  C   UNL A   1      37.832  29.869  31.081  1.00  0.00     0.016 A 
ATOM     36  C   UNL A   1      37.652  30.623  28.773  1.00  0.00     0.016 A 
ATOM     37  C   UNL A   1      39.019  29.209  30.791  1.00  0.00     0.010 A 
ATOM     38  C   UNL A   1      38.855  29.982  28.488  1.00  0.00     0.010 A 
ATOM     39  C   UNL A   1      39.560  29.312  29.505  1.00  0.00    -0.014 A 
BRANCH  39  40
ATOM     40  C   UNL A   1      40.962  28.918  29.262  1.00  0.00     0.031 A 
ATOM     41  C   UNL A   1      42.012  29.988  29.314  1.00  0.00     0.074 A 
ATOM     42  C   UNL A   1      41.277  27.649  28.959  1.00  0.00     0.049 A 
ATOM     43  N   UNL A   1      43.270  29.934  28.972  1.00  0.00    -0.248 NA
ATOM     44  C   UNL A   1      41.576  31.306  29.807  1.00  0.00     0.031 C 
ATOM     45  C   UNL A   1      40.337  26.531  28.931  1.00  0.00     0.029 A 
ATOM     46  N   UNL A   1      42.475  27.100  28.583  1.00  0.00    -0.354 N 
ATOM     47  C   UNL A   1      43.769  31.215  29.175  1.00  0.00     0.074 A 
ATOM     48  C   UNL A   1      42.676  32.027  29.663  1.00  0.00     0.031 C 
ATOM     49  C   UNL A   1      40.986  25.432  28.512  1.00  0.00     0.029 A 
ATOM     50  C   UNL A   1      42.372  25.784  28.203  1.00  0.00     0.049 A 
ATOM     51  H   UNL A   1      43.324  27.599  28.584  1.00  0.00     0.167 HD
ATOM     52  C   UNL A   1      45.025  31.670  28.961  1.00  0.00     0.037 A 
ATOM     53  C   UNL A   1      43.282  24.976  27.626  1.00  0.00     0.037 A 
ATOM     54  C   UNL A   1      46.096  30.844  28.472  1.00  0.00     0.049 A 
ATOM     55  C   UNL A   1      44.664  25.507  27.354  1.00  0.00     0.074 A 
ATOM     56  C   UNL A   1      47.415  31.187  28.247  1.00  0.00     0.029 A 
ATOM     57  N   UNL A   1      45.960  29.508  28.119  1.00  0.00    -0.354 N 
ATOM     58  N   UNL A   1      45.138  26.712  27.568  1.00  0.00    -0.248 NA
ATOM     59  C   UNL A   1      45.635  24.576  26.765  1.00  0.00     0.031 C 
ATOM     60  C   UNL A   1      48.066  30.072  27.708  1.00  0.00     0.029 A 
ATOM     61  C   UNL A   1      47.166  29.017  27.652  1.00  0.00     0.049 A 
ATOM     62  H   UNL A   1      45.128  28.987  28.189  1.00  0.00     0.167 HD
ATOM     63  C   UNL A   1      46.469  26.677  27.168  1.00  0.00     0.074 A 
ATOM     64  C   UNL A   1      46.724  25.332  26.693  1.00  0.00     0.031 C 
ATOM     65  C   UNL A   1      47.397  27.666  27.199  1.00  0.00     0.037 A 
BRANCH  52  66
ATOM     66  C   UNL A   1      45.279  33.132  29.200  1.00  0.00     0.058 A 
ATOM     67  C   UNL A   1      45.087  34.097  28.199  1.00  0.00     0.135 A 
ATOM     68  C   UNL A   1      45.745  33.572  30.452  1.00  0.00     0.135 A 
ATOM     69  F   UNL A   1      44.662  33.732  26.979  1.00  0.00    -0.206 F 
ATOM     70  C   UNL A   1      45.393  35.438  28.413  1.00  0.00     0.059 A 
ATOM     71  C   UNL A   1      46.029  34.911  30.696  1.00  0.00     0.059 A 
ATOM     72  F   UNL A   1      45.948  32.692  31.444  1.00  0.00    -0.206 F 
ATOM     73  C   UNL A   1      45.873  35.834  29.663  1.00  0.00     0.060 A 
BRANCH  73  74
ATOM     74  S   UNL A   1      46.303  37.568  29.917  1.00  0.00     0.124 S 
ATOM     75  O   UNL A   1      47.470  37.706  29.052  1.00  0.00    -0.237 OA
ATOM     76  O   UNL A   1      45.098  38.260  29.469  1.00  0.00    -0.237 OA
ATOM     77  O   UNL A   1      46.571  37.646  31.349  1.00  0.00    -0.744 OA
ENDBRANCH  73  74
ENDBRANCH  52  66
BRANCH  53  78
ATOM     78  C   UNL A   1      42.887  23.592  27.256  1.00  0.00     0.058 A 
ATOM     79  C   UNL A   1      42.642  23.242  25.922  1.00  0.00     0.135 A 
ATOM     80  C   UNL A   1      42.824  22.576  28.223  1.00  0.00     0.135 A 
ATOM     81  F   UNL A   1      42.681  24.180  24.963  1.00  0.00    -0.206 F 
ATOM     82  C   UNL A   1      42.358  21.930  25.555  1.00  0.00     0.059 A 
ATOM     83  C   UNL A   1      42.565  21.253  27.879  1.00  0.00     0.059 A 
ATOM     84  F   UNL A   1      43.063  22.859  29.513  1.00  0.00    -0.206 F 
ATOM     85  C   UNL A   1      42.332  20.940  26.540  1.00  0.00     0.060 A 
BRANCH  85  86
ATOM     86  S   UNL A   1      42.057  19.227  26.038  1.00  0.00     0.124 S 
ATOM     87  O   UNL A   1      40.642  19.248  25.683  1.00  0.00    -0.237 OA
ATOM     88  O   UNL A   1      42.991  19.079  24.927  1.00  0.00    -0.237 OA
ATOM     89  O   UNL A   1      42.394  18.465  27.237  1.00  0.00    -0.744 OA
ENDBRANCH  85  86
ENDBRANCH  53  78
BRANCH  65  90
ATOM     90  C   UNL A   1      48.794  27.334  26.755  1.00  0.00     0.058 A 
ATOM     91  C   UNL A   1      49.773  26.898  27.659  1.00  0.00     0.135 A 
ATOM     92  C   UNL A   1      49.115  27.336  25.387  1.00  0.00     0.135 A 
ATOM     93  F   UNL A   1      49.519  26.885  28.978  1.00  0.00    -0.206 F 
ATOM     94  C   UNL A   1      51.022  26.466  27.222  1.00  0.00     0.059 A 
ATOM     95  C   UNL A   1      50.346  26.887  24.926  1.00  0.00     0.059 A 
ATOM     96  F   UNL A   1      48.207  27.737  24.482  1.00  0.00    -0.206 F 
ATOM     97  C   UNL A   1      51.294  26.453  25.851  1.00  0.00     0.060 A 
BRANCH  97  98
ATOM     98  S   UNL A   1      52.883  25.805  25.291  1.00  0.00     0.124 S 
ATOM     99  O   UNL A   1      53.822  26.618  26.059  1.00  0.00    -0.237 OA
ATOM    100  O   UNL A   1      52.802  24.399  25.674  1.00  0.00    -0.237 OA
ATOM    101  O   UNL A   1      52.866  26.058  23.852  1.00  0.00    -0.744 OA
ENDBRANCH  97  98
ENDBRANCH  65  90
ENDBRANCH  39  40
ENDBRANCH  32  34
ENDBRANCH  31  32
ENDBRANCH  30  31
ENDBRANCH  29  30
ENDBRANCH   1  29
TORSDOF 20
ENDMDL
