MODEL 1
REMARK VINA RESULT:      -9.5      0.000      0.000
REMARK SMILES C[C@@H](O)[C@H](C)[N@@H+]1CCOC[C@@H]1C(=O)OCCOCCOC(=O)c1ccc(-c2c3nc(c(-c4c(F)cc(S(=O)(=O)[O-])cc4F)c4ccc([nH]4)c(-c4c(F)cc(S(=O)(=O)[O-])cc4F)c4nc(c(-c5c(F)cc(S(=O)(=O)[O-])cc5F)c5ccc2[nH]5)C=C4)C=C3)cc1
REMARK SMILES IDX 17 1 16 2 15 3 14 4 12 5 13 6 11 7 6 8 7 9 8 11 10 12 9 13
REMARK SMILES IDX 4 14 5 15 2 16 1 17 3 18 18 20 19 21 20 22 21 23 22 24 23 25
REMARK SMILES IDX 24 26 88 27 25 28 87 29 26 30 27 31 28 32 81 33 29 34 86 35
REMARK SMILES IDX 80 36 82 37 30 38 85 39 79 40 78 41 31 43 65 44 44 45 64 46
REMARK SMILES IDX 45 47 48 48 63 49 83 50 46 51 47 52 62 54 84 55 49 56 32 57
REMARK SMILES IDX 33 58 42 59 34 60 35 61 41 62 43 63 36 64 37 65 38 66 39 67
REMARK SMILES IDX 40 68 66 69 67 70 76 71 68 72 69 73 75 74 77 75 70 76 71 77
REMARK SMILES IDX 72 78 73 79 74 80 50 81 51 82 60 83 52 84 53 85 59 86 61 87
REMARK SMILES IDX 54 88 55 89 56 90 57 91 58 92
REMARK H PARENT 6 10 3 19 82 42 48 53
REMARK Flexibility Score: inf
ROOT
ATOM      1  O   UNL A   1      32.497  29.052  24.099  1.00  0.00    -0.374 OA
ENDROOT
BRANCH   1   2
ATOM      2  C   UNL A   1      32.894  27.688  24.005  1.00  0.00     0.202 C 
BRANCH   2   3
ATOM      3  C   UNL A   1      31.939  26.716  23.304  1.00  0.00     0.261 C 
BRANCH   3   4
ATOM      4  O   UNL A   1      32.241  25.335  23.553  1.00  0.00    -0.459 OA
BRANCH   4   5
ATOM      5  C   UNL A   1      33.350  24.861  22.916  1.00  0.00     0.367 C 
ATOM      6  O   UNL A   1      33.643  25.122  21.754  1.00  0.00    -0.245 OA
BRANCH   5   7
ATOM      7  C   UNL A   1      34.231  24.008  23.831  1.00  0.00     0.321 C 
ATOM      8  N   UNL A   1      33.954  22.547  23.719  1.00  0.00    -0.315 N 
ATOM      9  C   UNL A   1      34.921  21.815  24.561  1.00  0.00     0.292 C 
ATOM     10  H   UNL A   1      34.088  22.343  22.729  1.00  0.00     0.349 HD
ATOM     11  C   UNL A   1      35.046  22.356  25.992  1.00  0.00     0.221 C 
ATOM     12  C   UNL A   1      34.386  24.515  25.279  1.00  0.00     0.237 C 
ATOM     13  O   UNL A   1      35.375  23.751  25.993  1.00  0.00    -0.369 OA
BRANCH   8  14
ATOM     14  C   UNL A   1      32.565  22.050  23.843  1.00  0.00     0.210 C 
ATOM     15  C   UNL A   1      32.156  20.879  22.936  1.00  0.00     0.078 C 
BRANCH  14  16
ATOM     16  C   UNL A   1      32.181  21.719  25.324  1.00  0.00     0.169 C 
ATOM     17  C   UNL A   1      31.026  22.566  25.855  1.00  0.00     0.045 C 
BRANCH  16  18
ATOM     18  O   UNL A   1      31.776  20.345  25.400  1.00  0.00    -0.387 OA
ATOM     19  H   UNL A   1      32.105  19.866  24.623  1.00  0.00     0.211 HD
ENDBRANCH  16  18
ENDBRANCH  14  16
ENDBRANCH   8  14
ENDBRANCH   5   7
ENDBRANCH   4   5
ENDBRANCH   3   4
ENDBRANCH   2   3
ENDBRANCH   1   2
BRANCH   1  20
ATOM     20  C   UNL A   1      32.395  29.645  25.392  1.00  0.00     0.202 C 
BRANCH  20  21
ATOM     21  C   UNL A   1      33.595  29.525  26.340  1.00  0.00     0.261 C 
BRANCH  21  22
ATOM     22  O   UNL A   1      33.508  30.414  27.471  1.00  0.00    -0.460 OA
BRANCH  22  23
ATOM     23  C   UNL A   1      34.595  31.204  27.641  1.00  0.00     0.338 C 
ATOM     24  O   UNL A   1      34.621  32.428  27.645  1.00  0.00    -0.246 OA
BRANCH  23  25
ATOM     25  C   UNL A   1      35.782  30.408  27.997  1.00  0.00     0.060 A 
ATOM     26  C   UNL A   1      35.748  29.704  29.207  1.00  0.00     0.016 A 
ATOM     27  C   UNL A   1      36.960  30.482  27.250  1.00  0.00     0.016 A 
ATOM     28  C   UNL A   1      36.913  29.129  29.711  1.00  0.00     0.010 A 
ATOM     29  C   UNL A   1      38.130  29.911  27.763  1.00  0.00     0.010 A 
ATOM     30  C   UNL A   1      38.122  29.274  29.018  1.00  0.00    -0.014 A 
BRANCH  30  31
ATOM     31  C   UNL A   1      39.392  28.920  29.699  1.00  0.00     0.031 A 
ATOM     32  C   UNL A   1      39.776  29.660  30.954  1.00  0.00     0.074 A 
ATOM     33  C   UNL A   1      40.161  27.914  29.245  1.00  0.00     0.049 A 
ATOM     34  N   UNL A   1      40.831  29.513  31.714  1.00  0.00    -0.248 NA
ATOM     35  C   UNL A   1      38.845  30.703  31.415  1.00  0.00     0.031 C 
ATOM     36  C   UNL A   1      39.871  27.095  28.069  1.00  0.00     0.029 A 
ATOM     37  N   UNL A   1      41.342  27.409  29.725  1.00  0.00    -0.354 N 
ATOM     38  C   UNL A   1      40.690  30.439  32.742  1.00  0.00     0.074 A 
ATOM     39  C   UNL A   1      39.464  31.166  32.491  1.00  0.00     0.031 C 
ATOM     40  C   UNL A   1      40.854  26.189  27.917  1.00  0.00     0.029 A 
ATOM     41  C   UNL A   1      41.850  26.379  28.970  1.00  0.00     0.049 A 
ATOM     42  H   UNL A   1      41.784  27.752  30.536  1.00  0.00     0.167 HD
ATOM     43  C   UNL A   1      41.500  30.656  33.805  1.00  0.00     0.037 A 
ATOM     44  C   UNL A   1      42.994  25.680  29.108  1.00  0.00     0.037 A 
ATOM     45  C   UNL A   1      42.720  29.934  34.054  1.00  0.00     0.049 A 
ATOM     46  C   UNL A   1      43.910  25.981  30.266  1.00  0.00     0.074 A 
ATOM     47  C   UNL A   1      43.618  30.089  35.096  1.00  0.00     0.029 A 
ATOM     48  N   UNL A   1      43.214  28.917  33.250  1.00  0.00    -0.354 N 
ATOM     49  N   UNL A   1      43.762  26.859  31.229  1.00  0.00    -0.248 NA
ATOM     50  C   UNL A   1      45.146  25.190  30.358  1.00  0.00     0.031 C 
ATOM     51  C   UNL A   1      44.672  29.187  34.904  1.00  0.00     0.029 A 
ATOM     52  C   UNL A   1      44.408  28.443  33.767  1.00  0.00     0.049 A 
ATOM     53  H   UNL A   1      42.780  28.583  32.432  1.00  0.00     0.167 HD
ATOM     54  C   UNL A   1      44.869  26.705  32.057  1.00  0.00     0.074 A 
ATOM     55  C   UNL A   1      45.675  25.645  31.486  1.00  0.00     0.031 C 
ATOM     56  C   UNL A   1      45.189  27.376  33.192  1.00  0.00     0.037 A 
BRANCH  43  57
ATOM     57  C   UNL A   1      41.097  31.732  34.775  1.00  0.00     0.058 A 
ATOM     58  C   UNL A   1      40.225  31.468  35.842  1.00  0.00     0.135 A 
ATOM     59  C   UNL A   1      41.608  33.033  34.651  1.00  0.00     0.135 A 
ATOM     60  F   UNL A   1      39.692  30.245  35.995  1.00  0.00    -0.206 F 
ATOM     61  C   UNL A   1      39.852  32.464  36.739  1.00  0.00     0.059 A 
ATOM     62  C   UNL A   1      41.268  34.040  35.550  1.00  0.00     0.059 A 
ATOM     63  F   UNL A   1      42.444  33.338  33.646  1.00  0.00    -0.206 F 
ATOM     64  C   UNL A   1      40.378  33.749  36.584  1.00  0.00     0.060 A 
BRANCH  64  65
ATOM     65  S   UNL A   1      39.889  35.032  37.755  1.00  0.00     0.124 S 
ATOM     66  O   UNL A   1      38.532  34.614  38.095  1.00  0.00    -0.237 OA
ATOM     67  O   UNL A   1      40.880  34.886  38.815  1.00  0.00    -0.237 OA
ATOM     68  O   UNL A   1      39.988  36.261  36.973  1.00  0.00    -0.744 OA
ENDBRANCH  64  65
ENDBRANCH  43  57
BRANCH  44  69
ATOM     69  C   UNL A   1      43.342  24.622  28.124  1.00  0.00     0.058 A 
ATOM     70  C   UNL A   1      44.074  24.922  26.966  1.00  0.00     0.135 A 
ATOM     71  C   UNL A   1      42.937  23.293  28.317  1.00  0.00     0.135 A 
ATOM     72  F   UNL A   1      44.474  26.182  26.733  1.00  0.00    -0.206 F 
ATOM     73  C   UNL A   1      44.377  23.946  26.022  1.00  0.00     0.059 A 
ATOM     74  C   UNL A   1      43.248  22.294  27.400  1.00  0.00     0.059 A 
ATOM     75  F   UNL A   1      42.245  22.953  29.415  1.00  0.00    -0.206 F 
ATOM     76  C   UNL A   1      43.958  22.633  26.249  1.00  0.00     0.060 A 
BRANCH  76  77
ATOM     77  S   UNL A   1      44.388  21.362  25.040  1.00  0.00     0.124 S 
ATOM     78  O   UNL A   1      45.782  21.100  25.374  1.00  0.00    -0.237 OA
ATOM     79  O   UNL A   1      43.442  20.297  25.361  1.00  0.00    -0.237 OA
ATOM     80  O   UNL A   1      44.157  22.028  23.761  1.00  0.00    -0.744 OA
ENDBRANCH  76  77
ENDBRANCH  44  69
BRANCH  56  81
ATOM     81  C   UNL A   1      46.436  26.955  33.917  1.00  0.00     0.058 A 
ATOM     82  C   UNL A   1      47.674  27.571  33.676  1.00  0.00     0.135 A 
ATOM     83  C   UNL A   1      46.383  25.950  34.896  1.00  0.00     0.135 A 
ATOM     84  F   UNL A   1      47.780  28.534  32.746  1.00  0.00    -0.206 F 
ATOM     85  C   UNL A   1      48.821  27.187  34.362  1.00  0.00     0.059 A 
ATOM     86  C   UNL A   1      47.512  25.567  35.611  1.00  0.00     0.059 A 
ATOM     87  F   UNL A   1      45.219  25.338  35.173  1.00  0.00    -0.206 F 
ATOM     88  C   UNL A   1      48.731  26.182  35.328  1.00  0.00     0.060 A 
BRANCH  88  89
ATOM     89  S   UNL A   1      50.220  25.707  36.232  1.00  0.00     0.124 S 
ATOM     90  O   UNL A   1      50.076  24.257  36.293  1.00  0.00    -0.237 OA
ATOM     91  O   UNL A   1      51.286  26.203  35.367  1.00  0.00    -0.237 OA
ATOM     92  O   UNL A   1      50.080  26.407  37.505  1.00  0.00    -0.744 OA
ENDBRANCH  88  89
ENDBRANCH  56  81
ENDBRANCH  30  31
ENDBRANCH  23  25
ENDBRANCH  22  23
ENDBRANCH  21  22
ENDBRANCH  20  21
ENDBRANCH   1  20
TORSDOF 20
ENDMDL
MODEL 2
REMARK VINA RESULT:      -9.5      5.432      8.247
REMARK SMILES C[C@@H](O)[C@H](C)[N@@H+]1CCOC[C@@H]1C(=O)OCCOCCOC(=O)c1ccc(-c2c3nc(c(-c4c(F)cc(S(=O)(=O)[O-])cc4F)c4ccc([nH]4)c(-c4c(F)cc(S(=O)(=O)[O-])cc4F)c4nc(c(-c5c(F)cc(S(=O)(=O)[O-])cc5F)c5ccc2[nH]5)C=C4)C=C3)cc1
REMARK SMILES IDX 17 1 16 2 15 3 14 4 12 5 13 6 11 7 6 8 7 9 8 11 10 12 9 13
REMARK SMILES IDX 4 14 5 15 2 16 1 17 3 18 18 20 19 21 20 22 21 23 22 24 23 25
REMARK SMILES IDX 24 26 88 27 25 28 87 29 26 30 27 31 28 32 81 33 29 34 86 35
REMARK SMILES IDX 80 36 82 37 30 38 85 39 79 40 78 41 31 43 65 44 44 45 64 46
REMARK SMILES IDX 45 47 48 48 63 49 83 50 46 51 47 52 62 54 84 55 49 56 32 57
REMARK SMILES IDX 33 58 42 59 34 60 35 61 41 62 43 63 36 64 37 65 38 66 39 67
REMARK SMILES IDX 40 68 66 69 67 70 76 71 68 72 69 73 75 74 77 75 70 76 71 77
REMARK SMILES IDX 72 78 73 79 74 80 50 81 51 82 60 83 52 84 53 85 59 86 61 87
REMARK SMILES IDX 54 88 55 89 56 90 57 91 58 92
REMARK H PARENT 6 10 3 19 82 42 48 53
REMARK Flexibility Score: inf
ROOT
ATOM      1  O   UNL A   1      37.152  20.537  25.472  1.00  0.00    -0.374 OA
ENDROOT
BRANCH   1   2
ATOM      2  C   UNL A   1      35.992  21.087  24.856  1.00  0.00     0.202 C 
BRANCH   2   3
ATOM      3  C   UNL A   1      34.666  20.340  25.041  1.00  0.00     0.261 C 
BRANCH   3   4
ATOM      4  O   UNL A   1      33.662  21.112  25.716  1.00  0.00    -0.459 OA
BRANCH   4   5
ATOM      5  C   UNL A   1      32.467  21.201  25.067  1.00  0.00     0.367 C 
ATOM      6  O   UNL A   1      32.026  20.342  24.310  1.00  0.00    -0.245 OA
BRANCH   5   7
ATOM      7  C   UNL A   1      31.696  22.473  25.429  1.00  0.00     0.321 C 
ATOM      8  N   UNL A   1      31.729  23.507  24.356  1.00  0.00    -0.315 N 
ATOM      9  C   UNL A   1      30.878  24.641  24.764  1.00  0.00     0.292 C 
ATOM     10  H   UNL A   1      31.353  23.029  23.538  1.00  0.00     0.349 HD
ATOM     11  C   UNL A   1      31.150  25.154  26.184  1.00  0.00     0.221 C 
ATOM     12  C   UNL A   1      31.939  23.023  26.849  1.00  0.00     0.237 C 
ATOM     13  O   UNL A   1      31.033  24.100  27.149  1.00  0.00    -0.369 OA
BRANCH   8  14
ATOM     14  C   UNL A   1      33.026  23.919  23.771  1.00  0.00     0.210 C 
ATOM     15  C   UNL A   1      33.580  23.061  22.623  1.00  0.00     0.078 C 
BRANCH  14  16
ATOM     16  C   UNL A   1      33.035  25.425  23.346  1.00  0.00     0.169 C 
ATOM     17  C   UNL A   1      33.988  26.283  24.175  1.00  0.00     0.045 C 
BRANCH  16  18
ATOM     18  O   UNL A   1      33.456  25.517  21.978  1.00  0.00    -0.387 OA
ATOM     19  H   UNL A   1      34.239  26.087  21.918  1.00  0.00     0.211 HD
ENDBRANCH  16  18
ENDBRANCH  14  16
ENDBRANCH   8  14
ENDBRANCH   5   7
ENDBRANCH   4   5
ENDBRANCH   3   4
ENDBRANCH   2   3
ENDBRANCH   1   2
BRANCH   1  20
ATOM     20  C   UNL A   1      38.424  21.100  25.156  1.00  0.00     0.202 C 
BRANCH  20  21
ATOM     21  C   UNL A   1      39.307  21.585  26.313  1.00  0.00     0.261 C 
BRANCH  21  22
ATOM     22  O   UNL A   1      39.994  20.510  26.983  1.00  0.00    -0.460 OA
BRANCH  22  23
ATOM     23  C   UNL A   1      41.160  20.145  26.396  1.00  0.00     0.338 C 
ATOM     24  O   UNL A   1      41.363  19.139  25.729  1.00  0.00    -0.246 OA
BRANCH  23  25
ATOM     25  C   UNL A   1      42.171  21.209  26.513  1.00  0.00     0.060 A 
ATOM     26  C   UNL A   1      42.501  21.648  27.802  1.00  0.00     0.016 A 
ATOM     27  C   UNL A   1      42.661  21.876  25.388  1.00  0.00     0.016 A 
ATOM     28  C   UNL A   1      43.266  22.800  27.971  1.00  0.00     0.010 A 
ATOM     29  C   UNL A   1      43.422  23.039  25.561  1.00  0.00     0.010 A 
ATOM     30  C   UNL A   1      43.686  23.532  26.853  1.00  0.00    -0.014 A 
BRANCH  30  31
ATOM     31  C   UNL A   1      44.237  24.895  27.047  1.00  0.00     0.031 A 
ATOM     32  C   UNL A   1      43.317  25.994  27.514  1.00  0.00     0.074 A 
ATOM     33  C   UNL A   1      45.548  25.141  26.873  1.00  0.00     0.049 A 
ATOM     34  N   UNL A   1      43.581  27.251  27.756  1.00  0.00    -0.248 NA
ATOM     35  C   UNL A   1      41.911  25.621  27.741  1.00  0.00     0.031 C 
ATOM     36  C   UNL A   1      46.546  24.152  26.468  1.00  0.00     0.029 A 
ATOM     37  N   UNL A   1      46.264  26.302  27.019  1.00  0.00    -0.354 N 
ATOM     38  C   UNL A   1      42.380  27.820  28.166  1.00  0.00     0.074 A 
ATOM     39  C   UNL A   1      41.378  26.778  28.109  1.00  0.00     0.031 C 
ATOM     40  C   UNL A   1      47.748  24.751  26.395  1.00  0.00     0.029 A 
ATOM     41  C   UNL A   1      47.600  26.167  26.725  1.00  0.00     0.049 A 
ATOM     42  H   UNL A   1      45.859  27.152  27.308  1.00  0.00     0.167 HD
ATOM     43  C   UNL A   1      42.136  29.090  28.566  1.00  0.00     0.037 A 
ATOM     44  C   UNL A   1      48.586  27.086  26.714  1.00  0.00     0.037 A 
ATOM     45  C   UNL A   1      43.132  30.127  28.621  1.00  0.00     0.049 A 
ATOM     46  C   UNL A   1      48.277  28.509  27.105  1.00  0.00     0.074 A 
ATOM     47  C   UNL A   1      42.981  31.450  29.000  1.00  0.00     0.029 A 
ATOM     48  N   UNL A   1      44.468  29.958  28.289  1.00  0.00    -0.354 N 
ATOM     49  N   UNL A   1      47.136  29.029  27.490  1.00  0.00    -0.248 NA
ATOM     50  C   UNL A   1      49.392  29.465  27.066  1.00  0.00     0.031 C 
ATOM     51  C   UNL A   1      44.220  32.088  28.866  1.00  0.00     0.029 A 
ATOM     52  C   UNL A   1      45.150  31.153  28.444  1.00  0.00     0.049 A 
ATOM     53  H   UNL A   1      44.871  29.112  27.987  1.00  0.00     0.167 HD
ATOM     54  C   UNL A   1      47.403  30.366  27.768  1.00  0.00     0.074 A 
ATOM     55  C   UNL A   1      48.814  30.572  27.514  1.00  0.00     0.031 C 
ATOM     56  C   UNL A   1      46.559  31.335  28.201  1.00  0.00     0.037 A 
BRANCH  43  57
ATOM     57  C   UNL A   1      40.726  29.433  28.963  1.00  0.00     0.058 A 
ATOM     58  C   UNL A   1      39.707  29.567  28.007  1.00  0.00     0.135 A 
ATOM     59  C   UNL A   1      40.386  29.603  30.313  1.00  0.00     0.135 A 
ATOM     60  F   UNL A   1      39.984  29.433  26.700  1.00  0.00    -0.206 F 
ATOM     61  C   UNL A   1      38.403  29.883  28.375  1.00  0.00     0.059 A 
ATOM     62  C   UNL A   1      39.083  29.897  30.706  1.00  0.00     0.059 A 
ATOM     63  F   UNL A   1      41.324  29.489  31.267  1.00  0.00    -0.206 F 
ATOM     64  C   UNL A   1      38.101  30.049  29.728  1.00  0.00     0.060 A 
BRANCH  64  65
ATOM     65  S   UNL A   1      36.405  30.458  30.192  1.00  0.00     0.124 S 
ATOM     66  O   UNL A   1      36.478  31.911  30.309  1.00  0.00    -0.237 OA
ATOM     67  O   UNL A   1      35.638  29.951  29.060  1.00  0.00    -0.237 OA
ATOM     68  O   UNL A   1      36.215  29.737  31.448  1.00  0.00    -0.744 OA
ENDBRANCH  64  65
ENDBRANCH  43  57
BRANCH  44  69
ATOM     69  C   UNL A   1      49.963  26.694  26.320  1.00  0.00     0.058 A 
ATOM     70  C   UNL A   1      50.398  26.810  24.991  1.00  0.00     0.135 A 
ATOM     71  C   UNL A   1      50.868  26.181  27.262  1.00  0.00     0.135 A 
ATOM     72  F   UNL A   1      49.565  27.285  24.053  1.00  0.00    -0.206 F 
ATOM     73  C   UNL A   1      51.675  26.415  24.605  1.00  0.00     0.059 A 
ATOM     74  C   UNL A   1      52.158  25.801  26.906  1.00  0.00     0.059 A 
ATOM     75  F   UNL A   1      50.504  26.061  28.548  1.00  0.00    -0.206 F 
ATOM     76  C   UNL A   1      52.548  25.910  25.571  1.00  0.00     0.060 A 
BRANCH  76  77
ATOM     77  S   UNL A   1      54.217  25.435  25.071  1.00  0.00     0.124 S 
ATOM     78  O   UNL A   1      55.004  25.890  26.210  1.00  0.00    -0.237 OA
ATOM     79  O   UNL A   1      54.093  23.988  24.917  1.00  0.00    -0.237 OA
ATOM     80  O   UNL A   1      54.415  26.173  23.827  1.00  0.00    -0.744 OA
ENDBRANCH  76  77
ENDBRANCH  44  69
BRANCH  56  81
ATOM     81  C   UNL A   1      47.144  32.693  28.470  1.00  0.00     0.058 A 
ATOM     82  C   UNL A   1      47.194  33.686  27.479  1.00  0.00     0.135 A 
ATOM     83  C   UNL A   1      47.621  33.018  29.750  1.00  0.00     0.135 A 
ATOM     84  F   UNL A   1      46.755  33.425  26.238  1.00  0.00    -0.206 F 
ATOM     85  C   UNL A   1      47.723  34.946  27.742  1.00  0.00     0.059 A 
ATOM     86  C   UNL A   1      48.132  34.278  30.041  1.00  0.00     0.059 A 
ATOM     87  F   UNL A   1      47.584  32.107  30.737  1.00  0.00    -0.206 F 
ATOM     88  C   UNL A   1      48.191  35.232  29.026  1.00  0.00     0.060 A 
BRANCH  88  89
ATOM     89  S   UNL A   1      48.852  36.878  29.364  1.00  0.00     0.124 S 
ATOM     90  O   UNL A   1      50.142  36.821  28.684  1.00  0.00    -0.237 OA
ATOM     91  O   UNL A   1      47.853  37.751  28.755  1.00  0.00    -0.237 OA
ATOM     92  O   UNL A   1      48.910  36.927  30.822  1.00  0.00    -0.744 OA
ENDBRANCH  88  89
ENDBRANCH  56  81
ENDBRANCH  30  31
ENDBRANCH  23  25
ENDBRANCH  22  23
ENDBRANCH  21  22
ENDBRANCH  20  21
ENDBRANCH   1  20
TORSDOF 20
ENDMDL
MODEL 3
REMARK VINA RESULT:      -9.5      2.771      3.554
REMARK SMILES C[C@@H](O)[C@H](C)[N@@H+]1CCOC[C@@H]1C(=O)OCCOCCOC(=O)c1ccc(-c2c3nc(c(-c4c(F)cc(S(=O)(=O)[O-])cc4F)c4ccc([nH]4)c(-c4c(F)cc(S(=O)(=O)[O-])cc4F)c4nc(c(-c5c(F)cc(S(=O)(=O)[O-])cc5F)c5ccc2[nH]5)C=C4)C=C3)cc1
REMARK SMILES IDX 17 1 16 2 15 3 14 4 12 5 13 6 11 7 6 8 7 9 8 11 10 12 9 13
REMARK SMILES IDX 4 14 5 15 2 16 1 17 3 18 18 20 19 21 20 22 21 23 22 24 23 25
REMARK SMILES IDX 24 26 88 27 25 28 87 29 26 30 27 31 28 32 81 33 29 34 86 35
REMARK SMILES IDX 80 36 82 37 30 38 85 39 79 40 78 41 31 43 65 44 44 45 64 46
REMARK SMILES IDX 45 47 48 48 63 49 83 50 46 51 47 52 62 54 84 55 49 56 32 57
REMARK SMILES IDX 33 58 42 59 34 60 35 61 41 62 43 63 36 64 37 65 38 66 39 67
REMARK SMILES IDX 40 68 66 69 67 70 76 71 68 72 69 73 75 74 77 75 70 76 71 77
REMARK SMILES IDX 72 78 73 79 74 80 50 81 51 82 60 83 52 84 53 85 59 86 61 87
REMARK SMILES IDX 54 88 55 89 56 90 57 91 58 92
REMARK H PARENT 6 10 3 19 82 42 48 53
REMARK Flexibility Score: inf
ROOT
ATOM      1  O   UNL A   1      33.009  27.355  23.909  1.00  0.00    -0.374 OA
ENDROOT
BRANCH   1   2
ATOM      2  C   UNL A   1      31.784  26.637  24.013  1.00  0.00     0.202 C 
BRANCH   2   3
ATOM      3  C   UNL A   1      31.856  25.167  24.440  1.00  0.00     0.261 C 
BRANCH   3   4
ATOM      4  O   UNL A   1      33.197  24.682  24.604  1.00  0.00    -0.459 OA
BRANCH   4   5
ATOM      5  C   UNL A   1      33.454  23.479  24.016  1.00  0.00     0.367 C 
ATOM      6  O   UNL A   1      32.656  22.871  23.311  1.00  0.00    -0.245 OA
BRANCH   5   7
ATOM      7  C   UNL A   1      34.879  22.989  24.284  1.00  0.00     0.321 C 
ATOM      8  N   UNL A   1      34.948  21.539  24.625  1.00  0.00    -0.315 N 
ATOM      9  C   UNL A   1      36.365  21.151  24.762  1.00  0.00     0.292 C 
ATOM     10  H   UNL A   1      34.506  21.075  23.832  1.00  0.00     0.349 HD
ATOM     11  C   UNL A   1      37.189  22.082  25.663  1.00  0.00     0.221 C 
ATOM     12  C   UNL A   1      35.743  23.895  25.184  1.00  0.00     0.237 C 
ATOM     13  O   UNL A   1      37.109  23.442  25.216  1.00  0.00    -0.369 OA
BRANCH   8  14
ATOM     14  C   UNL A   1      34.077  20.993  25.691  1.00  0.00     0.210 C 
ATOM     15  C   UNL A   1      33.575  21.978  26.758  1.00  0.00     0.078 C 
BRANCH  14  16
ATOM     16  C   UNL A   1      32.864  20.190  25.113  1.00  0.00     0.169 C 
ATOM     17  C   UNL A   1      32.817  18.738  25.588  1.00  0.00     0.045 C 
BRANCH  16  18
ATOM     18  O   UNL A   1      31.648  20.819  25.539  1.00  0.00    -0.387 OA
ATOM     19  H   UNL A   1      30.892  20.264  25.292  1.00  0.00     0.211 HD
ENDBRANCH  16  18
ENDBRANCH  14  16
ENDBRANCH   8  14
ENDBRANCH   5   7
ENDBRANCH   4   5
ENDBRANCH   3   4
ENDBRANCH   2   3
ENDBRANCH   1   2
BRANCH   1  20
ATOM     20  C   UNL A   1      33.258  28.417  24.827  1.00  0.00     0.202 C 
BRANCH  20  21
ATOM     21  C   UNL A   1      32.969  28.170  26.314  1.00  0.00     0.261 C 
BRANCH  21  22
ATOM     22  O   UNL A   1      34.146  28.274  27.139  1.00  0.00    -0.460 OA
BRANCH  22  23
ATOM     23  C   UNL A   1      34.394  29.524  27.597  1.00  0.00     0.338 C 
ATOM     24  O   UNL A   1      33.577  30.421  27.763  1.00  0.00    -0.246 OA
BRANCH  23  25
ATOM     25  C   UNL A   1      35.788  29.660  28.049  1.00  0.00     0.060 A 
ATOM     26  C   UNL A   1      36.757  29.944  27.078  1.00  0.00     0.016 A 
ATOM     27  C   UNL A   1      36.164  29.351  29.358  1.00  0.00     0.016 A 
ATOM     28  C   UNL A   1      38.111  29.853  27.395  1.00  0.00     0.010 A 
ATOM     29  C   UNL A   1      37.525  29.252  29.673  1.00  0.00     0.010 A 
ATOM     30  C   UNL A   1      38.502  29.454  28.680  1.00  0.00    -0.014 A 
BRANCH  30  31
ATOM     31  C   UNL A   1      39.917  29.077  28.920  1.00  0.00     0.031 A 
ATOM     32  C   UNL A   1      40.839  30.081  29.564  1.00  0.00     0.074 A 
ATOM     33  C   UNL A   1      40.361  27.842  28.628  1.00  0.00     0.049 A 
ATOM     34  N   UNL A   1      42.104  29.966  29.873  1.00  0.00    -0.248 NA
ATOM     35  C   UNL A   1      40.253  31.386  29.908  1.00  0.00     0.031 C 
ATOM     36  C   UNL A   1      39.555  26.771  28.045  1.00  0.00     0.029 A 
ATOM     37  N   UNL A   1      41.603  27.281  28.787  1.00  0.00    -0.354 N 
ATOM     38  C   UNL A   1      42.466  31.179  30.449  1.00  0.00     0.074 A 
ATOM     39  C   UNL A   1      41.295  32.027  30.418  1.00  0.00     0.031 C 
ATOM     40  C   UNL A   1      40.326  25.679  27.892  1.00  0.00     0.029 A 
ATOM     41  C   UNL A   1      41.682  25.982  28.344  1.00  0.00     0.049 A 
ATOM     42  H   UNL A   1      42.365  27.763  29.181  1.00  0.00     0.167 HD
ATOM     43  C   UNL A   1      43.661  31.548  30.969  1.00  0.00     0.037 A 
ATOM     44  C   UNL A   1      42.734  25.140  28.300  1.00  0.00     0.037 A 
ATOM     45  C   UNL A   1      44.826  30.705  30.999  1.00  0.00     0.049 A 
ATOM     46  C   UNL A   1      44.070  25.595  28.829  1.00  0.00     0.074 A 
ATOM     47  C   UNL A   1      46.088  30.992  31.491  1.00  0.00     0.029 A 
ATOM     48  N   UNL A   1      44.873  29.406  30.515  1.00  0.00    -0.354 N 
ATOM     49  N   UNL A   1      44.394  26.745  29.370  1.00  0.00    -0.248 NA
ATOM     50  C   UNL A   1      45.179  24.635  28.746  1.00  0.00     0.031 C 
ATOM     51  C   UNL A   1      46.906  29.877  31.277  1.00  0.00     0.029 A 
ATOM     52  C   UNL A   1      46.144  28.882  30.689  1.00  0.00     0.049 A 
ATOM     53  H   UNL A   1      44.115  28.927  30.109  1.00  0.00     0.167 HD
ATOM     54  C   UNL A   1      45.736  26.635  29.721  1.00  0.00     0.074 A 
ATOM     55  C   UNL A   1      46.161  25.304  29.336  1.00  0.00     0.031 C 
ATOM     56  C   UNL A   1      46.544  27.549  30.313  1.00  0.00     0.037 A 
BRANCH  43  57
ATOM     57  C   UNL A   1      43.769  32.936  31.537  1.00  0.00     0.058 A 
ATOM     58  C   UNL A   1      44.147  34.028  30.740  1.00  0.00     0.135 A 
ATOM     59  C   UNL A   1      43.469  33.182  32.886  1.00  0.00     0.135 A 
ATOM     60  F   UNL A   1      44.464  33.844  29.448  1.00  0.00    -0.206 F 
ATOM     61  C   UNL A   1      44.247  35.312  31.266  1.00  0.00     0.059 A 
ATOM     62  C   UNL A   1      43.539  34.462  33.428  1.00  0.00     0.059 A 
ATOM     63  F   UNL A   1      43.105  32.172  33.692  1.00  0.00    -0.206 F 
ATOM     64  C   UNL A   1      43.943  35.519  32.613  1.00  0.00     0.060 A 
BRANCH  64  65
ATOM     65  S   UNL A   1      44.075  37.190  33.283  1.00  0.00     0.124 S 
ATOM     66  O   UNL A   1      43.998  37.997  32.069  1.00  0.00    -0.237 OA
ATOM     67  O   UNL A   1      42.918  37.266  34.169  1.00  0.00    -0.237 OA
ATOM     68  O   UNL A   1      45.373  37.185  33.951  1.00  0.00    -0.744 OA
ENDBRANCH  64  65
ENDBRANCH  43  57
BRANCH  44  69
ATOM     69  C   UNL A   1      42.571  23.776  27.733  1.00  0.00     0.058 A 
ATOM     70  C   UNL A   1      42.374  22.664  28.565  1.00  0.00     0.135 A 
ATOM     71  C   UNL A   1      42.622  23.557  26.348  1.00  0.00     0.135 A 
ATOM     72  F   UNL A   1      42.328  22.823  29.897  1.00  0.00    -0.206 F 
ATOM     73  C   UNL A   1      42.253  21.379  28.046  1.00  0.00     0.059 A 
ATOM     74  C   UNL A   1      42.480  22.285  25.804  1.00  0.00     0.059 A 
ATOM     75  F   UNL A   1      42.797  24.590  25.510  1.00  0.00    -0.206 F 
ATOM     76  C   UNL A   1      42.308  21.199  26.663  1.00  0.00     0.060 A 
BRANCH  76  77
ATOM     77  S   UNL A   1      42.111  19.534  25.993  1.00  0.00     0.124 S 
ATOM     78  O   UNL A   1      42.590  18.715  27.100  1.00  0.00    -0.237 OA
ATOM     79  O   UNL A   1      40.676  19.475  25.729  1.00  0.00    -0.237 OA
ATOM     80  O   UNL A   1      42.957  19.551  24.804  1.00  0.00    -0.744 OA
ENDBRANCH  76  77
ENDBRANCH  44  69
BRANCH  56  81
ATOM     81  C   UNL A   1      47.954  27.130  30.623  1.00  0.00     0.058 A 
ATOM     82  C   UNL A   1      49.025  27.461  29.780  1.00  0.00     0.135 A 
ATOM     83  C   UNL A   1      48.240  26.423  31.802  1.00  0.00     0.135 A 
ATOM     84  F   UNL A   1      48.804  28.132  28.638  1.00  0.00    -0.206 F 
ATOM     85  C   UNL A   1      50.330  27.083  30.082  1.00  0.00     0.059 A 
ATOM     86  C   UNL A   1      49.539  26.056  32.136  1.00  0.00     0.059 A 
ATOM     87  F   UNL A   1      47.251  26.092  32.649  1.00  0.00    -0.206 F 
ATOM     88  C   UNL A   1      50.576  26.379  31.262  1.00  0.00     0.060 A 
BRANCH  88  89
ATOM     89  S   UNL A   1      52.276  25.915  31.659  1.00  0.00     0.124 S 
ATOM     90  O   UNL A   1      52.669  26.988  32.565  1.00  0.00    -0.237 OA
ATOM     91  O   UNL A   1      52.109  24.599  32.269  1.00  0.00    -0.237 OA
ATOM     92  O   UNL A   1      52.938  25.915  30.358  1.00  0.00    -0.744 OA
ENDBRANCH  88  89
ENDBRANCH  56  81
ENDBRANCH  30  31
ENDBRANCH  23  25
ENDBRANCH  22  23
ENDBRANCH  21  22
ENDBRANCH  20  21
ENDBRANCH   1  20
TORSDOF 20
ENDMDL
