MODEL 1
REMARK VINA RESULT:     -10.8      0.000      0.000
REMARK SMILES Cc1nc(CNC(=O)[C@H]2CCO[C@H]2C)sc1C(=O)OCCOCCOC(=O)c1ccc(-c2c3nc(c(-c4c(F)cc(S(=O)(=O)[O-])cc4F)c4ccc([nH]4)c(-c4c(F)cc(S(=O)(=O)[O-])cc4F)c4nc(c(-c5c(F)cc(S(=O)(=O)[O-])cc5F)c5ccc2[nH]5)C=C4)C=C3)cc1
REMARK SMILES IDX 22 1 21 2 20 3 19 4 17 5 18 6 16 7 1 8 2 9 3 10 4 11 15 12
REMARK SMILES IDX 5 13 6 14 7 15 8 17 9 18 10 19 13 20 11 21 12 22 14 23 23 24
REMARK SMILES IDX 24 25 25 26 26 27 27 28 28 29 29 30 93 31 30 32 92 33 31 34
REMARK SMILES IDX 32 35 33 36 86 37 34 38 91 39 85 40 87 41 35 42 90 43 84 44
REMARK SMILES IDX 83 45 36 47 70 48 49 49 69 50 50 51 53 52 68 53 88 54 51 55
REMARK SMILES IDX 52 56 67 58 89 59 54 60 37 61 38 62 47 63 39 64 40 65 46 66
REMARK SMILES IDX 48 67 41 68 42 69 43 70 44 71 45 72 71 73 72 74 81 75 73 76
REMARK SMILES IDX 74 77 80 78 82 79 75 80 76 81 77 82 78 83 79 84 55 85 56 86
REMARK SMILES IDX 65 87 57 88 58 89 64 90 66 91 59 92 60 93 61 94 62 95 63 96
REMARK H PARENT 6 16 87 46 53 57
REMARK Flexibility Score: inf
ROOT
ATOM      1  O   UNL A   1      38.186  22.264  25.438  1.00  0.00    -0.374 OA
ENDROOT
BRANCH   1   2
ATOM      2  C   UNL A   1      37.354  21.485  24.574  1.00  0.00     0.202 C 
BRANCH   2   3
ATOM      3  C   UNL A   1      35.904  21.973  24.506  1.00  0.00     0.261 C 
BRANCH   3   4
ATOM      4  O   UNL A   1      35.043  21.013  25.146  1.00  0.00    -0.459 OA
BRANCH   4   5
ATOM      5  C   UNL A   1      33.740  21.021  24.754  1.00  0.00     0.350 C 
ATOM      6  O   UNL A   1      33.239  20.180  24.015  1.00  0.00    -0.245 OA
BRANCH   5   7
ATOM      7  C   UNL A   1      33.017  22.077  25.433  1.00  0.00     0.135 A 
ATOM      8  C   UNL A   1      33.686  21.956  27.941  1.00  0.00     0.068 C 
ATOM      9  C   UNL A   1      32.934  22.474  26.762  1.00  0.00     0.063 A 
ATOM     10  N   UNL A   1      32.036  23.514  27.000  1.00  0.00    -0.244 NA
ATOM     11  C   UNL A   1      31.464  23.901  25.881  1.00  0.00     0.113 A 
ATOM     12  S   UNL A   1      31.977  23.062  24.479  1.00  0.00    -0.110 S 
BRANCH  11  13
ATOM     13  C   UNL A   1      30.467  25.011  25.727  1.00  0.00     0.183 C 
BRANCH  13  14
ATOM     14  N   UNL A   1      30.653  26.041  26.733  1.00  0.00    -0.349 N 
ATOM     15  C   UNL A   1      31.221  27.273  26.607  1.00  0.00     0.226 C 
ATOM     16  H   UNL A   1      30.323  25.818  27.633  1.00  0.00     0.163 HD
ATOM     17  O   UNL A   1      31.148  28.053  27.557  1.00  0.00    -0.275 OA
BRANCH  15  18
ATOM     18  C   UNL A   1      31.897  27.641  25.304  1.00  0.00     0.109 C 
ATOM     19  C   UNL A   1      31.774  29.103  24.923  1.00  0.00     0.044 C 
ATOM     20  C   UNL A   1      33.410  27.448  25.309  1.00  0.00     0.127 C 
ATOM     21  C   UNL A   1      32.892  29.258  23.916  1.00  0.00     0.161 C 
ATOM     22  O   UNL A   1      33.910  28.309  24.262  1.00  0.00    -0.378 OA
ATOM     23  C   UNL A   1      34.123  27.841  26.601  1.00  0.00     0.039 C 
ENDBRANCH  15  18
ENDBRANCH  13  14
ENDBRANCH  11  13
ENDBRANCH   5   7
ENDBRANCH   4   5
ENDBRANCH   3   4
ENDBRANCH   2   3
ENDBRANCH   1   2
BRANCH   1  24
ATOM     24  C   UNL A   1      39.130  21.538  26.229  1.00  0.00     0.202 C 
BRANCH  24  25
ATOM     25  C   UNL A   1      40.470  22.247  26.452  1.00  0.00     0.261 C 
BRANCH  25  26
ATOM     26  O   UNL A   1      40.289  23.666  26.604  1.00  0.00    -0.460 OA
BRANCH  26  27
ATOM     27  C   UNL A   1      41.414  24.356  26.915  1.00  0.00     0.338 C 
ATOM     28  O   UNL A   1      42.529  24.186  26.453  1.00  0.00    -0.246 OA
BRANCH  27  29
ATOM     29  C   UNL A   1      41.074  25.499  27.787  1.00  0.00     0.060 A 
ATOM     30  C   UNL A   1      42.048  26.492  27.952  1.00  0.00     0.016 A 
ATOM     31  C   UNL A   1      39.855  25.584  28.467  1.00  0.00     0.016 A 
ATOM     32  C   UNL A   1      41.827  27.549  28.833  1.00  0.00     0.010 A 
ATOM     33  C   UNL A   1      39.638  26.644  29.356  1.00  0.00     0.010 A 
ATOM     34  C   UNL A   1      40.636  27.612  29.567  1.00  0.00    -0.014 A 
BRANCH  34  35
ATOM     35  C   UNL A   1      40.497  28.615  30.651  1.00  0.00     0.031 A 
ATOM     36  C   UNL A   1      41.385  28.510  31.861  1.00  0.00     0.074 A 
ATOM     37  C   UNL A   1      39.616  29.625  30.544  1.00  0.00     0.049 A 
ATOM     38  N   UNL A   1      41.423  29.265  32.928  1.00  0.00    -0.248 NA
ATOM     39  C   UNL A   1      42.359  27.408  31.868  1.00  0.00     0.031 C 
ATOM     40  C   UNL A   1      38.724  29.851  29.407  1.00  0.00     0.029 A 
ATOM     41  N   UNL A   1      39.323  30.649  31.410  1.00  0.00    -0.354 N 
ATOM     42  C   UNL A   1      42.421  28.731  33.734  1.00  0.00     0.074 A 
ATOM     43  C   UNL A   1      42.944  27.570  33.046  1.00  0.00     0.031 C 
ATOM     44  C   UNL A   1      37.973  30.940  29.653  1.00  0.00     0.029 A 
ATOM     45  C   UNL A   1      38.314  31.472  30.971  1.00  0.00     0.049 A 
ATOM     46  H   UNL A   1      39.792  30.782  32.265  1.00  0.00     0.167 HD
ATOM     47  C   UNL A   1      42.869  29.174  34.933  1.00  0.00     0.037 A 
ATOM     48  C   UNL A   1      37.721  32.522  31.572  1.00  0.00     0.037 A 
ATOM     49  C   UNL A   1      42.347  30.328  35.617  1.00  0.00     0.049 A 
ATOM     50  C   UNL A   1      38.197  32.963  32.932  1.00  0.00     0.074 A 
ATOM     51  C   UNL A   1      42.743  30.862  36.830  1.00  0.00     0.029 A 
ATOM     52  N   UNL A   1      41.310  31.122  35.150  1.00  0.00    -0.354 N 
ATOM     53  N   UNL A   1      39.157  32.461  33.673  1.00  0.00    -0.248 NA
ATOM     54  C   UNL A   1      37.512  34.115  33.537  1.00  0.00     0.031 C 
ATOM     55  C   UNL A   1      41.920  31.958  37.115  1.00  0.00     0.029 A 
ATOM     56  C   UNL A   1      41.040  32.130  36.059  1.00  0.00     0.049 A 
ATOM     57  H   UNL A   1      40.837  30.988  34.297  1.00  0.00     0.167 HD
ATOM     58  C   UNL A   1      39.207  33.248  34.818  1.00  0.00     0.074 A 
ATOM     59  C   UNL A   1      38.186  34.266  34.669  1.00  0.00     0.031 C 
ATOM     60  C   UNL A   1      40.025  33.140  35.894  1.00  0.00     0.037 A 
BRANCH  47  61
ATOM     61  C   UNL A   1      43.969  28.391  35.593  1.00  0.00     0.058 A 
ATOM     62  C   UNL A   1      45.322  28.662  35.332  1.00  0.00     0.135 A 
ATOM     63  C   UNL A   1      43.670  27.375  36.514  1.00  0.00     0.135 A 
ATOM     64  F   UNL A   1      45.663  29.611  34.445  1.00  0.00    -0.206 F 
ATOM     65  C   UNL A   1      46.340  27.937  35.944  1.00  0.00     0.059 A 
ATOM     66  C   UNL A   1      44.671  26.652  37.155  1.00  0.00     0.059 A 
ATOM     67  F   UNL A   1      42.393  27.074  36.795  1.00  0.00    -0.206 F 
ATOM     68  C   UNL A   1      46.004  26.931  36.852  1.00  0.00     0.060 A 
BRANCH  68  69
ATOM     69  S   UNL A   1      47.334  25.997  37.639  1.00  0.00     0.124 S 
ATOM     70  O   UNL A   1      48.514  26.676  37.114  1.00  0.00    -0.237 OA
ATOM     71  O   UNL A   1      47.064  26.201  39.059  1.00  0.00    -0.237 OA
ATOM     72  O   UNL A   1      47.125  24.637  37.154  1.00  0.00    -0.744 OA
ENDBRANCH  68  69
ENDBRANCH  47  61
BRANCH  48  73
ATOM     73  C   UNL A   1      36.600  33.226  30.897  1.00  0.00     0.058 A 
ATOM     74  C   UNL A   1      35.275  33.062  31.325  1.00  0.00     0.135 A 
ATOM     75  C   UNL A   1      36.836  34.082  29.809  1.00  0.00     0.135 A 
ATOM     76  F   UNL A   1      35.000  32.245  32.354  1.00  0.00    -0.206 F 
ATOM     77  C   UNL A   1      34.219  33.713  30.694  1.00  0.00     0.059 A 
ATOM     78  C   UNL A   1      35.800  34.762  29.177  1.00  0.00     0.059 A 
ATOM     79  F   UNL A   1      38.087  34.280  29.368  1.00  0.00    -0.206 F 
ATOM     80  C   UNL A   1      34.494  34.564  29.622  1.00  0.00     0.060 A 
BRANCH  80  81
ATOM     81  S   UNL A   1      33.125  35.451  28.845  1.00  0.00     0.124 S 
ATOM     82  O   UNL A   1      32.476  34.386  28.092  1.00  0.00    -0.237 OA
ATOM     83  O   UNL A   1      32.391  35.956  30.001  1.00  0.00    -0.237 OA
ATOM     84  O   UNL A   1      33.799  36.472  28.047  1.00  0.00    -0.744 OA
ENDBRANCH  80  81
ENDBRANCH  48  73
BRANCH  60  85
ATOM     85  C   UNL A   1      39.874  34.163  36.985  1.00  0.00     0.058 A 
ATOM     86  C   UNL A   1      40.447  35.441  36.882  1.00  0.00     0.135 A 
ATOM     87  C   UNL A   1      39.102  33.880  38.124  1.00  0.00     0.135 A 
ATOM     88  F   UNL A   1      41.197  35.760  35.816  1.00  0.00    -0.206 F 
ATOM     89  C   UNL A   1      40.275  36.396  37.879  1.00  0.00     0.059 A 
ATOM     90  C   UNL A   1      38.898  34.828  39.123  1.00  0.00     0.059 A 
ATOM     91  F   UNL A   1      38.525  32.676  38.266  1.00  0.00    -0.206 F 
ATOM     92  C   UNL A   1      39.497  36.080  38.995  1.00  0.00     0.060 A 
BRANCH  92  93
ATOM     93  S   UNL A   1      39.252  37.338  40.267  1.00  0.00     0.124 S 
ATOM     94  O   UNL A   1      38.540  36.582  41.293  1.00  0.00    -0.237 OA
ATOM     95  O   UNL A   1      40.621  37.723  40.599  1.00  0.00    -0.237 OA
ATOM     96  O   UNL A   1      38.469  38.363  39.584  1.00  0.00    -0.744 OA
ENDBRANCH  92  93
ENDBRANCH  60  85
ENDBRANCH  34  35
ENDBRANCH  27  29
ENDBRANCH  26  27
ENDBRANCH  25  26
ENDBRANCH  24  25
ENDBRANCH   1  24
TORSDOF 20
ENDMDL
MODEL 2
REMARK VINA RESULT:     -10.7      6.518     12.305
REMARK SMILES Cc1nc(CNC(=O)[C@H]2CCO[C@H]2C)sc1C(=O)OCCOCCOC(=O)c1ccc(-c2c3nc(c(-c4c(F)cc(S(=O)(=O)[O-])cc4F)c4ccc([nH]4)c(-c4c(F)cc(S(=O)(=O)[O-])cc4F)c4nc(c(-c5c(F)cc(S(=O)(=O)[O-])cc5F)c5ccc2[nH]5)C=C4)C=C3)cc1
REMARK SMILES IDX 22 1 21 2 20 3 19 4 17 5 18 6 16 7 1 8 2 9 3 10 4 11 15 12
REMARK SMILES IDX 5 13 6 14 7 15 8 17 9 18 10 19 13 20 11 21 12 22 14 23 23 24
REMARK SMILES IDX 24 25 25 26 26 27 27 28 28 29 29 30 93 31 30 32 92 33 31 34
REMARK SMILES IDX 32 35 33 36 86 37 34 38 91 39 85 40 87 41 35 42 90 43 84 44
REMARK SMILES IDX 83 45 36 47 70 48 49 49 69 50 50 51 53 52 68 53 88 54 51 55
REMARK SMILES IDX 52 56 67 58 89 59 54 60 37 61 38 62 47 63 39 64 40 65 46 66
REMARK SMILES IDX 48 67 41 68 42 69 43 70 44 71 45 72 71 73 72 74 81 75 73 76
REMARK SMILES IDX 74 77 80 78 82 79 75 80 76 81 77 82 78 83 79 84 55 85 56 86
REMARK SMILES IDX 65 87 57 88 58 89 64 90 66 91 59 92 60 93 61 94 62 95 63 96
REMARK H PARENT 6 16 87 46 53 57
REMARK Flexibility Score: inf
ROOT
ATOM      1  O   UNL A   1      33.371  30.417  27.408  1.00  0.00    -0.374 OA
ENDROOT
BRANCH   1   2
ATOM      2  C   UNL A   1      32.149  30.448  26.666  1.00  0.00     0.202 C 
BRANCH   2   3
ATOM      3  C   UNL A   1      32.220  29.715  25.324  1.00  0.00     0.261 C 
BRANCH   3   4
ATOM      4  O   UNL A   1      32.493  28.320  25.553  1.00  0.00    -0.459 OA
BRANCH   4   5
ATOM      5  C   UNL A   1      31.757  27.437  24.825  1.00  0.00     0.350 C 
ATOM      6  O   UNL A   1      30.531  27.416  24.805  1.00  0.00    -0.245 OA
BRANCH   5   7
ATOM      7  C   UNL A   1      32.622  26.627  23.992  1.00  0.00     0.135 A 
ATOM      8  C   UNL A   1      33.657  28.214  22.213  1.00  0.00     0.068 C 
ATOM      9  C   UNL A   1      33.398  26.902  22.871  1.00  0.00     0.063 A 
ATOM     10  N   UNL A   1      34.028  25.788  22.318  1.00  0.00    -0.244 NA
ATOM     11  C   UNL A   1      33.747  24.703  23.005  1.00  0.00     0.113 A 
ATOM     12  S   UNL A   1      32.732  24.950  24.362  1.00  0.00    -0.110 S 
BRANCH  11  13
ATOM     13  C   UNL A   1      34.261  23.320  22.737  1.00  0.00     0.183 C 
BRANCH  13  14
ATOM     14  N   UNL A   1      35.117  22.848  23.810  1.00  0.00    -0.349 N 
ATOM     15  C   UNL A   1      35.020  21.709  24.549  1.00  0.00     0.226 C 
ATOM     16  H   UNL A   1      35.874  23.435  24.036  1.00  0.00     0.163 HD
ATOM     17  O   UNL A   1      35.939  21.428  25.319  1.00  0.00    -0.275 OA
BRANCH  15  18
ATOM     18  C   UNL A   1      33.802  20.825  24.381  1.00  0.00     0.109 C 
ATOM     19  C   UNL A   1      33.996  19.394  24.844  1.00  0.00     0.044 C 
ATOM     20  C   UNL A   1      32.597  21.259  25.209  1.00  0.00     0.127 C 
ATOM     21  C   UNL A   1      32.567  18.926  25.012  1.00  0.00     0.161 C 
ATOM     22  O   UNL A   1      31.778  20.076  25.344  1.00  0.00    -0.378 OA
ATOM     23  C   UNL A   1      32.907  21.760  26.618  1.00  0.00     0.039 C 
ENDBRANCH  15  18
ENDBRANCH  13  14
ENDBRANCH  11  13
ENDBRANCH   5   7
ENDBRANCH   4   5
ENDBRANCH   3   4
ENDBRANCH   2   3
ENDBRANCH   1   2
BRANCH   1  24
ATOM     24  C   UNL A   1      33.877  31.682  27.844  1.00  0.00     0.202 C 
BRANCH  24  25
ATOM     25  C   UNL A   1      35.163  31.614  28.675  1.00  0.00     0.261 C 
BRANCH  25  26
ATOM     26  O   UNL A   1      35.670  30.269  28.739  1.00  0.00    -0.460 OA
BRANCH  26  27
ATOM     27  C   UNL A   1      36.364  29.973  29.866  1.00  0.00     0.338 C 
ATOM     28  O   UNL A   1      35.901  29.704  30.962  1.00  0.00    -0.246 OA
BRANCH  27  29
ATOM     29  C   UNL A   1      37.800  29.840  29.548  1.00  0.00     0.060 A 
ATOM     30  C   UNL A   1      38.148  29.694  28.200  1.00  0.00     0.016 A 
ATOM     31  C   UNL A   1      38.785  29.811  30.539  1.00  0.00     0.016 A 
ATOM     32  C   UNL A   1      39.476  29.470  27.840  1.00  0.00     0.010 A 
ATOM     33  C   UNL A   1      40.118  29.580  30.176  1.00  0.00     0.010 A 
ATOM     34  C   UNL A   1      40.463  29.376  28.828  1.00  0.00    -0.014 A 
BRANCH  34  35
ATOM     35  C   UNL A   1      41.829  28.930  28.458  1.00  0.00     0.031 A 
ATOM     36  C   UNL A   1      42.944  29.940  28.430  1.00  0.00     0.074 A 
ATOM     37  C   UNL A   1      42.079  27.637  28.184  1.00  0.00     0.049 A 
ATOM     38  N   UNL A   1      44.204  29.774  28.121  1.00  0.00    -0.248 NA
ATOM     39  C   UNL A   1      42.592  31.319  28.800  1.00  0.00     0.031 C 
ATOM     40  C   UNL A   1      41.089  26.562  28.209  1.00  0.00     0.029 A 
ATOM     41  N   UNL A   1      43.247  27.012  27.824  1.00  0.00    -0.354 N 
ATOM     42  C   UNL A   1      44.795  31.024  28.257  1.00  0.00     0.074 A 
ATOM     43  C   UNL A   1      43.750  31.945  28.648  1.00  0.00     0.031 C 
ATOM     44  C   UNL A   1      41.690  25.409  27.864  1.00  0.00     0.029 A 
ATOM     45  C   UNL A   1      43.098  25.669  27.573  1.00  0.00     0.049 A 
ATOM     46  H   UNL A   1      44.109  27.481  27.752  1.00  0.00     0.167 HD
ATOM     47  C   UNL A   1      46.093  31.371  28.083  1.00  0.00     0.037 A 
ATOM     48  C   UNL A   1      43.993  24.759  27.140  1.00  0.00     0.037 A 
ATOM     49  C   UNL A   1      47.130  30.453  27.693  1.00  0.00     0.049 A 
ATOM     50  C   UNL A   1      45.419  25.180  26.898  1.00  0.00     0.074 A 
ATOM     51  C   UNL A   1      48.477  30.708  27.502  1.00  0.00     0.029 A 
ATOM     52  N   UNL A   1      46.937  29.106  27.427  1.00  0.00    -0.354 N 
ATOM     53  N   UNL A   1      45.968  26.362  27.051  1.00  0.00    -0.248 NA
ATOM     54  C   UNL A   1      46.349  24.143  26.426  1.00  0.00     0.031 C 
ATOM     55  C   UNL A   1      49.091  29.521  27.084  1.00  0.00     0.029 A 
ATOM     56  C   UNL A   1      48.135  28.520  27.055  1.00  0.00     0.049 A 
ATOM     57  H   UNL A   1      46.074  28.636  27.493  1.00  0.00     0.167 HD
ATOM     58  C   UNL A   1      47.310  26.205  26.719  1.00  0.00     0.074 A 
ATOM     59  C   UNL A   1      47.492  24.812  26.364  1.00  0.00     0.031 C 
ATOM     60  C   UNL A   1      48.301  27.130  26.711  1.00  0.00     0.037 A 
BRANCH  47  61
ATOM     61  C   UNL A   1      46.457  32.813  28.295  1.00  0.00     0.058 A 
ATOM     62  C   UNL A   1      46.948  33.274  29.527  1.00  0.00     0.135 A 
ATOM     63  C   UNL A   1      46.339  33.741  27.248  1.00  0.00     0.135 A 
ATOM     64  F   UNL A   1      47.063  32.431  30.566  1.00  0.00    -0.206 F 
ATOM     65  C   UNL A   1      47.286  34.609  29.722  1.00  0.00     0.059 A 
ATOM     66  C   UNL A   1      46.693  35.076  27.413  1.00  0.00     0.059 A 
ATOM     67  F   UNL A   1      45.871  33.353  26.051  1.00  0.00    -0.206 F 
ATOM     68  C   UNL A   1      47.152  35.504  28.658  1.00  0.00     0.060 A 
BRANCH  68  69
ATOM     69  S   UNL A   1      47.593  37.235  28.923  1.00  0.00     0.124 S 
ATOM     70  O   UNL A   1      48.446  37.496  27.768  1.00  0.00    -0.237 OA
ATOM     71  O   UNL A   1      46.292  37.896  28.913  1.00  0.00    -0.237 OA
ATOM     72  O   UNL A   1      48.273  37.217  30.214  1.00  0.00    -0.744 OA
ENDBRANCH  68  69
ENDBRANCH  47  61
BRANCH  48  73
ATOM     73  C   UNL A   1      43.564  23.358  26.895  1.00  0.00     0.058 A 
ATOM     74  C   UNL A   1      43.313  22.478  27.958  1.00  0.00     0.135 A 
ATOM     75  C   UNL A   1      43.391  22.872  25.589  1.00  0.00     0.135 A 
ATOM     76  F   UNL A   1      43.475  22.894  29.224  1.00  0.00    -0.206 F 
ATOM     77  C   UNL A   1      42.916  21.163  27.738  1.00  0.00     0.059 A 
ATOM     78  C   UNL A   1      42.974  21.569  25.343  1.00  0.00     0.059 A 
ATOM     79  F   UNL A   1      43.609  23.678  24.538  1.00  0.00    -0.206 F 
ATOM     80  C   UNL A   1      42.746  20.719  26.424  1.00  0.00     0.060 A 
BRANCH  80  81
ATOM     81  S   UNL A   1      42.175  19.028  26.147  1.00  0.00     0.124 S 
ATOM     82  O   UNL A   1      42.383  18.429  27.460  1.00  0.00    -0.237 OA
ATOM     83  O   UNL A   1      40.785  19.234  25.751  1.00  0.00    -0.237 OA
ATOM     84  O   UNL A   1      43.056  18.549  25.085  1.00  0.00    -0.744 OA
ENDBRANCH  80  81
ENDBRANCH  48  73
BRANCH  60  85
ATOM     85  C   UNL A   1      49.681  26.665  26.334  1.00  0.00     0.058 A 
ATOM     86  C   UNL A   1      50.526  26.037  27.262  1.00  0.00     0.135 A 
ATOM     87  C   UNL A   1      50.141  26.802  25.014  1.00  0.00     0.135 A 
ATOM     88  F   UNL A   1      50.134  25.886  28.537  1.00  0.00    -0.206 F 
ATOM     89  C   UNL A   1      51.787  25.576  26.900  1.00  0.00     0.059 A 
ATOM     90  C   UNL A   1      51.391  26.329  24.624  1.00  0.00     0.059 A 
ATOM     91  F   UNL A   1      49.368  27.387  24.086  1.00  0.00    -0.206 F 
ATOM     92  C   UNL A   1      52.211  25.727  25.577  1.00  0.00     0.060 A 
BRANCH  92  93
ATOM     93  S   UNL A   1      53.837  25.095  25.109  1.00  0.00     0.124 S 
ATOM     94  O   UNL A   1      54.597  25.305  26.337  1.00  0.00    -0.237 OA
ATOM     95  O   UNL A   1      53.549  23.704  24.771  1.00  0.00    -0.237 OA
ATOM     96  O   UNL A   1      54.217  25.940  23.981  1.00  0.00    -0.744 OA
ENDBRANCH  92  93
ENDBRANCH  60  85
ENDBRANCH  34  35
ENDBRANCH  27  29
ENDBRANCH  26  27
ENDBRANCH  25  26
ENDBRANCH  24  25
ENDBRANCH   1  24
TORSDOF 20
ENDMDL
MODEL 3
REMARK VINA RESULT:     -10.6      2.431      4.283
REMARK SMILES Cc1nc(CNC(=O)[C@H]2CCO[C@H]2C)sc1C(=O)OCCOCCOC(=O)c1ccc(-c2c3nc(c(-c4c(F)cc(S(=O)(=O)[O-])cc4F)c4ccc([nH]4)c(-c4c(F)cc(S(=O)(=O)[O-])cc4F)c4nc(c(-c5c(F)cc(S(=O)(=O)[O-])cc5F)c5ccc2[nH]5)C=C4)C=C3)cc1
REMARK SMILES IDX 22 1 21 2 20 3 19 4 17 5 18 6 16 7 1 8 2 9 3 10 4 11 15 12
REMARK SMILES IDX 5 13 6 14 7 15 8 17 9 18 10 19 13 20 11 21 12 22 14 23 23 24
REMARK SMILES IDX 24 25 25 26 26 27 27 28 28 29 29 30 93 31 30 32 92 33 31 34
REMARK SMILES IDX 32 35 33 36 86 37 34 38 91 39 85 40 87 41 35 42 90 43 84 44
REMARK SMILES IDX 83 45 36 47 70 48 49 49 69 50 50 51 53 52 68 53 88 54 51 55
REMARK SMILES IDX 52 56 67 58 89 59 54 60 37 61 38 62 47 63 39 64 40 65 46 66
REMARK SMILES IDX 48 67 41 68 42 69 43 70 44 71 45 72 71 73 72 74 81 75 73 76
REMARK SMILES IDX 74 77 80 78 82 79 75 80 76 81 77 82 78 83 79 84 55 85 56 86
REMARK SMILES IDX 65 87 57 88 58 89 64 90 66 91 59 92 60 93 61 94 62 95 63 96
REMARK H PARENT 6 16 87 46 53 57
REMARK Flexibility Score: inf
ROOT
ATOM      1  O   UNL A   1      45.292  21.997  25.179  1.00  0.00    -0.374 OA
ENDROOT
BRANCH   1   2
ATOM      2  C   UNL A   1      44.677  20.897  24.505  1.00  0.00     0.202 C 
BRANCH   2   3
ATOM      3  C   UNL A   1      44.089  19.842  25.448  1.00  0.00     0.261 C 
BRANCH   3   4
ATOM      4  O   UNL A   1      42.652  19.902  25.399  1.00  0.00    -0.459 OA
BRANCH   4   5
ATOM      5  C   UNL A   1      42.009  19.845  26.597  1.00  0.00     0.350 C 
ATOM      6  O   UNL A   1      42.227  18.997  27.455  1.00  0.00    -0.245 OA
BRANCH   5   7
ATOM      7  C   UNL A   1      41.137  20.991  26.755  1.00  0.00     0.135 A 
ATOM      8  C   UNL A   1      42.180  22.481  28.611  1.00  0.00     0.068 C 
ATOM      9  C   UNL A   1      41.149  22.088  27.608  1.00  0.00     0.063 A 
ATOM     10  N   UNL A   1      40.049  22.935  27.476  1.00  0.00    -0.244 NA
ATOM     11  C   UNL A   1      39.233  22.499  26.542  1.00  0.00     0.113 A 
ATOM     12  S   UNL A   1      39.739  21.065  25.753  1.00  0.00    -0.110 S 
BRANCH  11  13
ATOM     13  C   UNL A   1      37.963  23.155  26.091  1.00  0.00     0.183 C 
BRANCH  13  14
ATOM     14  N   UNL A   1      37.732  22.960  24.671  1.00  0.00    -0.349 N 
ATOM     15  C   UNL A   1      36.561  22.996  23.977  1.00  0.00     0.226 C 
ATOM     16  H   UNL A   1      38.536  22.775  24.134  1.00  0.00     0.163 HD
ATOM     17  O   UNL A   1      36.605  22.947  22.748  1.00  0.00    -0.275 OA
BRANCH  15  18
ATOM     18  C   UNL A   1      35.259  23.117  24.739  1.00  0.00     0.109 C 
ATOM     19  C   UNL A   1      34.035  23.308  23.865  1.00  0.00     0.044 C 
ATOM     20  C   UNL A   1      34.882  21.870  25.534  1.00  0.00     0.127 C 
ATOM     21  C   UNL A   1      32.916  22.915  24.806  1.00  0.00     0.161 C 
ATOM     22  O   UNL A   1      33.453  21.956  25.728  1.00  0.00    -0.378 OA
ATOM     23  C   UNL A   1      35.169  20.537  24.847  1.00  0.00     0.039 C 
ENDBRANCH  15  18
ENDBRANCH  13  14
ENDBRANCH  11  13
ENDBRANCH   5   7
ENDBRANCH   4   5
ENDBRANCH   3   4
ENDBRANCH   2   3
ENDBRANCH   1   2
BRANCH   1  24
ATOM     24  C   UNL A   1      44.407  22.909  25.836  1.00  0.00     0.202 C 
BRANCH  24  25
ATOM     25  C   UNL A   1      43.302  23.493  24.949  1.00  0.00     0.261 C 
BRANCH  25  26
ATOM     26  O   UNL A   1      42.660  24.611  25.587  1.00  0.00    -0.460 OA
BRANCH  26  27
ATOM     27  C   UNL A   1      43.494  25.616  25.954  1.00  0.00     0.338 C 
ATOM     28  O   UNL A   1      44.550  25.921  25.427  1.00  0.00    -0.246 OA
BRANCH  27  29
ATOM     29  C   UNL A   1      42.854  26.439  27.001  1.00  0.00     0.060 A 
ATOM     30  C   UNL A   1      43.280  27.768  27.122  1.00  0.00     0.016 A 
ATOM     31  C   UNL A   1      41.895  25.922  27.876  1.00  0.00     0.016 A 
ATOM     32  C   UNL A   1      42.785  28.571  28.148  1.00  0.00     0.010 A 
ATOM     33  C   UNL A   1      41.404  26.729  28.910  1.00  0.00     0.010 A 
ATOM     34  C   UNL A   1      41.871  28.045  29.069  1.00  0.00    -0.014 A 
BRANCH  34  35
ATOM     35  C   UNL A   1      41.512  28.833  30.274  1.00  0.00     0.031 A 
ATOM     36  C   UNL A   1      42.317  28.650  31.532  1.00  0.00     0.074 A 
ATOM     37  C   UNL A   1      40.505  29.724  30.238  1.00  0.00     0.049 A 
ATOM     38  N   UNL A   1      42.170  29.221  32.700  1.00  0.00    -0.248 NA
ATOM     39  C   UNL A   1      43.436  27.698  31.464  1.00  0.00     0.031 C 
ATOM     40  C   UNL A   1      39.674  30.013  29.070  1.00  0.00     0.029 A 
ATOM     41  N   UNL A   1      40.008  30.548  31.217  1.00  0.00    -0.354 N 
ATOM     42  C   UNL A   1      43.174  28.698  33.505  1.00  0.00     0.074 A 
ATOM     43  C   UNL A   1      43.905  27.742  32.703  1.00  0.00     0.031 C 
ATOM     44  C   UNL A   1      38.760  30.940  29.406  1.00  0.00     0.029 A 
ATOM     45  C   UNL A   1      38.925  31.292  30.814  1.00  0.00     0.049 A 
ATOM     46  H   UNL A   1      40.390  30.600  32.123  1.00  0.00     0.167 HD
ATOM     47  C   UNL A   1      43.466  28.995  34.794  1.00  0.00     0.037 A 
ATOM     48  C   UNL A   1      38.147  32.144  31.509  1.00  0.00     0.037 A 
ATOM     49  C   UNL A   1      42.736  29.945  35.592  1.00  0.00     0.049 A 
ATOM     50  C   UNL A   1      38.456  32.417  32.958  1.00  0.00     0.074 A 
ATOM     51  C   UNL A   1      42.964  30.324  36.903  1.00  0.00     0.029 A 
ATOM     52  N   UNL A   1      41.633  30.663  35.155  1.00  0.00    -0.354 N 
ATOM     53  N   UNL A   1      39.422  31.931  33.701  1.00  0.00    -0.248 NA
ATOM     54  C   UNL A   1      37.571  33.357  33.663  1.00  0.00     0.031 C 
ATOM     55  C   UNL A   1      41.974  31.242  37.271  1.00  0.00     0.029 A 
ATOM     56  C   UNL A   1      41.156  31.467  36.176  1.00  0.00     0.049 A 
ATOM     57  H   UNL A   1      41.246  30.609  34.251  1.00  0.00     0.167 HD
ATOM     58  C   UNL A   1      39.276  32.523  34.951  1.00  0.00     0.074 A 
ATOM     59  C   UNL A   1      38.134  33.410  34.862  1.00  0.00     0.031 C 
ATOM     60  C   UNL A   1      40.021  32.350  36.070  1.00  0.00     0.037 A 
BRANCH  47  61
ATOM     61  C   UNL A   1      44.617  28.266  35.428  1.00  0.00     0.058 A 
ATOM     62  C   UNL A   1      44.431  27.060  36.122  1.00  0.00     0.135 A 
ATOM     63  C   UNL A   1      45.924  28.765  35.320  1.00  0.00     0.135 A 
ATOM     64  F   UNL A   1      43.198  26.549  36.270  1.00  0.00    -0.206 F 
ATOM     65  C   UNL A   1      45.498  26.385  36.708  1.00  0.00     0.059 A 
ATOM     66  C   UNL A   1      47.010  28.096  35.878  1.00  0.00     0.059 A 
ATOM     67  F   UNL A   1      46.156  29.916  34.670  1.00  0.00    -0.206 F 
ATOM     68  C   UNL A   1      46.784  26.914  36.582  1.00  0.00     0.060 A 
BRANCH  68  69
ATOM     69  S   UNL A   1      48.160  26.030  37.348  1.00  0.00     0.124 S 
ATOM     70  O   UNL A   1      47.694  24.649  37.273  1.00  0.00    -0.237 OA
ATOM     71  O   UNL A   1      49.277  26.369  36.472  1.00  0.00    -0.237 OA
ATOM     72  O   UNL A   1      48.224  26.599  38.690  1.00  0.00    -0.744 OA
ENDBRANCH  68  69
ENDBRANCH  47  61
BRANCH  48  73
ATOM     73  C   UNL A   1      36.988  32.797  30.845  1.00  0.00     0.058 A 
ATOM     74  C   UNL A   1      37.161  33.905  30.004  1.00  0.00     0.135 A 
ATOM     75  C   UNL A   1      35.682  32.318  31.036  1.00  0.00     0.135 A 
ATOM     76  F   UNL A   1      38.390  34.405  29.799  1.00  0.00    -0.206 F 
ATOM     77  C   UNL A   1      36.082  34.525  29.383  1.00  0.00     0.059 A 
ATOM     78  C   UNL A   1      34.589  32.906  30.409  1.00  0.00     0.059 A 
ATOM     79  F   UNL A   1      35.465  31.254  31.824  1.00  0.00    -0.206 F 
ATOM     80  C   UNL A   1      34.798  34.015  29.590  1.00  0.00     0.060 A 
BRANCH  80  81
ATOM     81  S   UNL A   1      33.408  34.789  28.735  1.00  0.00     0.124 S 
ATOM     82  O   UNL A   1      32.525  35.116  29.847  1.00  0.00    -0.237 OA
ATOM     83  O   UNL A   1      34.047  35.921  28.071  1.00  0.00    -0.237 OA
ATOM     84  O   UNL A   1      32.938  33.734  27.841  1.00  0.00    -0.744 OA
ENDBRANCH  80  81
ENDBRANCH  48  73
BRANCH  60  85
ATOM     85  C   UNL A   1      39.648  33.155  37.284  1.00  0.00     0.058 A 
ATOM     86  C   UNL A   1      38.660  32.720  38.181  1.00  0.00     0.135 A 
ATOM     87  C   UNL A   1      40.325  34.349  37.581  1.00  0.00     0.135 A 
ATOM     88  F   UNL A   1      37.981  31.588  37.940  1.00  0.00    -0.206 F 
ATOM     89  C   UNL A   1      38.343  33.450  39.322  1.00  0.00     0.059 A 
ATOM     90  C   UNL A   1      40.040  35.084  38.728  1.00  0.00     0.059 A 
ATOM     91  F   UNL A   1      41.285  34.803  36.761  1.00  0.00    -0.206 F 
ATOM     92  C   UNL A   1      39.040  34.631  39.587  1.00  0.00     0.060 A 
BRANCH  92  93
ATOM     93  S   UNL A   1      38.645  35.554  41.089  1.00  0.00     0.124 S 
ATOM     94  O   UNL A   1      39.801  35.255  41.929  1.00  0.00    -0.237 OA
ATOM     95  O   UNL A   1      38.555  36.927  40.600  1.00  0.00    -0.237 OA
ATOM     96  O   UNL A   1      37.382  34.968  41.525  1.00  0.00    -0.744 OA
ENDBRANCH  92  93
ENDBRANCH  60  85
ENDBRANCH  34  35
ENDBRANCH  27  29
ENDBRANCH  26  27
ENDBRANCH  25  26
ENDBRANCH  24  25
ENDBRANCH   1  24
TORSDOF 20
ENDMDL
