MODEL 1
REMARK VINA RESULT:     -10.7      0.000      0.000
REMARK SMILES Cc1ccccc1OCCC(=O)N[C@@](C)(C(=O)OCCOCCOC(=O)c1ccc(-c2c3nc(c(-c4c(F)cc(S(=O)(=O)[O-])cc4F)c4ccc([nH]4)c(-c4c(F)cc(S(=O)(=O)[O-])cc4F)c4nc(c(-c5c(F)cc(S(=O)(=O)[O-])cc5F)c5ccc2[nH]5)C=C4)C=C3)cc1)C1CC1
REMARK SMILES IDX 20 1 19 2 18 3 16 4 17 5 14 6 15 7 13 8 11 9 12 10 10 12
REMARK SMILES IDX 9 13 8 14 7 15 1 16 2 17 3 18 4 19 6 20 5 21 93 22 94 23
REMARK SMILES IDX 95 24 21 25 22 26 23 27 24 28 25 29 26 30 27 31 28 32 92 33
REMARK SMILES IDX 29 34 91 35 30 36 31 37 32 38 85 39 33 40 90 41 84 42 86 43
REMARK SMILES IDX 34 44 89 45 83 46 82 47 35 49 69 50 48 51 68 52 49 53 52 54
REMARK SMILES IDX 67 55 87 56 50 57 51 58 66 60 88 61 53 62 36 63 37 64 46 65
REMARK SMILES IDX 38 66 39 67 45 68 47 69 40 70 41 71 42 72 43 73 44 74 70 75
REMARK SMILES IDX 71 76 80 77 72 78 73 79 79 80 81 81 74 82 75 83 76 84 77 85
REMARK SMILES IDX 78 86 54 87 55 88 64 89 56 90 57 91 63 92 65 93 58 94 59 95
REMARK SMILES IDX 60 96 61 97 62 98
REMARK H PARENT 13 11 86 48 52 59
REMARK Flexibility Score: inf
ROOT
ATOM      1  C   UNL A   1      36.629  24.097  25.452  1.00  0.00     0.202 C 
ENDROOT
BRANCH   1   2
ATOM      2  C   UNL A   1      35.211  23.982  24.902  1.00  0.00     0.261 C 
BRANCH   2   3
ATOM      3  O   UNL A   1      34.224  23.680  25.917  1.00  0.00    -0.461 OA
BRANCH   3   4
ATOM      4  C   UNL A   1      33.677  22.491  26.279  1.00  0.00     0.331 C 
ATOM      5  O   UNL A   1      34.318  21.729  27.008  1.00  0.00    -0.249 OA
BRANCH   4   6
ATOM      6  C   UNL A   1      32.417  21.976  25.533  1.00  0.00     0.138 C 
ATOM      7  C   UNL A   1      32.429  22.764  24.234  1.00  0.00     0.048 C 
BRANCH   6   8
ATOM      8  N   UNL A   1      31.163  22.266  26.268  1.00  0.00    -0.340 N 
ATOM      9  C   UNL A   1      30.568  23.367  26.785  1.00  0.00     0.224 C 
ATOM     10  O   UNL A   1      29.588  23.175  27.514  1.00  0.00    -0.275 OA
ATOM     11  H   UNL A   1      30.628  21.453  26.419  1.00  0.00     0.164 HD
BRANCH   9  12
ATOM     12  C   UNL A   1      30.909  24.773  26.356  1.00  0.00     0.141 C 
BRANCH  12  13
ATOM     13  C   UNL A   1      30.097  25.534  25.310  1.00  0.00     0.239 C 
BRANCH  13  14
ATOM     14  O   UNL A   1      30.432  26.860  24.953  1.00  0.00    -0.493 OA
BRANCH  14  15
ATOM     15  C   UNL A   1      31.586  27.232  24.329  1.00  0.00     0.122 A 
ATOM     16  C   UNL A   1      31.637  25.830  22.141  1.00  0.00     0.048 C 
ATOM     17  C   UNL A   1      32.060  26.949  23.046  1.00  0.00    -0.009 A 
ATOM     18  C   UNL A   1      33.113  27.749  22.539  1.00  0.00     0.007 A 
ATOM     19  C   UNL A   1      33.720  28.749  23.296  1.00  0.00     0.001 A 
ATOM     20  C   UNL A   1      32.305  28.149  25.132  1.00  0.00     0.047 A 
ATOM     21  C   UNL A   1      33.343  28.925  24.616  1.00  0.00     0.004 A 
ENDBRANCH  14  15
ENDBRANCH  13  14
ENDBRANCH  12  13
ENDBRANCH   9  12
ENDBRANCH   6   8
BRANCH   6  22
ATOM     22  C   UNL A   1      32.524  20.460  25.303  1.00  0.00     0.026 C 
ATOM     23  C   UNL A   1      32.337  19.824  23.928  1.00  0.00     0.007 C 
ATOM     24  C   UNL A   1      33.675  19.772  24.590  1.00  0.00     0.007 C 
ENDBRANCH   6  22
ENDBRANCH   4   6
ENDBRANCH   3   4
ENDBRANCH   2   3
ENDBRANCH   1   2
BRANCH   1  25
ATOM     25  O   UNL A   1      37.422  23.061  24.885  1.00  0.00    -0.374 OA
BRANCH  25  26
ATOM     26  C   UNL A   1      37.479  21.837  25.594  1.00  0.00     0.202 C 
BRANCH  26  27
ATOM     27  C   UNL A   1      38.888  21.259  25.777  1.00  0.00     0.261 C 
BRANCH  27  28
ATOM     28  O   UNL A   1      39.585  21.968  26.818  1.00  0.00    -0.460 OA
BRANCH  28  29
ATOM     29  C   UNL A   1      40.663  22.697  26.400  1.00  0.00     0.338 C 
ATOM     30  O   UNL A   1      41.638  22.222  25.857  1.00  0.00    -0.246 OA
BRANCH  29  31
ATOM     31  C   UNL A   1      40.461  24.131  26.763  1.00  0.00     0.060 A 
ATOM     32  C   UNL A   1      40.779  25.169  25.872  1.00  0.00     0.016 A 
ATOM     33  C   UNL A   1      40.128  24.440  28.073  1.00  0.00     0.016 A 
ATOM     34  C   UNL A   1      40.863  26.505  26.327  1.00  0.00     0.010 A 
ATOM     35  C   UNL A   1      40.267  25.739  28.516  1.00  0.00     0.010 A 
ATOM     36  C   UNL A   1      40.646  26.797  27.675  1.00  0.00    -0.014 A 
BRANCH  36  37
ATOM     37  C   UNL A   1      40.937  28.074  28.368  1.00  0.00     0.031 A 
ATOM     38  C   UNL A   1      39.879  29.117  28.576  1.00  0.00     0.074 A 
ATOM     39  C   UNL A   1      42.067  28.233  29.104  1.00  0.00     0.049 A 
ATOM     40  N   UNL A   1      40.134  30.328  28.963  1.00  0.00    -0.248 NA
ATOM     41  C   UNL A   1      38.445  28.902  28.379  1.00  0.00     0.031 C 
ATOM     42  C   UNL A   1      42.189  29.050  30.317  1.00  0.00     0.029 A 
ATOM     43  N   UNL A   1      43.319  27.642  29.000  1.00  0.00    -0.354 N 
ATOM     44  C   UNL A   1      38.956  30.893  29.394  1.00  0.00     0.074 A 
ATOM     45  C   UNL A   1      37.923  29.986  28.958  1.00  0.00     0.031 C 
ATOM     46  C   UNL A   1      43.455  29.038  30.752  1.00  0.00     0.029 A 
ATOM     47  C   UNL A   1      44.257  28.335  29.774  1.00  0.00     0.049 A 
ATOM     48  H   UNL A   1      43.519  26.846  28.458  1.00  0.00     0.167 HD
ATOM     49  C   UNL A   1      38.969  31.999  30.192  1.00  0.00     0.037 A 
ATOM     50  C   UNL A   1      45.429  28.807  29.259  1.00  0.00     0.037 A 
ATOM     51  C   UNL A   1      40.331  32.372  30.579  1.00  0.00     0.049 A 
ATOM     52  C   UNL A   1      45.462  30.313  29.226  1.00  0.00     0.074 A 
ATOM     53  C   UNL A   1      41.044  32.211  31.756  1.00  0.00     0.029 A 
ATOM     54  N   UNL A   1      41.259  32.749  29.612  1.00  0.00    -0.354 N 
ATOM     55  N   UNL A   1      44.390  31.030  29.416  1.00  0.00    -0.248 NA
ATOM     56  C   UNL A   1      46.640  31.145  29.002  1.00  0.00     0.031 C 
ATOM     57  C   UNL A   1      42.403  32.510  31.497  1.00  0.00     0.029 A 
ATOM     58  C   UNL A   1      42.524  32.850  30.160  1.00  0.00     0.049 A 
ATOM     59  H   UNL A   1      41.044  32.921  28.666  1.00  0.00     0.167 HD
ATOM     60  C   UNL A   1      44.674  32.355  29.291  1.00  0.00     0.074 A 
ATOM     61  C   UNL A   1      46.104  32.382  29.046  1.00  0.00     0.031 C 
ATOM     62  C   UNL A   1      43.678  33.285  29.376  1.00  0.00     0.037 A 
BRANCH  49  63
ATOM     63  C   UNL A   1      37.724  32.601  30.819  1.00  0.00     0.058 A 
ATOM     64  C   UNL A   1      37.167  32.089  32.011  1.00  0.00     0.135 A 
ATOM     65  C   UNL A   1      37.049  33.725  30.294  1.00  0.00     0.135 A 
ATOM     66  F   UNL A   1      37.733  31.073  32.675  1.00  0.00    -0.206 F 
ATOM     67  C   UNL A   1      36.000  32.594  32.589  1.00  0.00     0.059 A 
ATOM     68  C   UNL A   1      35.847  34.211  30.820  1.00  0.00     0.059 A 
ATOM     69  F   UNL A   1      37.562  34.427  29.273  1.00  0.00    -0.206 F 
ATOM     70  C   UNL A   1      35.330  33.643  31.975  1.00  0.00     0.060 A 
BRANCH  70  71
ATOM     71  S   UNL A   1      33.806  34.257  32.715  1.00  0.00     0.124 S 
ATOM     72  O   UNL A   1      33.205  33.039  33.249  1.00  0.00    -0.237 OA
ATOM     73  O   UNL A   1      34.309  35.202  33.704  1.00  0.00    -0.237 OA
ATOM     74  O   UNL A   1      33.094  34.850  31.585  1.00  0.00    -0.744 OA
ENDBRANCH  70  71
ENDBRANCH  49  63
BRANCH  50  75
ATOM     75  C   UNL A   1      46.100  27.840  28.350  1.00  0.00     0.058 A 
ATOM     76  C   UNL A   1      46.520  26.640  28.955  1.00  0.00     0.135 A 
ATOM     77  C   UNL A   1      45.757  27.795  26.988  1.00  0.00     0.135 A 
ATOM     78  F   UNL A   1      46.893  26.634  30.245  1.00  0.00    -0.206 F 
ATOM     79  C   UNL A   1      46.378  25.414  28.313  1.00  0.00     0.059 A 
ATOM     80  C   UNL A   1      45.587  26.573  26.334  1.00  0.00     0.059 A 
ATOM     81  F   UNL A   1      45.376  28.913  26.352  1.00  0.00    -0.206 F 
ATOM     82  C   UNL A   1      45.829  25.387  27.033  1.00  0.00     0.060 A 
BRANCH  82  83
ATOM     83  S   UNL A   1      45.146  23.817  26.431  1.00  0.00     0.124 S 
ATOM     84  O   UNL A   1      46.325  22.964  26.403  1.00  0.00    -0.237 OA
ATOM     85  O   UNL A   1      44.149  23.500  27.455  1.00  0.00    -0.237 OA
ATOM     86  O   UNL A   1      44.580  24.183  25.139  1.00  0.00    -0.744 OA
ENDBRANCH  82  83
ENDBRANCH  50  75
BRANCH  62  87
ATOM     87  C   UNL A   1      43.739  34.694  28.840  1.00  0.00     0.058 A 
ATOM     88  C   UNL A   1      43.676  35.013  27.472  1.00  0.00     0.135 A 
ATOM     89  C   UNL A   1      43.709  35.805  29.720  1.00  0.00     0.135 A 
ATOM     90  F   UNL A   1      43.572  34.065  26.531  1.00  0.00    -0.206 F 
ATOM     91  C   UNL A   1      43.668  36.326  27.007  1.00  0.00     0.059 A 
ATOM     92  C   UNL A   1      43.640  37.124  29.278  1.00  0.00     0.059 A 
ATOM     93  F   UNL A   1      43.725  35.653  31.053  1.00  0.00    -0.206 F 
ATOM     94  C   UNL A   1      43.655  37.376  27.917  1.00  0.00     0.060 A 
BRANCH  94  95
ATOM     95  S   UNL A   1      43.614  39.067  27.304  1.00  0.00     0.124 S 
ATOM     96  O   UNL A   1      44.772  39.079  26.416  1.00  0.00    -0.237 OA
ATOM     97  O   UNL A   1      42.313  39.138  26.646  1.00  0.00    -0.237 OA
ATOM     98  O   UNL A   1      43.737  39.870  28.517  1.00  0.00    -0.744 OA
ENDBRANCH  94  95
ENDBRANCH  62  87
ENDBRANCH  36  37
ENDBRANCH  29  31
ENDBRANCH  28  29
ENDBRANCH  27  28
ENDBRANCH  26  27
ENDBRANCH  25  26
ENDBRANCH   1  25
TORSDOF 23
ENDMDL
MODEL 2
REMARK VINA RESULT:     -10.4      1.520      2.547
REMARK SMILES Cc1ccccc1OCCC(=O)N[C@@](C)(C(=O)OCCOCCOC(=O)c1ccc(-c2c3nc(c(-c4c(F)cc(S(=O)(=O)[O-])cc4F)c4ccc([nH]4)c(-c4c(F)cc(S(=O)(=O)[O-])cc4F)c4nc(c(-c5c(F)cc(S(=O)(=O)[O-])cc5F)c5ccc2[nH]5)C=C4)C=C3)cc1)C1CC1
REMARK SMILES IDX 20 1 19 2 18 3 16 4 17 5 14 6 15 7 13 8 11 9 12 10 10 12
REMARK SMILES IDX 9 13 8 14 7 15 1 16 2 17 3 18 4 19 6 20 5 21 93 22 94 23
REMARK SMILES IDX 95 24 21 25 22 26 23 27 24 28 25 29 26 30 27 31 28 32 92 33
REMARK SMILES IDX 29 34 91 35 30 36 31 37 32 38 85 39 33 40 90 41 84 42 86 43
REMARK SMILES IDX 34 44 89 45 83 46 82 47 35 49 69 50 48 51 68 52 49 53 52 54
REMARK SMILES IDX 67 55 87 56 50 57 51 58 66 60 88 61 53 62 36 63 37 64 46 65
REMARK SMILES IDX 38 66 39 67 45 68 47 69 40 70 41 71 42 72 43 73 44 74 70 75
REMARK SMILES IDX 71 76 80 77 72 78 73 79 79 80 81 81 74 82 75 83 76 84 77 85
REMARK SMILES IDX 78 86 54 87 55 88 64 89 56 90 57 91 63 92 65 93 58 94 59 95
REMARK SMILES IDX 60 96 61 97 62 98
REMARK H PARENT 13 11 86 48 52 59
REMARK Flexibility Score: inf
ROOT
ATOM      1  C   UNL A   1      37.170  22.681  24.913  1.00  0.00     0.202 C 
ENDROOT
BRANCH   1   2
ATOM      2  C   UNL A   1      36.570  22.719  23.512  1.00  0.00     0.261 C 
BRANCH   2   3
ATOM      3  O   UNL A   1      35.219  23.238  23.478  1.00  0.00    -0.461 OA
BRANCH   3   4
ATOM      4  C   UNL A   1      34.036  22.613  23.710  1.00  0.00     0.331 C 
ATOM      5  O   UNL A   1      34.036  21.432  24.064  1.00  0.00    -0.249 OA
BRANCH   4   6
ATOM      6  C   UNL A   1      32.719  23.281  23.231  1.00  0.00     0.138 C 
ATOM      7  C   UNL A   1      31.791  22.101  22.996  1.00  0.00     0.048 C 
BRANCH   6   8
ATOM      8  N   UNL A   1      32.889  24.028  21.962  1.00  0.00    -0.340 N 
ATOM      9  C   UNL A   1      33.105  25.317  21.612  1.00  0.00     0.224 C 
ATOM     10  O   UNL A   1      32.999  25.589  20.410  1.00  0.00    -0.275 OA
ATOM     11  H   UNL A   1      32.830  23.438  21.176  1.00  0.00     0.164 HD
BRANCH   9  12
ATOM     12  C   UNL A   1      33.657  26.354  22.560  1.00  0.00     0.141 C 
BRANCH  12  13
ATOM     13  C   UNL A   1      33.589  27.852  22.272  1.00  0.00     0.239 C 
BRANCH  13  14
ATOM     14  O   UNL A   1      33.670  28.799  23.319  1.00  0.00    -0.493 OA
BRANCH  14  15
ATOM     15  C   UNL A   1      33.051  28.679  24.528  1.00  0.00     0.122 A 
ATOM     16  C   UNL A   1      30.512  28.814  23.989  1.00  0.00     0.048 C 
ATOM     17  C   UNL A   1      31.702  28.507  24.848  1.00  0.00    -0.009 A 
ATOM     18  C   UNL A   1      31.384  28.060  26.153  1.00  0.00     0.007 A 
ATOM     19  C   UNL A   1      32.358  27.853  27.129  1.00  0.00     0.001 A 
ATOM     20  C   UNL A   1      34.010  28.604  25.566  1.00  0.00     0.047 A 
ATOM     21  C   UNL A   1      33.677  28.166  26.847  1.00  0.00     0.004 A 
ENDBRANCH  14  15
ENDBRANCH  13  14
ENDBRANCH  12  13
ENDBRANCH   9  12
ENDBRANCH   6   8
BRANCH   6  22
ATOM     22  C   UNL A   1      32.192  24.239  24.310  1.00  0.00     0.026 C 
ATOM     23  C   UNL A   1      30.759  24.764  24.312  1.00  0.00     0.007 C 
ATOM     24  C   UNL A   1      31.212  23.854  25.405  1.00  0.00     0.007 C 
ENDBRANCH   6  22
ENDBRANCH   4   6
ENDBRANCH   3   4
ENDBRANCH   2   3
ENDBRANCH   1   2
BRANCH   1  25
ATOM     25  O   UNL A   1      38.131  21.634  24.969  1.00  0.00    -0.374 OA
BRANCH  25  26
ATOM     26  C   UNL A   1      38.719  21.370  26.231  1.00  0.00     0.202 C 
BRANCH  26  27
ATOM     27  C   UNL A   1      40.228  21.101  26.198  1.00  0.00     0.261 C 
BRANCH  27  28
ATOM     28  O   UNL A   1      40.933  22.131  26.915  1.00  0.00    -0.460 OA
BRANCH  28  29
ATOM     29  C   UNL A   1      41.639  23.002  26.133  1.00  0.00     0.338 C 
ATOM     30  O   UNL A   1      42.389  22.664  25.242  1.00  0.00    -0.246 OA
BRANCH  29  31
ATOM     31  C   UNL A   1      41.373  24.399  26.586  1.00  0.00     0.060 A 
ATOM     32  C   UNL A   1      41.489  25.493  25.711  1.00  0.00     0.016 A 
ATOM     33  C   UNL A   1      41.191  24.631  27.940  1.00  0.00     0.016 A 
ATOM     34  C   UNL A   1      41.525  26.813  26.215  1.00  0.00     0.010 A 
ATOM     35  C   UNL A   1      41.283  25.920  28.423  1.00  0.00     0.010 A 
ATOM     36  C   UNL A   1      41.464  27.037  27.592  1.00  0.00    -0.014 A 
BRANCH  36  37
ATOM     37  C   UNL A   1      41.741  28.308  28.301  1.00  0.00     0.031 A 
ATOM     38  C   UNL A   1      40.646  29.276  28.638  1.00  0.00     0.074 A 
ATOM     39  C   UNL A   1      42.921  28.514  28.939  1.00  0.00     0.049 A 
ATOM     40  N   UNL A   1      40.864  30.488  29.044  1.00  0.00    -0.248 NA
ATOM     41  C   UNL A   1      39.216  28.979  28.561  1.00  0.00     0.031 C 
ATOM     42  C   UNL A   1      43.104  29.300  30.165  1.00  0.00     0.029 A 
ATOM     43  N   UNL A   1      44.191  28.004  28.705  1.00  0.00    -0.354 N 
ATOM     44  C   UNL A   1      39.699  30.967  29.597  1.00  0.00     0.074 A 
ATOM     45  C   UNL A   1      38.686  30.012  29.222  1.00  0.00     0.031 C 
ATOM     46  C   UNL A   1      44.402  29.353  30.486  1.00  0.00     0.029 A 
ATOM     47  C   UNL A   1      45.153  28.730  29.417  1.00  0.00     0.049 A 
ATOM     48  H   UNL A   1      44.388  27.239  28.119  1.00  0.00     0.167 HD
ATOM     49  C   UNL A   1      39.719  32.047  30.429  1.00  0.00     0.037 A 
ATOM     50  C   UNL A   1      46.244  29.289  28.818  1.00  0.00     0.037 A 
ATOM     51  C   UNL A   1      41.086  32.492  30.708  1.00  0.00     0.049 A 
ATOM     52  C   UNL A   1      46.185  30.794  28.835  1.00  0.00     0.074 A 
ATOM     53  C   UNL A   1      41.910  32.339  31.811  1.00  0.00     0.029 A 
ATOM     54  N   UNL A   1      41.899  32.954  29.677  1.00  0.00    -0.354 N 
ATOM     55  N   UNL A   1      45.095  31.438  29.145  1.00  0.00    -0.248 NA
ATOM     56  C   UNL A   1      47.287  31.703  28.538  1.00  0.00     0.031 C 
ATOM     57  C   UNL A   1      43.220  32.729  31.444  1.00  0.00     0.029 A 
ATOM     58  C   UNL A   1      43.201  33.116  30.114  1.00  0.00     0.049 A 
ATOM     59  H   UNL A   1      41.590  33.141  28.761  1.00  0.00     0.167 HD
ATOM     60  C   UNL A   1      45.289  32.781  29.042  1.00  0.00     0.074 A 
ATOM     61  C   UNL A   1      46.686  32.903  28.674  1.00  0.00     0.031 C 
ATOM     62  C   UNL A   1      44.252  33.644  29.247  1.00  0.00     0.037 A 
BRANCH  49  63
ATOM     63  C   UNL A   1      38.502  32.552  31.185  1.00  0.00     0.058 A 
ATOM     64  C   UNL A   1      37.469  33.268  30.541  1.00  0.00     0.135 A 
ATOM     65  C   UNL A   1      38.286  32.325  32.561  1.00  0.00     0.135 A 
ATOM     66  F   UNL A   1      37.486  33.501  29.223  1.00  0.00    -0.206 F 
ATOM     67  C   UNL A   1      36.359  33.782  31.217  1.00  0.00     0.059 A 
ATOM     68  C   UNL A   1      37.214  32.877  33.271  1.00  0.00     0.059 A 
ATOM     69  F   UNL A   1      39.086  31.509  33.263  1.00  0.00    -0.206 F 
ATOM     70  C   UNL A   1      36.248  33.602  32.588  1.00  0.00     0.060 A 
BRANCH  70  71
ATOM     71  S   UNL A   1      34.828  34.304  33.448  1.00  0.00     0.124 S 
ATOM     72  O   UNL A   1      33.726  33.981  32.547  1.00  0.00    -0.237 OA
ATOM     73  O   UNL A   1      34.849  33.575  34.711  1.00  0.00    -0.237 OA
ATOM     74  O   UNL A   1      35.154  35.725  33.538  1.00  0.00    -0.744 OA
ENDBRANCH  70  71
ENDBRANCH  49  63
BRANCH  50  75
ATOM     75  C   UNL A   1      46.886  28.393  27.819  1.00  0.00     0.058 A 
ATOM     76  C   UNL A   1      47.426  27.201  28.341  1.00  0.00     0.135 A 
ATOM     77  C   UNL A   1      46.427  28.370  26.492  1.00  0.00     0.135 A 
ATOM     78  F   UNL A   1      47.913  27.178  29.593  1.00  0.00    -0.206 F 
ATOM     79  C   UNL A   1      47.298  25.990  27.670  1.00  0.00     0.059 A 
ATOM     80  C   UNL A   1      46.269  27.160  25.811  1.00  0.00     0.059 A 
ATOM     81  F   UNL A   1      45.926  29.482  25.932  1.00  0.00    -0.206 F 
ATOM     82  C   UNL A   1      46.640  25.970  26.443  1.00  0.00     0.060 A 
BRANCH  82  83
ATOM     83  S   UNL A   1      45.998  24.381  25.846  1.00  0.00     0.124 S 
ATOM     84  O   UNL A   1      45.937  24.598  24.408  1.00  0.00    -0.237 OA
ATOM     85  O   UNL A   1      47.018  23.440  26.310  1.00  0.00    -0.237 OA
ATOM     86  O   UNL A   1      44.720  24.266  26.539  1.00  0.00    -0.744 OA
ENDBRANCH  82  83
ENDBRANCH  50  75
BRANCH  62  87
ATOM     87  C   UNL A   1      44.182  35.070  28.759  1.00  0.00     0.058 A 
ATOM     88  C   UNL A   1      44.254  36.190  29.606  1.00  0.00     0.135 A 
ATOM     89  C   UNL A   1      44.193  35.362  27.371  1.00  0.00     0.135 A 
ATOM     90  F   UNL A   1      44.376  36.063  30.934  1.00  0.00    -0.206 F 
ATOM     91  C   UNL A   1      44.253  37.497  29.124  1.00  0.00     0.059 A 
ATOM     92  C   UNL A   1      44.254  36.659  26.867  1.00  0.00     0.059 A 
ATOM     93  F   UNL A   1      44.167  34.393  26.445  1.00  0.00    -0.206 F 
ATOM     94  C   UNL A   1      44.248  37.723  27.753  1.00  0.00     0.060 A 
BRANCH  94  95
ATOM     95  S   UNL A   1      44.278  39.415  27.142  1.00  0.00     0.124 S 
ATOM     96  O   UNL A   1      42.915  39.564  26.644  1.00  0.00    -0.237 OA
ATOM     97  O   UNL A   1      44.599  40.182  28.342  1.00  0.00    -0.237 OA
ATOM     98  O   UNL A   1      45.326  39.389  26.126  1.00  0.00    -0.744 OA
ENDBRANCH  94  95
ENDBRANCH  62  87
ENDBRANCH  36  37
ENDBRANCH  29  31
ENDBRANCH  28  29
ENDBRANCH  27  28
ENDBRANCH  26  27
ENDBRANCH  25  26
ENDBRANCH   1  25
TORSDOF 23
ENDMDL
MODEL 3
REMARK VINA RESULT:     -10.1      1.820      2.848
REMARK SMILES Cc1ccccc1OCCC(=O)N[C@@](C)(C(=O)OCCOCCOC(=O)c1ccc(-c2c3nc(c(-c4c(F)cc(S(=O)(=O)[O-])cc4F)c4ccc([nH]4)c(-c4c(F)cc(S(=O)(=O)[O-])cc4F)c4nc(c(-c5c(F)cc(S(=O)(=O)[O-])cc5F)c5ccc2[nH]5)C=C4)C=C3)cc1)C1CC1
REMARK SMILES IDX 20 1 19 2 18 3 16 4 17 5 14 6 15 7 13 8 11 9 12 10 10 12
REMARK SMILES IDX 9 13 8 14 7 15 1 16 2 17 3 18 4 19 6 20 5 21 93 22 94 23
REMARK SMILES IDX 95 24 21 25 22 26 23 27 24 28 25 29 26 30 27 31 28 32 92 33
REMARK SMILES IDX 29 34 91 35 30 36 31 37 32 38 85 39 33 40 90 41 84 42 86 43
REMARK SMILES IDX 34 44 89 45 83 46 82 47 35 49 69 50 48 51 68 52 49 53 52 54
REMARK SMILES IDX 67 55 87 56 50 57 51 58 66 60 88 61 53 62 36 63 37 64 46 65
REMARK SMILES IDX 38 66 39 67 45 68 47 69 40 70 41 71 42 72 43 73 44 74 70 75
REMARK SMILES IDX 71 76 80 77 72 78 73 79 79 80 81 81 74 82 75 83 76 84 77 85
REMARK SMILES IDX 78 86 54 87 55 88 64 89 56 90 57 91 63 92 65 93 58 94 59 95
REMARK SMILES IDX 60 96 61 97 62 98
REMARK H PARENT 13 11 86 48 52 59
REMARK Flexibility Score: inf
ROOT
ATOM      1  C   UNL A   1      36.296  23.449  24.581  1.00  0.00     0.202 C 
ENDROOT
BRANCH   1   2
ATOM      2  C   UNL A   1      35.005  23.095  23.851  1.00  0.00     0.261 C 
BRANCH   2   3
ATOM      3  O   UNL A   1      34.008  24.144  23.905  1.00  0.00    -0.461 OA
BRANCH   3   4
ATOM      4  C   UNL A   1      33.051  24.394  24.835  1.00  0.00     0.331 C 
ATOM      5  O   UNL A   1      33.003  23.701  25.854  1.00  0.00    -0.249 OA
BRANCH   4   6
ATOM      6  C   UNL A   1      31.860  25.320  24.468  1.00  0.00     0.138 C 
ATOM      7  C   UNL A   1      30.654  24.576  25.015  1.00  0.00     0.048 C 
BRANCH   6   8
ATOM      8  N   UNL A   1      31.705  25.494  23.004  1.00  0.00    -0.340 N 
ATOM      9  C   UNL A   1      31.729  26.533  22.137  1.00  0.00     0.224 C 
ATOM     10  O   UNL A   1      31.361  26.297  20.980  1.00  0.00    -0.275 OA
ATOM     11  H   UNL A   1      31.544  24.637  22.547  1.00  0.00     0.164 HD
BRANCH   9  12
ATOM     12  C   UNL A   1      32.363  27.865  22.457  1.00  0.00     0.141 C 
BRANCH  12  13
ATOM     13  C   UNL A   1      31.551  29.153  22.588  1.00  0.00     0.239 C 
BRANCH  13  14
ATOM     14  O   UNL A   1      30.227  29.231  22.100  1.00  0.00    -0.493 OA
BRANCH  14  15
ATOM     15  C   UNL A   1      29.418  30.322  22.213  1.00  0.00     0.122 A 
ATOM     16  C   UNL A   1      29.833  31.209  24.621  1.00  0.00     0.048 C 
ATOM     17  C   UNL A   1      29.341  31.301  23.207  1.00  0.00    -0.009 A 
ATOM     18  C   UNL A   1      28.662  32.504  22.899  1.00  0.00     0.007 A 
ATOM     19  C   UNL A   1      28.025  32.709  21.677  1.00  0.00     0.001 A 
ATOM     20  C   UNL A   1      28.647  30.487  21.038  1.00  0.00     0.047 A 
ATOM     21  C   UNL A   1      27.981  31.679  20.754  1.00  0.00     0.004 A 
ENDBRANCH  14  15
ENDBRANCH  13  14
ENDBRANCH  12  13
ENDBRANCH   9  12
ENDBRANCH   6   8
BRANCH   6  22
ATOM     22  C   UNL A   1      32.047  26.700  25.119  1.00  0.00     0.026 C 
ATOM     23  C   UNL A   1      32.003  26.906  26.631  1.00  0.00     0.007 C 
ATOM     24  C   UNL A   1      33.281  27.132  25.892  1.00  0.00     0.007 C 
ENDBRANCH   6  22
ENDBRANCH   4   6
ENDBRANCH   3   4
ENDBRANCH   2   3
ENDBRANCH   1   2
BRANCH   1  25
ATOM     25  O   UNL A   1      37.218  22.378  24.420  1.00  0.00    -0.374 OA
BRANCH  25  26
ATOM     26  C   UNL A   1      37.488  21.586  25.563  1.00  0.00     0.202 C 
BRANCH  26  27
ATOM     27  C   UNL A   1      38.938  21.102  25.687  1.00  0.00     0.261 C 
BRANCH  27  28
ATOM     28  O   UNL A   1      39.624  21.844  26.712  1.00  0.00    -0.460 OA
BRANCH  28  29
ATOM     29  C   UNL A   1      40.714  22.550  26.285  1.00  0.00     0.338 C 
ATOM     30  O   UNL A   1      41.679  22.053  25.743  1.00  0.00    -0.246 OA
BRANCH  29  31
ATOM     31  C   UNL A   1      40.539  23.990  26.636  1.00  0.00     0.060 A 
ATOM     32  C   UNL A   1      40.923  25.016  25.756  1.00  0.00     0.016 A 
ATOM     33  C   UNL A   1      40.162  24.313  27.930  1.00  0.00     0.016 A 
ATOM     34  C   UNL A   1      41.026  26.350  26.212  1.00  0.00     0.010 A 
ATOM     35  C   UNL A   1      40.320  25.609  28.376  1.00  0.00     0.010 A 
ATOM     36  C   UNL A   1      40.764  26.653  27.549  1.00  0.00    -0.014 A 
BRANCH  36  37
ATOM     37  C   UNL A   1      41.063  27.924  28.250  1.00  0.00     0.031 A 
ATOM     38  C   UNL A   1      39.989  28.924  28.560  1.00  0.00     0.074 A 
ATOM     39  C   UNL A   1      42.238  28.105  28.905  1.00  0.00     0.049 A 
ATOM     40  N   UNL A   1      40.233  30.134  28.957  1.00  0.00    -0.248 NA
ATOM     41  C   UNL A   1      38.553  28.664  28.463  1.00  0.00     0.031 C 
ATOM     42  C   UNL A   1      42.423  28.898  30.125  1.00  0.00     0.029 A 
ATOM     43  N   UNL A   1      43.498  27.560  28.696  1.00  0.00    -0.354 N 
ATOM     44  C   UNL A   1      39.072  30.649  29.488  1.00  0.00     0.074 A 
ATOM     45  C   UNL A   1      38.040  29.717  29.106  1.00  0.00     0.031 C 
ATOM     46  C   UNL A   1      43.717  28.920  30.467  1.00  0.00     0.029 A 
ATOM     47  C   UNL A   1      44.467  28.267  29.416  1.00  0.00     0.049 A 
ATOM     48  H   UNL A   1      43.684  26.783  28.120  1.00  0.00     0.167 HD
ATOM     49  C   UNL A   1      39.108  31.737  30.309  1.00  0.00     0.037 A 
ATOM     50  C   UNL A   1      45.582  28.791  28.829  1.00  0.00     0.037 A 
ATOM     51  C   UNL A   1      40.481  32.148  30.605  1.00  0.00     0.049 A 
ATOM     52  C   UNL A   1      45.563  30.297  28.831  1.00  0.00     0.074 A 
ATOM     53  C   UNL A   1      41.284  31.985  31.722  1.00  0.00     0.029 A 
ATOM     54  N   UNL A   1      41.323  32.577  29.582  1.00  0.00    -0.354 N 
ATOM     55  N   UNL A   1      44.485  30.973  29.116  1.00  0.00    -0.248 NA
ATOM     56  C   UNL A   1      46.693  31.174  28.542  1.00  0.00     0.031 C 
ATOM     57  C   UNL A   1      42.609  32.336  31.372  1.00  0.00     0.029 A 
ATOM     58  C   UNL A   1      42.621  32.709  30.039  1.00  0.00     0.049 A 
ATOM     59  H   UNL A   1      41.033  32.763  28.660  1.00  0.00     0.167 HD
ATOM     60  C   UNL A   1      44.716  32.309  29.004  1.00  0.00     0.074 A 
ATOM     61  C   UNL A   1      46.122  32.390  28.656  1.00  0.00     0.031 C 
ATOM     62  C   UNL A   1      43.699  33.201  29.184  1.00  0.00     0.037 A 
BRANCH  49  63
ATOM     63  C   UNL A   1      37.893  32.281  31.040  1.00  0.00     0.058 A 
ATOM     64  C   UNL A   1      36.946  33.109  30.399  1.00  0.00     0.135 A 
ATOM     65  C   UNL A   1      37.594  31.986  32.388  1.00  0.00     0.135 A 
ATOM     66  F   UNL A   1      37.044  33.420  29.100  1.00  0.00    -0.206 F 
ATOM     67  C   UNL A   1      35.842  33.659  31.056  1.00  0.00     0.059 A 
ATOM     68  C   UNL A   1      36.529  32.570  33.083  1.00  0.00     0.059 A 
ATOM     69  F   UNL A   1      38.299  31.072  33.071  1.00  0.00    -0.206 F 
ATOM     70  C   UNL A   1      35.651  33.403  32.406  1.00  0.00     0.060 A 
BRANCH  70  71
ATOM     71  S   UNL A   1      34.242  34.152  33.244  1.00  0.00     0.124 S 
ATOM     72  O   UNL A   1      33.928  35.284  32.378  1.00  0.00    -0.237 OA
ATOM     73  O   UNL A   1      33.273  33.062  33.240  1.00  0.00    -0.237 OA
ATOM     74  O   UNL A   1      34.778  34.510  34.556  1.00  0.00    -0.744 OA
ENDBRANCH  70  71
ENDBRANCH  49  63
BRANCH  50  75
ATOM     75  C   UNL A   1      46.215  27.868  27.849  1.00  0.00     0.058 A 
ATOM     76  C   UNL A   1      46.740  26.681  28.396  1.00  0.00     0.135 A 
ATOM     77  C   UNL A   1      45.759  27.824  26.522  1.00  0.00     0.135 A 
ATOM     78  F   UNL A   1      47.224  26.677  29.649  1.00  0.00    -0.206 F 
ATOM     79  C   UNL A   1      46.600  25.458  27.748  1.00  0.00     0.059 A 
ATOM     80  C   UNL A   1      45.588  26.604  25.864  1.00  0.00     0.059 A 
ATOM     81  F   UNL A   1      45.273  28.931  25.939  1.00  0.00    -0.206 F 
ATOM     82  C   UNL A   1      45.944  25.422  26.520  1.00  0.00     0.060 A 
BRANCH  82  83
ATOM     83  S   UNL A   1      45.284  23.829  25.952  1.00  0.00     0.124 S 
ATOM     84  O   UNL A   1      44.135  23.647  26.826  1.00  0.00    -0.237 OA
ATOM     85  O   UNL A   1      44.985  24.101  24.545  1.00  0.00    -0.237 OA
ATOM     86  O   UNL A   1      46.406  22.921  26.160  1.00  0.00    -0.744 OA
ENDBRANCH  82  83
ENDBRANCH  50  75
BRANCH  62  87
ATOM     87  C   UNL A   1      43.674  34.624  28.681  1.00  0.00     0.058 A 
ATOM     88  C   UNL A   1      43.527  34.970  27.326  1.00  0.00     0.135 A 
ATOM     89  C   UNL A   1      43.644  35.713  29.588  1.00  0.00     0.135 A 
ATOM     90  F   UNL A   1      43.413  34.040  26.369  1.00  0.00    -0.206 F 
ATOM     91  C   UNL A   1      43.441  36.292  26.894  1.00  0.00     0.059 A 
ATOM     92  C   UNL A   1      43.498  37.037  29.182  1.00  0.00     0.059 A 
ATOM     93  F   UNL A   1      43.735  35.532  30.914  1.00  0.00    -0.206 F 
ATOM     94  C   UNL A   1      43.432  37.320  27.829  1.00  0.00     0.060 A 
BRANCH  94  95
ATOM     95  S   UNL A   1      43.289  39.021  27.260  1.00  0.00     0.124 S 
ATOM     96  O   UNL A   1      43.214  39.742  28.527  1.00  0.00    -0.237 OA
ATOM     97  O   UNL A   1      44.521  39.209  26.500  1.00  0.00    -0.237 OA
ATOM     98  O   UNL A   1      42.066  39.010  26.464  1.00  0.00    -0.744 OA
ENDBRANCH  94  95
ENDBRANCH  62  87
ENDBRANCH  36  37
ENDBRANCH  29  31
ENDBRANCH  28  29
ENDBRANCH  27  28
ENDBRANCH  26  27
ENDBRANCH  25  26
ENDBRANCH   1  25
TORSDOF 23
ENDMDL
