MODEL 1
REMARK VINA RESULT:     -11.5      0.000      0.000
REMARK SMILES Cn1cc(-c2cc(C(F)(F)F)c3c(C4CC4)nn(CC(=O)OCCOCCOC(=O)c4ccc(-c5c6nc(c(-c7c(F)cc(S(=O)(=O)[O-])cc7F)c7ccc([nH]7)c(-c7c(F)cc(S(=O)(=O)[O-])cc7F)c7nc(c(-c8c(F)cc(S(=O)(=O)[O-])cc8F)c8ccc5[nH]8)C=C7)C=C6)cc4)c3n2)cn1
REMARK SMILES IDX 26 1 25 2 24 3 23 4 22 5 20 6 21 7 19 8 18 9 5 10 6 11 98 12
REMARK SMILES IDX 7 13 97 14 12 15 13 16 17 17 4 18 1 19 2 20 3 21 100 22
REMARK SMILES IDX 99 23 8 24 9 25 10 26 11 27 14 28 15 29 16 30 27 31 28 32
REMARK SMILES IDX 29 33 30 34 31 35 32 36 96 37 33 38 95 39 34 40 35 41 36 42
REMARK SMILES IDX 89 43 37 44 94 45 88 46 90 47 38 48 93 49 87 50 86 51 39 53
REMARK SMILES IDX 73 54 52 55 72 56 53 57 56 58 71 59 91 60 54 61 55 62 70 64
REMARK SMILES IDX 92 65 57 66 40 67 41 68 50 69 42 70 43 71 49 72 51 73 44 74
REMARK SMILES IDX 45 75 46 76 47 77 48 78 74 79 75 80 84 81 76 82 77 83 83 84
REMARK SMILES IDX 85 85 78 86 79 87 80 88 81 89 82 90 58 91 59 92 68 93 60 94
REMARK SMILES IDX 61 95 67 96 69 97 62 98 63 99 64 100 65 101 66 102
REMARK H PARENT 90 52 56 63
REMARK Flexibility Score: inf
ROOT
ATOM      1  C   UNL A   1      38.013  22.173  25.673  1.00  0.00     0.202 C 
ENDROOT
BRANCH   1   2
ATOM      2  O   UNL A   1      36.781  21.494  25.901  1.00  0.00    -0.374 OA
BRANCH   2   3
ATOM      3  C   UNL A   1      35.777  21.505  24.889  1.00  0.00     0.202 C 
BRANCH   3   4
ATOM      4  C   UNL A   1      34.330  21.347  25.342  1.00  0.00     0.261 C 
BRANCH   4   5
ATOM      5  O   UNL A   1      34.162  21.557  26.759  1.00  0.00    -0.462 OA
BRANCH   5   6
ATOM      6  C   UNL A   1      33.087  22.307  27.107  1.00  0.00     0.327 C 
ATOM      7  O   UNL A   1      32.651  22.397  28.254  1.00  0.00    -0.250 OA
BRANCH   6   8
ATOM      8  C   UNL A   1      32.358  22.906  25.958  1.00  0.00     0.269 C 
BRANCH   8   9
ATOM      9  N   UNL A   1      31.742  24.219  26.084  1.00  0.00    -0.236 N 
ATOM     10  C   UNL A   1      34.196  26.397  25.216  1.00  0.00     0.077 A 
ATOM     11  C   UNL A   1      33.618  27.638  25.477  1.00  0.00     0.043 A 
ATOM     12  N   UNL A   1      33.872  25.343  26.005  1.00  0.00    -0.228 NA
ATOM     13  C   UNL A   1      32.397  27.673  26.191  1.00  0.00     0.071 A 
ATOM     14  C   UNL A   1      32.536  25.331  26.182  1.00  0.00     0.159 A 
ATOM     15  C   UNL A   1      31.717  26.445  26.129  1.00  0.00     0.055 A 
ATOM     16  C   UNL A   1      30.512  25.903  25.604  1.00  0.00     0.076 A 
ATOM     17  N   UNL A   1      30.522  24.549  25.598  1.00  0.00    -0.174 NA
BRANCH  10  18
ATOM     18  C   UNL A   1      34.276  25.891  23.821  1.00  0.00     0.038 A 
ATOM     19  C   UNL A   1      31.780  25.800  21.297  1.00  0.00     0.173 C 
ATOM     20  N   UNL A   1      33.023  25.615  22.020  1.00  0.00    -0.275 N 
ATOM     21  C   UNL A   1      33.635  26.571  22.788  1.00  0.00     0.118 A 
ATOM     22  N   UNL A   1      33.490  24.377  22.268  1.00  0.00    -0.181 NA
ATOM     23  C   UNL A   1      34.181  24.535  23.408  1.00  0.00     0.145 A 
ENDBRANCH  10  18
BRANCH  13  24
ATOM     24  C   UNL A   1      32.069  28.761  27.178  1.00  0.00     0.417 C 
ATOM     25  F   UNL A   1      31.791  29.969  26.639  1.00  0.00    -0.166 F 
ATOM     26  F   UNL A   1      30.979  28.431  27.930  1.00  0.00    -0.166 F 
ATOM     27  F   UNL A   1      33.074  28.974  28.072  1.00  0.00    -0.166 F 
ENDBRANCH  13  24
BRANCH  16  28
ATOM     28  C   UNL A   1      29.367  26.640  24.885  1.00  0.00     0.041 C 
ATOM     29  C   UNL A   1      29.481  27.261  23.514  1.00  0.00     0.011 C 
ATOM     30  C   UNL A   1      28.697  26.007  23.675  1.00  0.00     0.011 C 
ENDBRANCH  16  28
ENDBRANCH   8   9
ENDBRANCH   6   8
ENDBRANCH   5   6
ENDBRANCH   4   5
ENDBRANCH   3   4
ENDBRANCH   2   3
ENDBRANCH   1   2
BRANCH   1  31
ATOM     31  C   UNL A   1      39.278  21.512  26.202  1.00  0.00     0.261 C 
BRANCH  31  32
ATOM     32  O   UNL A   1      40.379  22.405  26.119  1.00  0.00    -0.460 OA
BRANCH  32  33
ATOM     33  C   UNL A   1      40.779  22.960  27.284  1.00  0.00     0.338 C 
ATOM     34  O   UNL A   1      40.727  22.461  28.387  1.00  0.00    -0.246 OA
BRANCH  33  35
ATOM     35  C   UNL A   1      41.204  24.346  27.016  1.00  0.00     0.060 A 
ATOM     36  C   UNL A   1      42.341  24.748  27.701  1.00  0.00     0.016 A 
ATOM     37  C   UNL A   1      40.268  25.265  26.536  1.00  0.00     0.016 A 
ATOM     38  C   UNL A   1      42.326  26.011  28.238  1.00  0.00     0.010 A 
ATOM     39  C   UNL A   1      40.217  26.508  27.108  1.00  0.00     0.010 A 
ATOM     40  C   UNL A   1      41.193  26.812  28.042  1.00  0.00    -0.014 A 
BRANCH  40  41
ATOM     41  C   UNL A   1      41.137  28.064  28.750  1.00  0.00     0.031 A 
ATOM     42  C   UNL A   1      42.233  28.952  28.329  1.00  0.00     0.074 A 
ATOM     43  C   UNL A   1      40.191  28.360  29.657  1.00  0.00     0.049 A 
ATOM     44  N   UNL A   1      43.350  29.141  28.947  1.00  0.00    -0.248 NA
ATOM     45  C   UNL A   1      42.207  29.462  26.950  1.00  0.00     0.031 C 
ATOM     46  C   UNL A   1      38.937  27.666  29.958  1.00  0.00     0.029 A 
ATOM     47  N   UNL A   1      40.152  29.433  30.487  1.00  0.00    -0.354 N 
ATOM     48  C   UNL A   1      44.061  30.015  28.139  1.00  0.00     0.074 A 
ATOM     49  C   UNL A   1      43.436  29.967  26.843  1.00  0.00     0.031 C 
ATOM     50  C   UNL A   1      38.168  28.461  30.745  1.00  0.00     0.029 A 
ATOM     51  C   UNL A   1      38.930  29.644  31.113  1.00  0.00     0.049 A 
ATOM     52  H   UNL A   1      40.931  30.018  30.635  1.00  0.00     0.167 HD
ATOM     53  C   UNL A   1      44.906  30.927  28.685  1.00  0.00     0.037 A 
ATOM     54  C   UNL A   1      38.591  30.760  31.810  1.00  0.00     0.037 A 
ATOM     55  C   UNL A   1      45.260  30.564  30.036  1.00  0.00     0.049 A 
ATOM     56  C   UNL A   1      39.871  31.410  32.219  1.00  0.00     0.074 A 
ATOM     57  C   UNL A   1      45.888  29.476  30.612  1.00  0.00     0.029 A 
ATOM     58  N   UNL A   1      44.594  31.197  31.059  1.00  0.00    -0.354 N 
ATOM     59  N   UNL A   1      40.713  30.877  33.064  1.00  0.00    -0.248 NA
ATOM     60  C   UNL A   1      40.442  32.400  31.316  1.00  0.00     0.031 C 
ATOM     61  C   UNL A   1      45.194  29.248  31.836  1.00  0.00     0.029 A 
ATOM     62  C   UNL A   1      44.227  30.245  31.977  1.00  0.00     0.049 A 
ATOM     63  H   UNL A   1      44.413  32.163  31.122  1.00  0.00     0.167 HD
ATOM     64  C   UNL A   1      41.970  31.141  32.538  1.00  0.00     0.074 A 
ATOM     65  C   UNL A   1      41.740  32.135  31.490  1.00  0.00     0.031 C 
ATOM     66  C   UNL A   1      43.036  30.327  32.797  1.00  0.00     0.037 A 
BRANCH  53  67
ATOM     67  C   UNL A   1      45.068  32.323  28.140  1.00  0.00     0.058 A 
ATOM     68  C   UNL A   1      46.330  32.727  27.667  1.00  0.00     0.135 A 
ATOM     69  C   UNL A   1      44.119  33.359  28.307  1.00  0.00     0.135 A 
ATOM     70  F   UNL A   1      47.312  31.830  27.484  1.00  0.00    -0.206 F 
ATOM     71  C   UNL A   1      46.645  34.067  27.441  1.00  0.00     0.059 A 
ATOM     72  C   UNL A   1      44.393  34.690  28.031  1.00  0.00     0.059 A 
ATOM     73  F   UNL A   1      42.910  33.157  28.843  1.00  0.00    -0.206 F 
ATOM     74  C   UNL A   1      45.669  35.041  27.638  1.00  0.00     0.060 A 
BRANCH  74  75
ATOM     75  S   UNL A   1      46.095  36.777  27.442  1.00  0.00     0.124 S 
ATOM     76  O   UNL A   1      46.875  36.747  26.210  1.00  0.00    -0.237 OA
ATOM     77  O   UNL A   1      44.778  37.398  27.355  1.00  0.00    -0.237 OA
ATOM     78  O   UNL A   1      46.845  37.078  28.659  1.00  0.00    -0.744 OA
ENDBRANCH  74  75
ENDBRANCH  53  67
BRANCH  54  79
ATOM     79  C   UNL A   1      37.304  31.511  31.754  1.00  0.00     0.058 A 
ATOM     80  C   UNL A   1      36.611  31.854  32.933  1.00  0.00     0.135 A 
ATOM     81  C   UNL A   1      36.881  32.166  30.580  1.00  0.00     0.135 A 
ATOM     82  F   UNL A   1      36.954  31.293  34.103  1.00  0.00    -0.206 F 
ATOM     83  C   UNL A   1      35.606  32.830  32.956  1.00  0.00     0.059 A 
ATOM     84  C   UNL A   1      35.878  33.137  30.578  1.00  0.00     0.059 A 
ATOM     85  F   UNL A   1      37.496  31.952  29.407  1.00  0.00    -0.206 F 
ATOM     86  C   UNL A   1      35.264  33.484  31.773  1.00  0.00     0.060 A 
BRANCH  86  87
ATOM     87  S   UNL A   1      34.096  34.867  31.823  1.00  0.00     0.124 S 
ATOM     88  O   UNL A   1      33.864  35.118  30.405  1.00  0.00    -0.237 OA
ATOM     89  O   UNL A   1      32.975  34.297  32.561  1.00  0.00    -0.237 OA
ATOM     90  O   UNL A   1      34.837  35.911  32.527  1.00  0.00    -0.744 OA
ENDBRANCH  86  87
ENDBRANCH  54  79
BRANCH  66  91
ATOM     91  C   UNL A   1      42.897  29.291  33.886  1.00  0.00     0.058 A 
ATOM     92  C   UNL A   1      43.085  29.543  35.257  1.00  0.00     0.135 A 
ATOM     93  C   UNL A   1      42.383  28.034  33.532  1.00  0.00     0.135 A 
ATOM     94  F   UNL A   1      43.482  30.748  35.689  1.00  0.00    -0.206 F 
ATOM     95  C   UNL A   1      42.803  28.576  36.229  1.00  0.00     0.059 A 
ATOM     96  C   UNL A   1      42.066  27.069  34.483  1.00  0.00     0.059 A 
ATOM     97  F   UNL A   1      42.126  27.753  32.245  1.00  0.00    -0.206 F 
ATOM     98  C   UNL A   1      42.288  27.343  35.831  1.00  0.00     0.060 A 
BRANCH  98  99
ATOM     99  S   UNL A   1      41.849  26.119  37.087  1.00  0.00     0.124 S 
ATOM    100  O   UNL A   1      41.692  24.905  36.293  1.00  0.00    -0.237 OA
ATOM    101  O   UNL A   1      43.006  26.151  37.977  1.00  0.00    -0.237 OA
ATOM    102  O   UNL A   1      40.615  26.649  37.665  1.00  0.00    -0.744 OA
ENDBRANCH  98  99
ENDBRANCH  66  91
ENDBRANCH  40  41
ENDBRANCH  33  35
ENDBRANCH  32  33
ENDBRANCH  31  32
ENDBRANCH   1  31
TORSDOF 21
ENDMDL
MODEL 2
REMARK VINA RESULT:     -11.4      3.065      9.323
REMARK SMILES Cn1cc(-c2cc(C(F)(F)F)c3c(C4CC4)nn(CC(=O)OCCOCCOC(=O)c4ccc(-c5c6nc(c(-c7c(F)cc(S(=O)(=O)[O-])cc7F)c7ccc([nH]7)c(-c7c(F)cc(S(=O)(=O)[O-])cc7F)c7nc(c(-c8c(F)cc(S(=O)(=O)[O-])cc8F)c8ccc5[nH]8)C=C7)C=C6)cc4)c3n2)cn1
REMARK SMILES IDX 26 1 25 2 24 3 23 4 22 5 20 6 21 7 19 8 18 9 5 10 6 11 98 12
REMARK SMILES IDX 7 13 97 14 12 15 13 16 17 17 4 18 1 19 2 20 3 21 100 22
REMARK SMILES IDX 99 23 8 24 9 25 10 26 11 27 14 28 15 29 16 30 27 31 28 32
REMARK SMILES IDX 29 33 30 34 31 35 32 36 96 37 33 38 95 39 34 40 35 41 36 42
REMARK SMILES IDX 89 43 37 44 94 45 88 46 90 47 38 48 93 49 87 50 86 51 39 53
REMARK SMILES IDX 73 54 52 55 72 56 53 57 56 58 71 59 91 60 54 61 55 62 70 64
REMARK SMILES IDX 92 65 57 66 40 67 41 68 50 69 42 70 43 71 49 72 51 73 44 74
REMARK SMILES IDX 45 75 46 76 47 77 48 78 74 79 75 80 84 81 76 82 77 83 83 84
REMARK SMILES IDX 85 85 78 86 79 87 80 88 81 89 82 90 58 91 59 92 68 93 60 94
REMARK SMILES IDX 61 95 67 96 69 97 62 98 63 99 64 100 65 101 66 102
REMARK H PARENT 90 52 56 63
REMARK Flexibility Score: inf
ROOT
ATOM      1  C   UNL A   1      34.335  33.725  29.394  1.00  0.00     0.202 C 
ENDROOT
BRANCH   1   2
ATOM      2  O   UNL A   1      33.881  32.622  28.615  1.00  0.00    -0.374 OA
BRANCH   2   3
ATOM      3  C   UNL A   1      34.780  31.985  27.709  1.00  0.00     0.202 C 
BRANCH   3   4
ATOM      4  C   UNL A   1      34.696  30.467  27.596  1.00  0.00     0.261 C 
BRANCH   4   5
ATOM      5  O   UNL A   1      33.911  30.034  26.466  1.00  0.00    -0.462 OA
BRANCH   5   6
ATOM      6  C   UNL A   1      32.979  29.089  26.741  1.00  0.00     0.327 C 
ATOM      7  O   UNL A   1      32.440  28.949  27.838  1.00  0.00    -0.250 OA
BRANCH   6   8
ATOM      8  C   UNL A   1      32.756  28.110  25.644  1.00  0.00     0.269 C 
BRANCH   8   9
ATOM      9  N   UNL A   1      33.360  26.787  25.706  1.00  0.00    -0.236 N 
ATOM     10  C   UNL A   1      30.734  24.668  26.074  1.00  0.00     0.077 A 
ATOM     11  C   UNL A   1      31.353  23.435  26.266  1.00  0.00     0.043 A 
ATOM     12  N   UNL A   1      31.337  25.786  26.550  1.00  0.00    -0.228 NA
ATOM     13  C   UNL A   1      32.751  23.412  26.488  1.00  0.00     0.071 A 
ATOM     14  C   UNL A   1      32.645  25.742  26.228  1.00  0.00     0.159 A 
ATOM     15  C   UNL A   1      33.375  24.583  26.026  1.00  0.00     0.055 A 
ATOM     16  C   UNL A   1      34.310  24.991  25.035  1.00  0.00     0.076 A 
ATOM     17  N   UNL A   1      34.313  26.333  24.859  1.00  0.00    -0.174 NA
BRANCH  10  18
ATOM     18  C   UNL A   1      30.155  25.013  24.749  1.00  0.00     0.038 A 
ATOM     19  C   UNL A   1      31.789  25.839  21.707  1.00  0.00     0.173 C 
ATOM     20  N   UNL A   1      30.767  25.605  22.709  1.00  0.00    -0.275 N 
ATOM     21  C   UNL A   1      30.748  24.546  23.580  1.00  0.00     0.118 A 
ATOM     22  N   UNL A   1      29.944  26.599  23.088  1.00  0.00    -0.181 NA
ATOM     23  C   UNL A   1      29.642  26.278  24.356  1.00  0.00     0.145 A 
ENDBRANCH  10  18
BRANCH  13  24
ATOM     24  C   UNL A   1      33.405  22.429  27.421  1.00  0.00     0.417 C 
ATOM     25  F   UNL A   1      34.701  22.682  27.714  1.00  0.00    -0.166 F 
ATOM     26  F   UNL A   1      32.757  22.381  28.621  1.00  0.00    -0.166 F 
ATOM     27  F   UNL A   1      33.373  21.155  26.941  1.00  0.00    -0.166 F 
ENDBRANCH  13  24
BRANCH  16  28
ATOM     28  C   UNL A   1      35.103  24.110  24.052  1.00  0.00     0.041 C 
ATOM     29  C   UNL A   1      35.277  22.618  24.193  1.00  0.00     0.011 C 
ATOM     30  C   UNL A   1      34.369  23.141  23.138  1.00  0.00     0.011 C 
ENDBRANCH  16  28
ENDBRANCH   8   9
ENDBRANCH   6   8
ENDBRANCH   5   6
ENDBRANCH   4   5
ENDBRANCH   3   4
ENDBRANCH   2   3
ENDBRANCH   1   2
BRANCH   1  31
ATOM     31  C   UNL A   1      34.681  33.451  30.851  1.00  0.00     0.261 C 
BRANCH  31  32
ATOM     32  O   UNL A   1      34.735  32.053  31.094  1.00  0.00    -0.460 OA
BRANCH  32  33
ATOM     33  C   UNL A   1      35.878  31.595  31.651  1.00  0.00     0.338 C 
ATOM     34  O   UNL A   1      36.232  31.720  32.803  1.00  0.00    -0.246 OA
BRANCH  33  35
ATOM     35  C   UNL A   1      36.701  30.990  30.588  1.00  0.00     0.060 A 
ATOM     36  C   UNL A   1      36.662  29.604  30.539  1.00  0.00     0.016 A 
ATOM     37  C   UNL A   1      37.769  31.717  30.056  1.00  0.00     0.016 A 
ATOM     38  C   UNL A   1      37.854  28.958  30.325  1.00  0.00     0.010 A 
ATOM     39  C   UNL A   1      38.973  31.087  29.891  1.00  0.00     0.010 A 
ATOM     40  C   UNL A   1      39.012  29.725  30.144  1.00  0.00    -0.014 A 
BRANCH  40  41
ATOM     41  C   UNL A   1      40.268  29.025  30.085  1.00  0.00     0.031 A 
ATOM     42  C   UNL A   1      40.830  28.846  31.433  1.00  0.00     0.074 A 
ATOM     43  C   UNL A   1      40.822  28.593  28.940  1.00  0.00     0.049 A 
ATOM     44  N   UNL A   1      41.745  29.567  31.989  1.00  0.00    -0.248 NA
ATOM     45  C   UNL A   1      40.111  27.957  32.360  1.00  0.00     0.031 C 
ATOM     46  C   UNL A   1      40.240  28.497  27.600  1.00  0.00     0.029 A 
ATOM     47  N   UNL A   1      42.067  28.079  28.768  1.00  0.00    -0.354 N 
ATOM     48  C   UNL A   1      41.893  29.038  33.261  1.00  0.00     0.074 A 
ATOM     49  C   UNL A   1      40.716  28.249  33.511  1.00  0.00     0.031 C 
ATOM     50  C   UNL A   1      41.059  27.756  26.812  1.00  0.00     0.029 A 
ATOM     51  C   UNL A   1      42.277  27.452  27.547  1.00  0.00     0.049 A 
ATOM     52  H   UNL A   1      42.767  28.147  29.457  1.00  0.00     0.167 HD
ATOM     53  C   UNL A   1      43.105  29.045  33.875  1.00  0.00     0.037 A 
ATOM     54  C   UNL A   1      43.356  26.686  27.237  1.00  0.00     0.037 A 
ATOM     55  C   UNL A   1      43.993  30.002  33.259  1.00  0.00     0.049 A 
ATOM     56  C   UNL A   1      44.444  27.086  28.178  1.00  0.00     0.074 A 
ATOM     57  C   UNL A   1      43.958  31.371  33.071  1.00  0.00     0.029 A 
ATOM     58  N   UNL A   1      44.921  29.523  32.365  1.00  0.00    -0.354 N 
ATOM     59  N   UNL A   1      45.007  28.265  28.170  1.00  0.00    -0.248 NA
ATOM     60  C   UNL A   1      44.550  26.357  29.435  1.00  0.00     0.031 C 
ATOM     61  C   UNL A   1      44.510  31.584  31.773  1.00  0.00     0.029 A 
ATOM     62  C   UNL A   1      44.913  30.347  31.267  1.00  0.00     0.049 A 
ATOM     63  H   UNL A   1      45.491  28.731  32.490  1.00  0.00     0.167 HD
ATOM     64  C   UNL A   1      45.167  28.598  29.508  1.00  0.00     0.074 A 
ATOM     65  C   UNL A   1      44.920  27.357  30.240  1.00  0.00     0.031 C 
ATOM     66  C   UNL A   1      45.199  29.902  29.919  1.00  0.00     0.037 A 
BRANCH  53  67
ATOM     67  C   UNL A   1      43.592  27.912  34.742  1.00  0.00     0.058 A 
ATOM     68  C   UNL A   1      44.058  28.198  36.038  1.00  0.00     0.135 A 
ATOM     69  C   UNL A   1      43.869  26.608  34.267  1.00  0.00     0.135 A 
ATOM     70  F   UNL A   1      43.863  29.409  36.583  1.00  0.00    -0.206 F 
ATOM     71  C   UNL A   1      44.802  27.280  36.779  1.00  0.00     0.059 A 
ATOM     72  C   UNL A   1      44.554  25.661  35.012  1.00  0.00     0.059 A 
ATOM     73  F   UNL A   1      43.584  26.212  33.022  1.00  0.00    -0.206 F 
ATOM     74  C   UNL A   1      45.053  26.017  36.250  1.00  0.00     0.060 A 
BRANCH  74  75
ATOM     75  S   UNL A   1      46.092  24.864  37.158  1.00  0.00     0.124 S 
ATOM     76  O   UNL A   1      46.401  23.880  36.128  1.00  0.00    -0.237 OA
ATOM     77  O   UNL A   1      47.194  25.724  37.577  1.00  0.00    -0.237 OA
ATOM     78  O   UNL A   1      45.220  24.402  38.234  1.00  0.00    -0.744 OA
ENDBRANCH  74  75
ENDBRANCH  53  67
BRANCH  54  79
ATOM     79  C   UNL A   1      43.368  25.377  26.524  1.00  0.00     0.058 A 
ATOM     80  C   UNL A   1      44.125  25.196  25.349  1.00  0.00     0.135 A 
ATOM     81  C   UNL A   1      42.888  24.199  27.132  1.00  0.00     0.135 A 
ATOM     82  F   UNL A   1      44.637  26.259  24.709  1.00  0.00    -0.206 F 
ATOM     83  C   UNL A   1      44.438  23.928  24.845  1.00  0.00     0.059 A 
ATOM     84  C   UNL A   1      43.181  22.925  26.644  1.00  0.00     0.059 A 
ATOM     85  F   UNL A   1      42.193  24.245  28.279  1.00  0.00    -0.206 F 
ATOM     86  C   UNL A   1      43.980  22.795  25.516  1.00  0.00     0.060 A 
BRANCH  86  87
ATOM     87  S   UNL A   1      44.525  21.155  24.977  1.00  0.00     0.124 S 
ATOM     88  O   UNL A   1      45.822  21.036  25.633  1.00  0.00    -0.237 OA
ATOM     89  O   UNL A   1      43.468  20.293  25.495  1.00  0.00    -0.237 OA
ATOM     90  O   UNL A   1      44.571  21.274  23.522  1.00  0.00    -0.744 OA
ENDBRANCH  86  87
ENDBRANCH  54  79
BRANCH  66  91
ATOM     91  C   UNL A   1      45.337  30.978  28.870  1.00  0.00     0.058 A 
ATOM     92  C   UNL A   1      44.262  31.552  28.166  1.00  0.00     0.135 A 
ATOM     93  C   UNL A   1      46.598  31.568  28.699  1.00  0.00     0.135 A 
ATOM     94  F   UNL A   1      43.008  31.111  28.344  1.00  0.00    -0.206 F 
ATOM     95  C   UNL A   1      44.441  32.643  27.310  1.00  0.00     0.059 A 
ATOM     96  C   UNL A   1      46.795  32.673  27.876  1.00  0.00     0.059 A 
ATOM     97  F   UNL A   1      47.654  31.104  29.387  1.00  0.00    -0.206 F 
ATOM     98  C   UNL A   1      45.712  33.201  27.176  1.00  0.00     0.060 A 
BRANCH  98  99
ATOM     99  S   UNL A   1      45.935  34.659  26.131  1.00  0.00     0.124 S 
ATOM    100  O   UNL A   1      46.015  35.734  27.114  1.00  0.00    -0.237 OA
ATOM    101  O   UNL A   1      47.173  34.353  25.421  1.00  0.00    -0.237 OA
ATOM    102  O   UNL A   1      44.734  34.668  25.296  1.00  0.00    -0.744 OA
ENDBRANCH  98  99
ENDBRANCH  66  91
ENDBRANCH  40  41
ENDBRANCH  33  35
ENDBRANCH  32  33
ENDBRANCH  31  32
ENDBRANCH   1  31
TORSDOF 21
ENDMDL
MODEL 3
REMARK VINA RESULT:     -11.3      4.512      7.984
REMARK SMILES Cn1cc(-c2cc(C(F)(F)F)c3c(C4CC4)nn(CC(=O)OCCOCCOC(=O)c4ccc(-c5c6nc(c(-c7c(F)cc(S(=O)(=O)[O-])cc7F)c7ccc([nH]7)c(-c7c(F)cc(S(=O)(=O)[O-])cc7F)c7nc(c(-c8c(F)cc(S(=O)(=O)[O-])cc8F)c8ccc5[nH]8)C=C7)C=C6)cc4)c3n2)cn1
REMARK SMILES IDX 26 1 25 2 24 3 23 4 22 5 20 6 21 7 19 8 18 9 5 10 6 11 98 12
REMARK SMILES IDX 7 13 97 14 12 15 13 16 17 17 4 18 1 19 2 20 3 21 100 22
REMARK SMILES IDX 99 23 8 24 9 25 10 26 11 27 14 28 15 29 16 30 27 31 28 32
REMARK SMILES IDX 29 33 30 34 31 35 32 36 96 37 33 38 95 39 34 40 35 41 36 42
REMARK SMILES IDX 89 43 37 44 94 45 88 46 90 47 38 48 93 49 87 50 86 51 39 53
REMARK SMILES IDX 73 54 52 55 72 56 53 57 56 58 71 59 91 60 54 61 55 62 70 64
REMARK SMILES IDX 92 65 57 66 40 67 41 68 50 69 42 70 43 71 49 72 51 73 44 74
REMARK SMILES IDX 45 75 46 76 47 77 48 78 74 79 75 80 84 81 76 82 77 83 83 84
REMARK SMILES IDX 85 85 78 86 79 87 80 88 81 89 82 90 58 91 59 92 68 93 60 94
REMARK SMILES IDX 61 95 67 96 69 97 62 98 63 99 64 100 65 101 66 102
REMARK H PARENT 90 52 56 63
REMARK Flexibility Score: inf
ROOT
ATOM      1  C   UNL A   1      41.777  19.989  26.281  1.00  0.00     0.202 C 
ENDROOT
BRANCH   1   2
ATOM      2  O   UNL A   1      43.093  20.516  26.131  1.00  0.00    -0.374 OA
BRANCH   2   3
ATOM      3  C   UNL A   1      44.053  19.797  25.361  1.00  0.00     0.202 C 
BRANCH   3   4
ATOM      4  C   UNL A   1      45.094  20.615  24.605  1.00  0.00     0.261 C 
BRANCH   4   5
ATOM      5  O   UNL A   1      45.872  21.467  25.471  1.00  0.00    -0.462 OA
BRANCH   5   6
ATOM      6  C   UNL A   1      45.587  22.790  25.386  1.00  0.00     0.327 C 
ATOM      7  O   UNL A   1      44.560  23.244  24.884  1.00  0.00    -0.250 OA
BRANCH   6   8
ATOM      8  C   UNL A   1      46.696  23.685  25.811  1.00  0.00     0.269 C 
BRANCH   8   9
ATOM      9  N   UNL A   1      46.750  24.188  27.176  1.00  0.00    -0.236 N 
ATOM     10  C   UNL A   1      48.456  27.113  26.936  1.00  0.00     0.077 A 
ATOM     11  C   UNL A   1      48.607  27.496  28.267  1.00  0.00     0.043 A 
ATOM     12  N   UNL A   1      48.463  25.792  26.628  1.00  0.00    -0.228 NA
ATOM     13  C   UNL A   1      48.278  26.561  29.277  1.00  0.00     0.071 A 
ATOM     14  C   UNL A   1      47.678  25.140  27.508  1.00  0.00     0.159 A 
ATOM     15  C   UNL A   1      47.417  25.557  28.801  1.00  0.00     0.055 A 
ATOM     16  C   UNL A   1      46.089  25.088  29.001  1.00  0.00     0.076 A 
ATOM     17  N   UNL A   1      45.695  24.240  28.022  1.00  0.00    -0.174 NA
BRANCH  10  18
ATOM     18  C   UNL A   1      47.416  27.754  26.089  1.00  0.00     0.038 A 
ATOM     19  C   UNL A   1      44.084  26.724  25.425  1.00  0.00     0.173 C 
ATOM     20  N   UNL A   1      45.338  27.450  25.397  1.00  0.00    -0.275 N 
ATOM     21  C   UNL A   1      46.086  27.770  26.501  1.00  0.00     0.118 A 
ATOM     22  N   UNL A   1      46.035  27.563  24.252  1.00  0.00    -0.181 NA
ATOM     23  C   UNL A   1      47.304  27.664  24.676  1.00  0.00     0.145 A 
ENDBRANCH  10  18
BRANCH  13  24
ATOM     24  C   UNL A   1      49.044  26.462  30.568  1.00  0.00     0.417 C 
ATOM     25  F   UNL A   1      50.348  26.809  30.497  1.00  0.00    -0.166 F 
ATOM     26  F   UNL A   1      48.499  27.266  31.527  1.00  0.00    -0.166 F 
ATOM     27  F   UNL A   1      49.020  25.205  31.093  1.00  0.00    -0.166 F 
ENDBRANCH  13  24
BRANCH  16  28
ATOM     28  C   UNL A   1      45.046  25.583  30.020  1.00  0.00     0.041 C 
ATOM     29  C   UNL A   1      44.271  24.684  30.953  1.00  0.00     0.011 C 
ATOM     30  C   UNL A   1      45.356  25.536  31.509  1.00  0.00     0.011 C 
ENDBRANCH  16  28
ENDBRANCH   8   9
ENDBRANCH   6   8
ENDBRANCH   5   6
ENDBRANCH   4   5
ENDBRANCH   3   4
ENDBRANCH   2   3
ENDBRANCH   1   2
BRANCH   1  31
ATOM     31  C   UNL A   1      40.628  20.986  26.303  1.00  0.00     0.261 C 
BRANCH  31  32
ATOM     32  O   UNL A   1      41.123  22.317  26.280  1.00  0.00    -0.460 OA
BRANCH  32  33
ATOM     33  C   UNL A   1      40.330  23.252  26.847  1.00  0.00     0.338 C 
ATOM     34  O   UNL A   1      39.195  23.105  27.244  1.00  0.00    -0.246 OA
BRANCH  33  35
ATOM     35  C   UNL A   1      41.040  24.544  26.814  1.00  0.00     0.060 A 
ATOM     36  C   UNL A   1      41.953  24.733  27.841  1.00  0.00     0.016 A 
ATOM     37  C   UNL A   1      40.467  25.618  26.128  1.00  0.00     0.016 A 
ATOM     38  C   UNL A   1      41.977  25.973  28.428  1.00  0.00     0.010 A 
ATOM     39  C   UNL A   1      40.444  26.845  26.736  1.00  0.00     0.010 A 
ATOM     40  C   UNL A   1      41.112  26.963  27.944  1.00  0.00    -0.014 A 
BRANCH  40  41
ATOM     41  C   UNL A   1      41.041  28.198  28.680  1.00  0.00     0.031 A 
ATOM     42  C   UNL A   1      42.169  29.078  28.332  1.00  0.00     0.074 A 
ATOM     43  C   UNL A   1      40.058  28.488  29.549  1.00  0.00     0.049 A 
ATOM     44  N   UNL A   1      43.259  29.235  29.005  1.00  0.00    -0.248 NA
ATOM     45  C   UNL A   1      42.215  29.622  26.966  1.00  0.00     0.031 C 
ATOM     46  C   UNL A   1      38.782  27.808  29.775  1.00  0.00     0.029 A 
ATOM     47  N   UNL A   1      39.997  29.541  30.403  1.00  0.00    -0.354 N 
ATOM     48  C   UNL A   1      44.019  30.116  28.252  1.00  0.00     0.074 A 
ATOM     49  C   UNL A   1      43.455  30.109  26.929  1.00  0.00     0.031 C 
ATOM     50  C   UNL A   1      37.990  28.595  30.544  1.00  0.00     0.029 A 
ATOM     51  C   UNL A   1      38.751  29.756  30.977  1.00  0.00     0.049 A 
ATOM     52  H   UNL A   1      40.777  30.109  30.601  1.00  0.00     0.167 HD
ATOM     53  C   UNL A   1      44.852  31.001  28.859  1.00  0.00     0.037 A 
ATOM     54  C   UNL A   1      38.396  30.862  31.685  1.00  0.00     0.037 A 
ATOM     55  C   UNL A   1      45.138  30.600  30.216  1.00  0.00     0.049 A 
ATOM     56  C   UNL A   1      39.666  31.481  32.169  1.00  0.00     0.074 A 
ATOM     57  C   UNL A   1      45.721  29.488  30.792  1.00  0.00     0.029 A 
ATOM     58  N   UNL A   1      44.434  31.219  31.222  1.00  0.00    -0.354 N 
ATOM     59  N   UNL A   1      40.459  30.913  33.038  1.00  0.00    -0.248 NA
ATOM     60  C   UNL A   1      40.293  32.483  31.318  1.00  0.00     0.031 C 
ATOM     61  C   UNL A   1      44.968  29.242  31.978  1.00  0.00     0.029 A 
ATOM     62  C   UNL A   1      44.010  30.251  32.098  1.00  0.00     0.049 A 
ATOM     63  H   UNL A   1      44.265  32.185  31.300  1.00  0.00     0.167 HD
ATOM     64  C   UNL A   1      41.743  31.170  32.577  1.00  0.00     0.074 A 
ATOM     65  C   UNL A   1      41.578  32.192  31.545  1.00  0.00     0.031 C 
ATOM     66  C   UNL A   1      42.784  30.332  32.864  1.00  0.00     0.037 A 
BRANCH  53  67
ATOM     67  C   UNL A   1      45.061  32.407  28.357  1.00  0.00     0.058 A 
ATOM     68  C   UNL A   1      46.364  32.831  28.040  1.00  0.00     0.135 A 
ATOM     69  C   UNL A   1      44.086  33.430  28.427  1.00  0.00     0.135 A 
ATOM     70  F   UNL A   1      47.371  31.946  27.960  1.00  0.00    -0.206 F 
ATOM     71  C   UNL A   1      46.687  34.177  27.871  1.00  0.00     0.059 A 
ATOM     72  C   UNL A   1      44.375  34.768  28.204  1.00  0.00     0.059 A 
ATOM     73  F   UNL A   1      42.826  33.208  28.816  1.00  0.00    -0.206 F 
ATOM     74  C   UNL A   1      45.684  35.138  27.967  1.00  0.00     0.060 A 
BRANCH  74  75
ATOM     75  S   UNL A   1      46.110  36.881  27.848  1.00  0.00     0.124 S 
ATOM     76  O   UNL A   1      45.914  37.322  29.224  1.00  0.00    -0.237 OA
ATOM     77  O   UNL A   1      47.492  36.818  27.383  1.00  0.00    -0.237 OA
ATOM     78  O   UNL A   1      45.150  37.396  26.875  1.00  0.00    -0.744 OA
ENDBRANCH  74  75
ENDBRANCH  53  67
BRANCH  54  79
ATOM     79  C   UNL A   1      37.125  31.634  31.588  1.00  0.00     0.058 A 
ATOM     80  C   UNL A   1      36.385  31.962  32.742  1.00  0.00     0.135 A 
ATOM     81  C   UNL A   1      36.766  32.322  30.412  1.00  0.00     0.135 A 
ATOM     82  F   UNL A   1      36.666  31.370  33.913  1.00  0.00    -0.206 F 
ATOM     83  C   UNL A   1      35.395  32.953  32.742  1.00  0.00     0.059 A 
ATOM     84  C   UNL A   1      35.779  33.308  30.386  1.00  0.00     0.059 A 
ATOM     85  F   UNL A   1      37.430  32.123  29.263  1.00  0.00    -0.206 F 
ATOM     86  C   UNL A   1      35.116  33.639  31.561  1.00  0.00     0.060 A 
BRANCH  86  87
ATOM     87  S   UNL A   1      33.969  35.039  31.589  1.00  0.00     0.124 S 
ATOM     88  O   UNL A   1      32.890  34.529  32.427  1.00  0.00    -0.237 OA
ATOM     89  O   UNL A   1      34.787  36.096  32.175  1.00  0.00    -0.237 OA
ATOM     90  O   UNL A   1      33.629  35.227  30.181  1.00  0.00    -0.744 OA
ENDBRANCH  86  87
ENDBRANCH  54  79
BRANCH  66  91
ATOM     91  C   UNL A   1      42.579  29.273  33.920  1.00  0.00     0.058 A 
ATOM     92  C   UNL A   1      42.303  27.920  33.652  1.00  0.00     0.135 A 
ATOM     93  C   UNL A   1      42.844  29.618  35.253  1.00  0.00     0.135 A 
ATOM     94  F   UNL A   1      42.131  27.488  32.394  1.00  0.00    -0.206 F 
ATOM     95  C   UNL A   1      42.263  26.960  34.669  1.00  0.00     0.059 A 
ATOM     96  C   UNL A   1      42.840  28.676  36.278  1.00  0.00     0.059 A 
ATOM     97  F   UNL A   1      43.172  30.882  35.567  1.00  0.00    -0.206 F 
ATOM     98  C   UNL A   1      42.539  27.348  35.980  1.00  0.00     0.060 A 
BRANCH  98  99
ATOM     99  S   UNL A   1      42.565  26.099  37.286  1.00  0.00     0.124 S 
ATOM    100  O   UNL A   1      41.182  26.111  37.751  1.00  0.00    -0.237 OA
ATOM    101  O   UNL A   1      42.984  24.899  36.568  1.00  0.00    -0.237 OA
ATOM    102  O   UNL A   1      43.546  26.619  38.237  1.00  0.00    -0.744 OA
ENDBRANCH  98  99
ENDBRANCH  66  91
ENDBRANCH  40  41
ENDBRANCH  33  35
ENDBRANCH  32  33
ENDBRANCH  31  32
ENDBRANCH   1  31
TORSDOF 21
ENDMDL
