MODEL 1
REMARK VINA RESULT:      -9.5      0.000      0.000
REMARK SMILES CCc1cccc(-c2ccc([C@@H](C)C(=O)OCCOCCOC(=O)c3ccc(-c4c5nc(c(-c6c(F)cc(S(=O)(=O)[O-])cc6F)c6ccc([nH]6)c(-c6c(F)cc(S(=O)(=O)[O-])cc6F)c6nc(c(-c7c(F)cc(S(=O)(=O)[O-])cc7F)c7ccc4[nH]7)C=C6)C=C5)cc3)cc2)c1
REMARK SMILES IDX 19 1 18 2 17 3 16 4 14 5 15 6 12 7 13 8 11 9 8 10 9 11 92 12
REMARK SMILES IDX 10 13 91 14 7 15 3 16 4 17 93 18 5 19 6 20 2 21 1 22 20 23
REMARK SMILES IDX 21 24 22 25 23 26 24 27 25 28 26 29 90 30 27 31 89 32 28 33
REMARK SMILES IDX 29 34 30 35 83 36 31 37 88 38 82 39 84 40 32 41 87 42 81 43
REMARK SMILES IDX 80 44 33 46 67 47 46 48 66 49 47 50 50 51 65 52 85 53 48 54
REMARK SMILES IDX 49 55 64 57 86 58 51 59 34 60 35 61 44 62 36 63 37 64 43 65
REMARK SMILES IDX 45 66 38 67 39 68 40 69 41 70 42 71 68 72 69 73 78 74 70 75
REMARK SMILES IDX 71 76 77 77 79 78 72 79 73 80 74 81 75 82 76 83 52 84 53 85
REMARK SMILES IDX 62 86 54 87 55 88 61 89 63 90 56 91 57 92 58 93 59 94 60 95
REMARK H PARENT 84 45 50 56
REMARK Flexibility Score: inf
ROOT
ATOM      1  O   UNL A   1      42.606  21.862  25.379  1.00  0.00    -0.374 OA
ENDROOT
BRANCH   1   2
ATOM      2  C   UNL A   1      43.225  22.907  24.628  1.00  0.00     0.202 C 
BRANCH   2   3
ATOM      3  C   UNL A   1      44.661  22.642  24.169  1.00  0.00     0.261 C 
BRANCH   3   4
ATOM      4  O   UNL A   1      45.483  23.812  24.332  1.00  0.00    -0.463 OA
BRANCH   4   5
ATOM      5  C   UNL A   1      45.942  24.053  25.586  1.00  0.00     0.313 C 
ATOM      6  O   UNL A   1      46.777  23.364  26.165  1.00  0.00    -0.252 OA
BRANCH   5   7
ATOM      7  C   UNL A   1      45.296  25.256  26.255  1.00  0.00     0.126 C 
ATOM      8  C   UNL A   1      45.972  26.531  25.758  1.00  0.00     0.025 C 
BRANCH   7   9
ATOM      9  C   UNL A   1      45.156  25.237  27.774  1.00  0.00    -0.034 A 
ATOM     10  C   UNL A   1      45.159  25.090  30.623  1.00  0.00    -0.018 A 
ATOM     11  C   UNL A   1      44.389  24.209  29.847  1.00  0.00     0.009 A 
ATOM     12  C   UNL A   1      45.882  26.084  29.950  1.00  0.00     0.009 A 
ATOM     13  C   UNL A   1      44.386  24.279  28.446  1.00  0.00     0.005 A 
ATOM     14  C   UNL A   1      45.881  26.157  28.550  1.00  0.00     0.005 A 
BRANCH  10  15
ATOM     15  C   UNL A   1      45.269  24.923  32.085  1.00  0.00    -0.018 A 
ATOM     16  C   UNL A   1      44.426  24.070  34.225  1.00  0.00    -0.048 A 
ATOM     17  C   UNL A   1      45.501  24.678  34.885  1.00  0.00     0.004 A 
ATOM     18  C   UNL A   1      44.318  24.201  32.828  1.00  0.00     0.012 A 
ATOM     19  C   UNL A   1      46.449  25.401  34.168  1.00  0.00     0.001 A 
ATOM     20  C   UNL A   1      46.333  25.520  32.783  1.00  0.00     0.009 A 
BRANCH  16  21
ATOM     21  C   UNL A   1      43.407  23.286  35.014  1.00  0.00     0.032 C 
ATOM     22  C   UNL A   1      42.231  24.146  35.457  1.00  0.00     0.009 C 
ENDBRANCH  16  21
ENDBRANCH  10  15
ENDBRANCH   7   9
ENDBRANCH   5   7
ENDBRANCH   4   5
ENDBRANCH   3   4
ENDBRANCH   2   3
ENDBRANCH   1   2
BRANCH   1  23
ATOM     23  C   UNL A   1      41.335  22.144  25.964  1.00  0.00     0.202 C 
BRANCH  23  24
ATOM     24  C   UNL A   1      41.252  23.390  26.855  1.00  0.00     0.261 C 
BRANCH  24  25
ATOM     25  O   UNL A   1      40.440  24.424  26.275  1.00  0.00    -0.460 OA
BRANCH  25  26
ATOM     26  C   UNL A   1      41.057  25.618  26.127  1.00  0.00     0.338 C 
ATOM     27  O   UNL A   1      41.343  26.175  25.073  1.00  0.00    -0.246 OA
BRANCH  26  28
ATOM     28  C   UNL A   1      41.197  26.285  27.435  1.00  0.00     0.060 A 
ATOM     29  C   UNL A   1      40.222  26.015  28.404  1.00  0.00     0.016 A 
ATOM     30  C   UNL A   1      42.211  27.211  27.688  1.00  0.00     0.016 A 
ATOM     31  C   UNL A   1      40.221  26.712  29.608  1.00  0.00     0.010 A 
ATOM     32  C   UNL A   1      42.204  27.918  28.897  1.00  0.00     0.010 A 
ATOM     33  C   UNL A   1      41.187  27.699  29.845  1.00  0.00    -0.014 A 
BRANCH  33  34
ATOM     34  C   UNL A   1      41.027  28.613  31.003  1.00  0.00     0.031 A 
ATOM     35  C   UNL A   1      39.961  29.676  30.946  1.00  0.00     0.074 A 
ATOM     36  C   UNL A   1      41.785  28.476  32.104  1.00  0.00     0.049 A 
ATOM     37  N   UNL A   1      39.659  30.596  31.824  1.00  0.00    -0.248 NA
ATOM     38  C   UNL A   1      39.123  29.698  29.736  1.00  0.00     0.031 C 
ATOM     39  C   UNL A   1      42.808  27.450  32.302  1.00  0.00     0.029 A 
ATOM     40  N   UNL A   1      41.808  29.204  33.267  1.00  0.00    -0.354 N 
ATOM     41  C   UNL A   1      38.598  31.307  31.276  1.00  0.00     0.074 A 
ATOM     42  C   UNL A   1      38.333  30.733  29.974  1.00  0.00     0.031 C 
ATOM     43  C   UNL A   1      43.361  27.617  33.517  1.00  0.00     0.029 A 
ATOM     44  C   UNL A   1      42.755  28.778  34.166  1.00  0.00     0.049 A 
ATOM     45  H   UNL A   1      41.202  29.961  33.440  1.00  0.00     0.167 HD
ATOM     46  C   UNL A   1      37.901  32.340  31.810  1.00  0.00     0.037 A 
ATOM     47  C   UNL A   1      43.104  29.279  35.368  1.00  0.00     0.037 A 
ATOM     48  C   UNL A   1      38.174  32.914  33.101  1.00  0.00     0.049 A 
ATOM     49  C   UNL A   1      42.377  30.487  35.904  1.00  0.00     0.074 A 
ATOM     50  C   UNL A   1      37.532  33.966  33.730  1.00  0.00     0.029 A 
ATOM     51  N   UNL A   1      39.178  32.488  33.960  1.00  0.00    -0.354 N 
ATOM     52  N   UNL A   1      41.379  31.152  35.375  1.00  0.00    -0.248 NA
ATOM     53  C   UNL A   1      42.828  31.012  37.201  1.00  0.00     0.031 C 
ATOM     54  C   UNL A   1      38.174  34.203  34.950  1.00  0.00     0.029 A 
ATOM     55  C   UNL A   1      39.187  33.268  35.103  1.00  0.00     0.049 A 
ATOM     56  H   UNL A   1      39.793  31.740  33.782  1.00  0.00     0.167 HD
ATOM     57  C   UNL A   1      41.061  32.153  36.287  1.00  0.00     0.074 A 
ATOM     58  C   UNL A   1      41.974  32.006  37.402  1.00  0.00     0.031 C 
ATOM     59  C   UNL A   1      40.096  33.104  36.211  1.00  0.00     0.037 A 
BRANCH  46  60
ATOM     60  C   UNL A   1      36.797  32.927  30.976  1.00  0.00     0.058 A 
ATOM     61  C   UNL A   1      37.062  33.811  29.917  1.00  0.00     0.135 A 
ATOM     62  C   UNL A   1      35.456  32.607  31.243  1.00  0.00     0.135 A 
ATOM     63  F   UNL A   1      38.325  34.164  29.631  1.00  0.00    -0.206 F 
ATOM     64  C   UNL A   1      36.034  34.387  29.178  1.00  0.00     0.059 A 
ATOM     65  C   UNL A   1      34.414  33.152  30.499  1.00  0.00     0.059 A 
ATOM     66  F   UNL A   1      35.147  31.768  32.243  1.00  0.00    -0.206 F 
ATOM     67  C   UNL A   1      34.712  34.058  29.482  1.00  0.00     0.060 A 
BRANCH  67  68
ATOM     68  S   UNL A   1      33.387  34.837  28.535  1.00  0.00     0.124 S 
ATOM     69  O   UNL A   1      32.530  35.346  29.601  1.00  0.00    -0.237 OA
ATOM     70  O   UNL A   1      34.103  35.845  27.761  1.00  0.00    -0.237 OA
ATOM     71  O   UNL A   1      32.832  33.732  27.758  1.00  0.00    -0.744 OA
ENDBRANCH  67  68
ENDBRANCH  46  60
BRANCH  47  72
ATOM     72  C   UNL A   1      44.194  28.639  36.150  1.00  0.00     0.058 A 
ATOM     73  C   UNL A   1      43.934  27.549  36.992  1.00  0.00     0.135 A 
ATOM     74  C   UNL A   1      45.518  29.095  36.060  1.00  0.00     0.135 A 
ATOM     75  F   UNL A   1      42.680  27.086  37.121  1.00  0.00    -0.206 F 
ATOM     76  C   UNL A   1      44.946  26.936  37.723  1.00  0.00     0.059 A 
ATOM     77  C   UNL A   1      46.552  28.484  36.763  1.00  0.00     0.059 A 
ATOM     78  F   UNL A   1      45.821  30.131  35.262  1.00  0.00    -0.206 F 
ATOM     79  C   UNL A   1      46.254  27.407  37.596  1.00  0.00     0.060 A 
BRANCH  79  80
ATOM     80  S   UNL A   1      47.571  26.562  38.500  1.00  0.00     0.124 S 
ATOM     81  O   UNL A   1      48.598  27.594  38.556  1.00  0.00    -0.237 OA
ATOM     82  O   UNL A   1      46.917  26.240  39.764  1.00  0.00    -0.237 OA
ATOM     83  O   UNL A   1      47.873  25.413  37.651  1.00  0.00    -0.744 OA
ENDBRANCH  79  80
ENDBRANCH  47  72
BRANCH  59  84
ATOM     84  C   UNL A   1      39.946  34.039  37.379  1.00  0.00     0.058 A 
ATOM     85  C   UNL A   1      40.561  35.299  37.402  1.00  0.00     0.135 A 
ATOM     86  C   UNL A   1      39.121  33.692  38.462  1.00  0.00     0.135 A 
ATOM     87  F   UNL A   1      41.366  35.677  36.395  1.00  0.00    -0.206 F 
ATOM     88  C   UNL A   1      40.378  36.178  38.465  1.00  0.00     0.059 A 
ATOM     89  C   UNL A   1      38.903  34.564  39.523  1.00  0.00     0.059 A 
ATOM     90  F   UNL A   1      38.501  32.501  38.485  1.00  0.00    -0.206 F 
ATOM     91  C   UNL A   1      39.544  35.802  39.520  1.00  0.00     0.060 A 
BRANCH  91  92
ATOM     92  S   UNL A   1      39.275  36.970  40.873  1.00  0.00     0.124 S 
ATOM     93  O   UNL A   1      38.529  36.152  41.823  1.00  0.00    -0.237 OA
ATOM     94  O   UNL A   1      40.639  37.313  41.265  1.00  0.00    -0.237 OA
ATOM     95  O   UNL A   1      38.521  38.050  40.244  1.00  0.00    -0.744 OA
ENDBRANCH  91  92
ENDBRANCH  59  84
ENDBRANCH  33  34
ENDBRANCH  26  28
ENDBRANCH  25  26
ENDBRANCH  24  25
ENDBRANCH  23  24
ENDBRANCH   1  23
TORSDOF 20
ENDMDL
MODEL 2
REMARK VINA RESULT:      -9.4      6.481     13.948
REMARK SMILES CCc1cccc(-c2ccc([C@@H](C)C(=O)OCCOCCOC(=O)c3ccc(-c4c5nc(c(-c6c(F)cc(S(=O)(=O)[O-])cc6F)c6ccc([nH]6)c(-c6c(F)cc(S(=O)(=O)[O-])cc6F)c6nc(c(-c7c(F)cc(S(=O)(=O)[O-])cc7F)c7ccc4[nH]7)C=C6)C=C5)cc3)cc2)c1
REMARK SMILES IDX 19 1 18 2 17 3 16 4 14 5 15 6 12 7 13 8 11 9 8 10 9 11 92 12
REMARK SMILES IDX 10 13 91 14 7 15 3 16 4 17 93 18 5 19 6 20 2 21 1 22 20 23
REMARK SMILES IDX 21 24 22 25 23 26 24 27 25 28 26 29 90 30 27 31 89 32 28 33
REMARK SMILES IDX 29 34 30 35 83 36 31 37 88 38 82 39 84 40 32 41 87 42 81 43
REMARK SMILES IDX 80 44 33 46 67 47 46 48 66 49 47 50 50 51 65 52 85 53 48 54
REMARK SMILES IDX 49 55 64 57 86 58 51 59 34 60 35 61 44 62 36 63 37 64 43 65
REMARK SMILES IDX 45 66 38 67 39 68 40 69 41 70 42 71 68 72 69 73 78 74 70 75
REMARK SMILES IDX 71 76 77 77 79 78 72 79 73 80 74 81 75 82 76 83 52 84 53 85
REMARK SMILES IDX 62 86 54 87 55 88 61 89 63 90 56 91 57 92 58 93 59 94 60 95
REMARK H PARENT 84 45 50 56
REMARK Flexibility Score: inf
ROOT
ATOM      1  O   UNL A   1      34.311  33.425  31.838  1.00  0.00    -0.374 OA
ENDROOT
BRANCH   1   2
ATOM      2  C   UNL A   1      33.882  34.787  31.860  1.00  0.00     0.202 C 
BRANCH   2   3
ATOM      3  C   UNL A   1      33.580  35.416  30.498  1.00  0.00     0.261 C 
BRANCH   3   4
ATOM      4  O   UNL A   1      33.177  34.417  29.542  1.00  0.00    -0.463 OA
BRANCH   4   5
ATOM      5  C   UNL A   1      34.048  34.170  28.531  1.00  0.00     0.313 C 
ATOM      6  O   UNL A   1      34.441  35.012  27.729  1.00  0.00    -0.252 OA
BRANCH   5   7
ATOM      7  C   UNL A   1      34.484  32.715  28.439  1.00  0.00     0.126 C 
ATOM      8  C   UNL A   1      35.930  32.654  27.954  1.00  0.00     0.025 C 
BRANCH   7   9
ATOM      9  C   UNL A   1      33.583  31.747  27.679  1.00  0.00    -0.034 A 
ATOM     10  C   UNL A   1      32.058  29.994  26.024  1.00  0.00    -0.018 A 
ATOM     11  C   UNL A   1      31.540  31.225  26.457  1.00  0.00     0.009 A 
ATOM     12  C   UNL A   1      33.331  29.630  26.483  1.00  0.00     0.009 A 
ATOM     13  C   UNL A   1      32.288  32.089  27.270  1.00  0.00     0.005 A 
ATOM     14  C   UNL A   1      34.081  30.491  27.296  1.00  0.00     0.005 A 
BRANCH  10  15
ATOM     15  C   UNL A   1      31.326  29.154  25.057  1.00  0.00    -0.018 A 
ATOM     16  C   UNL A   1      29.771  28.889  23.178  1.00  0.00    -0.048 A 
ATOM     17  C   UNL A   1      29.911  27.498  23.265  1.00  0.00     0.004 A 
ATOM     18  C   UNL A   1      30.479  29.706  24.079  1.00  0.00     0.012 A 
ATOM     19  C   UNL A   1      30.739  26.933  24.229  1.00  0.00     0.001 A 
ATOM     20  C   UNL A   1      31.439  27.754  25.114  1.00  0.00     0.009 A 
BRANCH  16  21
ATOM     21  C   UNL A   1      28.872  29.489  22.125  1.00  0.00     0.032 C 
ATOM     22  C   UNL A   1      27.584  30.048  22.714  1.00  0.00     0.009 C 
ENDBRANCH  16  21
ENDBRANCH  10  15
ENDBRANCH   7   9
ENDBRANCH   5   7
ENDBRANCH   4   5
ENDBRANCH   3   4
ENDBRANCH   2   3
ENDBRANCH   1   2
BRANCH   1  23
ATOM     23  C   UNL A   1      35.076  32.964  32.952  1.00  0.00     0.202 C 
BRANCH  23  24
ATOM     24  C   UNL A   1      35.976  31.746  32.708  1.00  0.00     0.261 C 
BRANCH  24  25
ATOM     25  O   UNL A   1      36.415  31.655  31.342  1.00  0.00    -0.460 OA
BRANCH  25  26
ATOM     26  C   UNL A   1      36.686  30.402  30.913  1.00  0.00     0.338 C 
ATOM     27  O   UNL A   1      35.885  29.488  30.750  1.00  0.00    -0.246 OA
BRANCH  26  28
ATOM     28  C   UNL A   1      38.092  30.306  30.477  1.00  0.00     0.060 A 
ATOM     29  C   UNL A   1      38.338  30.263  29.098  1.00  0.00     0.016 A 
ATOM     30  C   UNL A   1      39.142  30.186  31.389  1.00  0.00     0.016 A 
ATOM     31  C   UNL A   1      39.627  30.039  28.625  1.00  0.00     0.010 A 
ATOM     32  C   UNL A   1      40.438  29.952  30.911  1.00  0.00     0.010 A 
ATOM     33  C   UNL A   1      40.679  29.839  29.529  1.00  0.00    -0.014 A 
BRANCH  33  34
ATOM     34  C   UNL A   1      41.985  29.344  29.030  1.00  0.00     0.031 A 
ATOM     35  C   UNL A   1      43.150  30.296  28.979  1.00  0.00     0.074 A 
ATOM     36  C   UNL A   1      42.147  28.059  28.668  1.00  0.00     0.049 A 
ATOM     37  N   UNL A   1      44.371  30.092  28.559  1.00  0.00    -0.248 NA
ATOM     38  C   UNL A   1      42.903  31.660  29.474  1.00  0.00     0.031 C 
ATOM     39  C   UNL A   1      41.112  27.029  28.728  1.00  0.00     0.029 A 
ATOM     40  N   UNL A   1      43.248  27.403  28.180  1.00  0.00    -0.354 N 
ATOM     41  C   UNL A   1      45.038  31.299  28.735  1.00  0.00     0.074 A 
ATOM     42  C   UNL A   1      44.076  32.238  29.270  1.00  0.00     0.031 C 
ATOM     43  C   UNL A   1      41.629  25.867  28.290  1.00  0.00     0.029 A 
ATOM     44  C   UNL A   1      43.019  26.080  27.889  1.00  0.00     0.049 A 
ATOM     45  H   UNL A   1      44.121  27.839  28.050  1.00  0.00     0.167 HD
ATOM     46  C   UNL A   1      46.336  31.597  28.485  1.00  0.00     0.037 A 
ATOM     47  C   UNL A   1      43.832  25.153  27.346  1.00  0.00     0.037 A 
ATOM     48  C   UNL A   1      47.288  30.662  27.944  1.00  0.00     0.049 A 
ATOM     49  C   UNL A   1      45.247  25.530  26.987  1.00  0.00     0.074 A 
ATOM     50  C   UNL A   1      48.624  30.866  27.647  1.00  0.00     0.029 A 
ATOM     51  N   UNL A   1      47.002  29.345  27.613  1.00  0.00    -0.354 N 
ATOM     52  N   UNL A   1      45.864  26.674  27.157  1.00  0.00    -0.248 NA
ATOM     53  C   UNL A   1      46.075  24.489  26.361  1.00  0.00     0.031 C 
ATOM     54  C   UNL A   1      49.134  29.685  27.097  1.00  0.00     0.029 A 
ATOM     55  C   UNL A   1      48.129  28.730  27.095  1.00  0.00     0.049 A 
ATOM     56  H   UNL A   1      46.126  28.911  27.730  1.00  0.00     0.167 HD
ATOM     57  C   UNL A   1      47.161  26.482  26.689  1.00  0.00     0.074 A 
ATOM     58  C   UNL A   1      47.238  25.110  26.229  1.00  0.00     0.031 C 
ATOM     59  C   UNL A   1      48.195  27.359  26.650  1.00  0.00     0.037 A 
BRANCH  46  60
ATOM     60  C   UNL A   1      46.785  33.003  28.768  1.00  0.00     0.058 A 
ATOM     61  C   UNL A   1      46.704  34.014  27.796  1.00  0.00     0.135 A 
ATOM     62  C   UNL A   1      47.309  33.344  30.025  1.00  0.00     0.135 A 
ATOM     63  F   UNL A   1      46.227  33.737  26.572  1.00  0.00    -0.206 F 
ATOM     64  C   UNL A   1      47.163  35.302  28.048  1.00  0.00     0.059 A 
ATOM     65  C   UNL A   1      47.749  34.633  30.307  1.00  0.00     0.059 A 
ATOM     66  F   UNL A   1      47.409  32.417  30.990  1.00  0.00    -0.206 F 
ATOM     67  C   UNL A   1      47.692  35.601  29.305  1.00  0.00     0.060 A 
BRANCH  67  68
ATOM     68  S   UNL A   1      48.312  37.269  29.609  1.00  0.00     0.124 S 
ATOM     69  O   UNL A   1      47.507  37.672  30.758  1.00  0.00    -0.237 OA
ATOM     70  O   UNL A   1      49.727  37.035  29.877  1.00  0.00    -0.237 OA
ATOM     71  O   UNL A   1      48.022  37.971  28.362  1.00  0.00    -0.744 OA
ENDBRANCH  67  68
ENDBRANCH  46  60
BRANCH  47  72
ATOM     72  C   UNL A   1      43.330  23.774  27.108  1.00  0.00     0.058 A 
ATOM     73  C   UNL A   1      42.965  23.351  25.822  1.00  0.00     0.135 A 
ATOM     74  C   UNL A   1      43.219  22.849  28.158  1.00  0.00     0.135 A 
ATOM     75  F   UNL A   1      43.042  24.205  24.789  1.00  0.00    -0.206 F 
ATOM     76  C   UNL A   1      42.502  22.062  25.584  1.00  0.00     0.059 A 
ATOM     77  C   UNL A   1      42.780  21.546  27.941  1.00  0.00     0.059 A 
ATOM     78  F   UNL A   1      43.563  23.202  29.406  1.00  0.00    -0.206 F 
ATOM     79  C   UNL A   1      42.419  21.164  26.649  1.00  0.00     0.060 A 
BRANCH  79  80
ATOM     80  S   UNL A   1      41.878  19.472  26.318  1.00  0.00     0.124 S 
ATOM     81  O   UNL A   1      42.580  19.177  25.075  1.00  0.00    -0.237 OA
ATOM     82  O   UNL A   1      42.349  18.763  27.503  1.00  0.00    -0.237 OA
ATOM     83  O   UNL A   1      40.428  19.601  26.211  1.00  0.00    -0.744 OA
ENDBRANCH  79  80
ENDBRANCH  47  72
BRANCH  59  84
ATOM     84  C   UNL A   1      49.514  26.859  26.129  1.00  0.00     0.058 A 
ATOM     85  C   UNL A   1      49.873  26.989  24.780  1.00  0.00     0.135 A 
ATOM     86  C   UNL A   1      50.456  26.300  27.008  1.00  0.00     0.135 A 
ATOM     87  F   UNL A   1      49.006  27.509  23.896  1.00  0.00    -0.206 F 
ATOM     88  C   UNL A   1      51.115  26.567  24.315  1.00  0.00     0.059 A 
ATOM     89  C   UNL A   1      51.713  25.896  26.571  1.00  0.00     0.059 A 
ATOM     90  F   UNL A   1      50.166  26.164  28.312  1.00  0.00    -0.206 F 
ATOM     91  C   UNL A   1      52.030  26.025  25.220  1.00  0.00     0.060 A 
BRANCH  91  92
ATOM     92  S   UNL A   1      53.657  25.524  24.614  1.00  0.00     0.124 S 
ATOM     93  O   UNL A   1      53.552  24.069  24.661  1.00  0.00    -0.237 OA
ATOM     94  O   UNL A   1      53.690  26.116  23.280  1.00  0.00    -0.237 OA
ATOM     95  O   UNL A   1      54.577  26.120  25.579  1.00  0.00    -0.744 OA
ENDBRANCH  91  92
ENDBRANCH  59  84
ENDBRANCH  33  34
ENDBRANCH  26  28
ENDBRANCH  25  26
ENDBRANCH  24  25
ENDBRANCH  23  24
ENDBRANCH   1  23
TORSDOF 20
ENDMDL
MODEL 3
REMARK VINA RESULT:      -9.4      0.619      8.144
REMARK SMILES CCc1cccc(-c2ccc([C@@H](C)C(=O)OCCOCCOC(=O)c3ccc(-c4c5nc(c(-c6c(F)cc(S(=O)(=O)[O-])cc6F)c6ccc([nH]6)c(-c6c(F)cc(S(=O)(=O)[O-])cc6F)c6nc(c(-c7c(F)cc(S(=O)(=O)[O-])cc7F)c7ccc4[nH]7)C=C6)C=C5)cc3)cc2)c1
REMARK SMILES IDX 19 1 18 2 17 3 16 4 14 5 15 6 12 7 13 8 11 9 8 10 9 11 92 12
REMARK SMILES IDX 10 13 91 14 7 15 3 16 4 17 93 18 5 19 6 20 2 21 1 22 20 23
REMARK SMILES IDX 21 24 22 25 23 26 24 27 25 28 26 29 90 30 27 31 89 32 28 33
REMARK SMILES IDX 29 34 30 35 83 36 31 37 88 38 82 39 84 40 32 41 87 42 81 43
REMARK SMILES IDX 80 44 33 46 67 47 46 48 66 49 47 50 50 51 65 52 85 53 48 54
REMARK SMILES IDX 49 55 64 57 86 58 51 59 34 60 35 61 44 62 36 63 37 64 43 65
REMARK SMILES IDX 45 66 38 67 39 68 40 69 41 70 42 71 68 72 69 73 78 74 70 75
REMARK SMILES IDX 71 76 77 77 79 78 72 79 73 80 74 81 75 82 76 83 52 84 53 85
REMARK SMILES IDX 62 86 54 87 55 88 61 89 63 90 56 91 57 92 58 93 59 94 60 95
REMARK H PARENT 84 45 50 56
REMARK Flexibility Score: inf
ROOT
ATOM      1  O   UNL A   1      43.259  21.826  25.570  1.00  0.00    -0.374 OA
ENDROOT
BRANCH   1   2
ATOM      2  C   UNL A   1      43.906  22.564  24.533  1.00  0.00     0.202 C 
BRANCH   2   3
ATOM      3  C   UNL A   1      45.437  22.544  24.551  1.00  0.00     0.261 C 
BRANCH   3   4
ATOM      4  O   UNL A   1      45.979  23.748  23.978  1.00  0.00    -0.463 OA
BRANCH   4   5
ATOM      5  C   UNL A   1      46.471  24.660  24.855  1.00  0.00     0.313 C 
ATOM      6  O   UNL A   1      47.658  24.776  25.145  1.00  0.00    -0.252 OA
BRANCH   5   7
ATOM      7  C   UNL A   1      45.402  25.529  25.500  1.00  0.00     0.126 C 
ATOM      8  C   UNL A   1      45.564  26.967  25.015  1.00  0.00     0.025 C 
BRANCH   7   9
ATOM      9  C   UNL A   1      45.237  25.450  27.015  1.00  0.00    -0.034 A 
ATOM     10  C   UNL A   1      45.210  25.236  29.859  1.00  0.00    -0.018 A 
ATOM     11  C   UNL A   1      44.613  24.258  29.047  1.00  0.00     0.009 A 
ATOM     12  C   UNL A   1      45.769  26.353  29.223  1.00  0.00     0.009 A 
ATOM     13  C   UNL A   1      44.626  24.360  27.649  1.00  0.00     0.005 A 
ATOM     14  C   UNL A   1      45.783  26.458  27.826  1.00  0.00     0.005 A 
BRANCH  10  15
ATOM     15  C   UNL A   1      45.317  25.055  31.319  1.00  0.00    -0.018 A 
ATOM     16  C   UNL A   1      44.507  24.124  33.440  1.00  0.00    -0.048 A 
ATOM     17  C   UNL A   1      45.541  24.783  34.118  1.00  0.00     0.004 A 
ATOM     18  C   UNL A   1      44.403  24.269  32.044  1.00  0.00     0.012 A 
ATOM     19  C   UNL A   1      46.451  25.569  33.419  1.00  0.00     0.001 A 
ATOM     20  C   UNL A   1      46.340  25.701  32.035  1.00  0.00     0.009 A 
BRANCH  16  21
ATOM     21  C   UNL A   1      43.528  23.272  34.209  1.00  0.00     0.032 C 
ATOM     22  C   UNL A   1      43.355  23.742  35.646  1.00  0.00     0.009 C 
ENDBRANCH  16  21
ENDBRANCH  10  15
ENDBRANCH   7   9
ENDBRANCH   5   7
ENDBRANCH   4   5
ENDBRANCH   3   4
ENDBRANCH   2   3
ENDBRANCH   1   2
BRANCH   1  23
ATOM     23  C   UNL A   1      41.857  22.034  25.741  1.00  0.00     0.202 C 
BRANCH  23  24
ATOM     24  C   UNL A   1      41.439  23.005  26.852  1.00  0.00     0.261 C 
BRANCH  24  25
ATOM     25  O   UNL A   1      40.503  23.994  26.390  1.00  0.00    -0.460 OA
BRANCH  25  26
ATOM     26  C   UNL A   1      41.036  25.214  26.148  1.00  0.00     0.338 C 
ATOM     27  O   UNL A   1      41.277  25.710  25.053  1.00  0.00    -0.246 OA
BRANCH  26  28
ATOM     28  C   UNL A   1      41.135  25.983  27.402  1.00  0.00     0.060 A 
ATOM     29  C   UNL A   1      40.129  25.791  28.359  1.00  0.00     0.016 A 
ATOM     30  C   UNL A   1      42.142  26.927  27.613  1.00  0.00     0.016 A 
ATOM     31  C   UNL A   1      40.092  26.583  29.503  1.00  0.00     0.010 A 
ATOM     32  C   UNL A   1      42.098  27.729  28.760  1.00  0.00     0.010 A 
ATOM     33  C   UNL A   1      41.051  27.586  29.690  1.00  0.00    -0.014 A 
BRANCH  33  34
ATOM     34  C   UNL A   1      40.856  28.590  30.765  1.00  0.00     0.031 A 
ATOM     35  C   UNL A   1      41.765  28.554  31.964  1.00  0.00     0.074 A 
ATOM     36  C   UNL A   1      39.915  29.545  30.659  1.00  0.00     0.049 A 
ATOM     37  N   UNL A   1      41.763  29.311  33.030  1.00  0.00    -0.248 NA
ATOM     38  C   UNL A   1      42.820  27.527  31.956  1.00  0.00     0.031 C 
ATOM     39  C   UNL A   1      39.014  29.719  29.521  1.00  0.00     0.029 A 
ATOM     40  N   UNL A   1      39.565  30.551  31.524  1.00  0.00    -0.354 N 
ATOM     41  C   UNL A   1      42.812  28.854  33.820  1.00  0.00     0.074 A 
ATOM     42  C   UNL A   1      43.406  27.732  33.125  1.00  0.00     0.031 C 
ATOM     43  C   UNL A   1      38.211  30.771  29.760  1.00  0.00     0.029 A 
ATOM     44  C   UNL A   1      38.519  31.322  31.079  1.00  0.00     0.049 A 
ATOM     45  H   UNL A   1      40.021  30.705  32.383  1.00  0.00     0.167 HD
ATOM     46  C   UNL A   1      43.248  29.331  35.012  1.00  0.00     0.037 A 
ATOM     47  C   UNL A   1      37.874  32.344  31.676  1.00  0.00     0.037 A 
ATOM     48  C   UNL A   1      42.648  30.441  35.704  1.00  0.00     0.049 A 
ATOM     49  C   UNL A   1      38.315  32.799  33.044  1.00  0.00     0.074 A 
ATOM     50  C   UNL A   1      43.010  30.996  36.919  1.00  0.00     0.029 A 
ATOM     51  N   UNL A   1      41.556  31.163  35.245  1.00  0.00    -0.354 N 
ATOM     52  N   UNL A   1      39.305  32.356  33.780  1.00  0.00    -0.248 NA
ATOM     53  C   UNL A   1      37.548  33.890  33.661  1.00  0.00     0.031 C 
ATOM     54  C   UNL A   1      42.110  32.026  37.214  1.00  0.00     0.029 A 
ATOM     55  C   UNL A   1      41.216  32.144  36.160  1.00  0.00     0.049 A 
ATOM     56  H   UNL A   1      41.091  31.001  34.392  1.00  0.00     0.167 HD
ATOM     57  C   UNL A   1      39.301  33.137  34.933  1.00  0.00     0.074 A 
ATOM     58  C   UNL A   1      38.209  34.078  34.795  1.00  0.00     0.031 C 
ATOM     59  C   UNL A   1      40.131  33.082  36.005  1.00  0.00     0.037 A 
BRANCH  46  60
ATOM     60  C   UNL A   1      44.412  28.625  35.648  1.00  0.00     0.058 A 
ATOM     61  C   UNL A   1      45.740  28.961  35.337  1.00  0.00     0.135 A 
ATOM     62  C   UNL A   1      44.198  27.595  36.578  1.00  0.00     0.135 A 
ATOM     63  F   UNL A   1      45.999  29.927  34.442  1.00  0.00    -0.206 F 
ATOM     64  C   UNL A   1      46.813  28.275  35.895  1.00  0.00     0.059 A 
ATOM     65  C   UNL A   1      45.258  26.912  37.168  1.00  0.00     0.059 A 
ATOM     66  F   UNL A   1      42.950  27.233  36.912  1.00  0.00    -0.206 F 
ATOM     67  C   UNL A   1      46.562  27.245  36.803  1.00  0.00     0.060 A 
BRANCH  67  68
ATOM     68  S   UNL A   1      47.963  26.342  37.496  1.00  0.00     0.124 S 
ATOM     69  O   UNL A   1      48.455  27.289  38.492  1.00  0.00    -0.237 OA
ATOM     70  O   UNL A   1      47.331  25.137  38.025  1.00  0.00    -0.237 OA
ATOM     71  O   UNL A   1      48.835  26.134  36.344  1.00  0.00    -0.744 OA
ENDBRANCH  67  68
ENDBRANCH  46  60
BRANCH  47  72
ATOM     72  C   UNL A   1      36.740  33.010  30.983  1.00  0.00     0.058 A 
ATOM     73  C   UNL A   1      35.415  32.776  31.378  1.00  0.00     0.135 A 
ATOM     74  C   UNL A   1      36.959  33.904  29.923  1.00  0.00     0.135 A 
ATOM     75  F   UNL A   1      35.156  31.919  32.378  1.00  0.00    -0.206 F 
ATOM     76  C   UNL A   1      34.345  33.399  30.744  1.00  0.00     0.059 A 
ATOM     77  C   UNL A   1      35.907  34.558  29.289  1.00  0.00     0.059 A 
ATOM     78  F   UNL A   1      38.209  34.168  29.513  1.00  0.00    -0.206 F 
ATOM     79  C   UNL A   1      34.602  34.294  29.704  1.00  0.00     0.060 A 
BRANCH  79  80
ATOM     80  S   UNL A   1      33.210  35.147  28.931  1.00  0.00     0.124 S 
ATOM     81  O   UNL A   1      32.346  35.399  30.077  1.00  0.00    -0.237 OA
ATOM     82  O   UNL A   1      33.855  36.318  28.346  1.00  0.00    -0.237 OA
ATOM     83  O   UNL A   1      32.714  34.169  27.967  1.00  0.00    -0.744 OA
ENDBRANCH  79  80
ENDBRANCH  47  72
BRANCH  59  84
ATOM     84  C   UNL A   1      39.921  34.090  37.100  1.00  0.00     0.058 A 
ATOM     85  C   UNL A   1      40.431  35.394  37.013  1.00  0.00     0.135 A 
ATOM     86  C   UNL A   1      39.144  33.764  38.224  1.00  0.00     0.135 A 
ATOM     87  F   UNL A   1      41.187  35.755  35.964  1.00  0.00    -0.206 F 
ATOM     88  C   UNL A   1      40.192  36.336  38.009  1.00  0.00     0.059 A 
ATOM     89  C   UNL A   1      38.871  34.696  39.219  1.00  0.00     0.059 A 
ATOM     90  F   UNL A   1      38.624  32.533  38.352  1.00  0.00    -0.206 F 
ATOM     91  C   UNL A   1      39.407  35.978  39.107  1.00  0.00     0.060 A 
BRANCH  91  92
ATOM     92  S   UNL A   1      39.064  37.223  40.371  1.00  0.00     0.124 S 
ATOM     93  O   UNL A   1      38.413  38.266  39.585  1.00  0.00    -0.237 OA
ATOM     94  O   UNL A   1      38.202  36.497  41.300  1.00  0.00    -0.237 OA
ATOM     95  O   UNL A   1      40.388  37.558  40.887  1.00  0.00    -0.744 OA
ENDBRANCH  91  92
ENDBRANCH  59  84
ENDBRANCH  33  34
ENDBRANCH  26  28
ENDBRANCH  25  26
ENDBRANCH  24  25
ENDBRANCH  23  24
ENDBRANCH   1  23
TORSDOF 20
ENDMDL
