MODEL 1
REMARK VINA RESULT:     -11.1      0.000      0.000
REMARK SMILES Cc1c(C(=O)OCCOCCOC(=O)c2ccc(-c3c4nc(c(-c5c(F)cc(S(=O)(=O)[O-])cc5F)c5ccc([nH]5)c(-c5c(F)cc(S(=O)(=O)[O-])cc5F)c5nc(c(-c6c(F)cc(S(=O)(=O)[O-])cc6F)c6ccc3[nH]6)C=C5)C=C4)cc2)cnc2nc(CO)nn12
REMARK SMILES IDX 10 1 9 2 8 3 7 4 6 5 4 6 5 7 3 8 1 9 2 10 89 11 81 12 83 13
REMARK SMILES IDX 88 14 82 15 84 16 85 17 86 18 87 19 11 21 12 22 13 23 14 24
REMARK SMILES IDX 15 25 16 26 80 27 17 28 79 29 18 30 19 31 20 32 73 33 21 34
REMARK SMILES IDX 78 35 72 36 74 37 22 38 77 39 71 40 70 41 23 43 57 44 36 45
REMARK SMILES IDX 56 46 37 47 40 48 55 49 75 50 38 51 39 52 54 54 76 55 41 56
REMARK SMILES IDX 24 57 25 58 34 59 26 60 27 61 33 62 35 63 28 64 29 65 30 66
REMARK SMILES IDX 31 67 32 68 58 69 59 70 68 71 60 72 61 73 67 74 69 75 62 76
REMARK SMILES IDX 63 77 64 78 65 79 66 80 42 81 43 82 52 83 44 84 45 85 51 86
REMARK SMILES IDX 53 87 46 88 47 89 48 90 49 91 50 92
REMARK H PARENT 87 20 74 42 40 53
REMARK Flexibility Score: inf
ROOT
ATOM      1  C   UNL A   1      40.797  20.097  26.795  1.00  0.00     0.202 C 
ENDROOT
BRANCH   1   2
ATOM      2  O   UNL A   1      39.739  20.651  26.023  1.00  0.00    -0.374 OA
BRANCH   2   3
ATOM      3  C   UNL A   1      39.425  22.042  26.078  1.00  0.00     0.202 C 
BRANCH   3   4
ATOM      4  C   UNL A   1      38.010  22.511  25.737  1.00  0.00     0.261 C 
BRANCH   4   5
ATOM      5  O   UNL A   1      37.444  21.832  24.605  1.00  0.00    -0.460 OA
BRANCH   5   6
ATOM      6  C   UNL A   1      36.600  22.591  23.865  1.00  0.00     0.341 C 
ATOM      7  O   UNL A   1      36.707  22.856  22.678  1.00  0.00    -0.246 OA
BRANCH   6   8
ATOM      8  C   UNL A   1      35.446  23.010  24.675  1.00  0.00     0.099 A 
ATOM      9  C   UNL A   1      34.459  20.665  24.820  1.00  0.00     0.068 C 
ATOM     10  C   UNL A   1      34.465  22.155  25.041  1.00  0.00     0.059 A 
ATOM     11  N   UNL A   1      33.325  22.694  25.651  1.00  0.00    -0.200 N 
ATOM     12  C   UNL A   1      35.286  24.419  25.136  1.00  0.00     0.132 A 
ATOM     13  C   UNL A   1      33.200  24.065  25.913  1.00  0.00     0.252 A 
ATOM     14  N   UNL A   1      32.168  22.067  25.975  1.00  0.00    -0.147 NA
ATOM     15  N   UNL A   1      34.238  24.928  25.710  1.00  0.00    -0.219 NA
ATOM     16  N   UNL A   1      31.970  24.316  26.301  1.00  0.00    -0.191 NA
ATOM     17  C   UNL A   1      31.377  23.084  26.326  1.00  0.00     0.178 A 
BRANCH  17  18
ATOM     18  C   UNL A   1      29.918  22.910  26.598  1.00  0.00     0.235 C 
BRANCH  18  19
ATOM     19  O   UNL A   1      29.638  22.636  27.979  1.00  0.00    -0.388 OA
ATOM     20  H   UNL A   1      30.222  23.171  28.540  1.00  0.00     0.211 HD
ENDBRANCH  18  19
ENDBRANCH  17  18
ENDBRANCH   6   8
ENDBRANCH   5   6
ENDBRANCH   4   5
ENDBRANCH   3   4
ENDBRANCH   2   3
ENDBRANCH   1   2
BRANCH   1  21
ATOM     21  C   UNL A   1      42.129  19.739  26.148  1.00  0.00     0.261 C 
BRANCH  21  22
ATOM     22  O   UNL A   1      42.686  20.848  25.466  1.00  0.00    -0.460 OA
BRANCH  22  23
ATOM     23  C   UNL A   1      44.023  20.714  25.292  1.00  0.00     0.338 C 
ATOM     24  O   UNL A   1      44.668  19.686  25.349  1.00  0.00    -0.246 OA
BRANCH  23  25
ATOM     25  C   UNL A   1      44.618  22.041  25.082  1.00  0.00     0.060 A 
ATOM     26  C   UNL A   1      45.529  22.399  26.075  1.00  0.00     0.016 A 
ATOM     27  C   UNL A   1      43.874  22.979  24.355  1.00  0.00     0.016 A 
ATOM     28  C   UNL A   1      45.370  23.639  26.633  1.00  0.00     0.010 A 
ATOM     29  C   UNL A   1      43.717  24.217  24.916  1.00  0.00     0.010 A 
ATOM     30  C   UNL A   1      44.362  24.464  26.123  1.00  0.00    -0.014 A 
BRANCH  30  31
ATOM     31  C   UNL A   1      44.020  25.639  26.880  1.00  0.00     0.031 A 
ATOM     32  C   UNL A   1      45.021  26.702  26.705  1.00  0.00     0.074 A 
ATOM     33  C   UNL A   1      42.892  25.736  27.606  1.00  0.00     0.049 A 
ATOM     34  N   UNL A   1      45.959  27.030  27.527  1.00  0.00    -0.248 NA
ATOM     35  C   UNL A   1      45.156  27.283  25.361  1.00  0.00     0.031 C 
ATOM     36  C   UNL A   1      41.728  24.849  27.661  1.00  0.00     0.029 A 
ATOM     37  N   UNL A   1      42.539  26.750  28.433  1.00  0.00    -0.354 N 
ATOM     38  C   UNL A   1      46.660  28.039  26.884  1.00  0.00     0.074 A 
ATOM     39  C   UNL A   1      46.285  27.978  25.496  1.00  0.00     0.031 C 
ATOM     40  C   UNL A   1      40.713  25.484  28.299  1.00  0.00     0.029 A 
ATOM     41  C   UNL A   1      41.203  26.750  28.818  1.00  0.00     0.049 A 
ATOM     42  H   UNL A   1      43.178  27.434  28.739  1.00  0.00     0.167 HD
ATOM     43  C   UNL A   1      47.284  29.022  27.585  1.00  0.00     0.037 A 
ATOM     44  C   UNL A   1      40.580  27.786  29.440  1.00  0.00     0.037 A 
ATOM     45  C   UNL A   1      47.437  28.669  28.974  1.00  0.00     0.049 A 
ATOM     46  C   UNL A   1      41.656  28.601  30.080  1.00  0.00     0.074 A 
ATOM     47  C   UNL A   1      48.116  27.671  29.647  1.00  0.00     0.029 A 
ATOM     48  N   UNL A   1      46.500  29.145  29.861  1.00  0.00    -0.354 N 
ATOM     49  N   UNL A   1      42.402  28.162  31.061  1.00  0.00    -0.248 NA
ATOM     50  C   UNL A   1      42.238  29.684  29.297  1.00  0.00     0.031 C 
ATOM     51  C   UNL A   1      47.250  27.280  30.710  1.00  0.00     0.029 A 
ATOM     52  C   UNL A   1      46.120  28.099  30.667  1.00  0.00     0.049 A 
ATOM     53  H   UNL A   1      46.163  30.069  29.909  1.00  0.00     0.167 HD
ATOM     54  C   UNL A   1      43.684  28.613  30.774  1.00  0.00     0.074 A 
ATOM     55  C   UNL A   1      43.510  29.589  29.698  1.00  0.00     0.031 C 
ATOM     56  C   UNL A   1      44.792  27.951  31.225  1.00  0.00     0.037 A 
BRANCH  43  57
ATOM     57  C   UNL A   1      47.411  30.429  27.072  1.00  0.00     0.058 A 
ATOM     58  C   UNL A   1      48.665  31.062  27.084  1.00  0.00     0.135 A 
ATOM     59  C   UNL A   1      46.301  31.264  26.798  1.00  0.00     0.135 A 
ATOM     60  F   UNL A   1      49.778  30.363  27.356  1.00  0.00    -0.206 F 
ATOM     61  C   UNL A   1      48.802  32.435  26.885  1.00  0.00     0.059 A 
ATOM     62  C   UNL A   1      46.422  32.619  26.532  1.00  0.00     0.059 A 
ATOM     63  F   UNL A   1      45.038  30.828  26.872  1.00  0.00    -0.206 F 
ATOM     64  C   UNL A   1      47.673  33.205  26.618  1.00  0.00     0.060 A 
BRANCH  64  65
ATOM     65  S   UNL A   1      47.833  34.991  26.465  1.00  0.00     0.124 S 
ATOM     66  O   UNL A   1      48.060  35.139  25.031  1.00  0.00    -0.237 OA
ATOM     67  O   UNL A   1      46.540  35.450  26.961  1.00  0.00    -0.237 OA
ATOM     68  O   UNL A   1      48.974  35.301  27.320  1.00  0.00    -0.744 OA
ENDBRANCH  64  65
ENDBRANCH  43  57
BRANCH  44  69
ATOM     69  C   UNL A   1      39.248  28.364  29.101  1.00  0.00     0.058 A 
ATOM     70  C   UNL A   1      38.247  28.501  30.082  1.00  0.00     0.135 A 
ATOM     71  C   UNL A   1      39.037  29.071  27.900  1.00  0.00     0.135 A 
ATOM     72  F   UNL A   1      38.373  27.878  31.263  1.00  0.00    -0.206 F 
ATOM     73  C   UNL A   1      37.137  29.337  29.906  1.00  0.00     0.059 A 
ATOM     74  C   UNL A   1      37.937  29.905  27.701  1.00  0.00     0.059 A 
ATOM     75  F   UNL A   1      39.948  29.049  26.916  1.00  0.00    -0.206 F 
ATOM     76  C   UNL A   1      37.005  30.058  28.720  1.00  0.00     0.060 A 
BRANCH  76  77
ATOM     77  S   UNL A   1      35.679  31.279  28.559  1.00  0.00     0.124 S 
ATOM     78  O   UNL A   1      35.292  31.491  29.949  1.00  0.00    -0.237 OA
ATOM     79  O   UNL A   1      36.365  32.392  27.911  1.00  0.00    -0.237 OA
ATOM     80  O   UNL A   1      34.686  30.596  27.732  1.00  0.00    -0.744 OA
ENDBRANCH  76  77
ENDBRANCH  44  69
BRANCH  56  81
ATOM     81  C   UNL A   1      44.586  26.844  32.234  1.00  0.00     0.058 A 
ATOM     82  C   UNL A   1      44.393  25.489  31.901  1.00  0.00     0.135 A 
ATOM     83  C   UNL A   1      44.712  27.149  33.596  1.00  0.00     0.135 A 
ATOM     84  F   UNL A   1      44.375  25.093  30.622  1.00  0.00    -0.206 F 
ATOM     85  C   UNL A   1      44.268  24.497  32.878  1.00  0.00     0.059 A 
ATOM     86  C   UNL A   1      44.622  26.173  34.586  1.00  0.00     0.059 A 
ATOM     87  F   UNL A   1      44.967  28.410  33.981  1.00  0.00    -0.206 F 
ATOM     88  C   UNL A   1      44.378  24.851  34.222  1.00  0.00     0.060 A 
BRANCH  88  89
ATOM     89  S   UNL A   1      44.237  23.569  35.488  1.00  0.00     0.124 S 
ATOM     90  O   UNL A   1      44.652  24.279  36.693  1.00  0.00    -0.237 OA
ATOM     91  O   UNL A   1      42.824  23.209  35.418  1.00  0.00    -0.237 OA
ATOM     92  O   UNL A   1      45.158  22.532  35.028  1.00  0.00    -0.744 OA
ENDBRANCH  88  89
ENDBRANCH  56  81
ENDBRANCH  30  31
ENDBRANCH  23  25
ENDBRANCH  22  23
ENDBRANCH  21  22
ENDBRANCH   1  21
TORSDOF 19
ENDMDL
MODEL 2
REMARK VINA RESULT:     -10.9      3.711      9.701
REMARK SMILES Cc1c(C(=O)OCCOCCOC(=O)c2ccc(-c3c4nc(c(-c5c(F)cc(S(=O)(=O)[O-])cc5F)c5ccc([nH]5)c(-c5c(F)cc(S(=O)(=O)[O-])cc5F)c5nc(c(-c6c(F)cc(S(=O)(=O)[O-])cc6F)c6ccc3[nH]6)C=C5)C=C4)cc2)cnc2nc(CO)nn12
REMARK SMILES IDX 10 1 9 2 8 3 7 4 6 5 4 6 5 7 3 8 1 9 2 10 89 11 81 12 83 13
REMARK SMILES IDX 88 14 82 15 84 16 85 17 86 18 87 19 11 21 12 22 13 23 14 24
REMARK SMILES IDX 15 25 16 26 80 27 17 28 79 29 18 30 19 31 20 32 73 33 21 34
REMARK SMILES IDX 78 35 72 36 74 37 22 38 77 39 71 40 70 41 23 43 57 44 36 45
REMARK SMILES IDX 56 46 37 47 40 48 55 49 75 50 38 51 39 52 54 54 76 55 41 56
REMARK SMILES IDX 24 57 25 58 34 59 26 60 27 61 33 62 35 63 28 64 29 65 30 66
REMARK SMILES IDX 31 67 32 68 58 69 59 70 68 71 60 72 61 73 67 74 69 75 62 76
REMARK SMILES IDX 63 77 64 78 65 79 66 80 42 81 43 82 52 83 44 84 45 85 51 86
REMARK SMILES IDX 53 87 46 88 47 89 48 90 49 91 50 92
REMARK H PARENT 87 20 74 42 40 53
REMARK Flexibility Score: inf
ROOT
ATOM      1  C   UNL A   1      32.896  30.297  26.934  1.00  0.00     0.202 C 
ENDROOT
BRANCH   1   2
ATOM      2  O   UNL A   1      32.982  28.925  27.300  1.00  0.00    -0.374 OA
BRANCH   2   3
ATOM      3  C   UNL A   1      33.649  27.973  26.472  1.00  0.00     0.202 C 
BRANCH   3   4
ATOM      4  C   UNL A   1      32.904  26.718  26.012  1.00  0.00     0.261 C 
BRANCH   4   5
ATOM      5  O   UNL A   1      31.546  26.975  25.625  1.00  0.00    -0.460 OA
BRANCH   5   6
ATOM      6  C   UNL A   1      31.153  26.319  24.506  1.00  0.00     0.341 C 
ATOM      7  O   UNL A   1      31.472  25.189  24.171  1.00  0.00    -0.246 OA
BRANCH   6   8
ATOM      8  C   UNL A   1      30.190  27.134  23.748  1.00  0.00     0.099 A 
ATOM      9  C   UNL A   1      31.991  28.415  22.477  1.00  0.00     0.068 C 
ATOM     10  C   UNL A   1      30.576  28.109  22.894  1.00  0.00     0.059 A 
ATOM     11  N   UNL A   1      29.582  28.944  22.367  1.00  0.00    -0.200 N 
ATOM     12  C   UNL A   1      28.719  26.936  23.887  1.00  0.00     0.132 A 
ATOM     13  C   UNL A   1      28.226  28.770  22.674  1.00  0.00     0.252 A 
ATOM     14  N   UNL A   1      29.733  30.059  21.612  1.00  0.00    -0.147 NA
ATOM     15  N   UNL A   1      27.789  27.697  23.396  1.00  0.00    -0.219 NA
ATOM     16  N   UNL A   1      27.548  29.796  22.211  1.00  0.00    -0.191 NA
ATOM     17  C   UNL A   1      28.493  30.553  21.576  1.00  0.00     0.178 A 
BRANCH  17  18
ATOM     18  C   UNL A   1      28.180  31.896  21.000  1.00  0.00     0.235 C 
BRANCH  18  19
ATOM     19  O   UNL A   1      28.079  32.922  21.999  1.00  0.00    -0.388 OA
ATOM     20  H   UNL A   1      27.698  33.722  21.603  1.00  0.00     0.211 HD
ENDBRANCH  18  19
ENDBRANCH  17  18
ENDBRANCH   6   8
ENDBRANCH   5   6
ENDBRANCH   4   5
ENDBRANCH   3   4
ENDBRANCH   2   3
ENDBRANCH   1   2
BRANCH   1  21
ATOM     21  C   UNL A   1      33.769  31.341  27.619  1.00  0.00     0.261 C 
BRANCH  21  22
ATOM     22  O   UNL A   1      35.145  31.064  27.435  1.00  0.00    -0.460 OA
BRANCH  22  23
ATOM     23  C   UNL A   1      35.930  31.899  28.158  1.00  0.00     0.338 C 
ATOM     24  O   UNL A   1      36.187  33.060  27.905  1.00  0.00    -0.246 OA
BRANCH  23  25
ATOM     25  C   UNL A   1      36.502  31.164  29.293  1.00  0.00     0.060 A 
ATOM     26  C   UNL A   1      37.511  31.865  29.952  1.00  0.00     0.016 A 
ATOM     27  C   UNL A   1      36.444  29.765  29.257  1.00  0.00     0.016 A 
ATOM     28  C   UNL A   1      38.676  31.185  30.187  1.00  0.00     0.010 A 
ATOM     29  C   UNL A   1      37.610  29.089  29.492  1.00  0.00     0.010 A 
ATOM     30  C   UNL A   1      38.736  29.839  29.815  1.00  0.00    -0.014 A 
BRANCH  30  31
ATOM     31  C   UNL A   1      40.030  29.209  29.809  1.00  0.00     0.031 A 
ATOM     32  C   UNL A   1      40.528  28.990  31.175  1.00  0.00     0.074 A 
ATOM     33  C   UNL A   1      40.655  28.836  28.678  1.00  0.00     0.049 A 
ATOM     34  N   UNL A   1      41.404  29.695  31.806  1.00  0.00    -0.248 NA
ATOM     35  C   UNL A   1      39.779  28.048  32.021  1.00  0.00     0.031 C 
ATOM     36  C   UNL A   1      40.159  28.787  27.300  1.00  0.00     0.029 A 
ATOM     37  N   UNL A   1      41.911  28.341  28.565  1.00  0.00    -0.354 N 
ATOM     38  C   UNL A   1      41.485  29.120  33.066  1.00  0.00     0.074 A 
ATOM     39  C   UNL A   1      40.316  28.295  33.214  1.00  0.00     0.031 C 
ATOM     40  C   UNL A   1      41.029  28.076  26.539  1.00  0.00     0.029 A 
ATOM     41  C   UNL A   1      42.198  27.753  27.338  1.00  0.00     0.049 A 
ATOM     42  H   UNL A   1      42.570  28.393  29.294  1.00  0.00     0.167 HD
ATOM     43  C   UNL A   1      42.639  29.148  33.782  1.00  0.00     0.037 A 
ATOM     44  C   UNL A   1      43.296  26.992  27.086  1.00  0.00     0.037 A 
ATOM     45  C   UNL A   1      43.563  30.125  33.261  1.00  0.00     0.049 A 
ATOM     46  C   UNL A   1      44.312  27.364  28.117  1.00  0.00     0.074 A 
ATOM     47  C   UNL A   1      43.540  31.500  33.125  1.00  0.00     0.029 A 
ATOM     48  N   UNL A   1      44.543  29.683  32.404  1.00  0.00    -0.354 N 
ATOM     49  N   UNL A   1      44.866  28.548  28.183  1.00  0.00    -0.248 NA
ATOM     50  C   UNL A   1      44.320  26.606  29.361  1.00  0.00     0.031 C 
ATOM     51  C   UNL A   1      44.158  31.762  31.867  1.00  0.00     0.029 A 
ATOM     52  C   UNL A   1      44.580  30.543  31.333  1.00  0.00     0.049 A 
ATOM     53  H   UNL A   1      45.116  28.892  32.534  1.00  0.00     0.167 HD
ATOM     54  C   UNL A   1      44.920  28.848  29.539  1.00  0.00     0.074 A 
ATOM     55  C   UNL A   1      44.613  27.589  30.218  1.00  0.00     0.031 C 
ATOM     56  C   UNL A   1      44.921  30.141  29.985  1.00  0.00     0.037 A 
BRANCH  43  57
ATOM     57  C   UNL A   1      43.047  28.038  34.708  1.00  0.00     0.058 A 
ATOM     58  C   UNL A   1      43.226  28.306  36.076  1.00  0.00     0.135 A 
ATOM     59  C   UNL A   1      43.507  26.776  34.262  1.00  0.00     0.135 A 
ATOM     60  F   UNL A   1      42.843  29.483  36.595  1.00  0.00    -0.206 F 
ATOM     61  C   UNL A   1      43.859  27.403  36.929  1.00  0.00     0.059 A 
ATOM     62  C   UNL A   1      44.080  25.838  35.105  1.00  0.00     0.059 A 
ATOM     63  F   UNL A   1      43.515  26.431  32.968  1.00  0.00    -0.206 F 
ATOM     64  C   UNL A   1      44.290  26.175  36.431  1.00  0.00     0.060 A 
BRANCH  64  65
ATOM     65  S   UNL A   1      45.200  25.053  37.503  1.00  0.00     0.124 S 
ATOM     66  O   UNL A   1      44.968  23.772  36.845  1.00  0.00    -0.237 OA
ATOM     67  O   UNL A   1      46.554  25.586  37.413  1.00  0.00    -0.237 OA
ATOM     68  O   UNL A   1      44.549  25.224  38.799  1.00  0.00    -0.744 OA
ENDBRANCH  64  65
ENDBRANCH  43  57
BRANCH  44  69
ATOM     69  C   UNL A   1      43.333  25.679  26.379  1.00  0.00     0.058 A 
ATOM     70  C   UNL A   1      44.199  25.467  25.290  1.00  0.00     0.135 A 
ATOM     71  C   UNL A   1      42.756  24.524  26.944  1.00  0.00     0.135 A 
ATOM     72  F   UNL A   1      44.807  26.509  24.702  1.00  0.00    -0.206 F 
ATOM     73  C   UNL A   1      44.522  24.185  24.828  1.00  0.00     0.059 A 
ATOM     74  C   UNL A   1      43.058  23.237  26.498  1.00  0.00     0.059 A 
ATOM     75  F   UNL A   1      41.953  24.604  28.014  1.00  0.00    -0.206 F 
ATOM     76  C   UNL A   1      43.966  23.072  25.458  1.00  0.00     0.060 A 
BRANCH  76  77
ATOM     77  S   UNL A   1      44.519  21.413  24.994  1.00  0.00     0.124 S 
ATOM     78  O   UNL A   1      43.394  20.588  25.418  1.00  0.00    -0.237 OA
ATOM     79  O   UNL A   1      44.705  21.545  23.552  1.00  0.00    -0.237 OA
ATOM     80  O   UNL A   1      45.748  21.236  25.764  1.00  0.00    -0.744 OA
ENDBRANCH  76  77
ENDBRANCH  44  69
BRANCH  56  81
ATOM     81  C   UNL A   1      45.090  31.237  28.957  1.00  0.00     0.058 A 
ATOM     82  C   UNL A   1      46.333  31.675  28.458  1.00  0.00     0.135 A 
ATOM     83  C   UNL A   1      43.944  31.780  28.363  1.00  0.00     0.135 A 
ATOM     84  F   UNL A   1      47.477  31.126  28.888  1.00  0.00    -0.206 F 
ATOM     85  C   UNL A   1      46.429  32.651  27.462  1.00  0.00     0.059 A 
ATOM     86  C   UNL A   1      44.013  32.732  27.348  1.00  0.00     0.059 A 
ATOM     87  F   UNL A   1      42.727  31.356  28.742  1.00  0.00    -0.206 F 
ATOM     88  C   UNL A   1      45.260  33.179  26.916  1.00  0.00     0.060 A 
BRANCH  88  89
ATOM     89  S   UNL A   1      45.378  34.427  25.615  1.00  0.00     0.124 S 
ATOM     90  O   UNL A   1      44.647  33.800  24.519  1.00  0.00    -0.237 OA
ATOM     91  O   UNL A   1      44.734  35.585  26.227  1.00  0.00    -0.237 OA
ATOM     92  O   UNL A   1      46.817  34.565  25.404  1.00  0.00    -0.744 OA
ENDBRANCH  88  89
ENDBRANCH  56  81
ENDBRANCH  30  31
ENDBRANCH  23  25
ENDBRANCH  22  23
ENDBRANCH  21  22
ENDBRANCH   1  21
TORSDOF 19
ENDMDL
MODEL 3
REMARK VINA RESULT:     -10.6      3.074      3.971
REMARK SMILES Cc1c(C(=O)OCCOCCOC(=O)c2ccc(-c3c4nc(c(-c5c(F)cc(S(=O)(=O)[O-])cc5F)c5ccc([nH]5)c(-c5c(F)cc(S(=O)(=O)[O-])cc5F)c5nc(c(-c6c(F)cc(S(=O)(=O)[O-])cc6F)c6ccc3[nH]6)C=C5)C=C4)cc2)cnc2nc(CO)nn12
REMARK SMILES IDX 10 1 9 2 8 3 7 4 6 5 4 6 5 7 3 8 1 9 2 10 89 11 81 12 83 13
REMARK SMILES IDX 88 14 82 15 84 16 85 17 86 18 87 19 11 21 12 22 13 23 14 24
REMARK SMILES IDX 15 25 16 26 80 27 17 28 79 29 18 30 19 31 20 32 73 33 21 34
REMARK SMILES IDX 78 35 72 36 74 37 22 38 77 39 71 40 70 41 23 43 57 44 36 45
REMARK SMILES IDX 56 46 37 47 40 48 55 49 75 50 38 51 39 52 54 54 76 55 41 56
REMARK SMILES IDX 24 57 25 58 34 59 26 60 27 61 33 62 35 63 28 64 29 65 30 66
REMARK SMILES IDX 31 67 32 68 58 69 59 70 68 71 60 72 61 73 67 74 69 75 62 76
REMARK SMILES IDX 63 77 64 78 65 79 66 80 42 81 43 82 52 83 44 84 45 85 51 86
REMARK SMILES IDX 53 87 46 88 47 89 48 90 49 91 50 92
REMARK H PARENT 87 20 74 42 40 53
REMARK Flexibility Score: inf
ROOT
ATOM      1  C   UNL A   1      38.748  21.749  25.750  1.00  0.00     0.202 C 
ENDROOT
BRANCH   1   2
ATOM      2  O   UNL A   1      38.082  22.867  26.325  1.00  0.00    -0.374 OA
BRANCH   2   3
ATOM      3  C   UNL A   1      37.309  23.764  25.529  1.00  0.00     0.202 C 
BRANCH   3   4
ATOM      4  C   UNL A   1      36.408  23.209  24.424  1.00  0.00     0.261 C 
BRANCH   4   5
ATOM      5  O   UNL A   1      35.354  24.107  24.047  1.00  0.00    -0.460 OA
BRANCH   5   6
ATOM      6  C   UNL A   1      34.135  23.524  23.944  1.00  0.00     0.341 C 
ATOM      7  O   UNL A   1      33.902  22.328  23.869  1.00  0.00    -0.246 OA
BRANCH   6   8
ATOM      8  C   UNL A   1      33.074  24.540  24.018  1.00  0.00     0.099 A 
ATOM      9  C   UNL A   1      32.901  24.813  21.490  1.00  0.00     0.068 C 
ATOM     10  C   UNL A   1      32.577  25.154  22.921  1.00  0.00     0.059 A 
ATOM     11  N   UNL A   1      31.705  26.233  23.116  1.00  0.00    -0.200 N 
ATOM     12  C   UNL A   1      32.488  24.964  25.322  1.00  0.00     0.132 A 
ATOM     13  C   UNL A   1      31.322  26.656  24.396  1.00  0.00     0.252 A 
ATOM     14  N   UNL A   1      31.195  27.081  22.191  1.00  0.00    -0.147 NA
ATOM     15  N   UNL A   1      31.673  25.956  25.515  1.00  0.00    -0.219 NA
ATOM     16  N   UNL A   1      30.670  27.793  24.294  1.00  0.00    -0.191 NA
ATOM     17  C   UNL A   1      30.613  28.017  22.946  1.00  0.00     0.178 A 
BRANCH  17  18
ATOM     18  C   UNL A   1      30.057  29.280  22.373  1.00  0.00     0.235 C 
BRANCH  18  19
ATOM     19  O   UNL A   1      31.029  30.030  21.629  1.00  0.00    -0.388 OA
ATOM     20  H   UNL A   1      31.285  29.531  20.837  1.00  0.00     0.211 HD
ENDBRANCH  18  19
ENDBRANCH  17  18
ENDBRANCH   6   8
ENDBRANCH   5   6
ENDBRANCH   4   5
ENDBRANCH   3   4
ENDBRANCH   2   3
ENDBRANCH   1   2
BRANCH   1  21
ATOM     21  C   UNL A   1      40.160  21.377  26.184  1.00  0.00     0.261 C 
BRANCH  21  22
ATOM     22  O   UNL A   1      41.080  22.412  25.890  1.00  0.00    -0.460 OA
BRANCH  22  23
ATOM     23  C   UNL A   1      41.387  23.142  26.989  1.00  0.00     0.338 C 
ATOM     24  O   UNL A   1      41.226  22.819  28.150  1.00  0.00    -0.246 OA
BRANCH  23  25
ATOM     25  C   UNL A   1      41.898  24.454  26.570  1.00  0.00     0.060 A 
ATOM     26  C   UNL A   1      42.934  24.925  27.374  1.00  0.00     0.016 A 
ATOM     27  C   UNL A   1      41.021  25.303  25.881  1.00  0.00     0.016 A 
ATOM     28  C   UNL A   1      42.818  26.210  27.834  1.00  0.00     0.010 A 
ATOM     29  C   UNL A   1      40.907  26.586  26.343  1.00  0.00     0.010 A 
ATOM     30  C   UNL A   1      41.717  26.961  27.409  1.00  0.00    -0.014 A 
BRANCH  30  31
ATOM     31  C   UNL A   1      41.451  28.196  28.098  1.00  0.00     0.031 A 
ATOM     32  C   UNL A   1      42.508  29.189  27.850  1.00  0.00     0.074 A 
ATOM     33  C   UNL A   1      40.340  28.400  28.828  1.00  0.00     0.049 A 
ATOM     34  N   UNL A   1      43.474  29.511  28.641  1.00  0.00    -0.248 NA
ATOM     35  C   UNL A   1      42.658  29.681  26.471  1.00  0.00     0.031 C 
ATOM     36  C   UNL A   1      39.129  27.585  28.947  1.00  0.00     0.029 A 
ATOM     37  N   UNL A   1      40.056  29.480  29.596  1.00  0.00    -0.354 N 
ATOM     38  C   UNL A   1      44.222  30.439  27.932  1.00  0.00     0.074 A 
ATOM     39  C   UNL A   1      43.825  30.316  26.554  1.00  0.00     0.031 C 
ATOM     40  C   UNL A   1      38.160  28.314  29.556  1.00  0.00     0.029 A 
ATOM     41  C   UNL A   1      38.727  29.578  29.994  1.00  0.00     0.049 A 
ATOM     42  H   UNL A   1      40.736  30.143  29.854  1.00  0.00     0.167 HD
ATOM     43  C   UNL A   1      44.909  31.424  28.566  1.00  0.00     0.037 A 
ATOM     44  C   UNL A   1      38.172  30.683  30.559  1.00  0.00     0.037 A 
ATOM     45  C   UNL A   1      45.061  31.146  29.972  1.00  0.00     0.049 A 
ATOM     46  C   UNL A   1      39.300  31.472  31.138  1.00  0.00     0.074 A 
ATOM     47  C   UNL A   1      45.692  30.153  30.697  1.00  0.00     0.029 A 
ATOM     48  N   UNL A   1      44.164  31.726  30.839  1.00  0.00    -0.354 N 
ATOM     49  N   UNL A   1      40.033  31.050  32.136  1.00  0.00    -0.248 NA
ATOM     50  C   UNL A   1      39.932  32.472  30.286  1.00  0.00     0.031 C 
ATOM     51  C   UNL A   1      44.818  29.875  31.790  1.00  0.00     0.029 A 
ATOM     52  C   UNL A   1      43.736  30.753  31.710  1.00  0.00     0.049 A 
ATOM     53  H   UNL A   1      43.880  32.669  30.835  1.00  0.00     0.167 HD
ATOM     54  C   UNL A   1      41.335  31.410  31.810  1.00  0.00     0.074 A 
ATOM     55  C   UNL A   1      41.201  32.328  30.679  1.00  0.00     0.031 C 
ATOM     56  C   UNL A   1      42.410  30.714  32.289  1.00  0.00     0.037 A 
BRANCH  43  57
ATOM     57  C   UNL A   1      45.108  32.789  27.969  1.00  0.00     0.058 A 
ATOM     58  C   UNL A   1      46.395  33.193  27.576  1.00  0.00     0.135 A 
ATOM     59  C   UNL A   1      44.123  33.805  27.995  1.00  0.00     0.135 A 
ATOM     60  F   UNL A   1      47.405  32.311  27.540  1.00  0.00    -0.206 F 
ATOM     61  C   UNL A   1      46.692  34.523  27.276  1.00  0.00     0.059 A 
ATOM     62  C   UNL A   1      44.382  35.119  27.638  1.00  0.00     0.059 A 
ATOM     63  F   UNL A   1      42.886  33.595  28.463  1.00  0.00    -0.206 F 
ATOM     64  C   UNL A   1      45.679  35.478  27.319  1.00  0.00     0.060 A 
BRANCH  64  65
ATOM     65  S   UNL A   1      46.081  37.209  27.035  1.00  0.00     0.124 S 
ATOM     66  O   UNL A   1      46.897  37.123  25.829  1.00  0.00    -0.237 OA
ATOM     67  O   UNL A   1      44.757  37.800  26.874  1.00  0.00    -0.237 OA
ATOM     68  O   UNL A   1      46.790  37.594  28.251  1.00  0.00    -0.744 OA
ENDBRANCH  64  65
ENDBRANCH  43  57
BRANCH  44  69
ATOM     69  C   UNL A   1      36.869  31.315  30.199  1.00  0.00     0.058 A 
ATOM     70  C   UNL A   1      36.073  31.939  31.178  1.00  0.00     0.135 A 
ATOM     71  C   UNL A   1      36.531  31.590  28.859  1.00  0.00     0.135 A 
ATOM     72  F   UNL A   1      36.334  31.749  32.479  1.00  0.00    -0.206 F 
ATOM     73  C   UNL A   1      35.043  32.830  30.847  1.00  0.00     0.059 A 
ATOM     74  C   UNL A   1      35.507  32.469  28.506  1.00  0.00     0.059 A 
ATOM     75  F   UNL A   1      37.251  31.086  27.846  1.00  0.00    -0.206 F 
ATOM     76  C   UNL A   1      34.786  33.110  29.506  1.00  0.00     0.060 A 
BRANCH  76  77
ATOM     77  S   UNL A   1      33.589  34.397  29.076  1.00  0.00     0.124 S 
ATOM     78  O   UNL A   1      32.975  34.685  30.367  1.00  0.00    -0.237 OA
ATOM     79  O   UNL A   1      34.447  35.444  28.531  1.00  0.00    -0.237 OA
ATOM     80  O   UNL A   1      32.717  33.740  28.104  1.00  0.00    -0.744 OA
ENDBRANCH  76  77
ENDBRANCH  44  69
BRANCH  56  81
ATOM     81  C   UNL A   1      42.155  29.683  33.365  1.00  0.00     0.058 A 
ATOM     82  C   UNL A   1      41.804  28.341  33.114  1.00  0.00     0.135 A 
ATOM     83  C   UNL A   1      42.396  30.034  34.699  1.00  0.00     0.135 A 
ATOM     84  F   UNL A   1      41.666  27.891  31.860  1.00  0.00    -0.206 F 
ATOM     85  C   UNL A   1      41.640  27.413  34.147  1.00  0.00     0.059 A 
ATOM     86  C   UNL A   1      42.269  29.120  35.743  1.00  0.00     0.059 A 
ATOM     87  F   UNL A   1      42.802  31.278  35.002  1.00  0.00    -0.206 F 
ATOM     88  C   UNL A   1      41.870  27.815  35.462  1.00  0.00     0.060 A 
BRANCH  88  89
ATOM     89  S   UNL A   1      41.678  26.615  36.799  1.00  0.00     0.124 S 
ATOM     90  O   UNL A   1      42.861  26.870  37.614  1.00  0.00    -0.237 OA
ATOM     91  O   UNL A   1      40.402  27.003  37.393  1.00  0.00    -0.237 OA
ATOM     92  O   UNL A   1      41.666  25.330  36.104  1.00  0.00    -0.744 OA
ENDBRANCH  88  89
ENDBRANCH  56  81
ENDBRANCH  30  31
ENDBRANCH  23  25
ENDBRANCH  22  23
ENDBRANCH  21  22
ENDBRANCH   1  21
TORSDOF 19
ENDMDL
