MODEL 1
REMARK VINA RESULT:      -9.4      0.000      0.000
REMARK SMILES CN(CC(=O)OCCOCCOC(=O)c1ccc(-c2c3nc(c(-c4c(F)cc(S(=O)(=O)[O-])cc4F)c4ccc([nH]4)c(-c4c(F)cc(S(=O)(=O)[O-])cc4F)c4nc(c(-c5c(F)cc(S(=O)(=O)[O-])cc5F)c5ccc2[nH]5)C=C4)C=C3)cc1)c1nc2cc(N)ccc2[nH]1
REMARK SMILES IDX 9 1 8 2 7 3 6 4 4 5 5 6 3 7 2 8 1 9 81 10 82 11 90 12 83 13
REMARK SMILES IDX 89 14 84 16 88 17 85 18 87 19 86 20 10 23 11 24 12 25 13 26
REMARK SMILES IDX 14 27 15 28 16 29 80 30 17 31 79 32 18 33 19 34 20 35 73 36
REMARK SMILES IDX 21 37 78 38 72 39 74 40 22 41 77 42 71 43 70 44 23 46 57 47
REMARK SMILES IDX 36 48 56 49 37 50 40 51 55 52 75 53 38 54 39 55 54 57 76 58
REMARK SMILES IDX 41 59 24 60 25 61 34 62 26 63 27 64 33 65 35 66 28 67 29 68
REMARK SMILES IDX 30 69 31 70 32 71 58 72 59 73 68 74 60 75 61 76 67 77 69 78
REMARK SMILES IDX 62 79 63 80 64 81 65 82 66 83 42 84 43 85 52 86 44 87 45 88
REMARK SMILES IDX 51 89 53 90 46 91 47 92 48 93 49 94 50 95
REMARK H PARENT 90 15 86 21 86 22 74 45 40 56
REMARK Flexibility Score: inf
ROOT
ATOM      1  O   UNL A   1      34.198  35.322  28.615  1.00  0.00    -0.374 OA
ENDROOT
BRANCH   1   2
ATOM      2  C   UNL A   1      33.400  36.345  29.198  1.00  0.00     0.202 C 
BRANCH   2   3
ATOM      3  C   UNL A   1      32.735  36.097  30.559  1.00  0.00     0.261 C 
BRANCH   3   4
ATOM      4  O   UNL A   1      33.008  37.089  31.576  1.00  0.00    -0.462 OA
BRANCH   4   5
ATOM      5  C   UNL A   1      33.592  36.598  32.710  1.00  0.00     0.325 C 
ATOM      6  O   UNL A   1      34.039  37.312  33.609  1.00  0.00    -0.250 OA
BRANCH   5   7
ATOM      7  C   UNL A   1      33.778  35.084  32.771  1.00  0.00     0.241 C 
BRANCH   7   8
ATOM      8  N   UNL A   1      35.090  34.540  33.158  1.00  0.00    -0.334 N 
ATOM      9  C   UNL A   1      35.215  33.924  34.465  1.00  0.00     0.147 C 
BRANCH   8  10
ATOM     10  C   UNL A   1      36.142  34.692  32.314  1.00  0.00     0.204 A 
ATOM     11  N   UNL A   1      37.361  35.089  32.609  1.00  0.00    -0.213 NA
ATOM     12  N   UNL A   1      36.076  34.331  30.985  1.00  0.00    -0.324 N 
ATOM     13  C   UNL A   1      38.145  34.665  31.559  1.00  0.00     0.093 A 
ATOM     14  C   UNL A   1      37.359  34.190  30.518  1.00  0.00     0.067 A 
ATOM     15  H   UNL A   1      35.252  34.198  30.463  1.00  0.00     0.170 HD
ATOM     16  C   UNL A   1      39.539  34.508  31.492  1.00  0.00     0.056 A 
ATOM     17  C   UNL A   1      37.885  33.624  29.357  1.00  0.00     0.030 A 
ATOM     18  C   UNL A   1      40.080  33.756  30.440  1.00  0.00     0.034 A 
ATOM     19  C   UNL A   1      39.270  33.407  29.352  1.00  0.00     0.028 A 
BRANCH  18  20
ATOM     20  N   UNL A   1      41.435  33.433  30.434  1.00  0.00    -0.399 N 
ATOM     21  H   UNL A   1      42.066  33.970  29.902  1.00  0.00     0.156 HD
ATOM     22  H   UNL A   1      41.761  32.669  30.961  1.00  0.00     0.156 HD
ENDBRANCH  18  20
ENDBRANCH   8  10
ENDBRANCH   7   8
ENDBRANCH   5   7
ENDBRANCH   4   5
ENDBRANCH   3   4
ENDBRANCH   2   3
ENDBRANCH   1   2
BRANCH   1  23
ATOM     23  C   UNL A   1      33.592  34.056  28.401  1.00  0.00     0.202 C 
BRANCH  23  24
ATOM     24  C   UNL A   1      34.471  32.870  27.976  1.00  0.00     0.261 C 
BRANCH  24  25
ATOM     25  O   UNL A   1      34.000  31.582  28.329  1.00  0.00    -0.460 OA
BRANCH  25  26
ATOM     26  C   UNL A   1      34.456  30.577  27.557  1.00  0.00     0.338 C 
ATOM     27  O   UNL A   1      33.994  30.129  26.523  1.00  0.00    -0.246 OA
BRANCH  26  28
ATOM     28  C   UNL A   1      35.715  30.166  28.174  1.00  0.00     0.060 A 
ATOM     29  C   UNL A   1      35.683  29.702  29.491  1.00  0.00     0.016 A 
ATOM     30  C   UNL A   1      36.891  30.170  27.419  1.00  0.00     0.016 A 
ATOM     31  C   UNL A   1      36.859  29.250  30.073  1.00  0.00     0.010 A 
ATOM     32  C   UNL A   1      38.066  29.718  28.005  1.00  0.00     0.010 A 
ATOM     33  C   UNL A   1      38.053  29.276  29.338  1.00  0.00    -0.014 A 
BRANCH  33  34
ATOM     34  C   UNL A   1      39.325  28.939  29.999  1.00  0.00     0.031 A 
ATOM     35  C   UNL A   1      39.737  29.740  31.197  1.00  0.00     0.074 A 
ATOM     36  C   UNL A   1      40.082  27.939  29.518  1.00  0.00     0.049 A 
ATOM     37  N   UNL A   1      40.835  29.668  31.898  1.00  0.00    -0.248 NA
ATOM     38  C   UNL A   1      38.787  30.766  31.662  1.00  0.00     0.031 C 
ATOM     39  C   UNL A   1      39.745  27.108  28.361  1.00  0.00     0.029 A 
ATOM     40  N   UNL A   1      41.298  27.464  29.930  1.00  0.00    -0.354 N 
ATOM     41  C   UNL A   1      40.707  30.631  32.891  1.00  0.00     0.074 A 
ATOM     42  C   UNL A   1      39.447  31.306  32.676  1.00  0.00     0.031 C 
ATOM     43  C   UNL A   1      40.742  26.235  28.144  1.00  0.00     0.029 A 
ATOM     44  C   UNL A   1      41.799  26.470  29.124  1.00  0.00     0.049 A 
ATOM     45  H   UNL A   1      41.768  27.801  30.726  1.00  0.00     0.167 HD
ATOM     46  C   UNL A   1      41.564  30.909  33.900  1.00  0.00     0.037 A 
ATOM     47  C   UNL A   1      42.993  25.847  29.163  1.00  0.00     0.037 A 
ATOM     48  C   UNL A   1      42.816  30.225  34.083  1.00  0.00     0.049 A 
ATOM     49  C   UNL A   1      43.961  26.224  30.254  1.00  0.00     0.074 A 
ATOM     50  C   UNL A   1      43.761  30.408  35.073  1.00  0.00     0.029 A 
ATOM     51  N   UNL A   1      43.300  29.231  33.242  1.00  0.00    -0.354 N 
ATOM     52  N   UNL A   1      43.813  27.106  31.216  1.00  0.00    -0.248 NA
ATOM     53  C   UNL A   1      45.253  25.527  30.269  1.00  0.00     0.031 C 
ATOM     54  C   UNL A   1      44.839  29.559  34.805  1.00  0.00     0.029 A 
ATOM     55  C   UNL A   1      44.545  28.810  33.674  1.00  0.00     0.049 A 
ATOM     56  H   UNL A   1      42.826  28.876  32.455  1.00  0.00     0.167 HD
ATOM     57  C   UNL A   1      44.990  27.065  31.955  1.00  0.00     0.074 A 
ATOM     58  C   UNL A   1      45.828  26.052  31.342  1.00  0.00     0.031 C 
ATOM     59  C   UNL A   1      45.352  27.800  33.035  1.00  0.00     0.037 A 
BRANCH  46  60
ATOM     60  C   UNL A   1      41.177  31.991  34.867  1.00  0.00     0.058 A 
ATOM     61  C   UNL A   1      40.324  31.736  35.953  1.00  0.00     0.135 A 
ATOM     62  C   UNL A   1      41.684  33.293  34.725  1.00  0.00     0.135 A 
ATOM     63  F   UNL A   1      39.791  30.516  36.123  1.00  0.00    -0.206 F 
ATOM     64  C   UNL A   1      39.975  32.737  36.854  1.00  0.00     0.059 A 
ATOM     65  C   UNL A   1      41.369  34.302  35.630  1.00  0.00     0.059 A 
ATOM     66  F   UNL A   1      42.495  33.594  33.698  1.00  0.00    -0.206 F 
ATOM     67  C   UNL A   1      40.504  34.017  36.685  1.00  0.00     0.060 A 
BRANCH  67  68
ATOM     68  S   UNL A   1      40.054  35.298  37.875  1.00  0.00     0.124 S 
ATOM     69  O   UNL A   1      38.918  34.681  38.551  1.00  0.00    -0.237 OA
ATOM     70  O   UNL A   1      41.272  35.425  38.670  1.00  0.00    -0.237 OA
ATOM     71  O   UNL A   1      39.736  36.447  37.034  1.00  0.00    -0.744 OA
ENDBRANCH  67  68
ENDBRANCH  46  60
BRANCH  47  72
ATOM     72  C   UNL A   1      43.346  24.845  28.123  1.00  0.00     0.058 A 
ATOM     73  C   UNL A   1      43.099  23.479  28.310  1.00  0.00     0.135 A 
ATOM     74  C   UNL A   1      43.931  25.241  26.908  1.00  0.00     0.135 A 
ATOM     75  F   UNL A   1      42.546  23.048  29.455  1.00  0.00    -0.206 F 
ATOM     76  C   UNL A   1      43.435  22.537  27.342  1.00  0.00     0.059 A 
ATOM     77  C   UNL A   1      44.252  24.323  25.914  1.00  0.00     0.059 A 
ATOM     78  F   UNL A   1      44.175  26.540  26.671  1.00  0.00    -0.206 F 
ATOM     79  C   UNL A   1      44.011  22.970  26.146  1.00  0.00     0.060 A 
BRANCH  79  80
ATOM     80  S   UNL A   1      44.411  21.745  24.880  1.00  0.00     0.124 S 
ATOM     81  O   UNL A   1      45.767  21.367  25.257  1.00  0.00    -0.237 OA
ATOM     82  O   UNL A   1      43.381  20.734  25.097  1.00  0.00    -0.237 OA
ATOM     83  O   UNL A   1      44.288  22.498  23.634  1.00  0.00    -0.744 OA
ENDBRANCH  79  80
ENDBRANCH  47  72
BRANCH  59  84
ATOM     84  C   UNL A   1      46.710  27.537  33.623  1.00  0.00     0.058 A 
ATOM     85  C   UNL A   1      47.836  28.259  33.201  1.00  0.00     0.135 A 
ATOM     86  C   UNL A   1      46.867  26.619  34.672  1.00  0.00     0.135 A 
ATOM     87  F   UNL A   1      47.736  29.141  32.194  1.00  0.00    -0.206 F 
ATOM     88  C   UNL A   1      49.077  28.074  33.797  1.00  0.00     0.059 A 
ATOM     89  C   UNL A   1      48.094  26.438  35.302  1.00  0.00     0.059 A 
ATOM     90  F   UNL A   1      45.816  25.911  35.116  1.00  0.00    -0.206 F 
ATOM     91  C   UNL A   1      49.194  27.168  34.853  1.00  0.00     0.060 A 
BRANCH  91  92
ATOM     92  S   UNL A   1      50.798  26.988  35.659  1.00  0.00     0.124 S 
ATOM     93  O   UNL A   1      51.002  25.545  35.593  1.00  0.00    -0.237 OA
ATOM     94  O   UNL A   1      51.667  27.791  34.804  1.00  0.00    -0.237 OA
ATOM     95  O   UNL A   1      50.571  27.530  36.996  1.00  0.00    -0.744 OA
ENDBRANCH  91  92
ENDBRANCH  59  84
ENDBRANCH  33  34
ENDBRANCH  26  28
ENDBRANCH  25  26
ENDBRANCH  24  25
ENDBRANCH  23  24
ENDBRANCH   1  23
TORSDOF 20
ENDMDL
MODEL 2
REMARK VINA RESULT:      -9.2      4.828      6.206
REMARK SMILES CN(CC(=O)OCCOCCOC(=O)c1ccc(-c2c3nc(c(-c4c(F)cc(S(=O)(=O)[O-])cc4F)c4ccc([nH]4)c(-c4c(F)cc(S(=O)(=O)[O-])cc4F)c4nc(c(-c5c(F)cc(S(=O)(=O)[O-])cc5F)c5ccc2[nH]5)C=C4)C=C3)cc1)c1nc2cc(N)ccc2[nH]1
REMARK SMILES IDX 9 1 8 2 7 3 6 4 4 5 5 6 3 7 2 8 1 9 81 10 82 11 90 12 83 13
REMARK SMILES IDX 89 14 84 16 88 17 85 18 87 19 86 20 10 23 11 24 12 25 13 26
REMARK SMILES IDX 14 27 15 28 16 29 80 30 17 31 79 32 18 33 19 34 20 35 73 36
REMARK SMILES IDX 21 37 78 38 72 39 74 40 22 41 77 42 71 43 70 44 23 46 57 47
REMARK SMILES IDX 36 48 56 49 37 50 40 51 55 52 75 53 38 54 39 55 54 57 76 58
REMARK SMILES IDX 41 59 24 60 25 61 34 62 26 63 27 64 33 65 35 66 28 67 29 68
REMARK SMILES IDX 30 69 31 70 32 71 58 72 59 73 68 74 60 75 61 76 67 77 69 78
REMARK SMILES IDX 62 79 63 80 64 81 65 82 66 83 42 84 43 85 52 86 44 87 45 88
REMARK SMILES IDX 51 89 53 90 46 91 47 92 48 93 49 94 50 95
REMARK H PARENT 90 15 86 21 86 22 74 45 40 56
REMARK Flexibility Score: inf
ROOT
ATOM      1  O   UNL A   1      33.668  33.935  28.021  1.00  0.00    -0.374 OA
ENDROOT
BRANCH   1   2
ATOM      2  C   UNL A   1      32.938  35.009  28.603  1.00  0.00     0.202 C 
BRANCH   2   3
ATOM      3  C   UNL A   1      33.440  35.638  29.910  1.00  0.00     0.261 C 
BRANCH   3   4
ATOM      4  O   UNL A   1      32.768  35.194  31.112  1.00  0.00    -0.462 OA
BRANCH   4   5
ATOM      5  C   UNL A   1      33.499  35.336  32.259  1.00  0.00     0.325 C 
ATOM      6  O   UNL A   1      33.614  36.403  32.864  1.00  0.00    -0.250 OA
BRANCH   5   7
ATOM      7  C   UNL A   1      34.283  34.108  32.715  1.00  0.00     0.241 C 
BRANCH   7   8
ATOM      8  N   UNL A   1      35.457  34.293  33.584  1.00  0.00    -0.334 N 
ATOM      9  C   UNL A   1      35.265  34.203  35.019  1.00  0.00     0.147 C 
BRANCH   8  10
ATOM     10  C   UNL A   1      36.652  34.602  33.021  1.00  0.00     0.204 A 
ATOM     11  N   UNL A   1      37.793  34.843  33.632  1.00  0.00    -0.213 NA
ATOM     12  N   UNL A   1      36.843  34.605  31.656  1.00  0.00    -0.324 N 
ATOM     13  C   UNL A   1      38.763  34.666  32.671  1.00  0.00     0.093 A 
ATOM     14  C   UNL A   1      38.192  34.522  31.414  1.00  0.00     0.067 A 
ATOM     15  H   UNL A   1      36.136  34.657  30.974  1.00  0.00     0.170 HD
ATOM     16  C   UNL A   1      40.144  34.458  32.825  1.00  0.00     0.056 A 
ATOM     17  C   UNL A   1      38.931  34.251  30.264  1.00  0.00     0.030 A 
ATOM     18  C   UNL A   1      40.876  33.978  31.730  1.00  0.00     0.034 A 
ATOM     19  C   UNL A   1      40.291  33.969  30.458  1.00  0.00     0.028 A 
BRANCH  18  20
ATOM     20  N   UNL A   1      42.206  33.596  31.890  1.00  0.00    -0.399 N 
ATOM     21  H   UNL A   1      42.551  32.806  31.414  1.00  0.00     0.156 HD
ATOM     22  H   UNL A   1      42.800  34.115  32.478  1.00  0.00     0.156 HD
ENDBRANCH  18  20
ENDBRANCH   8  10
ENDBRANCH   7   8
ENDBRANCH   5   7
ENDBRANCH   4   5
ENDBRANCH   3   4
ENDBRANCH   2   3
ENDBRANCH   1   2
BRANCH   1  23
ATOM     23  C   UNL A   1      34.880  33.546  28.648  1.00  0.00     0.202 C 
BRANCH  23  24
ATOM     24  C   UNL A   1      34.885  32.315  29.566  1.00  0.00     0.261 C 
BRANCH  24  25
ATOM     25  O   UNL A   1      35.990  31.440  29.438  1.00  0.00    -0.460 OA
BRANCH  25  26
ATOM     26  C   UNL A   1      36.689  31.234  30.571  1.00  0.00     0.338 C 
ATOM     27  O   UNL A   1      36.333  31.357  31.728  1.00  0.00    -0.246 OA
BRANCH  26  28
ATOM     28  C   UNL A   1      37.986  30.727  30.129  1.00  0.00     0.060 A 
ATOM     29  C   UNL A   1      38.968  30.495  31.095  1.00  0.00     0.016 A 
ATOM     30  C   UNL A   1      38.186  30.415  28.781  1.00  0.00     0.016 A 
ATOM     31  C   UNL A   1      40.185  29.957  30.701  1.00  0.00     0.010 A 
ATOM     32  C   UNL A   1      39.405  29.877  28.391  1.00  0.00     0.010 A 
ATOM     33  C   UNL A   1      40.411  29.666  29.348  1.00  0.00    -0.014 A 
BRANCH  33  34
ATOM     34  C   UNL A   1      41.749  29.236  28.907  1.00  0.00     0.031 A 
ATOM     35  C   UNL A   1      42.825  30.273  28.790  1.00  0.00     0.074 A 
ATOM     36  C   UNL A   1      41.972  27.944  28.617  1.00  0.00     0.049 A 
ATOM     37  N   UNL A   1      44.051  30.143  28.364  1.00  0.00    -0.248 NA
ATOM     38  C   UNL A   1      42.468  31.643  29.200  1.00  0.00     0.031 C 
ATOM     39  C   UNL A   1      40.977  26.874  28.714  1.00  0.00     0.029 A 
ATOM     40  N   UNL A   1      43.100  27.314  28.165  1.00  0.00    -0.354 N 
ATOM     41  C   UNL A   1      44.616  31.408  28.462  1.00  0.00     0.074 A 
ATOM     42  C   UNL A   1      43.587  32.302  28.943  1.00  0.00     0.031 C 
ATOM     43  C   UNL A   1      41.536  25.721  28.314  1.00  0.00     0.029 A 
ATOM     44  C   UNL A   1      42.913  25.978  27.902  1.00  0.00     0.049 A 
ATOM     45  H   UNL A   1      43.962  27.773  28.041  1.00  0.00     0.167 HD
ATOM     46  C   UNL A   1      45.888  31.778  28.188  1.00  0.00     0.037 A 
ATOM     47  C   UNL A   1      43.756  25.079  27.359  1.00  0.00     0.037 A 
ATOM     48  C   UNL A   1      46.888  30.866  27.702  1.00  0.00     0.049 A 
ATOM     49  C   UNL A   1      45.146  25.532  26.995  1.00  0.00     0.074 A 
ATOM     50  C   UNL A   1      48.212  31.119  27.401  1.00  0.00     0.029 A 
ATOM     51  N   UNL A   1      46.663  29.521  27.435  1.00  0.00    -0.354 N 
ATOM     52  N   UNL A   1      45.686  26.722  27.131  1.00  0.00    -0.248 NA
ATOM     53  C   UNL A   1      46.042  24.528  26.406  1.00  0.00     0.031 C 
ATOM     54  C   UNL A   1      48.777  29.939  26.907  1.00  0.00     0.029 A 
ATOM     55  C   UNL A   1      47.817  28.937  26.945  1.00  0.00     0.049 A 
ATOM     56  H   UNL A   1      45.808  29.052  27.575  1.00  0.00     0.167 HD
ATOM     57  C   UNL A   1      46.986  26.608  26.652  1.00  0.00     0.074 A 
ATOM     58  C   UNL A   1      47.158  25.226  26.246  1.00  0.00     0.031 C 
ATOM     59  C   UNL A   1      47.949  27.556  26.547  1.00  0.00     0.037 A 
BRANCH  46  60
ATOM     60  C   UNL A   1      46.258  33.218  28.402  1.00  0.00     0.058 A 
ATOM     61  C   UNL A   1      46.189  34.157  27.361  1.00  0.00     0.135 A 
ATOM     62  C   UNL A   1      46.661  33.673  29.668  1.00  0.00     0.135 A 
ATOM     63  F   UNL A   1      45.834  33.772  26.125  1.00  0.00    -0.206 F 
ATOM     64  C   UNL A   1      46.522  35.493  27.562  1.00  0.00     0.059 A 
ATOM     65  C   UNL A   1      46.973  35.010  29.898  1.00  0.00     0.059 A 
ATOM     66  F   UNL A   1      46.755  32.815  30.697  1.00  0.00    -0.206 F 
ATOM     67  C   UNL A   1      46.911  35.911  28.836  1.00  0.00     0.060 A 
BRANCH  67  68
ATOM     68  S   UNL A   1      47.321  37.651  29.082  1.00  0.00     0.124 S 
ATOM     69  O   UNL A   1      47.245  38.164  27.718  1.00  0.00    -0.237 OA
ATOM     70  O   UNL A   1      46.265  38.094  29.986  1.00  0.00    -0.237 OA
ATOM     71  O   UNL A   1      48.660  37.607  29.662  1.00  0.00    -0.744 OA
ENDBRANCH  67  68
ENDBRANCH  46  60
BRANCH  47  72
ATOM     72  C   UNL A   1      43.297  23.690  27.095  1.00  0.00     0.058 A 
ATOM     73  C   UNL A   1      43.176  22.751  28.127  1.00  0.00     0.135 A 
ATOM     74  C   UNL A   1      42.959  23.277  25.795  1.00  0.00     0.135 A 
ATOM     75  F   UNL A   1      43.491  23.095  29.386  1.00  0.00    -0.206 F 
ATOM     76  C   UNL A   1      42.754  21.448  27.883  1.00  0.00     0.059 A 
ATOM     77  C   UNL A   1      42.510  21.988  25.528  1.00  0.00     0.059 A 
ATOM     78  F   UNL A   1      43.043  24.141  24.771  1.00  0.00    -0.206 F 
ATOM     79  C   UNL A   1      42.422  21.076  26.579  1.00  0.00     0.060 A 
BRANCH  79  80
ATOM     80  S   UNL A   1      41.841  19.393  26.275  1.00  0.00     0.124 S 
ATOM     81  O   UNL A   1      42.592  19.035  25.078  1.00  0.00    -0.237 OA
ATOM     82  O   UNL A   1      42.231  18.708  27.504  1.00  0.00    -0.237 OA
ATOM     83  O   UNL A   1      40.402  19.563  26.091  1.00  0.00    -0.744 OA
ENDBRANCH  79  80
ENDBRANCH  47  72
BRANCH  59  84
ATOM     84  C   UNL A   1      49.272  27.134  25.973  1.00  0.00     0.058 A 
ATOM     85  C   UNL A   1      49.550  27.283  24.606  1.00  0.00     0.135 A 
ATOM     86  C   UNL A   1      50.293  26.659  26.808  1.00  0.00     0.135 A 
ATOM     87  F   UNL A   1      48.601  27.726  23.766  1.00  0.00    -0.206 F 
ATOM     88  C   UNL A   1      50.799  26.967  24.085  1.00  0.00     0.059 A 
ATOM     89  C   UNL A   1      51.559  26.363  26.314  1.00  0.00     0.059 A 
ATOM     90  F   UNL A   1      50.076  26.507  28.125  1.00  0.00    -0.206 F 
ATOM     91  C   UNL A   1      51.800  26.517  24.948  1.00  0.00     0.060 A 
BRANCH  91  92
ATOM     92  S   UNL A   1      53.435  26.174  24.266  1.00  0.00     0.124 S 
ATOM     93  O   UNL A   1      54.122  27.440  24.497  1.00  0.00    -0.237 OA
ATOM     94  O   UNL A   1      53.882  25.051  25.084  1.00  0.00    -0.237 OA
ATOM     95  O   UNL A   1      53.161  25.853  22.868  1.00  0.00    -0.744 OA
ENDBRANCH  91  92
ENDBRANCH  59  84
ENDBRANCH  33  34
ENDBRANCH  26  28
ENDBRANCH  25  26
ENDBRANCH  24  25
ENDBRANCH  23  24
ENDBRANCH   1  23
TORSDOF 20
ENDMDL
MODEL 3
REMARK VINA RESULT:      -9.2      4.630      7.364
REMARK SMILES CN(CC(=O)OCCOCCOC(=O)c1ccc(-c2c3nc(c(-c4c(F)cc(S(=O)(=O)[O-])cc4F)c4ccc([nH]4)c(-c4c(F)cc(S(=O)(=O)[O-])cc4F)c4nc(c(-c5c(F)cc(S(=O)(=O)[O-])cc5F)c5ccc2[nH]5)C=C4)C=C3)cc1)c1nc2cc(N)ccc2[nH]1
REMARK SMILES IDX 9 1 8 2 7 3 6 4 4 5 5 6 3 7 2 8 1 9 81 10 82 11 90 12 83 13
REMARK SMILES IDX 89 14 84 16 88 17 85 18 87 19 86 20 10 23 11 24 12 25 13 26
REMARK SMILES IDX 14 27 15 28 16 29 80 30 17 31 79 32 18 33 19 34 20 35 73 36
REMARK SMILES IDX 21 37 78 38 72 39 74 40 22 41 77 42 71 43 70 44 23 46 57 47
REMARK SMILES IDX 36 48 56 49 37 50 40 51 55 52 75 53 38 54 39 55 54 57 76 58
REMARK SMILES IDX 41 59 24 60 25 61 34 62 26 63 27 64 33 65 35 66 28 67 29 68
REMARK SMILES IDX 30 69 31 70 32 71 58 72 59 73 68 74 60 75 61 76 67 77 69 78
REMARK SMILES IDX 62 79 63 80 64 81 65 82 66 83 42 84 43 85 52 86 44 87 45 88
REMARK SMILES IDX 51 89 53 90 46 91 47 92 48 93 49 94 50 95
REMARK H PARENT 90 15 86 21 86 22 74 45 40 56
REMARK Flexibility Score: inf
ROOT
ATOM      1  O   UNL A   1      31.421  27.370  27.414  1.00  0.00    -0.374 OA
ENDROOT
BRANCH   1   2
ATOM      2  C   UNL A   1      31.762  26.514  26.329  1.00  0.00     0.202 C 
BRANCH   2   3
ATOM      3  C   UNL A   1      31.633  24.995  26.500  1.00  0.00     0.261 C 
BRANCH   3   4
ATOM      4  O   UNL A   1      30.573  24.370  25.739  1.00  0.00    -0.462 OA
BRANCH   4   5
ATOM      5  C   UNL A   1      30.949  23.255  25.044  1.00  0.00     0.325 C 
ATOM      6  O   UNL A   1      31.148  22.160  25.571  1.00  0.00    -0.250 OA
BRANCH   5   7
ATOM      7  C   UNL A   1      31.232  23.452  23.557  1.00  0.00     0.241 C 
BRANCH   7   8
ATOM      8  N   UNL A   1      32.533  24.004  23.144  1.00  0.00    -0.334 N 
ATOM      9  C   UNL A   1      32.556  25.333  22.561  1.00  0.00     0.147 C 
BRANCH   8  10
ATOM     10  C   UNL A   1      33.644  23.235  23.261  1.00  0.00     0.204 A 
ATOM     11  N   UNL A   1      34.887  23.565  22.982  1.00  0.00    -0.213 NA
ATOM     12  N   UNL A   1      33.608  21.971  23.812  1.00  0.00    -0.324 N 
ATOM     13  C   UNL A   1      35.665  22.654  23.661  1.00  0.00     0.093 A 
ATOM     14  C   UNL A   1      34.885  21.634  24.187  1.00  0.00     0.067 A 
ATOM     15  H   UNL A   1      32.807  21.410  23.918  1.00  0.00     0.170 HD
ATOM     16  C   UNL A   1      37.026  22.722  24.003  1.00  0.00     0.056 A 
ATOM     17  C   UNL A   1      35.396  20.614  24.988  1.00  0.00     0.030 A 
ATOM     18  C   UNL A   1      37.519  21.838  24.972  1.00  0.00     0.034 A 
ATOM     19  C   UNL A   1      36.736  20.751  25.379  1.00  0.00     0.028 A 
BRANCH  18  20
ATOM     20  N   UNL A   1      38.814  21.988  25.463  1.00  0.00    -0.399 N 
ATOM     21  H   UNL A   1      39.340  21.194  25.713  1.00  0.00     0.156 HD
ATOM     22  H   UNL A   1      39.203  22.886  25.559  1.00  0.00     0.156 HD
ENDBRANCH  18  20
ENDBRANCH   8  10
ENDBRANCH   7   8
ENDBRANCH   5   7
ENDBRANCH   4   5
ENDBRANCH   3   4
ENDBRANCH   2   3
ENDBRANCH   1   2
BRANCH   1  23
ATOM     23  C   UNL A   1      31.765  28.743  27.304  1.00  0.00     0.202 C 
BRANCH  23  24
ATOM     24  C   UNL A   1      33.092  29.128  26.636  1.00  0.00     0.261 C 
BRANCH  24  25
ATOM     25  O   UNL A   1      34.262  28.949  27.414  1.00  0.00    -0.460 OA
BRANCH  25  26
ATOM     26  C   UNL A   1      34.745  30.070  27.983  1.00  0.00     0.338 C 
ATOM     27  O   UNL A   1      34.163  31.097  28.277  1.00  0.00    -0.246 OA
BRANCH  26  28
ATOM     28  C   UNL A   1      36.146  29.773  28.275  1.00  0.00     0.060 A 
ATOM     29  C   UNL A   1      37.080  29.923  27.248  1.00  0.00     0.016 A 
ATOM     30  C   UNL A   1      36.525  29.429  29.576  1.00  0.00     0.016 A 
ATOM     31  C   UNL A   1      38.422  29.704  27.523  1.00  0.00     0.010 A 
ATOM     32  C   UNL A   1      37.868  29.210  29.847  1.00  0.00     0.010 A 
ATOM     33  C   UNL A   1      38.815  29.329  28.816  1.00  0.00    -0.014 A 
BRANCH  33  34
ATOM     34  C   UNL A   1      40.215  28.952  29.074  1.00  0.00     0.031 A 
ATOM     35  C   UNL A   1      41.143  29.994  29.621  1.00  0.00     0.074 A 
ATOM     36  C   UNL A   1      40.627  27.701  28.811  1.00  0.00     0.049 A 
ATOM     37  N   UNL A   1      42.422  29.912  29.865  1.00  0.00    -0.248 NA
ATOM     38  C   UNL A   1      40.551  31.309  29.926  1.00  0.00     0.031 C 
ATOM     39  C   UNL A   1      39.781  26.628  28.284  1.00  0.00     0.029 A 
ATOM     40  N   UNL A   1      41.863  27.125  28.933  1.00  0.00    -0.354 N 
ATOM     41  C   UNL A   1      42.788  31.157  30.359  1.00  0.00     0.074 A 
ATOM     42  C   UNL A   1      41.608  31.992  30.338  1.00  0.00     0.031 C 
ATOM     43  C   UNL A   1      40.530  25.526  28.111  1.00  0.00     0.029 A 
ATOM     44  C   UNL A   1      41.910  25.828  28.481  1.00  0.00     0.049 A 
ATOM     45  H   UNL A   1      42.642  27.594  29.309  1.00  0.00     0.167 HD
ATOM     46  C   UNL A   1      44.001  31.554  30.806  1.00  0.00     0.037 A 
ATOM     47  C   UNL A   1      42.962  24.996  28.354  1.00  0.00     0.037 A 
ATOM     48  C   UNL A   1      45.160  30.703  30.806  1.00  0.00     0.049 A 
ATOM     49  C   UNL A   1      44.317  25.485  28.791  1.00  0.00     0.074 A 
ATOM     50  C   UNL A   1      46.439  30.987  31.244  1.00  0.00     0.029 A 
ATOM     51  N   UNL A   1      45.177  29.398  30.331  1.00  0.00    -0.354 N 
ATOM     52  N   UNL A   1      44.647  26.652  29.299  1.00  0.00    -0.248 NA
ATOM     53  C   UNL A   1      45.443  24.555  28.641  1.00  0.00     0.031 C 
ATOM     54  C   UNL A   1      47.241  29.870  30.990  1.00  0.00     0.029 A 
ATOM     55  C   UNL A   1      46.452  28.872  30.437  1.00  0.00     0.049 A 
ATOM     56  H   UNL A   1      44.396  28.916  29.970  1.00  0.00     0.167 HD
ATOM     57  C   UNL A   1      46.015  26.592  29.535  1.00  0.00     0.074 A 
ATOM     58  C   UNL A   1      46.446  25.266  29.139  1.00  0.00     0.031 C 
ATOM     59  C   UNL A   1      46.845  27.545  30.028  1.00  0.00     0.037 A 
BRANCH  46  60
ATOM     60  C   UNL A   1      44.131  32.960  31.319  1.00  0.00     0.058 A 
ATOM     61  C   UNL A   1      44.298  34.048  30.446  1.00  0.00     0.135 A 
ATOM     62  C   UNL A   1      44.060  33.230  32.695  1.00  0.00     0.135 A 
ATOM     63  F   UNL A   1      44.396  33.846  29.123  1.00  0.00    -0.206 F 
ATOM     64  C   UNL A   1      44.407  35.351  30.921  1.00  0.00     0.059 A 
ATOM     65  C   UNL A   1      44.141  34.528  33.190  1.00  0.00     0.059 A 
ATOM     66  F   UNL A   1      43.912  32.225  33.573  1.00  0.00    -0.206 F 
ATOM     67  C   UNL A   1      44.325  35.582  32.296  1.00  0.00     0.060 A 
BRANCH  67  68
ATOM     68  S   UNL A   1      44.451  37.280  32.892  1.00  0.00     0.124 S 
ATOM     69  O   UNL A   1      44.638  38.014  31.645  1.00  0.00    -0.237 OA
ATOM     70  O   UNL A   1      43.164  37.473  33.553  1.00  0.00    -0.237 OA
ATOM     71  O   UNL A   1      45.609  37.246  33.779  1.00  0.00    -0.744 OA
ENDBRANCH  67  68
ENDBRANCH  46  60
BRANCH  47  72
ATOM     72  C   UNL A   1      42.778  23.647  27.758  1.00  0.00     0.058 A 
ATOM     73  C   UNL A   1      42.448  22.537  28.548  1.00  0.00     0.135 A 
ATOM     74  C   UNL A   1      42.920  23.443  26.375  1.00  0.00     0.135 A 
ATOM     75  F   UNL A   1      42.305  22.677  29.875  1.00  0.00    -0.206 F 
ATOM     76  C   UNL A   1      42.283  21.271  27.995  1.00  0.00     0.059 A 
ATOM     77  C   UNL A   1      42.734  22.193  25.794  1.00  0.00     0.059 A 
ATOM     78  F   UNL A   1      43.220  24.475  25.570  1.00  0.00    -0.206 F 
ATOM     79  C   UNL A   1      42.427  21.109  26.615  1.00  0.00     0.060 A 
BRANCH  79  80
ATOM     80  S   UNL A   1      42.175  19.470  25.900  1.00  0.00     0.124 S 
ATOM     81  O   UNL A   1      40.737  19.473  25.659  1.00  0.00    -0.237 OA
ATOM     82  O   UNL A   1      43.023  19.520  24.713  1.00  0.00    -0.237 OA
ATOM     83  O   UNL A   1      42.637  18.570  26.954  1.00  0.00    -0.744 OA
ENDBRANCH  79  80
ENDBRANCH  47  72
BRANCH  59  84
ATOM     84  C   UNL A   1      48.298  27.190  30.163  1.00  0.00     0.058 A 
ATOM     85  C   UNL A   1      49.215  27.483  29.144  1.00  0.00     0.135 A 
ATOM     86  C   UNL A   1      48.787  26.632  31.354  1.00  0.00     0.135 A 
ATOM     87  F   UNL A   1      48.793  28.009  27.983  1.00  0.00    -0.206 F 
ATOM     88  C   UNL A   1      50.573  27.227  29.298  1.00  0.00     0.059 A 
ATOM     89  C   UNL A   1      50.145  26.394  31.541  1.00  0.00     0.059 A 
ATOM     90  F   UNL A   1      47.948  26.342  32.361  1.00  0.00    -0.206 F 
ATOM     91  C   UNL A   1      51.029  26.692  30.504  1.00  0.00     0.060 A 
BRANCH  91  92
ATOM     92  S   UNL A   1      52.801  26.427  30.712  1.00  0.00     0.124 S 
ATOM     93  O   UNL A   1      53.250  26.331  29.327  1.00  0.00    -0.237 OA
ATOM     94  O   UNL A   1      53.212  27.630  31.430  1.00  0.00    -0.237 OA
ATOM     95  O   UNL A   1      52.873  25.190  31.484  1.00  0.00    -0.744 OA
ENDBRANCH  91  92
ENDBRANCH  59  84
ENDBRANCH  33  34
ENDBRANCH  26  28
ENDBRANCH  25  26
ENDBRANCH  24  25
ENDBRANCH  23  24
ENDBRANCH   1  23
TORSDOF 20
ENDMDL
