MODEL 1
REMARK VINA RESULT:     -11.0      0.000      0.000
REMARK SMILES C[C@H]1N=N[C@H](S/C(=C/c2ccc(-c3cccc(Cl)c3)o2)C(=O)OCCOCCOC(=O)c2ccc(-c3c4nc(c(-c5c(F)cc(S(=O)(=O)[O-])cc5F)c5ccc([nH]5)c(-c5c(F)cc(S(=O)(=O)[O-])cc5F)c5nc(c(-c6c(F)cc(S(=O)(=O)[O-])cc6F)c6ccc3[nH]6)C=C5)C=C4)cc2)[NH2+]1
REMARK SMILES IDX 27 1 26 2 25 3 24 4 23 5 21 6 22 7 7 8 8 9 6 10 5 11 1 12
REMARK SMILES IDX 2 13 3 14 98 15 4 16 9 19 10 20 20 21 11 22 12 23 13 24
REMARK SMILES IDX 14 25 19 26 15 27 17 28 16 29 18 30 28 31 29 32 30 33 31 34
REMARK SMILES IDX 32 35 33 36 97 37 34 38 96 39 35 40 36 41 37 42 90 43 38 44
REMARK SMILES IDX 95 45 89 46 91 47 39 48 94 49 88 50 87 51 40 53 74 54 53 55
REMARK SMILES IDX 73 56 54 57 57 58 72 59 92 60 55 61 56 62 71 64 93 65 58 66
REMARK SMILES IDX 41 67 42 68 51 69 43 70 44 71 50 72 52 73 45 74 46 75 47 76
REMARK SMILES IDX 48 77 49 78 75 79 76 80 85 81 77 82 78 83 84 84 86 85 79 86
REMARK SMILES IDX 80 87 81 88 82 89 83 90 59 91 60 92 69 93 61 94 62 95 68 96
REMARK SMILES IDX 70 97 63 98 64 99 65 100 66 101 67 102
REMARK H PARENT 98 17 98 18 91 52 57 63
REMARK Flexibility Score: inf
ROOT
ATOM      1  C   UNL A   1      33.262  29.686  25.215  1.00  0.00     0.202 C 
ENDROOT
BRANCH   1   2
ATOM      2  O   UNL A   1      33.075  28.277  25.087  1.00  0.00    -0.374 OA
BRANCH   2   3
ATOM      3  C   UNL A   1      33.637  27.442  26.107  1.00  0.00     0.202 C 
BRANCH   3   4
ATOM      4  C   UNL A   1      33.029  26.040  26.217  1.00  0.00     0.261 C 
BRANCH   4   5
ATOM      5  O   UNL A   1      31.613  26.141  26.006  1.00  0.00    -0.459 OA
BRANCH   5   6
ATOM      6  C   UNL A   1      30.930  24.979  25.860  1.00  0.00     0.345 C 
ATOM      7  O   UNL A   1      30.531  24.256  26.761  1.00  0.00    -0.246 OA
BRANCH   6   8
ATOM      8  C   UNL A   1      30.585  24.815  24.414  1.00  0.00     0.104 C 
ATOM      9  C   UNL A   1      31.231  23.974  23.584  1.00  0.00     0.070 C 
BRANCH   8  10
ATOM     10  S   UNL A   1      29.435  26.008  23.864  1.00  0.00    -0.028 SA
BRANCH  10  11
ATOM     11  C   UNL A   1      30.469  27.400  23.325  1.00  0.00     0.393 C 
ATOM     12  C   UNL A   1      29.584  30.839  23.525  1.00  0.00     0.106 C 
ATOM     13  C   UNL A   1      29.377  29.348  23.306  1.00  0.00     0.324 C 
ATOM     14  N   UNL A   1      29.747  28.991  21.927  1.00  0.00    -0.126 NA
ATOM     15  N   UNL A   1      30.206  28.545  24.206  1.00  0.00    -0.293 N 
ATOM     16  N   UNL A   1      30.326  27.877  21.936  1.00  0.00    -0.115 NA
ATOM     17  H   UNL A   1      29.701  28.271  25.047  1.00  0.00     0.350 HD
ATOM     18  H   UNL A   1      31.035  29.015  24.571  1.00  0.00     0.350 HD
ENDBRANCH  10  11
ENDBRANCH   8  10
BRANCH   9  19
ATOM     19  C   UNL A   1      32.230  23.033  23.976  1.00  0.00     0.128 A 
ATOM     20  C   UNL A   1      33.383  23.177  24.741  1.00  0.00     0.051 A 
ATOM     21  O   UNL A   1      32.145  21.701  23.620  1.00  0.00    -0.457 OA
ATOM     22  C   UNL A   1      34.028  21.923  24.808  1.00  0.00     0.051 A 
ATOM     23  C   UNL A   1      33.226  21.041  24.122  1.00  0.00     0.134 A 
BRANCH  23  24
ATOM     24  C   UNL A   1      33.307  19.608  23.875  1.00  0.00     0.019 A 
ATOM     25  C   UNL A   1      32.441  19.013  22.943  1.00  0.00     0.012 A 
ATOM     26  C   UNL A   1      34.210  18.794  24.568  1.00  0.00     0.032 A 
ATOM     27  C   UNL A   1      32.464  17.635  22.719  1.00  0.00     0.002 A 
ATOM     28  C   UNL A   1      34.221  17.415  24.349  1.00  0.00     0.041 A 
ATOM     29  C   UNL A   1      33.351  16.832  23.430  1.00  0.00     0.020 A 
ATOM     30  Cl  UNL A   1      35.308  16.421  25.241  1.00  0.00    -0.084 Cl
ENDBRANCH  23  24
ENDBRANCH   9  19
ENDBRANCH   6   8
ENDBRANCH   5   6
ENDBRANCH   4   5
ENDBRANCH   3   4
ENDBRANCH   2   3
ENDBRANCH   1   2
BRANCH   1  31
ATOM     31  C   UNL A   1      32.484  30.392  26.333  1.00  0.00     0.261 C 
BRANCH  31  32
ATOM     32  O   UNL A   1      33.191  30.449  27.582  1.00  0.00    -0.460 OA
BRANCH  32  33
ATOM     33  C   UNL A   1      34.047  31.493  27.690  1.00  0.00     0.338 C 
ATOM     34  O   UNL A   1      33.771  32.685  27.616  1.00  0.00    -0.246 OA
BRANCH  33  35
ATOM     35  C   UNL A   1      35.395  31.023  28.048  1.00  0.00     0.060 A 
ATOM     36  C   UNL A   1      35.525  29.708  28.508  1.00  0.00     0.016 A 
ATOM     37  C   UNL A   1      36.496  31.883  28.043  1.00  0.00     0.016 A 
ATOM     38  C   UNL A   1      36.751  29.256  28.998  1.00  0.00     0.010 A 
ATOM     39  C   UNL A   1      37.722  31.429  28.542  1.00  0.00     0.010 A 
ATOM     40  C   UNL A   1      37.851  30.123  29.046  1.00  0.00    -0.014 A 
BRANCH  40  41
ATOM     41  C   UNL A   1      39.097  29.696  29.732  1.00  0.00     0.031 A 
ATOM     42  C   UNL A   1      39.511  30.379  31.008  1.00  0.00     0.074 A 
ATOM     43  C   UNL A   1      39.833  28.680  29.241  1.00  0.00     0.049 A 
ATOM     44  N   UNL A   1      40.558  30.160  31.764  1.00  0.00    -0.248 NA
ATOM     45  C   UNL A   1      38.630  31.452  31.499  1.00  0.00     0.031 C 
ATOM     46  C   UNL A   1      39.530  27.928  28.024  1.00  0.00     0.029 A 
ATOM     47  N   UNL A   1      40.987  28.106  29.711  1.00  0.00    -0.354 N 
ATOM     48  C   UNL A   1      40.459  31.059  32.819  1.00  0.00     0.074 A 
ATOM     49  C   UNL A   1      39.271  31.854  32.588  1.00  0.00     0.031 C 
ATOM     50  C   UNL A   1      40.474  26.988  27.845  1.00  0.00     0.029 A 
ATOM     51  C   UNL A   1      41.462  27.088  28.918  1.00  0.00     0.049 A 
ATOM     52  H   UNL A   1      41.434  28.395  30.539  1.00  0.00     0.167 HD
ATOM     53  C   UNL A   1      41.272  31.200  33.893  1.00  0.00     0.037 A 
ATOM     54  C   UNL A   1      42.572  26.333  29.038  1.00  0.00     0.037 A 
ATOM     55  C   UNL A   1      42.453  30.408  34.127  1.00  0.00     0.049 A 
ATOM     56  C   UNL A   1      43.488  26.545  30.216  1.00  0.00     0.074 A 
ATOM     57  C   UNL A   1      43.340  30.478  35.187  1.00  0.00     0.029 A 
ATOM     58  N   UNL A   1      42.908  29.400  33.292  1.00  0.00    -0.354 N 
ATOM     59  N   UNL A   1      43.370  27.389  31.213  1.00  0.00    -0.248 NA
ATOM     60  C   UNL A   1      44.688  25.697  30.288  1.00  0.00     0.031 C 
ATOM     61  C   UNL A   1      44.351  29.535  34.975  1.00  0.00     0.029 A 
ATOM     62  C   UNL A   1      44.070  28.849  33.806  1.00  0.00     0.049 A 
ATOM     63  H   UNL A   1      42.470  29.118  32.456  1.00  0.00     0.167 HD
ATOM     64  C   UNL A   1      44.463  27.154  32.042  1.00  0.00     0.074 A 
ATOM     65  C   UNL A   1      45.224  26.080  31.438  1.00  0.00     0.031 C 
ATOM     66  C   UNL A   1      44.808  27.772  33.199  1.00  0.00     0.037 A 
BRANCH  53  67
ATOM     67  C   UNL A   1      40.916  32.249  34.908  1.00  0.00     0.058 A 
ATOM     68  C   UNL A   1      40.068  31.963  35.989  1.00  0.00     0.135 A 
ATOM     69  C   UNL A   1      41.477  33.535  34.837  1.00  0.00     0.135 A 
ATOM     70  F   UNL A   1      39.494  30.754  36.094  1.00  0.00    -0.206 F 
ATOM     71  C   UNL A   1      39.781  32.916  36.960  1.00  0.00     0.059 A 
ATOM     72  C   UNL A   1      41.220  34.498  35.808  1.00  0.00     0.059 A 
ATOM     73  F   UNL A   1      42.292  33.861  33.821  1.00  0.00    -0.206 F 
ATOM     74  C   UNL A   1      40.365  34.180  36.864  1.00  0.00     0.060 A 
BRANCH  74  75
ATOM     75  S   UNL A   1      40.010  35.395  38.152  1.00  0.00     0.124 S 
ATOM     76  O   UNL A   1      41.278  35.435  38.873  1.00  0.00    -0.237 OA
ATOM     77  O   UNL A   1      39.684  36.587  37.375  1.00  0.00    -0.237 OA
ATOM     78  O   UNL A   1      38.892  34.801  38.880  1.00  0.00    -0.744 OA
ENDBRANCH  74  75
ENDBRANCH  53  67
BRANCH  54  79
ATOM     79  C   UNL A   1      42.899  25.309  28.010  1.00  0.00     0.058 A 
ATOM     80  C   UNL A   1      42.425  23.993  28.119  1.00  0.00     0.135 A 
ATOM     81  C   UNL A   1      43.730  25.617  26.922  1.00  0.00     0.135 A 
ATOM     82  F   UNL A   1      41.634  23.648  29.147  1.00  0.00    -0.206 F 
ATOM     83  C   UNL A   1      42.790  23.009  27.206  1.00  0.00     0.059 A 
ATOM     84  C   UNL A   1      44.089  24.657  25.982  1.00  0.00     0.059 A 
ATOM     85  F   UNL A   1      44.198  26.865  26.763  1.00  0.00    -0.206 F 
ATOM     86  C   UNL A   1      43.628  23.351  26.143  1.00  0.00     0.060 A 
BRANCH  86  87
ATOM     87  S   UNL A   1      44.093  22.074  24.953  1.00  0.00     0.124 S 
ATOM     88  O   UNL A   1      43.794  22.733  23.688  1.00  0.00    -0.237 OA
ATOM     89  O   UNL A   1      45.507  21.872  25.253  1.00  0.00    -0.237 OA
ATOM     90  O   UNL A   1      43.219  20.959  25.308  1.00  0.00    -0.744 OA
ENDBRANCH  86  87
ENDBRANCH  54  79
BRANCH  66  91
ATOM     91  C   UNL A   1      46.041  27.279  33.907  1.00  0.00     0.058 A 
ATOM     92  C   UNL A   1      45.985  26.237  34.845  1.00  0.00     0.135 A 
ATOM     93  C   UNL A   1      47.298  27.832  33.612  1.00  0.00     0.135 A 
ATOM     94  F   UNL A   1      44.808  25.678  35.164  1.00  0.00    -0.206 F 
ATOM     95  C   UNL A   1      47.130  25.779  35.488  1.00  0.00     0.059 A 
ATOM     96  C   UNL A   1      48.459  27.372  34.226  1.00  0.00     0.059 A 
ATOM     97  F   UNL A   1      47.408  28.824  32.714  1.00  0.00    -0.206 F 
ATOM     98  C   UNL A   1      48.363  26.354  35.174  1.00  0.00     0.060 A 
BRANCH  98  99
ATOM     99  S   UNL A   1      49.845  25.737  36.001  1.00  0.00     0.124 S 
ATOM    100  O   UNL A   1      50.895  26.493  35.323  1.00  0.00    -0.237 OA
ATOM    101  O   UNL A   1      49.603  26.099  37.394  1.00  0.00    -0.237 OA
ATOM    102  O   UNL A   1      49.819  24.305  35.717  1.00  0.00    -0.744 OA
ENDBRANCH  98  99
ENDBRANCH  66  91
ENDBRANCH  40  41
ENDBRANCH  33  35
ENDBRANCH  32  33
ENDBRANCH  31  32
ENDBRANCH   1  31
TORSDOF 21
ENDMDL
MODEL 2
REMARK VINA RESULT:     -10.6      1.418      8.192
REMARK SMILES C[C@H]1N=N[C@H](S/C(=C/c2ccc(-c3cccc(Cl)c3)o2)C(=O)OCCOCCOC(=O)c2ccc(-c3c4nc(c(-c5c(F)cc(S(=O)(=O)[O-])cc5F)c5ccc([nH]5)c(-c5c(F)cc(S(=O)(=O)[O-])cc5F)c5nc(c(-c6c(F)cc(S(=O)(=O)[O-])cc6F)c6ccc3[nH]6)C=C5)C=C4)cc2)[NH2+]1
REMARK SMILES IDX 27 1 26 2 25 3 24 4 23 5 21 6 22 7 7 8 8 9 6 10 5 11 1 12
REMARK SMILES IDX 2 13 3 14 98 15 4 16 9 19 10 20 20 21 11 22 12 23 13 24
REMARK SMILES IDX 14 25 19 26 15 27 17 28 16 29 18 30 28 31 29 32 30 33 31 34
REMARK SMILES IDX 32 35 33 36 97 37 34 38 96 39 35 40 36 41 37 42 90 43 38 44
REMARK SMILES IDX 95 45 89 46 91 47 39 48 94 49 88 50 87 51 40 53 74 54 53 55
REMARK SMILES IDX 73 56 54 57 57 58 72 59 92 60 55 61 56 62 71 64 93 65 58 66
REMARK SMILES IDX 41 67 42 68 51 69 43 70 44 71 50 72 52 73 45 74 46 75 47 76
REMARK SMILES IDX 48 77 49 78 75 79 76 80 85 81 77 82 78 83 84 84 86 85 79 86
REMARK SMILES IDX 80 87 81 88 82 89 83 90 59 91 60 92 69 93 61 94 62 95 68 96
REMARK SMILES IDX 70 97 63 98 64 99 65 100 66 101 67 102
REMARK H PARENT 98 17 98 18 91 52 57 63
REMARK Flexibility Score: inf
ROOT
ATOM      1  C   UNL A   1      34.133  28.893  25.802  1.00  0.00     0.202 C 
ENDROOT
BRANCH   1   2
ATOM      2  O   UNL A   1      33.458  27.781  25.218  1.00  0.00    -0.374 OA
BRANCH   2   3
ATOM      3  C   UNL A   1      32.998  26.750  26.101  1.00  0.00     0.202 C 
BRANCH   3   4
ATOM      4  C   UNL A   1      31.500  26.781  26.422  1.00  0.00     0.261 C 
BRANCH   4   5
ATOM      5  O   UNL A   1      30.821  27.463  25.358  1.00  0.00    -0.459 OA
BRANCH   5   6
ATOM      6  C   UNL A   1      29.928  26.741  24.638  1.00  0.00     0.345 C 
ATOM      7  O   UNL A   1      29.163  25.893  25.075  1.00  0.00    -0.246 OA
BRANCH   6   8
ATOM      8  C   UNL A   1      29.903  27.279  23.243  1.00  0.00     0.104 C 
ATOM      9  C   UNL A   1      30.855  27.021  22.327  1.00  0.00     0.070 C 
BRANCH   8  10
ATOM     10  S   UNL A   1      28.651  28.476  23.013  1.00  0.00    -0.028 SA
BRANCH  10  11
ATOM     11  C   UNL A   1      29.519  29.881  22.257  1.00  0.00     0.393 C 
ATOM     12  C   UNL A   1      29.003  33.308  23.054  1.00  0.00     0.106 C 
ATOM     13  C   UNL A   1      28.630  31.855  22.799  1.00  0.00     0.324 C 
ATOM     14  N   UNL A   1      28.459  31.632  21.355  1.00  0.00    -0.126 NA
ATOM     15  N   UNL A   1      29.667  30.936  23.267  1.00  0.00    -0.293 N 
ATOM     16  N   UNL A   1      28.924  30.504  21.060  1.00  0.00    -0.115 NA
ATOM     17  H   UNL A   1      29.477  30.593  24.208  1.00  0.00     0.350 HD
ATOM     18  H   UNL A   1      30.602  31.337  23.347  1.00  0.00     0.350 HD
ENDBRANCH  10  11
ENDBRANCH   8  10
BRANCH   9  19
ATOM     19  C   UNL A   1      31.937  26.107  22.498  1.00  0.00     0.128 A 
ATOM     20  C   UNL A   1      33.283  26.196  22.155  1.00  0.00     0.051 A 
ATOM     21  O   UNL A   1      31.759  24.887  23.122  1.00  0.00    -0.457 OA
ATOM     22  C   UNL A   1      33.917  24.995  22.537  1.00  0.00     0.051 A 
ATOM     23  C   UNL A   1      32.950  24.225  23.142  1.00  0.00     0.134 A 
BRANCH  23  24
ATOM     24  C   UNL A   1      32.976  22.920  23.787  1.00  0.00     0.019 A 
ATOM     25  C   UNL A   1      32.486  21.796  23.104  1.00  0.00     0.012 A 
ATOM     26  C   UNL A   1      33.452  22.756  25.093  1.00  0.00     0.032 A 
ATOM     27  C   UNL A   1      32.457  20.540  23.713  1.00  0.00     0.002 A 
ATOM     28  C   UNL A   1      33.410  21.502  25.703  1.00  0.00     0.041 A 
ATOM     29  C   UNL A   1      32.912  20.394  25.021  1.00  0.00     0.020 A 
ATOM     30  Cl  UNL A   1      33.959  21.326  27.326  1.00  0.00    -0.084 Cl
ENDBRANCH  23  24
ENDBRANCH   9  19
ENDBRANCH   6   8
ENDBRANCH   5   6
ENDBRANCH   4   5
ENDBRANCH   3   4
ENDBRANCH   2   3
ENDBRANCH   1   2
BRANCH   1  31
ATOM     31  C   UNL A   1      33.262  29.964  26.469  1.00  0.00     0.261 C 
BRANCH  31  32
ATOM     32  O   UNL A   1      33.661  30.283  27.811  1.00  0.00    -0.460 OA
BRANCH  32  33
ATOM     33  C   UNL A   1      34.489  31.351  27.906  1.00  0.00     0.338 C 
ATOM     34  O   UNL A   1      34.190  32.531  27.773  1.00  0.00    -0.246 OA
BRANCH  33  35
ATOM     35  C   UNL A   1      35.834  30.927  28.332  1.00  0.00     0.060 A 
ATOM     36  C   UNL A   1      35.956  29.682  28.960  1.00  0.00     0.016 A 
ATOM     37  C   UNL A   1      36.937  31.777  28.224  1.00  0.00     0.016 A 
ATOM     38  C   UNL A   1      37.176  29.295  29.513  1.00  0.00     0.010 A 
ATOM     39  C   UNL A   1      38.158  31.387  28.786  1.00  0.00     0.010 A 
ATOM     40  C   UNL A   1      38.280  30.157  29.456  1.00  0.00    -0.014 A 
BRANCH  40  41
ATOM     41  C   UNL A   1      39.519  29.819  30.200  1.00  0.00     0.031 A 
ATOM     42  C   UNL A   1      40.462  28.787  29.639  1.00  0.00     0.074 A 
ATOM     43  C   UNL A   1      39.821  30.455  31.348  1.00  0.00     0.049 A 
ATOM     44  N   UNL A   1      41.594  28.347  30.126  1.00  0.00    -0.248 NA
ATOM     45  C   UNL A   1      40.078  28.168  28.359  1.00  0.00     0.031 C 
ATOM     46  C   UNL A   1      39.000  31.483  31.986  1.00  0.00     0.029 A 
ATOM     47  N   UNL A   1      40.905  30.328  32.180  1.00  0.00    -0.354 N 
ATOM     48  C   UNL A   1      42.061  27.408  29.214  1.00  0.00     0.074 A 
ATOM     49  C   UNL A   1      41.071  27.313  28.161  1.00  0.00     0.031 C 
ATOM     50  C   UNL A   1      39.612  31.897  33.109  1.00  0.00     0.029 A 
ATOM     51  C   UNL A   1      40.854  31.145  33.284  1.00  0.00     0.049 A 
ATOM     52  H   UNL A   1      41.651  29.710  32.002  1.00  0.00     0.167 HD
ATOM     53  C   UNL A   1      43.216  26.702  29.238  1.00  0.00     0.037 A 
ATOM     54  C   UNL A   1      41.705  31.264  34.323  1.00  0.00     0.037 A 
ATOM     55  C   UNL A   1      44.205  26.798  30.282  1.00  0.00     0.049 A 
ATOM     56  C   UNL A   1      42.960  30.428  34.352  1.00  0.00     0.074 A 
ATOM     57  C   UNL A   1      45.407  26.121  30.394  1.00  0.00     0.029 A 
ATOM     58  N   UNL A   1      44.107  27.624  31.391  1.00  0.00    -0.354 N 
ATOM     59  N   UNL A   1      43.392  29.557  33.472  1.00  0.00    -0.248 NA
ATOM     60  C   UNL A   1      43.844  30.595  35.515  1.00  0.00     0.031 C 
ATOM     61  C   UNL A   1      46.021  26.513  31.589  1.00  0.00     0.029 A 
ATOM     62  C   UNL A   1      45.221  27.464  32.199  1.00  0.00     0.049 A 
ATOM     63  H   UNL A   1      43.356  28.233  31.577  1.00  0.00     0.167 HD
ATOM     64  C   UNL A   1      44.611  29.095  33.962  1.00  0.00     0.074 A 
ATOM     65  C   UNL A   1      44.853  29.792  35.208  1.00  0.00     0.031 C 
ATOM     66  C   UNL A   1      45.453  28.176  33.429  1.00  0.00     0.037 A 
BRANCH  53  67
ATOM     67  C   UNL A   1      43.485  25.759  28.100  1.00  0.00     0.058 A 
ATOM     68  C   UNL A   1      44.140  26.189  26.935  1.00  0.00     0.135 A 
ATOM     69  C   UNL A   1      43.143  24.401  28.197  1.00  0.00     0.135 A 
ATOM     70  F   UNL A   1      44.474  27.480  26.785  1.00  0.00    -0.206 F 
ATOM     71  C   UNL A   1      44.440  25.306  25.902  1.00  0.00     0.059 A 
ATOM     72  C   UNL A   1      43.452  23.496  27.186  1.00  0.00     0.059 A 
ATOM     73  F   UNL A   1      42.513  23.940  29.289  1.00  0.00    -0.206 F 
ATOM     74  C   UNL A   1      44.096  23.961  26.038  1.00  0.00     0.060 A 
BRANCH  74  75
ATOM     75  S   UNL A   1      44.523  22.822  24.703  1.00  0.00     0.124 S 
ATOM     76  O   UNL A   1      45.021  21.671  25.450  1.00  0.00    -0.237 OA
ATOM     77  O   UNL A   1      43.241  22.634  24.031  1.00  0.00    -0.237 OA
ATOM     78  O   UNL A   1      45.526  23.556  23.938  1.00  0.00    -0.744 OA
ENDBRANCH  74  75
ENDBRANCH  53  67
BRANCH  54  79
ATOM     79  C   UNL A   1      41.404  32.200  35.438  1.00  0.00     0.058 A 
ATOM     80  C   UNL A   1      40.440  31.886  36.409  1.00  0.00     0.135 A 
ATOM     81  C   UNL A   1      42.043  33.446  35.530  1.00  0.00     0.135 A 
ATOM     82  F   UNL A   1      39.796  30.710  36.359  1.00  0.00    -0.206 F 
ATOM     83  C   UNL A   1      40.095  32.788  37.411  1.00  0.00     0.059 A 
ATOM     84  C   UNL A   1      41.734  34.354  36.537  1.00  0.00     0.059 A 
ATOM     85  F   UNL A   1      42.983  33.788  34.635  1.00  0.00    -0.206 F 
ATOM     86  C   UNL A   1      40.744  34.023  37.462  1.00  0.00     0.060 A 
BRANCH  86  87
ATOM     87  S   UNL A   1      40.302  35.188  38.770  1.00  0.00     0.124 S 
ATOM     88  O   UNL A   1      38.887  35.407  38.498  1.00  0.00    -0.237 OA
ATOM     89  O   UNL A   1      40.613  34.429  39.978  1.00  0.00    -0.237 OA
ATOM     90  O   UNL A   1      41.181  36.325  38.509  1.00  0.00    -0.744 OA
ENDBRANCH  86  87
ENDBRANCH  54  79
BRANCH  66  91
ATOM     91  C   UNL A   1      46.732  27.896  34.171  1.00  0.00     0.058 A 
ATOM     92  C   UNL A   1      47.898  28.640  33.936  1.00  0.00     0.135 A 
ATOM     93  C   UNL A   1      46.777  26.896  35.157  1.00  0.00     0.135 A 
ATOM     94  F   UNL A   1      47.908  29.603  33.002  1.00  0.00    -0.206 F 
ATOM     95  C   UNL A   1      49.074  28.383  34.632  1.00  0.00     0.059 A 
ATOM     96  C   UNL A   1      47.936  26.640  35.883  1.00  0.00     0.059 A 
ATOM     97  F   UNL A   1      45.686  26.163  35.429  1.00  0.00    -0.206 F 
ATOM     98  C   UNL A   1      49.085  27.379  35.603  1.00  0.00     0.060 A 
BRANCH  98  99
ATOM     99  S   UNL A   1      50.612  27.069  36.516  1.00  0.00     0.124 S 
ATOM    100  O   UNL A   1      50.576  28.131  37.516  1.00  0.00    -0.237 OA
ATOM    101  O   UNL A   1      50.407  25.715  37.021  1.00  0.00    -0.237 OA
ATOM    102  O   UNL A   1      51.648  27.201  35.496  1.00  0.00    -0.744 OA
ENDBRANCH  98  99
ENDBRANCH  66  91
ENDBRANCH  40  41
ENDBRANCH  33  35
ENDBRANCH  32  33
ENDBRANCH  31  32
ENDBRANCH   1  31
TORSDOF 21
ENDMDL
MODEL 3
REMARK VINA RESULT:     -10.5      3.180      4.997
REMARK SMILES C[C@H]1N=N[C@H](S/C(=C/c2ccc(-c3cccc(Cl)c3)o2)C(=O)OCCOCCOC(=O)c2ccc(-c3c4nc(c(-c5c(F)cc(S(=O)(=O)[O-])cc5F)c5ccc([nH]5)c(-c5c(F)cc(S(=O)(=O)[O-])cc5F)c5nc(c(-c6c(F)cc(S(=O)(=O)[O-])cc6F)c6ccc3[nH]6)C=C5)C=C4)cc2)[NH2+]1
REMARK SMILES IDX 27 1 26 2 25 3 24 4 23 5 21 6 22 7 7 8 8 9 6 10 5 11 1 12
REMARK SMILES IDX 2 13 3 14 98 15 4 16 9 19 10 20 20 21 11 22 12 23 13 24
REMARK SMILES IDX 14 25 19 26 15 27 17 28 16 29 18 30 28 31 29 32 30 33 31 34
REMARK SMILES IDX 32 35 33 36 97 37 34 38 96 39 35 40 36 41 37 42 90 43 38 44
REMARK SMILES IDX 95 45 89 46 91 47 39 48 94 49 88 50 87 51 40 53 74 54 53 55
REMARK SMILES IDX 73 56 54 57 57 58 72 59 92 60 55 61 56 62 71 64 93 65 58 66
REMARK SMILES IDX 41 67 42 68 51 69 43 70 44 71 50 72 52 73 45 74 46 75 47 76
REMARK SMILES IDX 48 77 49 78 75 79 76 80 85 81 77 82 78 83 84 84 86 85 79 86
REMARK SMILES IDX 80 87 81 88 82 89 83 90 59 91 60 92 69 93 61 94 62 95 68 96
REMARK SMILES IDX 70 97 63 98 64 99 65 100 66 101 67 102
REMARK H PARENT 98 17 98 18 91 52 57 63
REMARK Flexibility Score: inf
ROOT
ATOM      1  C   UNL A   1      35.134  29.686  27.241  1.00  0.00     0.202 C 
ENDROOT
BRANCH   1   2
ATOM      2  O   UNL A   1      34.348  28.812  26.432  1.00  0.00    -0.374 OA
BRANCH   2   3
ATOM      3  C   UNL A   1      33.256  28.132  27.063  1.00  0.00     0.202 C 
BRANCH   3   4
ATOM      4  C   UNL A   1      31.861  28.660  26.709  1.00  0.00     0.261 C 
BRANCH   4   5
ATOM      5  O   UNL A   1      31.362  27.912  25.591  1.00  0.00    -0.459 OA
BRANCH   5   6
ATOM      6  C   UNL A   1      31.040  26.614  25.816  1.00  0.00     0.345 C 
ATOM      7  O   UNL A   1      30.572  26.154  26.847  1.00  0.00    -0.246 OA
BRANCH   6   8
ATOM      8  C   UNL A   1      31.184  25.864  24.531  1.00  0.00     0.104 C 
ATOM      9  C   UNL A   1      30.337  25.996  23.492  1.00  0.00     0.070 C 
BRANCH   8  10
ATOM     10  S   UNL A   1      32.408  24.621  24.617  1.00  0.00    -0.028 SA
BRANCH  10  11
ATOM     11  C   UNL A   1      33.826  25.338  23.737  1.00  0.00     0.393 C 
ATOM     12  C   UNL A   1      34.034  28.668  22.508  1.00  0.00     0.106 C 
ATOM     13  C   UNL A   1      33.383  27.334  22.841  1.00  0.00     0.324 C 
ATOM     14  N   UNL A   1      33.644  26.370  21.760  1.00  0.00    -0.126 NA
ATOM     15  N   UNL A   1      33.915  26.762  24.078  1.00  0.00    -0.293 N 
ATOM     16  N   UNL A   1      33.853  25.239  22.265  1.00  0.00    -0.115 NA
ATOM     17  H   UNL A   1      33.339  26.998  24.886  1.00  0.00     0.350 HD
ATOM     18  H   UNL A   1      34.843  27.090  24.347  1.00  0.00     0.350 HD
ENDBRANCH  10  11
ENDBRANCH   8  10
BRANCH   9  19
ATOM     19  C   UNL A   1      29.277  26.947  23.408  1.00  0.00     0.128 A 
ATOM     20  C   UNL A   1      27.958  26.900  23.849  1.00  0.00     0.051 A 
ATOM     21  O   UNL A   1      29.466  28.188  22.830  1.00  0.00    -0.457 OA
ATOM     22  C   UNL A   1      27.329  28.112  23.491  1.00  0.00     0.051 A 
ATOM     23  C   UNL A   1      28.294  28.881  22.883  1.00  0.00     0.134 A 
BRANCH  23  24
ATOM     24  C   UNL A   1      28.295  30.234  22.344  1.00  0.00     0.019 A 
ATOM     25  C   UNL A   1      27.892  30.455  21.017  1.00  0.00     0.012 A 
ATOM     26  C   UNL A   1      28.719  31.328  23.108  1.00  0.00     0.032 A 
ATOM     27  C   UNL A   1      27.926  31.734  20.460  1.00  0.00     0.002 A 
ATOM     28  C   UNL A   1      28.763  32.603  22.543  1.00  0.00     0.041 A 
ATOM     29  C   UNL A   1      28.371  32.811  21.222  1.00  0.00     0.020 A 
ATOM     30  Cl  UNL A   1      29.329  33.931  23.481  1.00  0.00    -0.084 Cl
ENDBRANCH  23  24
ENDBRANCH   9  19
ENDBRANCH   6   8
ENDBRANCH   5   6
ENDBRANCH   4   5
ENDBRANCH   3   4
ENDBRANCH   2   3
ENDBRANCH   1   2
BRANCH   1  31
ATOM     31  C   UNL A   1      34.546  31.070  27.543  1.00  0.00     0.261 C 
BRANCH  31  32
ATOM     32  O   UNL A   1      34.347  31.320  28.943  1.00  0.00    -0.460 OA
BRANCH  32  33
ATOM     33  C   UNL A   1      35.265  32.149  29.496  1.00  0.00     0.338 C 
ATOM     34  O   UNL A   1      35.078  33.286  29.912  1.00  0.00    -0.246 OA
BRANCH  33  35
ATOM     35  C   UNL A   1      36.553  31.455  29.666  1.00  0.00     0.060 A 
ATOM     36  C   UNL A   1      36.596  30.370  30.549  1.00  0.00     0.016 A 
ATOM     37  C   UNL A   1      37.722  31.924  29.063  1.00  0.00     0.016 A 
ATOM     38  C   UNL A   1      37.816  29.769  30.859  1.00  0.00     0.010 A 
ATOM     39  C   UNL A   1      38.945  31.323  29.383  1.00  0.00     0.010 A 
ATOM     40  C   UNL A   1      39.004  30.260  30.301  1.00  0.00    -0.014 A 
BRANCH  40  41
ATOM     41  C   UNL A   1      40.312  29.737  30.771  1.00  0.00     0.031 A 
ATOM     42  C   UNL A   1      40.977  30.371  31.964  1.00  0.00     0.074 A 
ATOM     43  C   UNL A   1      40.883  28.680  30.163  1.00  0.00     0.049 A 
ATOM     44  N   UNL A   1      42.114  30.068  32.537  1.00  0.00    -0.248 NA
ATOM     45  C   UNL A   1      40.266  31.496  32.597  1.00  0.00     0.031 C 
ATOM     46  C   UNL A   1      40.332  27.968  29.010  1.00  0.00     0.029 A 
ATOM     47  N   UNL A   1      42.055  28.020  30.435  1.00  0.00    -0.354 N 
ATOM     48  C   UNL A   1      42.254  30.956  33.597  1.00  0.00     0.074 A 
ATOM     49  C   UNL A   1      41.104  31.836  33.567  1.00  0.00     0.031 C 
ATOM     50  C   UNL A   1      41.165  26.967  28.675  1.00  0.00     0.029 A 
ATOM     51  C   UNL A   1      42.320  26.983  29.572  1.00  0.00     0.049 A 
ATOM     52  H   UNL A   1      42.650  28.265  31.180  1.00  0.00     0.167 HD
ATOM     53  C   UNL A   1      43.240  31.025  34.523  1.00  0.00     0.037 A 
ATOM     54  C   UNL A   1      43.377  26.151  29.506  1.00  0.00     0.037 A 
ATOM     55  C   UNL A   1      44.383  30.149  34.558  1.00  0.00     0.049 A 
ATOM     56  C   UNL A   1      44.487  26.281  30.518  1.00  0.00     0.074 A 
ATOM     57  C   UNL A   1      45.435  30.141  35.458  1.00  0.00     0.029 A 
ATOM     58  N   UNL A   1      44.623  29.124  33.656  1.00  0.00    -0.354 N 
ATOM     59  N   UNL A   1      44.594  27.116  31.523  1.00  0.00    -0.248 NA
ATOM     60  C   UNL A   1      45.619  25.350  30.389  1.00  0.00     0.031 C 
ATOM     61  C   UNL A   1      46.328  29.133  35.080  1.00  0.00     0.029 A 
ATOM     62  C   UNL A   1      45.811  28.486  33.970  1.00  0.00     0.049 A 
ATOM     63  H   UNL A   1      44.035  28.885  32.903  1.00  0.00     0.167 HD
ATOM     64  C   UNL A   1      45.789  26.793  32.161  1.00  0.00     0.074 A 
ATOM     65  C   UNL A   1      46.362  25.678  31.436  1.00  0.00     0.031 C 
ATOM     66  C   UNL A   1      46.361  27.368  33.247  1.00  0.00     0.037 A 
BRANCH  53  67
ATOM     67  C   UNL A   1      43.131  32.081  35.586  1.00  0.00     0.058 A 
ATOM     68  C   UNL A   1      43.622  33.380  35.379  1.00  0.00     0.135 A 
ATOM     69  C   UNL A   1      42.472  31.815  36.797  1.00  0.00     0.135 A 
ATOM     70  F   UNL A   1      44.274  33.682  34.245  1.00  0.00    -0.206 F 
ATOM     71  C   UNL A   1      43.473  34.375  36.339  1.00  0.00     0.059 A 
ATOM     72  C   UNL A   1      42.293  32.800  37.763  1.00  0.00     0.059 A 
ATOM     73  F   UNL A   1      41.986  30.588  37.045  1.00  0.00    -0.206 F 
ATOM     74  C   UNL A   1      42.803  34.077  37.526  1.00  0.00     0.060 A 
BRANCH  74  75
ATOM     75  S   UNL A   1      42.588  35.389  38.748  1.00  0.00     0.124 S 
ATOM     76  O   UNL A   1      41.455  34.887  39.519  1.00  0.00    -0.237 OA
ATOM     77  O   UNL A   1      43.874  35.389  39.437  1.00  0.00    -0.237 OA
ATOM     78  O   UNL A   1      42.317  36.571  37.934  1.00  0.00    -0.744 OA
ENDBRANCH  74  75
ENDBRANCH  53  67
BRANCH  54  79
ATOM     79  C   UNL A   1      43.459  25.122  28.435  1.00  0.00     0.058 A 
ATOM     80  C   UNL A   1      43.096  23.789  28.680  1.00  0.00     0.135 A 
ATOM     81  C   UNL A   1      43.943  25.443  27.158  1.00  0.00     0.135 A 
ATOM     82  F   UNL A   1      42.634  23.430  29.889  1.00  0.00    -0.206 F 
ATOM     83  C   UNL A   1      43.242  22.803  27.709  1.00  0.00     0.059 A 
ATOM     84  C   UNL A   1      44.075  24.481  26.163  1.00  0.00     0.059 A 
ATOM     85  F   UNL A   1      44.289  26.707  26.868  1.00  0.00    -0.206 F 
ATOM     86  C   UNL A   1      43.740  23.160  26.454  1.00  0.00     0.060 A 
BRANCH  86  87
ATOM     87  S   UNL A   1      43.920  21.881  25.191  1.00  0.00     0.124 S 
ATOM     88  O   UNL A   1      43.787  22.660  23.967  1.00  0.00    -0.237 OA
ATOM     89  O   UNL A   1      45.250  21.352  25.474  1.00  0.00    -0.237 OA
ATOM     90  O   UNL A   1      42.816  20.970  25.485  1.00  0.00    -0.744 OA
ENDBRANCH  86  87
ENDBRANCH  54  79
BRANCH  66  91
ATOM     91  C   UNL A   1      47.655  26.780  33.741  1.00  0.00     0.058 A 
ATOM     92  C   UNL A   1      48.898  27.290  33.336  1.00  0.00     0.135 A 
ATOM     93  C   UNL A   1      47.648  25.719  34.661  1.00  0.00     0.135 A 
ATOM     94  F   UNL A   1      48.959  28.300  32.455  1.00  0.00    -0.206 F 
ATOM     95  C   UNL A   1      50.091  26.749  33.804  1.00  0.00     0.059 A 
ATOM     96  C   UNL A   1      48.829  25.179  35.161  1.00  0.00     0.059 A 
ATOM     97  F   UNL A   1      46.485  25.202  35.090  1.00  0.00    -0.206 F 
ATOM     98  C   UNL A   1      50.046  25.691  34.715  1.00  0.00     0.060 A 
BRANCH  98  99
ATOM     99  S   UNL A   1      51.601  25.010  35.332  1.00  0.00     0.124 S 
ATOM    100  O   UNL A   1      52.567  25.983  34.829  1.00  0.00    -0.237 OA
ATOM    101  O   UNL A   1      51.394  25.011  36.777  1.00  0.00    -0.237 OA
ATOM    102  O   UNL A   1      51.660  23.689  34.714  1.00  0.00    -0.744 OA
ENDBRANCH  98  99
ENDBRANCH  66  91
ENDBRANCH  40  41
ENDBRANCH  33  35
ENDBRANCH  32  33
ENDBRANCH  31  32
ENDBRANCH   1  31
TORSDOF 21
ENDMDL
