MODEL 1
REMARK VINA RESULT:      -9.3      0.000      0.000
REMARK SMILES CCc1ccc(S(=O)(=O)Cc2noc(C(=O)OCCOCCOC(=O)c3ccc(-c4c5nc(c(-c6c(F)cc(S(=O)(=O)[O-])cc6F)c6ccc([nH]6)c(-c6c(F)cc(S(=O)(=O)[O-])cc6F)c6nc(c(-c7c(F)cc(S(=O)(=O)[O-])cc7F)c7ccc4[nH]7)C=C6)C=C5)cc3)n2)cc1
REMARK SMILES IDX 19 1 18 2 17 3 15 4 16 5 14 6 11 7 12 8 92 9 13 10 10 11
REMARK SMILES IDX 7 12 8 13 9 14 6 15 3 16 4 17 94 18 5 19 93 20 2 21 1 22
REMARK SMILES IDX 20 23 21 24 22 25 23 26 24 27 25 28 26 29 27 30 91 31 28 32
REMARK SMILES IDX 90 33 29 34 30 35 31 36 84 37 32 38 89 39 83 40 85 41 33 42
REMARK SMILES IDX 88 43 82 44 81 45 34 47 68 48 47 49 67 50 48 51 51 52 66 53
REMARK SMILES IDX 86 54 49 55 50 56 65 58 87 59 52 60 35 61 36 62 45 63 37 64
REMARK SMILES IDX 38 65 44 66 46 67 39 68 40 69 41 70 42 71 43 72 69 73 70 74
REMARK SMILES IDX 79 75 71 76 72 77 78 78 80 79 73 80 74 81 75 82 76 83 77 84
REMARK SMILES IDX 53 85 54 86 63 87 55 88 56 89 62 90 64 91 57 92 58 93 59 94
REMARK SMILES IDX 60 95 61 96
REMARK H PARENT 85 46 51 57
REMARK Flexibility Score: inf
ROOT
ATOM      1  C   UNL A   1      33.472  35.655  28.837  1.00  0.00     0.202 C 
ENDROOT
BRANCH   1   2
ATOM      2  C   UNL A   1      32.780  36.146  30.110  1.00  0.00     0.262 C 
BRANCH   2   3
ATOM      3  O   UNL A   1      32.941  35.174  31.158  1.00  0.00    -0.456 OA
BRANCH   3   4
ATOM      4  C   UNL A   1      33.059  35.667  32.425  1.00  0.00     0.397 C 
ATOM      5  O   UNL A   1      32.321  36.517  32.916  1.00  0.00    -0.240 OA
BRANCH   4   6
ATOM      6  C   UNL A   1      34.127  34.991  33.124  1.00  0.00     0.336 A 
ATOM      7  C   UNL A   1      35.889  34.350  34.073  1.00  0.00     0.187 A 
ATOM      8  N   UNL A   1      35.102  33.264  34.108  1.00  0.00    -0.061 NA
ATOM      9  N   UNL A   1      35.345  35.419  33.407  1.00  0.00    -0.185 NA
ATOM     10  O   UNL A   1      33.923  33.695  33.505  1.00  0.00    -0.327 OA
BRANCH   7  11
ATOM     11  C   UNL A   1      37.263  34.301  34.605  1.00  0.00     0.223 C 
BRANCH  11  12
ATOM     12  S   UNL A   1      38.528  34.144  33.384  1.00  0.00     0.185 S 
ATOM     13  O   UNL A   1      39.666  34.914  33.861  1.00  0.00    -0.223 OA
ATOM     14  O   UNL A   1      37.944  34.446  32.088  1.00  0.00    -0.223 OA
BRANCH  12  15
ATOM     15  C   UNL A   1      39.076  32.457  33.353  1.00  0.00     0.067 A 
ATOM     16  C   UNL A   1      40.026  29.822  33.329  1.00  0.00    -0.048 A 
ATOM     17  C   UNL A   1      40.837  30.862  33.796  1.00  0.00     0.005 A 
ATOM     18  C   UNL A   1      38.727  30.122  32.883  1.00  0.00     0.005 A 
ATOM     19  C   UNL A   1      40.369  32.177  33.805  1.00  0.00     0.020 A 
ATOM     20  C   UNL A   1      38.247  31.430  32.903  1.00  0.00     0.020 A 
BRANCH  16  21
ATOM     21  C   UNL A   1      40.474  28.383  33.274  1.00  0.00     0.032 C 
ATOM     22  C   UNL A   1      41.859  28.104  32.716  1.00  0.00     0.009 C 
ENDBRANCH  16  21
ENDBRANCH  12  15
ENDBRANCH  11  12
ENDBRANCH   7  11
ENDBRANCH   4   6
ENDBRANCH   3   4
ENDBRANCH   2   3
ENDBRANCH   1   2
BRANCH   1  23
ATOM     23  O   UNL A   1      33.030  34.353  28.440  1.00  0.00    -0.374 OA
BRANCH  23  24
ATOM     24  C   UNL A   1      34.067  33.469  28.004  1.00  0.00     0.202 C 
BRANCH  24  25
ATOM     25  C   UNL A   1      33.563  32.089  27.570  1.00  0.00     0.261 C 
BRANCH  25  26
ATOM     26  O   UNL A   1      34.047  31.065  28.457  1.00  0.00    -0.460 OA
BRANCH  26  27
ATOM     27  C   UNL A   1      34.529  29.955  27.844  1.00  0.00     0.338 C 
ATOM     28  O   UNL A   1      33.968  29.277  27.002  1.00  0.00    -0.246 OA
BRANCH  27  29
ATOM     29  C   UNL A   1      35.943  29.758  28.226  1.00  0.00     0.060 A 
ATOM     30  C   UNL A   1      36.919  29.952  27.241  1.00  0.00     0.016 A 
ATOM     31  C   UNL A   1      36.314  29.370  29.514  1.00  0.00     0.016 A 
ATOM     32  C   UNL A   1      38.268  29.740  27.534  1.00  0.00     0.010 A 
ATOM     33  C   UNL A   1      37.666  29.160  29.805  1.00  0.00     0.010 A 
ATOM     34  C   UNL A   1      38.654  29.328  28.816  1.00  0.00    -0.014 A 
BRANCH  34  35
ATOM     35  C   UNL A   1      40.067  28.966  29.109  1.00  0.00     0.031 A 
ATOM     36  C   UNL A   1      40.997  30.024  29.645  1.00  0.00     0.074 A 
ATOM     37  C   UNL A   1      40.538  27.726  28.869  1.00  0.00     0.049 A 
ATOM     38  N   UNL A   1      42.282  29.958  29.877  1.00  0.00    -0.248 NA
ATOM     39  C   UNL A   1      40.396  31.332  29.948  1.00  0.00     0.031 C 
ATOM     40  C   UNL A   1      39.754  26.601  28.358  1.00  0.00     0.029 A 
ATOM     41  N   UNL A   1      41.810  27.218  28.985  1.00  0.00    -0.354 N 
ATOM     42  C   UNL A   1      42.642  31.212  30.358  1.00  0.00     0.074 A 
ATOM     43  C   UNL A   1      41.454  32.037  30.318  1.00  0.00     0.031 C 
ATOM     44  C   UNL A   1      40.572  25.555  28.149  1.00  0.00     0.029 A 
ATOM     45  C   UNL A   1      41.937  25.934  28.509  1.00  0.00     0.049 A 
ATOM     46  H   UNL A   1      42.559  27.726  29.372  1.00  0.00     0.167 HD
ATOM     47  C   UNL A   1      43.842  31.631  30.828  1.00  0.00     0.037 A 
ATOM     48  C   UNL A   1      43.029  25.159  28.359  1.00  0.00     0.037 A 
ATOM     49  C   UNL A   1      45.018  30.807  30.896  1.00  0.00     0.049 A 
ATOM     50  C   UNL A   1      44.371  25.663  28.821  1.00  0.00     0.074 A 
ATOM     51  C   UNL A   1      46.259  31.120  31.423  1.00  0.00     0.029 A 
ATOM     52  N   UNL A   1      45.103  29.509  30.415  1.00  0.00    -0.354 N 
ATOM     53  N   UNL A   1      44.679  26.828  29.338  1.00  0.00    -0.248 NA
ATOM     54  C   UNL A   1      45.508  24.737  28.705  1.00  0.00     0.031 C 
ATOM     55  C   UNL A   1      47.106  30.023  31.230  1.00  0.00     0.029 A 
ATOM     56  C   UNL A   1      46.381  29.013  30.617  1.00  0.00     0.049 A 
ATOM     57  H   UNL A   1      44.365  29.014  29.994  1.00  0.00     0.167 HD
ATOM     58  C   UNL A   1      46.032  26.757  29.653  1.00  0.00     0.074 A 
ATOM     59  C   UNL A   1      46.487  25.441  29.256  1.00  0.00     0.031 C 
ATOM     60  C   UNL A   1      46.821  27.696  30.233  1.00  0.00     0.037 A 
BRANCH  47  61
ATOM     61  C   UNL A   1      43.926  33.047  31.324  1.00  0.00     0.058 A 
ATOM     62  C   UNL A   1      43.828  33.349  32.692  1.00  0.00     0.135 A 
ATOM     63  C   UNL A   1      44.113  34.111  30.428  1.00  0.00     0.135 A 
ATOM     64  F   UNL A   1      43.632  32.369  33.589  1.00  0.00    -0.206 F 
ATOM     65  C   UNL A   1      43.870  34.661  33.150  1.00  0.00     0.059 A 
ATOM     66  C   UNL A   1      44.186  35.428  30.868  1.00  0.00     0.059 A 
ATOM     67  F   UNL A   1      44.215  33.875  29.110  1.00  0.00    -0.206 F 
ATOM     68  C   UNL A   1      44.044  35.695  32.230  1.00  0.00     0.060 A 
BRANCH  68  69
ATOM     69  S   UNL A   1      44.076  37.394  32.837  1.00  0.00     0.124 S 
ATOM     70  O   UNL A   1      43.813  38.144  31.612  1.00  0.00    -0.237 OA
ATOM     71  O   UNL A   1      43.001  37.396  33.824  1.00  0.00    -0.237 OA
ATOM     72  O   UNL A   1      45.424  37.533  33.381  1.00  0.00    -0.744 OA
ENDBRANCH  68  69
ENDBRANCH  47  61
BRANCH  48  73
ATOM     73  C   UNL A   1      42.900  23.811  27.748  1.00  0.00     0.058 A 
ATOM     74  C   UNL A   1      42.618  22.685  28.533  1.00  0.00     0.135 A 
ATOM     75  C   UNL A   1      43.054  23.625  26.365  1.00  0.00     0.135 A 
ATOM     76  F   UNL A   1      42.473  22.812  29.861  1.00  0.00    -0.206 F 
ATOM     77  C   UNL A   1      42.503  21.417  27.972  1.00  0.00     0.059 A 
ATOM     78  C   UNL A   1      42.927  22.369  25.778  1.00  0.00     0.059 A 
ATOM     79  F   UNL A   1      43.313  24.675  25.571  1.00  0.00    -0.206 F 
ATOM     80  C   UNL A   1      42.657  21.270  26.593  1.00  0.00     0.060 A 
BRANCH  80  81
ATOM     81  S   UNL A   1      42.453  19.627  25.871  1.00  0.00     0.124 S 
ATOM     82  O   UNL A   1      42.770  18.767  27.005  1.00  0.00    -0.237 OA
ATOM     83  O   UNL A   1      41.053  19.649  25.457  1.00  0.00    -0.237 OA
ATOM     84  O   UNL A   1      43.421  19.617  24.780  1.00  0.00    -0.744 OA
ENDBRANCH  80  81
ENDBRANCH  48  73
BRANCH  60  85
ATOM     85  C   UNL A   1      48.245  27.320  30.533  1.00  0.00     0.058 A 
ATOM     86  C   UNL A   1      48.594  26.593  31.682  1.00  0.00     0.135 A 
ATOM     87  C   UNL A   1      49.268  27.647  29.628  1.00  0.00     0.135 A 
ATOM     88  F   UNL A   1      47.656  26.261  32.582  1.00  0.00    -0.206 F 
ATOM     89  C   UNL A   1      49.911  26.217  31.930  1.00  0.00     0.059 A 
ATOM     90  C   UNL A   1      50.587  27.262  29.845  1.00  0.00     0.059 A 
ATOM     91  F   UNL A   1      48.986  28.334  28.509  1.00  0.00    -0.206 F 
ATOM     92  C   UNL A   1      50.900  26.556  31.005  1.00  0.00     0.060 A 
BRANCH  92  93
ATOM     93  S   UNL A   1      52.601  26.032  31.318  1.00  0.00     0.124 S 
ATOM     94  O   UNL A   1      53.146  25.980  29.966  1.00  0.00    -0.237 OA
ATOM     95  O   UNL A   1      53.109  27.104  32.167  1.00  0.00    -0.237 OA
ATOM     96  O   UNL A   1      52.439  24.741  31.982  1.00  0.00    -0.744 OA
ENDBRANCH  92  93
ENDBRANCH  60  85
ENDBRANCH  34  35
ENDBRANCH  27  29
ENDBRANCH  26  27
ENDBRANCH  25  26
ENDBRANCH  24  25
ENDBRANCH  23  24
ENDBRANCH   1  23
TORSDOF 21
ENDMDL
MODEL 2
REMARK VINA RESULT:      -9.2      4.825     11.998
REMARK SMILES CCc1ccc(S(=O)(=O)Cc2noc(C(=O)OCCOCCOC(=O)c3ccc(-c4c5nc(c(-c6c(F)cc(S(=O)(=O)[O-])cc6F)c6ccc([nH]6)c(-c6c(F)cc(S(=O)(=O)[O-])cc6F)c6nc(c(-c7c(F)cc(S(=O)(=O)[O-])cc7F)c7ccc4[nH]7)C=C6)C=C5)cc3)n2)cc1
REMARK SMILES IDX 19 1 18 2 17 3 15 4 16 5 14 6 11 7 12 8 92 9 13 10 10 11
REMARK SMILES IDX 7 12 8 13 9 14 6 15 3 16 4 17 94 18 5 19 93 20 2 21 1 22
REMARK SMILES IDX 20 23 21 24 22 25 23 26 24 27 25 28 26 29 27 30 91 31 28 32
REMARK SMILES IDX 90 33 29 34 30 35 31 36 84 37 32 38 89 39 83 40 85 41 33 42
REMARK SMILES IDX 88 43 82 44 81 45 34 47 68 48 47 49 67 50 48 51 51 52 66 53
REMARK SMILES IDX 86 54 49 55 50 56 65 58 87 59 52 60 35 61 36 62 45 63 37 64
REMARK SMILES IDX 38 65 44 66 46 67 39 68 40 69 41 70 42 71 43 72 69 73 70 74
REMARK SMILES IDX 79 75 71 76 72 77 78 78 80 79 73 80 74 81 75 82 76 83 77 84
REMARK SMILES IDX 53 85 54 86 63 87 55 88 56 89 62 90 64 91 57 92 58 93 59 94
REMARK SMILES IDX 60 95 61 96
REMARK H PARENT 85 46 51 57
REMARK Flexibility Score: inf
ROOT
ATOM      1  C   UNL A   1      38.380  21.808  25.511  1.00  0.00     0.202 C 
ENDROOT
BRANCH   1   2
ATOM      2  C   UNL A   1      37.006  22.468  25.640  1.00  0.00     0.262 C 
BRANCH   2   3
ATOM      3  O   UNL A   1      36.878  23.522  24.671  1.00  0.00    -0.456 OA
BRANCH   3   4
ATOM      4  C   UNL A   1      36.196  23.213  23.530  1.00  0.00     0.397 C 
ATOM      5  O   UNL A   1      36.713  22.793  22.499  1.00  0.00    -0.240 OA
BRANCH   4   6
ATOM      6  C   UNL A   1      34.776  23.383  23.738  1.00  0.00     0.336 A 
ATOM      7  C   UNL A   1      32.805  24.024  24.080  1.00  0.00     0.187 A 
ATOM      8  N   UNL A   1      32.696  22.688  24.034  1.00  0.00    -0.061 NA
ATOM      9  N   UNL A   1      34.091  24.489  23.973  1.00  0.00    -0.185 NA
ATOM     10  O   UNL A   1      33.997  22.262  23.779  1.00  0.00    -0.327 OA
BRANCH   7  11
ATOM     11  C   UNL A   1      31.627  24.865  24.359  1.00  0.00     0.223 C 
BRANCH  11  12
ATOM     12  S   UNL A   1      31.353  25.219  26.066  1.00  0.00     0.185 S 
ATOM     13  O   UNL A   1      32.072  24.208  26.824  1.00  0.00    -0.223 OA
ATOM     14  O   UNL A   1      29.924  25.392  26.266  1.00  0.00    -0.223 OA
BRANCH  12  15
ATOM     15  C   UNL A   1      32.146  26.757  26.458  1.00  0.00     0.067 A 
ATOM     16  C   UNL A   1      33.317  29.220  27.099  1.00  0.00    -0.048 A 
ATOM     17  C   UNL A   1      31.962  28.991  27.361  1.00  0.00     0.005 A 
ATOM     18  C   UNL A   1      34.079  28.192  26.518  1.00  0.00     0.005 A 
ATOM     19  C   UNL A   1      31.374  27.767  27.039  1.00  0.00     0.020 A 
ATOM     20  C   UNL A   1      33.503  26.961  26.207  1.00  0.00     0.020 A 
BRANCH  16  21
ATOM     21  C   UNL A   1      34.011  30.523  27.404  1.00  0.00     0.032 C 
ATOM     22  C   UNL A   1      35.513  30.481  27.626  1.00  0.00     0.009 C 
ENDBRANCH  16  21
ENDBRANCH  12  15
ENDBRANCH  11  12
ENDBRANCH   7  11
ENDBRANCH   4   6
ENDBRANCH   3   4
ENDBRANCH   2   3
ENDBRANCH   1   2
BRANCH   1  23
ATOM     23  O   UNL A   1      39.235  22.099  26.622  1.00  0.00    -0.374 OA
BRANCH  23  24
ATOM     24  C   UNL A   1      40.474  21.386  26.635  1.00  0.00     0.202 C 
BRANCH  24  25
ATOM     25  C   UNL A   1      41.708  22.286  26.514  1.00  0.00     0.261 C 
BRANCH  25  26
ATOM     26  O   UNL A   1      41.345  23.673  26.638  1.00  0.00    -0.460 OA
BRANCH  26  27
ATOM     27  C   UNL A   1      42.388  24.530  26.779  1.00  0.00     0.338 C 
ATOM     28  O   UNL A   1      43.430  24.529  26.147  1.00  0.00    -0.246 OA
BRANCH  27  29
ATOM     29  C   UNL A   1      42.016  25.606  27.721  1.00  0.00     0.060 A 
ATOM     30  C   UNL A   1      42.886  26.696  27.844  1.00  0.00     0.016 A 
ATOM     31  C   UNL A   1      40.853  25.546  28.490  1.00  0.00     0.016 A 
ATOM     32  C   UNL A   1      42.607  27.721  28.750  1.00  0.00     0.010 A 
ATOM     33  C   UNL A   1      40.575  26.576  29.395  1.00  0.00     0.010 A 
ATOM     34  C   UNL A   1      41.455  27.665  29.545  1.00  0.00    -0.014 A 
BRANCH  34  35
ATOM     35  C   UNL A   1      41.211  28.676  30.609  1.00  0.00     0.031 A 
ATOM     36  C   UNL A   1      41.974  28.573  31.904  1.00  0.00     0.074 A 
ATOM     37  C   UNL A   1      40.299  29.655  30.450  1.00  0.00     0.049 A 
ATOM     38  N   UNL A   1      41.852  29.280  32.996  1.00  0.00    -0.248 NA
ATOM     39  C   UNL A   1      43.002  27.523  31.977  1.00  0.00     0.031 C 
ATOM     40  C   UNL A   1      39.492  29.882  29.251  1.00  0.00     0.029 A 
ATOM     41  N   UNL A   1      39.866  30.621  31.327  1.00  0.00    -0.354 N 
ATOM     42  C   UNL A   1      42.791  28.766  33.884  1.00  0.00     0.074 A 
ATOM     43  C   UNL A   1      43.424  27.643  33.227  1.00  0.00     0.031 C 
ATOM     44  C   UNL A   1      38.623  30.880  29.488  1.00  0.00     0.029 A 
ATOM     45  C   UNL A   1      38.810  31.363  30.855  1.00  0.00     0.049 A 
ATOM     46  H   UNL A   1      40.275  30.767  32.211  1.00  0.00     0.167 HD
ATOM     47  C   UNL A   1      43.126  29.209  35.120  1.00  0.00     0.037 A 
ATOM     48  C   UNL A   1      38.061  32.307  31.459  1.00  0.00     0.037 A 
ATOM     49  C   UNL A   1      42.519  30.341  35.767  1.00  0.00     0.049 A 
ATOM     50  C   UNL A   1      38.399  32.743  32.860  1.00  0.00     0.074 A 
ATOM     51  C   UNL A   1      42.841  30.910  36.987  1.00  0.00     0.029 A 
ATOM     52  N   UNL A   1      41.461  31.073  35.251  1.00  0.00    -0.354 N 
ATOM     53  N   UNL A   1      39.336  32.292  33.660  1.00  0.00    -0.248 NA
ATOM     54  C   UNL A   1      37.597  33.835  33.432  1.00  0.00     0.031 C 
ATOM     55  C   UNL A   1      41.954  31.966  37.225  1.00  0.00     0.029 A 
ATOM     56  C   UNL A   1      41.105  32.078  36.136  1.00  0.00     0.049 A 
ATOM     57  H   UNL A   1      41.027  30.905  34.384  1.00  0.00     0.167 HD
ATOM     58  C   UNL A   1      39.268  33.075  34.807  1.00  0.00     0.074 A 
ATOM     59  C   UNL A   1      38.189  34.020  34.604  1.00  0.00     0.031 C 
ATOM     60  C   UNL A   1      40.040  33.025  35.920  1.00  0.00     0.037 A 
BRANCH  47  61
ATOM     61  C   UNL A   1      44.217  28.469  35.840  1.00  0.00     0.058 A 
ATOM     62  C   UNL A   1      45.571  28.782  35.636  1.00  0.00     0.135 A 
ATOM     63  C   UNL A   1      43.910  27.443  36.747  1.00  0.00     0.135 A 
ATOM     64  F   UNL A   1      45.918  29.745  34.766  1.00  0.00    -0.206 F 
ATOM     65  C   UNL A   1      46.584  28.075  36.274  1.00  0.00     0.059 A 
ATOM     66  C   UNL A   1      44.907  26.741  37.417  1.00  0.00     0.059 A 
ATOM     67  F   UNL A   1      42.631  27.106  36.980  1.00  0.00    -0.206 F 
ATOM     68  C   UNL A   1      46.242  27.052  37.159  1.00  0.00     0.060 A 
BRANCH  68  69
ATOM     69  S   UNL A   1      47.568  26.131  37.964  1.00  0.00     0.124 S 
ATOM     70  O   UNL A   1      47.010  24.781  37.985  1.00  0.00    -0.237 OA
ATOM     71  O   UNL A   1      48.692  26.337  37.056  1.00  0.00    -0.237 OA
ATOM     72  O   UNL A   1      47.690  26.780  39.266  1.00  0.00    -0.744 OA
ENDBRANCH  68  69
ENDBRANCH  47  61
BRANCH  48  73
ATOM     73  C   UNL A   1      36.916  32.918  30.736  1.00  0.00     0.058 A 
ATOM     74  C   UNL A   1      37.112  33.961  29.821  1.00  0.00     0.135 A 
ATOM     75  C   UNL A   1      35.604  32.465  30.946  1.00  0.00     0.135 A 
ATOM     76  F   UNL A   1      38.347  34.432  29.595  1.00  0.00    -0.206 F 
ATOM     77  C   UNL A   1      36.045  34.544  29.145  1.00  0.00     0.059 A 
ATOM     78  C   UNL A   1      34.522  33.022  30.269  1.00  0.00     0.059 A 
ATOM     79  F   UNL A   1      35.368  31.461  31.805  1.00  0.00    -0.206 F 
ATOM     80  C   UNL A   1      34.754  34.066  29.374  1.00  0.00     0.060 A 
BRANCH  80  81
ATOM     81  S   UNL A   1      33.385  34.797  28.450  1.00  0.00     0.124 S 
ATOM     82  O   UNL A   1      34.091  35.674  27.524  1.00  0.00    -0.237 OA
ATOM     83  O   UNL A   1      32.753  33.621  27.861  1.00  0.00    -0.237 OA
ATOM     84  O   UNL A   1      32.603  35.468  29.483  1.00  0.00    -0.744 OA
ENDBRANCH  80  81
ENDBRANCH  48  73
BRANCH  60  85
ATOM     85  C   UNL A   1      39.793  34.055  36.987  1.00  0.00     0.058 A 
ATOM     86  C   UNL A   1      38.819  33.873  37.980  1.00  0.00     0.135 A 
ATOM     87  C   UNL A   1      40.581  35.216  37.044  1.00  0.00     0.135 A 
ATOM     88  F   UNL A   1      38.035  32.784  37.967  1.00  0.00    -0.206 F 
ATOM     89  C   UNL A   1      38.625  34.816  38.986  1.00  0.00     0.059 A 
ATOM     90  C   UNL A   1      40.419  36.160  38.053  1.00  0.00     0.059 A 
ATOM     91  F   UNL A   1      41.532  35.433  36.122  1.00  0.00    -0.206 F 
ATOM     92  C   UNL A   1      39.431  35.956  39.014  1.00  0.00     0.060 A 
BRANCH  92  93
ATOM     93  S   UNL A   1      39.195  37.155  40.344  1.00  0.00     0.124 S 
ATOM     94  O   UNL A   1      38.250  38.085  39.738  1.00  0.00    -0.237 OA
ATOM     95  O   UNL A   1      38.667  36.327  41.424  1.00  0.00    -0.237 OA
ATOM     96  O   UNL A   1      40.539  37.680  40.568  1.00  0.00    -0.744 OA
ENDBRANCH  92  93
ENDBRANCH  60  85
ENDBRANCH  34  35
ENDBRANCH  27  29
ENDBRANCH  26  27
ENDBRANCH  25  26
ENDBRANCH  24  25
ENDBRANCH  23  24
ENDBRANCH   1  23
TORSDOF 21
ENDMDL
MODEL 3
REMARK VINA RESULT:      -9.0      4.740     12.018
REMARK SMILES CCc1ccc(S(=O)(=O)Cc2noc(C(=O)OCCOCCOC(=O)c3ccc(-c4c5nc(c(-c6c(F)cc(S(=O)(=O)[O-])cc6F)c6ccc([nH]6)c(-c6c(F)cc(S(=O)(=O)[O-])cc6F)c6nc(c(-c7c(F)cc(S(=O)(=O)[O-])cc7F)c7ccc4[nH]7)C=C6)C=C5)cc3)n2)cc1
REMARK SMILES IDX 19 1 18 2 17 3 15 4 16 5 14 6 11 7 12 8 92 9 13 10 10 11
REMARK SMILES IDX 7 12 8 13 9 14 6 15 3 16 4 17 94 18 5 19 93 20 2 21 1 22
REMARK SMILES IDX 20 23 21 24 22 25 23 26 24 27 25 28 26 29 27 30 91 31 28 32
REMARK SMILES IDX 90 33 29 34 30 35 31 36 84 37 32 38 89 39 83 40 85 41 33 42
REMARK SMILES IDX 88 43 82 44 81 45 34 47 68 48 47 49 67 50 48 51 51 52 66 53
REMARK SMILES IDX 86 54 49 55 50 56 65 58 87 59 52 60 35 61 36 62 45 63 37 64
REMARK SMILES IDX 38 65 44 66 46 67 39 68 40 69 41 70 42 71 43 72 69 73 70 74
REMARK SMILES IDX 79 75 71 76 72 77 78 78 80 79 73 80 74 81 75 82 76 83 77 84
REMARK SMILES IDX 53 85 54 86 63 87 55 88 56 89 62 90 64 91 57 92 58 93 59 94
REMARK SMILES IDX 60 95 61 96
REMARK H PARENT 85 46 51 57
REMARK Flexibility Score: inf
ROOT
ATOM      1  C   UNL A   1      43.536  20.292  25.397  1.00  0.00     0.202 C 
ENDROOT
BRANCH   1   2
ATOM      2  C   UNL A   1      42.240  19.938  26.130  1.00  0.00     0.262 C 
BRANCH   2   3
ATOM      3  O   UNL A   1      41.213  20.885  25.789  1.00  0.00    -0.456 OA
BRANCH   3   4
ATOM      4  C   UNL A   1      40.432  21.324  26.818  1.00  0.00     0.397 C 
ATOM      5  O   UNL A   1      40.707  21.198  28.008  1.00  0.00    -0.240 OA
BRANCH   4   6
ATOM      6  C   UNL A   1      39.275  22.020  26.302  1.00  0.00     0.336 A 
ATOM      7  C   UNL A   1      37.538  22.694  25.333  1.00  0.00     0.187 A 
ATOM      8  N   UNL A   1      37.935  23.762  26.041  1.00  0.00    -0.061 NA
ATOM      9  N   UNL A   1      38.384  21.617  25.414  1.00  0.00    -0.185 NA
ATOM     10  O   UNL A   1      39.071  23.309  26.707  1.00  0.00    -0.327 OA
BRANCH   7  11
ATOM     11  C   UNL A   1      36.356  22.771  24.455  1.00  0.00     0.223 C 
BRANCH  11  12
ATOM     12  S   UNL A   1      34.836  22.284  25.208  1.00  0.00     0.185 S 
ATOM     13  O   UNL A   1      35.176  21.701  26.496  1.00  0.00    -0.223 OA
ATOM     14  O   UNL A   1      34.083  21.506  24.239  1.00  0.00    -0.223 OA
BRANCH  12  15
ATOM     15  C   UNL A   1      33.898  23.743  25.581  1.00  0.00     0.067 A 
ATOM     16  C   UNL A   1      32.490  26.097  26.150  1.00  0.00    -0.048 A 
ATOM     17  C   UNL A   1      33.776  26.156  25.601  1.00  0.00     0.005 A 
ATOM     18  C   UNL A   1      31.917  24.839  26.400  1.00  0.00     0.005 A 
ATOM     19  C   UNL A   1      34.482  24.985  25.321  1.00  0.00     0.020 A 
ATOM     20  C   UNL A   1      32.609  23.664  26.110  1.00  0.00     0.020 A 
BRANCH  16  21
ATOM     21  C   UNL A   1      31.680  27.321  26.494  1.00  0.00     0.032 C 
ATOM     22  C   UNL A   1      32.308  28.333  27.437  1.00  0.00     0.009 C 
ENDBRANCH  16  21
ENDBRANCH  12  15
ENDBRANCH  11  12
ENDBRANCH   7  11
ENDBRANCH   4   6
ENDBRANCH   3   4
ENDBRANCH   2   3
ENDBRANCH   1   2
BRANCH   1  23
ATOM     23  O   UNL A   1      44.241  21.371  26.020  1.00  0.00    -0.374 OA
BRANCH  23  24
ATOM     24  C   UNL A   1      44.015  22.658  25.440  1.00  0.00     0.202 C 
BRANCH  24  25
ATOM     25  C   UNL A   1      43.898  23.789  26.466  1.00  0.00     0.261 C 
BRANCH  25  26
ATOM     26  O   UNL A   1      42.524  24.175  26.648  1.00  0.00    -0.460 OA
BRANCH  26  27
ATOM     27  C   UNL A   1      42.209  25.413  26.190  1.00  0.00     0.338 C 
ATOM     28  O   UNL A   1      42.110  25.763  25.027  1.00  0.00    -0.246 OA
BRANCH  27  29
ATOM     29  C   UNL A   1      41.827  26.275  27.328  1.00  0.00     0.060 A 
ATOM     30  C   UNL A   1      42.585  27.431  27.555  1.00  0.00     0.016 A 
ATOM     31  C   UNL A   1      40.765  25.955  28.174  1.00  0.00     0.016 A 
ATOM     32  C   UNL A   1      42.296  28.261  28.640  1.00  0.00     0.010 A 
ATOM     33  C   UNL A   1      40.477  26.790  29.259  1.00  0.00     0.010 A 
ATOM     34  C   UNL A   1      41.247  27.942  29.512  1.00  0.00    -0.014 A 
BRANCH  34  35
ATOM     35  C   UNL A   1      41.011  28.737  30.746  1.00  0.00     0.031 A 
ATOM     36  C   UNL A   1      39.945  29.801  30.738  1.00  0.00     0.074 A 
ATOM     37  C   UNL A   1      41.756  28.550  31.854  1.00  0.00     0.049 A 
ATOM     38  N   UNL A   1      39.636  30.673  31.662  1.00  0.00    -0.248 NA
ATOM     39  C   UNL A   1      39.127  29.899  29.519  1.00  0.00     0.031 C 
ATOM     40  C   UNL A   1      42.817  27.555  32.010  1.00  0.00     0.029 A 
ATOM     41  N   UNL A   1      41.759  29.226  33.051  1.00  0.00    -0.354 N 
ATOM     42  C   UNL A   1      38.585  31.419  31.140  1.00  0.00     0.074 A 
ATOM     43  C   UNL A   1      38.358  30.943  29.793  1.00  0.00     0.031 C 
ATOM     44  C   UNL A   1      43.406  27.724  33.206  1.00  0.00     0.029 A 
ATOM     45  C   UNL A   1      42.767  28.839  33.901  1.00  0.00     0.049 A 
ATOM     46  H   UNL A   1      41.100  29.923  33.277  1.00  0.00     0.167 HD
ATOM     47  C   UNL A   1      37.848  32.386  31.737  1.00  0.00     0.037 A 
ATOM     48  C   UNL A   1      43.148  29.338  35.094  1.00  0.00     0.037 A 
ATOM     49  C   UNL A   1      38.053  32.845  33.085  1.00  0.00     0.049 A 
ATOM     50  C   UNL A   1      42.363  30.462  35.718  1.00  0.00     0.074 A 
ATOM     51  C   UNL A   1      37.312  33.768  33.802  1.00  0.00     0.029 A 
ATOM     52  N   UNL A   1      39.076  32.419  33.918  1.00  0.00    -0.354 N 
ATOM     53  N   UNL A   1      41.328  31.109  35.238  1.00  0.00    -0.248 NA
ATOM     54  C   UNL A   1      42.781  30.905  37.056  1.00  0.00     0.031 C 
ATOM     55  C   UNL A   1      37.908  33.928  35.058  1.00  0.00     0.029 A 
ATOM     56  C   UNL A   1      38.998  33.075  35.136  1.00  0.00     0.049 A 
ATOM     57  H   UNL A   1      39.757  31.750  33.680  1.00  0.00     0.167 HD
ATOM     58  C   UNL A   1      40.942  32.000  36.233  1.00  0.00     0.074 A 
ATOM     59  C   UNL A   1      41.862  31.819  37.337  1.00  0.00     0.031 C 
ATOM     60  C   UNL A   1      39.908  32.878  36.236  1.00  0.00     0.037 A 
BRANCH  47  61
ATOM     61  C   UNL A   1      36.738  32.998  30.931  1.00  0.00     0.058 A 
ATOM     62  C   UNL A   1      36.990  34.013  29.993  1.00  0.00     0.135 A 
ATOM     63  C   UNL A   1      35.413  32.565  31.089  1.00  0.00     0.135 A 
ATOM     64  F   UNL A   1      38.239  34.474  29.815  1.00  0.00    -0.206 F 
ATOM     65  C   UNL A   1      35.961  34.606  29.270  1.00  0.00     0.059 A 
ATOM     66  C   UNL A   1      34.372  33.125  30.357  1.00  0.00     0.059 A 
ATOM     67  F   UNL A   1      35.119  31.596  31.971  1.00  0.00    -0.206 F 
ATOM     68  C   UNL A   1      34.653  34.159  29.463  1.00  0.00     0.060 A 
BRANCH  68  69
ATOM     69  S   UNL A   1      33.326  34.952  28.534  1.00  0.00     0.124 S 
ATOM     70  O   UNL A   1      32.533  35.543  29.608  1.00  0.00    -0.237 OA
ATOM     71  O   UNL A   1      34.052  35.895  27.689  1.00  0.00    -0.237 OA
ATOM     72  O   UNL A   1      32.695  33.839  27.829  1.00  0.00    -0.744 OA
ENDBRANCH  68  69
ENDBRANCH  47  61
BRANCH  48  73
ATOM     73  C   UNL A   1      44.332  28.770  35.789  1.00  0.00     0.058 A 
ATOM     74  C   UNL A   1      44.201  27.701  36.686  1.00  0.00     0.135 A 
ATOM     75  C   UNL A   1      45.618  29.285  35.565  1.00  0.00     0.135 A 
ATOM     76  F   UNL A   1      42.989  27.183  36.939  1.00  0.00    -0.206 F 
ATOM     77  C   UNL A   1      45.302  27.167  37.347  1.00  0.00     0.059 A 
ATOM     78  C   UNL A   1      46.738  28.757  36.202  1.00  0.00     0.059 A 
ATOM     79  F   UNL A   1      45.796  30.301  34.706  1.00  0.00    -0.206 F 
ATOM     80  C   UNL A   1      46.567  27.701  37.097  1.00  0.00     0.060 A 
BRANCH  80  81
ATOM     81  S   UNL A   1      47.994  26.963  37.922  1.00  0.00     0.124 S 
ATOM     82  O   UNL A   1      48.997  28.009  37.767  1.00  0.00    -0.237 OA
ATOM     83  O   UNL A   1      47.489  26.756  39.276  1.00  0.00    -0.237 OA
ATOM     84  O   UNL A   1      48.230  25.743  37.156  1.00  0.00    -0.744 OA
ENDBRANCH  80  81
ENDBRANCH  48  73
BRANCH  60  85
ATOM     85  C   UNL A   1      39.671  33.672  37.490  1.00  0.00     0.058 A 
ATOM     86  C   UNL A   1      38.769  33.247  38.477  1.00  0.00     0.135 A 
ATOM     87  C   UNL A   1      40.400  34.848  37.730  1.00  0.00     0.135 A 
ATOM     88  F   UNL A   1      38.042  32.134  38.294  1.00  0.00    -0.206 F 
ATOM     89  C   UNL A   1      38.586  33.971  39.652  1.00  0.00     0.059 A 
ATOM     90  C   UNL A   1      40.250  35.575  38.906  1.00  0.00     0.059 A 
ATOM     91  F   UNL A   1      41.283  35.292  36.821  1.00  0.00    -0.206 F 
ATOM     92  C   UNL A   1      39.332  35.133  39.857  1.00  0.00     0.060 A 
BRANCH  92  93
ATOM     93  S   UNL A   1      39.114  36.044  41.402  1.00  0.00     0.124 S 
ATOM     94  O   UNL A   1      40.329  35.689  42.127  1.00  0.00    -0.237 OA
ATOM     95  O   UNL A   1      39.031  37.428  40.942  1.00  0.00    -0.237 OA
ATOM     96  O   UNL A   1      37.874  35.498  41.945  1.00  0.00    -0.744 OA
ENDBRANCH  92  93
ENDBRANCH  60  85
ENDBRANCH  34  35
ENDBRANCH  27  29
ENDBRANCH  26  27
ENDBRANCH  25  26
ENDBRANCH  24  25
ENDBRANCH  23  24
ENDBRANCH   1  23
TORSDOF 21
ENDMDL
