MODEL 1
REMARK VINA RESULT:     -11.2      0.000      0.000
REMARK SMILES O=C(Nc1ccc(/C=C/C(=O)OCCOCCOC(=O)c2ccc(-c3c4nc(c(-c5c(F)cc(S(=O)(=O)[O-])cc5F)c5ccc([nH]5)c(-c5c(F)cc(S(=O)(=O)[O-])cc5F)c5nc(c(-c6c(F)cc(S(=O)(=O)[O-])cc6F)c6ccc3[nH]6)C=C5)C=C4)cc2)cc1F)NC1CCCC1
REMARK SMILES IDX 15 1 14 2 13 3 12 4 10 5 11 6 9 7 8 8 7 9 4 10 5 11 88 12
REMARK SMILES IDX 6 13 87 14 89 15 3 16 1 17 2 18 90 19 91 22 92 23 95 24
REMARK SMILES IDX 93 25 94 26 16 27 17 28 18 29 19 30 20 31 21 32 22 33 86 34
REMARK SMILES IDX 23 35 85 36 24 37 25 38 26 39 79 40 27 41 84 42 78 43 80 44
REMARK SMILES IDX 28 45 83 46 77 47 76 48 29 50 63 51 42 52 62 53 43 54 46 55
REMARK SMILES IDX 61 56 81 57 44 58 45 59 60 61 82 62 47 63 30 64 31 65 40 66
REMARK SMILES IDX 32 67 33 68 39 69 41 70 34 71 35 72 36 73 37 74 38 75 64 76
REMARK SMILES IDX 65 77 74 78 66 79 67 80 73 81 75 82 68 83 69 84 70 85 71 86
REMARK SMILES IDX 72 87 48 88 49 89 58 90 50 91 51 92 57 93 59 94 52 95 53 96
REMARK SMILES IDX 54 97 55 98 56 99
REMARK H PARENT 3 20 90 21 80 49 46 60
REMARK Flexibility Score: inf
ROOT
ATOM      1  O   UNL A   1      42.676  21.908  25.132  1.00  0.00    -0.374 OA
ENDROOT
BRANCH   1   2
ATOM      2  C   UNL A   1      42.845  20.925  26.154  1.00  0.00     0.202 C 
BRANCH   2   3
ATOM      3  C   UNL A   1      41.590  20.594  26.964  1.00  0.00     0.261 C 
BRANCH   3   4
ATOM      4  O   UNL A   1      40.404  20.972  26.247  1.00  0.00    -0.460 OA
BRANCH   4   5
ATOM      5  C   UNL A   1      39.735  19.957  25.655  1.00  0.00     0.330 C 
ATOM      6  O   UNL A   1      40.040  18.774  25.663  1.00  0.00    -0.247 OA
BRANCH   5   7
ATOM      7  C   UNL A   1      38.488  20.414  25.011  1.00  0.00     0.094 C 
ATOM      8  C   UNL A   1      37.770  21.499  25.346  1.00  0.00     0.016 C 
BRANCH   8   9
ATOM      9  C   UNL A   1      36.561  21.869  24.600  1.00  0.00    -0.022 A 
ATOM     10  C   UNL A   1      34.154  22.793  23.462  1.00  0.00     0.078 A 
ATOM     11  C   UNL A   1      35.376  23.299  23.019  1.00  0.00     0.030 A 
ATOM     12  C   UNL A   1      34.168  21.716  24.356  1.00  0.00     0.147 A 
ATOM     13  C   UNL A   1      36.570  22.848  23.595  1.00  0.00     0.010 A 
ATOM     14  C   UNL A   1      35.353  21.253  24.923  1.00  0.00     0.049 A 
ATOM     15  F   UNL A   1      33.027  21.111  24.717  1.00  0.00    -0.205 F 
BRANCH  10  16
ATOM     16  N   UNL A   1      32.983  23.427  22.999  1.00  0.00    -0.305 N 
ATOM     17  O   UNL A   1      31.236  24.834  22.980  1.00  0.00    -0.248 OA
ATOM     18  C   UNL A   1      32.301  24.505  23.497  1.00  0.00     0.319 C 
ATOM     19  N   UNL A   1      32.924  25.236  24.456  1.00  0.00    -0.335 N 
ATOM     20  H   UNL A   1      32.592  23.030  22.187  1.00  0.00     0.171 HD
ATOM     21  H   UNL A   1      33.801  24.916  24.770  1.00  0.00     0.165 HD
BRANCH  19  22
ATOM     22  C   UNL A   1      32.410  26.444  25.055  1.00  0.00     0.083 C 
ATOM     23  C   UNL A   1      31.888  26.183  26.463  1.00  0.00     0.025 C 
ATOM     24  C   UNL A   1      33.522  27.463  25.294  1.00  0.00     0.025 C 
ATOM     25  C   UNL A   1      31.892  27.557  27.114  1.00  0.00     0.002 C 
ATOM     26  C   UNL A   1      33.032  28.328  26.451  1.00  0.00     0.002 C 
ENDBRANCH  19  22
ENDBRANCH  10  16
ENDBRANCH   8   9
ENDBRANCH   5   7
ENDBRANCH   4   5
ENDBRANCH   3   4
ENDBRANCH   2   3
ENDBRANCH   1   2
BRANCH   1  27
ATOM     27  C   UNL A   1      43.637  22.966  25.092  1.00  0.00     0.202 C 
BRANCH  27  28
ATOM     28  C   UNL A   1      43.104  24.372  25.386  1.00  0.00     0.261 C 
BRANCH  28  29
ATOM     29  O   UNL A   1      42.576  24.479  26.721  1.00  0.00    -0.460 OA
BRANCH  29  30
ATOM     30  C   UNL A   1      41.227  24.590  26.793  1.00  0.00     0.338 C 
ATOM     31  O   UNL A   1      40.399  23.821  26.325  1.00  0.00    -0.246 OA
BRANCH  30  32
ATOM     32  C   UNL A   1      40.860  25.700  27.692  1.00  0.00     0.060 A 
ATOM     33  C   UNL A   1      41.709  26.814  27.727  1.00  0.00     0.016 A 
ATOM     34  C   UNL A   1      39.744  25.633  28.531  1.00  0.00     0.016 A 
ATOM     35  C   UNL A   1      41.471  27.844  28.634  1.00  0.00     0.010 A 
ATOM     36  C   UNL A   1      39.513  26.666  29.446  1.00  0.00     0.010 A 
ATOM     37  C   UNL A   1      40.393  27.760  29.524  1.00  0.00    -0.014 A 
BRANCH  37  38
ATOM     38  C   UNL A   1      40.264  28.752  30.618  1.00  0.00     0.031 A 
ATOM     39  C   UNL A   1      41.155  28.633  31.824  1.00  0.00     0.074 A 
ATOM     40  C   UNL A   1      39.381  29.764  30.528  1.00  0.00     0.049 A 
ATOM     41  N   UNL A   1      41.182  29.363  32.909  1.00  0.00    -0.248 NA
ATOM     42  C   UNL A   1      42.148  27.546  31.805  1.00  0.00     0.031 C 
ATOM     43  C   UNL A   1      38.494  30.008  29.391  1.00  0.00     0.029 A 
ATOM     44  N   UNL A   1      39.083  30.772  31.410  1.00  0.00    -0.354 N 
ATOM     45  C   UNL A   1      42.187  28.824  33.703  1.00  0.00     0.074 A 
ATOM     46  C   UNL A   1      42.728  27.688  32.988  1.00  0.00     0.031 C 
ATOM     47  C   UNL A   1      37.745  31.093  29.649  1.00  0.00     0.029 A 
ATOM     48  C   UNL A   1      38.075  31.601  30.980  1.00  0.00     0.049 A 
ATOM     49  H   UNL A   1      39.547  30.890  32.270  1.00  0.00     0.167 HD
ATOM     50  C   UNL A   1      42.625  29.244  34.912  1.00  0.00     0.037 A 
ATOM     51  C   UNL A   1      37.472  32.638  31.598  1.00  0.00     0.037 A 
ATOM     52  C   UNL A   1      42.088  30.380  35.615  1.00  0.00     0.049 A 
ATOM     53  C   UNL A   1      37.930  33.048  32.973  1.00  0.00     0.074 A 
ATOM     54  C   UNL A   1      42.480  30.897  36.838  1.00  0.00     0.029 A 
ATOM     55  N   UNL A   1      41.041  31.170  35.164  1.00  0.00    -0.354 N 
ATOM     56  N   UNL A   1      38.889  32.536  33.707  1.00  0.00    -0.248 NA
ATOM     57  C   UNL A   1      37.224  34.171  33.606  1.00  0.00     0.031 C 
ATOM     58  C   UNL A   1      41.640  31.970  37.148  1.00  0.00     0.029 A 
ATOM     59  C   UNL A   1      40.756  32.155  36.095  1.00  0.00     0.049 A 
ATOM     60  H   UNL A   1      40.570  31.049  34.308  1.00  0.00     0.167 HD
ATOM     61  C   UNL A   1      38.915  33.286  34.878  1.00  0.00     0.074 A 
ATOM     62  C   UNL A   1      37.882  34.294  34.751  1.00  0.00     0.031 C 
ATOM     63  C   UNL A   1      39.724  33.152  35.958  1.00  0.00     0.037 A 
BRANCH  50  64
ATOM     64  C   UNL A   1      43.732  28.466  35.568  1.00  0.00     0.058 A 
ATOM     65  C   UNL A   1      43.436  27.462  36.503  1.00  0.00     0.135 A 
ATOM     66  C   UNL A   1      45.082  28.752  35.317  1.00  0.00     0.135 A 
ATOM     67  F   UNL A   1      42.161  27.142  36.772  1.00  0.00    -0.206 F 
ATOM     68  C   UNL A   1      44.442  26.778  37.178  1.00  0.00     0.059 A 
ATOM     69  C   UNL A   1      46.106  28.064  35.963  1.00  0.00     0.059 A 
ATOM     70  F   UNL A   1      45.418  29.688  34.414  1.00  0.00    -0.206 F 
ATOM     71  C   UNL A   1      45.774  27.089  36.903  1.00  0.00     0.060 A 
BRANCH  71  72
ATOM     72  S   UNL A   1      47.068  26.169  37.765  1.00  0.00     0.124 S 
ATOM     73  O   UNL A   1      46.288  25.217  38.547  1.00  0.00    -0.237 OA
ATOM     74  O   UNL A   1      47.836  25.609  36.657  1.00  0.00    -0.237 OA
ATOM     75  O   UNL A   1      47.759  27.201  38.534  1.00  0.00    -0.744 OA
ENDBRANCH  71  72
ENDBRANCH  50  64
BRANCH  51  76
ATOM     76  C   UNL A   1      36.366  33.354  30.912  1.00  0.00     0.058 A 
ATOM     77  C   UNL A   1      36.619  34.223  29.839  1.00  0.00     0.135 A 
ATOM     78  C   UNL A   1      35.038  33.219  31.344  1.00  0.00     0.135 A 
ATOM     79  F   UNL A   1      37.873  34.391  29.390  1.00  0.00    -0.206 F 
ATOM     80  C   UNL A   1      35.602  34.958  29.241  1.00  0.00     0.059 A 
ATOM     81  C   UNL A   1      33.999  33.927  30.746  1.00  0.00     0.059 A 
ATOM     82  F   UNL A   1      34.745  32.386  32.355  1.00  0.00    -0.206 F 
ATOM     83  C   UNL A   1      34.296  34.811  29.709  1.00  0.00     0.060 A 
BRANCH  83  84
ATOM     84  S   UNL A   1      32.998  35.806  28.946  1.00  0.00     0.124 S 
ATOM     85  O   UNL A   1      32.224  36.217  30.113  1.00  0.00    -0.237 OA
ATOM     86  O   UNL A   1      33.765  36.859  28.289  1.00  0.00    -0.237 OA
ATOM     87  O   UNL A   1      32.332  34.866  28.050  1.00  0.00    -0.744 OA
ENDBRANCH  83  84
ENDBRANCH  51  76
BRANCH  63  88
ATOM     88  C   UNL A   1      39.548  34.122  37.094  1.00  0.00     0.058 A 
ATOM     89  C   UNL A   1      40.215  35.357  37.087  1.00  0.00     0.135 A 
ATOM     90  C   UNL A   1      38.797  33.788  38.233  1.00  0.00     0.135 A 
ATOM     91  F   UNL A   1      40.950  35.722  36.024  1.00  0.00    -0.206 F 
ATOM     92  C   UNL A   1      40.164  36.218  38.177  1.00  0.00     0.059 A 
ATOM     93  C   UNL A   1      38.713  34.646  39.327  1.00  0.00     0.059 A 
ATOM     94  F   UNL A   1      38.132  32.624  38.286  1.00  0.00    -0.206 F 
ATOM     95  C   UNL A   1      39.416  35.851  39.296  1.00  0.00     0.060 A 
BRANCH  95  96
ATOM     96  S   UNL A   1      39.364  36.979  40.705  1.00  0.00     0.124 S 
ATOM     97  O   UNL A   1      38.631  38.113  40.154  1.00  0.00    -0.237 OA
ATOM     98  O   UNL A   1      38.655  36.190  41.707  1.00  0.00    -0.237 OA
ATOM     99  O   UNL A   1      40.775  37.224  40.995  1.00  0.00    -0.744 OA
ENDBRANCH  95  96
ENDBRANCH  63  88
ENDBRANCH  37  38
ENDBRANCH  30  32
ENDBRANCH  29  30
ENDBRANCH  28  29
ENDBRANCH  27  28
ENDBRANCH   1  27
TORSDOF 20
ENDMDL
MODEL 2
REMARK VINA RESULT:     -11.0      6.449     12.329
REMARK SMILES O=C(Nc1ccc(/C=C/C(=O)OCCOCCOC(=O)c2ccc(-c3c4nc(c(-c5c(F)cc(S(=O)(=O)[O-])cc5F)c5ccc([nH]5)c(-c5c(F)cc(S(=O)(=O)[O-])cc5F)c5nc(c(-c6c(F)cc(S(=O)(=O)[O-])cc6F)c6ccc3[nH]6)C=C5)C=C4)cc2)cc1F)NC1CCCC1
REMARK SMILES IDX 15 1 14 2 13 3 12 4 10 5 11 6 9 7 8 8 7 9 4 10 5 11 88 12
REMARK SMILES IDX 6 13 87 14 89 15 3 16 1 17 2 18 90 19 91 22 92 23 95 24
REMARK SMILES IDX 93 25 94 26 16 27 17 28 18 29 19 30 20 31 21 32 22 33 86 34
REMARK SMILES IDX 23 35 85 36 24 37 25 38 26 39 79 40 27 41 84 42 78 43 80 44
REMARK SMILES IDX 28 45 83 46 77 47 76 48 29 50 63 51 42 52 62 53 43 54 46 55
REMARK SMILES IDX 61 56 81 57 44 58 45 59 60 61 82 62 47 63 30 64 31 65 40 66
REMARK SMILES IDX 32 67 33 68 39 69 41 70 34 71 35 72 36 73 37 74 38 75 64 76
REMARK SMILES IDX 65 77 74 78 66 79 67 80 73 81 75 82 68 83 69 84 70 85 71 86
REMARK SMILES IDX 72 87 48 88 49 89 58 90 50 91 51 92 57 93 59 94 52 95 53 96
REMARK SMILES IDX 54 97 55 98 56 99
REMARK H PARENT 3 20 90 21 80 49 46 60
REMARK Flexibility Score: inf
ROOT
ATOM      1  O   UNL A   1      33.739  34.008  31.228  1.00  0.00    -0.374 OA
ENDROOT
BRANCH   1   2
ATOM      2  C   UNL A   1      33.658  34.704  29.984  1.00  0.00     0.202 C 
BRANCH   2   3
ATOM      3  C   UNL A   1      33.401  33.831  28.754  1.00  0.00     0.261 C 
BRANCH   3   4
ATOM      4  O   UNL A   1      34.525  33.863  27.860  1.00  0.00    -0.460 OA
BRANCH   4   5
ATOM      5  C   UNL A   1      35.301  32.756  27.866  1.00  0.00     0.330 C 
ATOM      6  O   UNL A   1      36.473  32.681  28.206  1.00  0.00    -0.247 OA
BRANCH   5   7
ATOM      7  C   UNL A   1      34.552  31.550  27.463  1.00  0.00     0.094 C 
ATOM      8  C   UNL A   1      34.955  30.277  27.608  1.00  0.00     0.016 C 
BRANCH   8   9
ATOM      9  C   UNL A   1      34.098  29.157  27.198  1.00  0.00    -0.022 A 
ATOM     10  C   UNL A   1      32.280  27.254  26.190  1.00  0.00     0.078 A 
ATOM     11  C   UNL A   1      33.605  27.256  25.752  1.00  0.00     0.030 A 
ATOM     12  C   UNL A   1      31.930  28.105  27.245  1.00  0.00     0.147 A 
ATOM     13  C   UNL A   1      34.503  28.211  26.245  1.00  0.00     0.010 A 
ATOM     14  C   UNL A   1      32.822  29.047  27.749  1.00  0.00     0.049 A 
ATOM     15  F   UNL A   1      30.705  28.054  27.787  1.00  0.00    -0.205 F 
BRANCH  10  16
ATOM     16  N   UNL A   1      31.375  26.412  25.513  1.00  0.00    -0.305 N 
ATOM     17  O   UNL A   1      29.708  25.811  24.137  1.00  0.00    -0.248 OA
ATOM     18  C   UNL A   1      30.475  26.692  24.519  1.00  0.00     0.319 C 
ATOM     19  N   UNL A   1      30.584  27.903  23.916  1.00  0.00    -0.335 N 
ATOM     20  H   UNL A   1      31.391  25.471  25.802  1.00  0.00     0.171 HD
ATOM     21  H   UNL A   1      31.265  28.522  24.265  1.00  0.00     0.165 HD
BRANCH  19  22
ATOM     22  C   UNL A   1      29.785  28.361  22.805  1.00  0.00     0.083 C 
ATOM     23  C   UNL A   1      28.417  28.846  23.272  1.00  0.00     0.025 C 
ATOM     24  C   UNL A   1      30.384  29.613  22.167  1.00  0.00     0.025 C 
ATOM     25  C   UNL A   1      27.943  29.743  22.140  1.00  0.00     0.002 C 
ATOM     26  C   UNL A   1      29.206  30.337  21.521  1.00  0.00     0.002 C 
ENDBRANCH  19  22
ENDBRANCH  10  16
ENDBRANCH   8   9
ENDBRANCH   5   7
ENDBRANCH   4   5
ENDBRANCH   3   4
ENDBRANCH   2   3
ENDBRANCH   1   2
BRANCH   1  27
ATOM     27  C   UNL A   1      35.031  33.539  31.620  1.00  0.00     0.202 C 
BRANCH  27  28
ATOM     28  C   UNL A   1      35.256  32.026  31.529  1.00  0.00     0.261 C 
BRANCH  28  29
ATOM     29  O   UNL A   1      36.656  31.693  31.470  1.00  0.00    -0.460 OA
BRANCH  29  30
ATOM     30  C   UNL A   1      36.925  30.430  31.060  1.00  0.00     0.338 C 
ATOM     31  O   UNL A   1      36.127  29.513  30.929  1.00  0.00    -0.246 OA
BRANCH  30  32
ATOM     32  C   UNL A   1      38.324  30.336  30.602  1.00  0.00     0.060 A 
ATOM     33  C   UNL A   1      38.546  30.207  29.225  1.00  0.00     0.016 A 
ATOM     34  C   UNL A   1      39.395  30.313  31.498  1.00  0.00     0.016 A 
ATOM     35  C   UNL A   1      39.838  30.006  28.742  1.00  0.00     0.010 A 
ATOM     36  C   UNL A   1      40.690  30.104  31.011  1.00  0.00     0.010 A 
ATOM     37  C   UNL A   1      40.914  29.917  29.635  1.00  0.00    -0.014 A 
BRANCH  37  38
ATOM     38  C   UNL A   1      42.248  29.502  29.140  1.00  0.00     0.031 A 
ATOM     39  C   UNL A   1      42.449  28.086  28.674  1.00  0.00     0.074 A 
ATOM     40  C   UNL A   1      43.264  30.382  29.082  1.00  0.00     0.049 A 
ATOM     41  N   UNL A   1      43.536  27.501  28.244  1.00  0.00    -0.248 NA
ATOM     42  C   UNL A   1      41.263  27.211  28.696  1.00  0.00     0.031 C 
ATOM     43  C   UNL A   1      43.181  31.791  29.465  1.00  0.00     0.029 A 
ATOM     44  N   UNL A   1      44.566  30.219  28.680  1.00  0.00    -0.354 N 
ATOM     45  C   UNL A   1      43.172  26.193  27.948  1.00  0.00     0.074 A 
ATOM     46  C   UNL A   1      41.769  26.060  28.274  1.00  0.00     0.031 C 
ATOM     47  C   UNL A   1      44.383  32.362  29.287  1.00  0.00     0.029 A 
ATOM     48  C   UNL A   1      45.330  31.355  28.809  1.00  0.00     0.049 A 
ATOM     49  H   UNL A   1      44.921  29.369  28.333  1.00  0.00     0.167 HD
ATOM     50  C   UNL A   1      43.936  25.197  27.442  1.00  0.00     0.037 A 
ATOM     51  C   UNL A   1      46.645  31.554  28.588  1.00  0.00     0.037 A 
ATOM     52  C   UNL A   1      45.331  25.338  27.113  1.00  0.00     0.049 A 
ATOM     53  C   UNL A   1      47.492  30.414  28.088  1.00  0.00     0.074 A 
ATOM     54  C   UNL A   1      46.185  24.392  26.575  1.00  0.00     0.029 A 
ATOM     55  N   UNL A   1      46.077  26.494  27.295  1.00  0.00    -0.354 N 
ATOM     56  N   UNL A   1      47.132  29.186  27.803  1.00  0.00    -0.248 NA
ATOM     57  C   UNL A   1      48.923  30.683  27.884  1.00  0.00     0.031 C 
ATOM     58  C   UNL A   1      47.459  24.959  26.475  1.00  0.00     0.029 A 
ATOM     59  C   UNL A   1      47.388  26.276  26.904  1.00  0.00     0.049 A 
ATOM     60  H   UNL A   1      45.726  27.342  27.649  1.00  0.00     0.167 HD
ATOM     61  C   UNL A   1      48.285  28.542  27.366  1.00  0.00     0.074 A 
ATOM     62  C   UNL A   1      49.354  29.519  27.417  1.00  0.00     0.031 C 
ATOM     63  C   UNL A   1      48.443  27.257  26.960  1.00  0.00     0.037 A 
BRANCH  50  64
ATOM     64  C   UNL A   1      43.290  23.858  27.225  1.00  0.00     0.058 A 
ATOM     65  C   UNL A   1      42.684  23.553  25.997  1.00  0.00     0.135 A 
ATOM     66  C   UNL A   1      43.220  22.899  28.248  1.00  0.00     0.135 A 
ATOM     67  F   UNL A   1      42.730  24.430  24.983  1.00  0.00    -0.206 F 
ATOM     68  C   UNL A   1      42.016  22.349  25.795  1.00  0.00     0.059 A 
ATOM     69  C   UNL A   1      42.578  21.679  28.060  1.00  0.00     0.059 A 
ATOM     70  F   UNL A   1      43.805  23.133  29.434  1.00  0.00    -0.206 F 
ATOM     71  C   UNL A   1      41.966  21.420  26.834  1.00  0.00     0.060 A 
BRANCH  71  72
ATOM     72  S   UNL A   1      41.122  19.850  26.544  1.00  0.00     0.124 S 
ATOM     73  O   UNL A   1      40.965  19.338  27.901  1.00  0.00    -0.237 OA
ATOM     74  O   UNL A   1      39.896  20.279  25.877  1.00  0.00    -0.237 OA
ATOM     75  O   UNL A   1      42.059  19.115  25.698  1.00  0.00    -0.744 OA
ENDBRANCH  71  72
ENDBRANCH  50  64
BRANCH  51  76
ATOM     76  C   UNL A   1      47.235  32.894  28.845  1.00  0.00     0.058 A 
ATOM     77  C   UNL A   1      47.706  33.246  30.119  1.00  0.00     0.135 A 
ATOM     78  C   UNL A   1      47.299  33.863  27.833  1.00  0.00     0.135 A 
ATOM     79  F   UNL A   1      47.662  32.357  31.123  1.00  0.00    -0.206 F 
ATOM     80  C   UNL A   1      48.187  34.522  30.391  1.00  0.00     0.059 A 
ATOM     81  C   UNL A   1      47.798  35.139  28.074  1.00  0.00     0.059 A 
ATOM     82  F   UNL A   1      46.878  33.566  26.594  1.00  0.00    -0.206 F 
ATOM     83  C   UNL A   1      48.219  35.465  29.363  1.00  0.00     0.060 A 
BRANCH  83  84
ATOM     84  S   UNL A   1      48.808  37.128  29.748  1.00  0.00     0.124 S 
ATOM     85  O   UNL A   1      48.715  37.139  31.204  1.00  0.00    -0.237 OA
ATOM     86  O   UNL A   1      50.160  37.109  29.198  1.00  0.00    -0.237 OA
ATOM     87  O   UNL A   1      47.862  37.993  29.050  1.00  0.00    -0.744 OA
ENDBRANCH  83  84
ENDBRANCH  51  76
BRANCH  63  88
ATOM     88  C   UNL A   1      49.812  26.821  26.518  1.00  0.00     0.058 A 
ATOM     89  C   UNL A   1      50.170  26.864  25.161  1.00  0.00     0.135 A 
ATOM     90  C   UNL A   1      50.735  26.272  27.423  1.00  0.00     0.135 A 
ATOM     91  F   UNL A   1      49.322  27.375  24.253  1.00  0.00    -0.206 F 
ATOM     92  C   UNL A   1      51.383  26.355  24.712  1.00  0.00     0.059 A 
ATOM     93  C   UNL A   1      51.966  25.780  26.999  1.00  0.00     0.059 A 
ATOM     94  F   UNL A   1      50.446  26.219  28.732  1.00  0.00    -0.206 F 
ATOM     95  C   UNL A   1      52.273  25.808  25.637  1.00  0.00     0.060 A 
BRANCH  95  96
ATOM     96  S   UNL A   1      53.843  25.149  25.037  1.00  0.00     0.124 S 
ATOM     97  O   UNL A   1      53.500  23.757  24.767  1.00  0.00    -0.237 OA
ATOM     98  O   UNL A   1      54.098  25.979  23.864  1.00  0.00    -0.237 OA
ATOM     99  O   UNL A   1      54.753  25.366  26.158  1.00  0.00    -0.744 OA
ENDBRANCH  95  96
ENDBRANCH  63  88
ENDBRANCH  37  38
ENDBRANCH  30  32
ENDBRANCH  29  30
ENDBRANCH  28  29
ENDBRANCH  27  28
ENDBRANCH   1  27
TORSDOF 20
ENDMDL
MODEL 3
REMARK VINA RESULT:     -11.0      0.563      8.135
REMARK SMILES O=C(Nc1ccc(/C=C/C(=O)OCCOCCOC(=O)c2ccc(-c3c4nc(c(-c5c(F)cc(S(=O)(=O)[O-])cc5F)c5ccc([nH]5)c(-c5c(F)cc(S(=O)(=O)[O-])cc5F)c5nc(c(-c6c(F)cc(S(=O)(=O)[O-])cc6F)c6ccc3[nH]6)C=C5)C=C4)cc2)cc1F)NC1CCCC1
REMARK SMILES IDX 15 1 14 2 13 3 12 4 10 5 11 6 9 7 8 8 7 9 4 10 5 11 88 12
REMARK SMILES IDX 6 13 87 14 89 15 3 16 1 17 2 18 90 19 91 22 92 23 95 24
REMARK SMILES IDX 93 25 94 26 16 27 17 28 18 29 19 30 20 31 21 32 22 33 86 34
REMARK SMILES IDX 23 35 85 36 24 37 25 38 26 39 79 40 27 41 84 42 78 43 80 44
REMARK SMILES IDX 28 45 83 46 77 47 76 48 29 50 63 51 42 52 62 53 43 54 46 55
REMARK SMILES IDX 61 56 81 57 44 58 45 59 60 61 82 62 47 63 30 64 31 65 40 66
REMARK SMILES IDX 32 67 33 68 39 69 41 70 34 71 35 72 36 73 37 74 38 75 64 76
REMARK SMILES IDX 65 77 74 78 66 79 67 80 73 81 75 82 68 83 69 84 70 85 71 86
REMARK SMILES IDX 72 87 48 88 49 89 58 90 50 91 51 92 57 93 59 94 52 95 53 96
REMARK SMILES IDX 54 97 55 98 56 99
REMARK H PARENT 3 20 90 21 80 49 46 60
REMARK Flexibility Score: inf
ROOT
ATOM      1  O   UNL A   1      42.859  22.259  25.016  1.00  0.00    -0.374 OA
ENDROOT
BRANCH   1   2
ATOM      2  C   UNL A   1      43.063  21.314  26.067  1.00  0.00     0.202 C 
BRANCH   2   3
ATOM      3  C   UNL A   1      41.810  20.918  26.851  1.00  0.00     0.261 C 
BRANCH   3   4
ATOM      4  O   UNL A   1      40.621  21.265  26.123  1.00  0.00    -0.460 OA
BRANCH   4   5
ATOM      5  C   UNL A   1      39.876  20.221  25.696  1.00  0.00     0.330 C 
ATOM      6  O   UNL A   1      40.203  19.043  25.680  1.00  0.00    -0.247 OA
BRANCH   5   7
ATOM      7  C   UNL A   1      38.521  20.637  25.284  1.00  0.00     0.094 C 
ATOM      8  C   UNL A   1      38.017  21.880  25.344  1.00  0.00     0.016 C 
BRANCH   8   9
ATOM      9  C   UNL A   1      36.660  22.174  24.866  1.00  0.00    -0.022 A 
ATOM     10  C   UNL A   1      34.081  23.053  24.147  1.00  0.00     0.078 A 
ATOM     11  C   UNL A   1      35.128  23.133  23.229  1.00  0.00     0.030 A 
ATOM     12  C   UNL A   1      34.310  22.385  25.355  1.00  0.00     0.147 A 
ATOM     13  C   UNL A   1      36.412  22.708  23.593  1.00  0.00     0.010 A 
ATOM     14  C   UNL A   1      35.580  21.947  25.719  1.00  0.00     0.049 A 
ATOM     15  F   UNL A   1      33.307  22.170  26.219  1.00  0.00    -0.205 F 
BRANCH  10  16
ATOM     16  N   UNL A   1      32.867  23.682  23.802  1.00  0.00    -0.305 N 
ATOM     17  O   UNL A   1      31.186  25.165  23.880  1.00  0.00    -0.248 OA
ATOM     18  C   UNL A   1      32.315  24.852  24.251  1.00  0.00     0.319 C 
ATOM     19  N   UNL A   1      33.117  25.669  24.980  1.00  0.00    -0.335 N 
ATOM     20  H   UNL A   1      32.329  23.201  23.132  1.00  0.00     0.171 HD
ATOM     21  H   UNL A   1      34.025  25.347  25.184  1.00  0.00     0.165 HD
BRANCH  19  22
ATOM     22  C   UNL A   1      32.751  26.972  25.481  1.00  0.00     0.083 C 
ATOM     23  C   UNL A   1      31.584  26.881  26.457  1.00  0.00     0.025 C 
ATOM     24  C   UNL A   1      33.862  27.568  26.344  1.00  0.00     0.025 C 
ATOM     25  C   UNL A   1      31.676  28.170  27.257  1.00  0.00     0.002 C 
ATOM     26  C   UNL A   1      33.159  28.533  27.293  1.00  0.00     0.002 C 
ENDBRANCH  19  22
ENDBRANCH  10  16
ENDBRANCH   8   9
ENDBRANCH   5   7
ENDBRANCH   4   5
ENDBRANCH   3   4
ENDBRANCH   2   3
ENDBRANCH   1   2
BRANCH   1  27
ATOM     27  C   UNL A   1      43.776  23.352  24.947  1.00  0.00     0.202 C 
BRANCH  27  28
ATOM     28  C   UNL A   1      43.195  24.740  25.242  1.00  0.00     0.261 C 
BRANCH  28  29
ATOM     29  O   UNL A   1      42.743  24.855  26.604  1.00  0.00    -0.460 OA
BRANCH  29  30
ATOM     30  C   UNL A   1      41.399  24.937  26.755  1.00  0.00     0.338 C 
ATOM     31  O   UNL A   1      40.558  24.186  26.279  1.00  0.00    -0.246 OA
BRANCH  30  32
ATOM     32  C   UNL A   1      41.064  25.976  27.746  1.00  0.00     0.060 A 
ATOM     33  C   UNL A   1      41.943  27.059  27.870  1.00  0.00     0.016 A 
ATOM     34  C   UNL A   1      39.948  25.869  28.580  1.00  0.00     0.016 A 
ATOM     35  C   UNL A   1      41.737  28.016  28.862  1.00  0.00     0.010 A 
ATOM     36  C   UNL A   1      39.748  26.828  29.580  1.00  0.00     0.010 A 
ATOM     37  C   UNL A   1      40.659  27.887  29.746  1.00  0.00    -0.014 A 
BRANCH  37  38
ATOM     38  C   UNL A   1      40.559  28.786  30.921  1.00  0.00     0.031 A 
ATOM     39  C   UNL A   1      39.530  29.884  30.917  1.00  0.00     0.074 A 
ATOM     40  C   UNL A   1      41.357  28.611  31.990  1.00  0.00     0.049 A 
ATOM     41  N   UNL A   1      39.298  30.805  31.816  1.00  0.00    -0.248 NA
ATOM     42  C   UNL A   1      38.644  29.953  29.743  1.00  0.00     0.031 C 
ATOM     43  C   UNL A   1      42.361  27.558  32.128  1.00  0.00     0.029 A 
ATOM     44  N   UNL A   1      41.449  29.320  33.162  1.00  0.00    -0.354 N 
ATOM     45  C   UNL A   1      38.247  31.565  31.318  1.00  0.00     0.074 A 
ATOM     46  C   UNL A   1      37.904  31.016  30.024  1.00  0.00     0.031 C 
ATOM     47  C   UNL A   1      42.975  27.694  33.315  1.00  0.00     0.029 A 
ATOM     48  C   UNL A   1      42.431  28.862  34.008  1.00  0.00     0.049 A 
ATOM     49  H   UNL A   1      40.867  30.085  33.376  1.00  0.00     0.167 HD
ATOM     50  C   UNL A   1      37.620  32.618  31.891  1.00  0.00     0.037 A 
ATOM     51  C   UNL A   1      42.857  29.342  35.194  1.00  0.00     0.037 A 
ATOM     52  C   UNL A   1      37.962  33.155  33.183  1.00  0.00     0.049 A 
ATOM     53  C   UNL A   1      42.189  30.556  35.784  1.00  0.00     0.074 A 
ATOM     54  C   UNL A   1      37.370  34.208  33.858  1.00  0.00     0.029 A 
ATOM     55  N   UNL A   1      38.988  32.687  33.991  1.00  0.00    -0.354 N 
ATOM     56  N   UNL A   1      41.189  31.258  35.307  1.00  0.00    -0.248 NA
ATOM     57  C   UNL A   1      42.708  31.046  37.069  1.00  0.00     0.031 C 
ATOM     58  C   UNL A   1      38.068  34.408  35.053  1.00  0.00     0.029 A 
ATOM     59  C   UNL A   1      39.064  33.447  35.146  1.00  0.00     0.049 A 
ATOM     60  H   UNL A   1      39.576  31.928  33.775  1.00  0.00     0.167 HD
ATOM     61  C   UNL A   1      40.946  32.259  36.241  1.00  0.00     0.074 A 
ATOM     62  C   UNL A   1      41.897  32.067  37.316  1.00  0.00     0.031 C 
ATOM     63  C   UNL A   1      40.016  33.246  36.210  1.00  0.00     0.037 A 
BRANCH  50  64
ATOM     64  C   UNL A   1      36.507  33.276  31.125  1.00  0.00     0.058 A 
ATOM     65  C   UNL A   1      36.794  34.105  30.029  1.00  0.00     0.135 A 
ATOM     66  C   UNL A   1      35.165  33.133  31.507  1.00  0.00     0.135 A 
ATOM     67  F   UNL A   1      38.060  34.268  29.616  1.00  0.00    -0.206 F 
ATOM     68  C   UNL A   1      35.788  34.784  29.349  1.00  0.00     0.059 A 
ATOM     69  C   UNL A   1      34.140  33.784  30.826  1.00  0.00     0.059 A 
ATOM     70  F   UNL A   1      34.836  32.333  32.534  1.00  0.00    -0.206 F 
ATOM     71  C   UNL A   1      34.464  34.619  29.757  1.00  0.00     0.060 A 
BRANCH  71  72
ATOM     72  S   UNL A   1      33.168  35.482  28.842  1.00  0.00     0.124 S 
ATOM     73  O   UNL A   1      33.944  36.400  28.016  1.00  0.00    -0.237 OA
ATOM     74  O   UNL A   1      32.510  34.387  28.135  1.00  0.00    -0.237 OA
ATOM     75  O   UNL A   1      32.368  36.104  29.895  1.00  0.00    -0.744 OA
ENDBRANCH  71  72
ENDBRANCH  50  64
BRANCH  51  76
ATOM     76  C   UNL A   1      43.979  28.666  35.895  1.00  0.00     0.058 A 
ATOM     77  C   UNL A   1      45.313  29.019  35.637  1.00  0.00     0.135 A 
ATOM     78  C   UNL A   1      43.743  27.624  36.804  1.00  0.00     0.135 A 
ATOM     79  F   UNL A   1      45.593  30.006  34.772  1.00  0.00    -0.206 F 
ATOM     80  C   UNL A   1      46.373  28.341  36.228  1.00  0.00     0.059 A 
ATOM     81  C   UNL A   1      44.786  26.946  37.426  1.00  0.00     0.059 A 
ATOM     82  F   UNL A   1      42.483  27.264  37.097  1.00  0.00    -0.206 F 
ATOM     83  C   UNL A   1      46.099  27.298  37.114  1.00  0.00     0.060 A 
BRANCH  83  84
ATOM     84  S   UNL A   1      47.491  26.404  37.837  1.00  0.00     0.124 S 
ATOM     85  O   UNL A   1      47.265  26.619  39.262  1.00  0.00    -0.237 OA
ATOM     86  O   UNL A   1      47.265  25.045  37.355  1.00  0.00    -0.237 OA
ATOM     87  O   UNL A   1      48.656  27.081  37.276  1.00  0.00    -0.744 OA
ENDBRANCH  83  84
ENDBRANCH  51  76
BRANCH  63  88
ATOM     88  C   UNL A   1      39.959  34.196  37.375  1.00  0.00     0.058 A 
ATOM     89  C   UNL A   1      39.050  33.984  38.423  1.00  0.00     0.135 A 
ATOM     90  C   UNL A   1      40.734  35.366  37.405  1.00  0.00     0.135 A 
ATOM     91  F   UNL A   1      38.281  32.883  38.439  1.00  0.00    -0.206 F 
ATOM     92  C   UNL A   1      38.893  34.908  39.449  1.00  0.00     0.059 A 
ATOM     93  C   UNL A   1      40.611  36.295  38.436  1.00  0.00     0.059 A 
ATOM     94  F   UNL A   1      41.626  35.611  36.433  1.00  0.00    -0.206 F 
ATOM     95  C   UNL A   1      39.673  36.065  39.444  1.00  0.00     0.060 A 
BRANCH  95  96
ATOM     96  S   UNL A   1      39.454  37.258  40.781  1.00  0.00     0.124 S 
ATOM     97  O   UNL A   1      38.408  38.121  40.245  1.00  0.00    -0.237 OA
ATOM     98  O   UNL A   1      39.061  36.402  41.897  1.00  0.00    -0.237 OA
ATOM     99  O   UNL A   1      40.773  37.872  40.908  1.00  0.00    -0.744 OA
ENDBRANCH  95  96
ENDBRANCH  63  88
ENDBRANCH  37  38
ENDBRANCH  30  32
ENDBRANCH  29  30
ENDBRANCH  28  29
ENDBRANCH  27  28
ENDBRANCH   1  27
TORSDOF 20
ENDMDL
