MODEL 1
REMARK VINA RESULT:     -11.2      0.000      0.000
REMARK SMILES CCc1cc(OC(F)(F)F)cc2c1O[C@H](C(F)(F)F)C(C(=O)OCCOCCOC(=O)c1ccc(-c3c4nc(c(-c5c(F)cc(S(=O)(=O)[O-])cc5F)c5ccc([nH]5)c(-c5c(F)cc(S(=O)(=O)[O-])cc5F)c5nc(c(-c6c(F)cc(S(=O)(=O)[O-])cc6F)c6ccc3[nH]6)C=C5)C=C4)cc1)=C2
REMARK SMILES IDX 27 1 26 2 25 3 24 4 23 5 21 6 22 7 20 8 3 9 4 10 13 11 5 12
REMARK SMILES IDX 12 13 14 14 11 15 98 16 15 17 2 18 1 19 6 20 7 21 8 22 9 23
REMARK SMILES IDX 10 24 16 25 17 26 18 27 19 28 28 29 29 30 30 31 31 32 32 33
REMARK SMILES IDX 33 34 97 35 34 36 96 37 35 38 36 39 37 40 90 41 38 42 95 43
REMARK SMILES IDX 89 44 91 45 39 46 94 47 88 48 87 49 40 51 74 52 53 53 73 54
REMARK SMILES IDX 54 55 57 56 72 57 92 58 55 59 56 60 71 62 93 63 58 64 41 65
REMARK SMILES IDX 42 66 51 67 43 68 44 69 50 70 52 71 45 72 46 73 47 74 48 75
REMARK SMILES IDX 49 76 75 77 76 78 85 79 77 80 78 81 84 82 86 83 79 84 80 85
REMARK SMILES IDX 81 86 82 87 83 88 59 89 60 90 69 91 61 92 62 93 68 94 70 95
REMARK SMILES IDX 63 96 64 97 65 98 66 99 67 100
REMARK H PARENT 91 50 57 61
REMARK Flexibility Score: inf
ROOT
ATOM      1  C   UNL A   1      40.572  21.280  26.445  1.00  0.00     0.202 C 
ENDROOT
BRANCH   1   2
ATOM      2  O   UNL A   1      39.299  21.810  26.816  1.00  0.00    -0.374 OA
BRANCH   2   3
ATOM      3  C   UNL A   1      38.511  22.377  25.769  1.00  0.00     0.202 C 
BRANCH   3   4
ATOM      4  C   UNL A   1      37.059  21.896  25.679  1.00  0.00     0.261 C 
BRANCH   4   5
ATOM      5  O   UNL A   1      36.120  22.983  25.801  1.00  0.00    -0.460 OA
BRANCH   5   6
ATOM      6  C   UNL A   1      34.952  22.793  25.145  1.00  0.00     0.338 C 
ATOM      7  O   UNL A   1      34.553  21.739  24.674  1.00  0.00    -0.246 OA
BRANCH   6   8
ATOM      8  C   UNL A   1      34.100  24.000  25.157  1.00  0.00     0.087 C 
ATOM      9  C   UNL A   1      31.471  27.068  24.141  1.00  0.00    -0.002 A 
ATOM     10  C   UNL A   1      31.717  28.368  24.608  1.00  0.00     0.054 A 
ATOM     11  C   UNL A   1      32.382  26.061  24.477  1.00  0.00     0.131 A 
ATOM     12  C   UNL A   1      32.852  28.653  25.376  1.00  0.00     0.130 A 
ATOM     13  C   UNL A   1      33.536  26.325  25.234  1.00  0.00     0.021 A 
ATOM     14  O   UNL A   1      32.126  24.807  23.985  1.00  0.00    -0.475 OA
ATOM     15  C   UNL A   1      33.756  27.626  25.690  1.00  0.00     0.058 A 
ATOM     16  C   UNL A   1      34.519  25.248  25.425  1.00  0.00     0.027 C 
ATOM     17  C   UNL A   1      32.655  23.740  24.803  1.00  0.00     0.316 C 
BRANCH   9  18
ATOM     18  C   UNL A   1      30.280  26.796  23.247  1.00  0.00     0.036 C 
ATOM     19  C   UNL A   1      29.288  27.948  23.142  1.00  0.00     0.009 C 
ENDBRANCH   9  18
BRANCH  12  20
ATOM     20  O   UNL A   1      33.196  29.885  25.862  1.00  0.00    -0.406 OA
BRANCH  20  21
ATOM     21  C   UNL A   1      32.304  30.501  26.778  1.00  0.00     0.573 C 
ATOM     22  F   UNL A   1      31.362  31.227  26.135  1.00  0.00    -0.132 F 
ATOM     23  F   UNL A   1      31.699  29.582  27.562  1.00  0.00    -0.132 F 
ATOM     24  F   UNL A   1      33.001  31.337  27.577  1.00  0.00    -0.132 F 
ENDBRANCH  20  21
ENDBRANCH  12  20
BRANCH  17  25
ATOM     25  C   UNL A   1      31.776  23.453  26.044  1.00  0.00     0.430 C 
ATOM     26  F   UNL A   1      32.262  24.017  27.175  1.00  0.00    -0.167 F 
ATOM     27  F   UNL A   1      30.522  23.943  25.877  1.00  0.00    -0.167 F 
ATOM     28  F   UNL A   1      31.643  22.130  26.306  1.00  0.00    -0.167 F 
ENDBRANCH  17  25
ENDBRANCH   6   8
ENDBRANCH   5   6
ENDBRANCH   4   5
ENDBRANCH   3   4
ENDBRANCH   2   3
ENDBRANCH   1   2
BRANCH   1  29
ATOM     29  C   UNL A   1      41.753  22.255  26.450  1.00  0.00     0.261 C 
BRANCH  29  30
ATOM     30  O   UNL A   1      41.494  23.387  27.297  1.00  0.00    -0.460 OA
BRANCH  30  31
ATOM     31  C   UNL A   1      41.787  24.585  26.740  1.00  0.00     0.338 C 
ATOM     32  O   UNL A   1      42.241  24.783  25.620  1.00  0.00    -0.246 OA
BRANCH  31  33
ATOM     33  C   UNL A   1      41.303  25.678  27.602  1.00  0.00     0.060 A 
ATOM     34  C   UNL A   1      42.125  26.806  27.719  1.00  0.00     0.016 A 
ATOM     35  C   UNL A   1      40.111  25.589  28.326  1.00  0.00     0.016 A 
ATOM     36  C   UNL A   1      41.794  27.817  28.615  1.00  0.00     0.010 A 
ATOM     37  C   UNL A   1      39.783  26.606  29.230  1.00  0.00     0.010 A 
ATOM     38  C   UNL A   1      40.647  27.701  29.410  1.00  0.00    -0.014 A 
BRANCH  38  39
ATOM     39  C   UNL A   1      40.459  28.648  30.535  1.00  0.00     0.031 A 
ATOM     40  C   UNL A   1      41.347  28.524  31.744  1.00  0.00     0.074 A 
ATOM     41  C   UNL A   1      39.556  29.641  30.453  1.00  0.00     0.049 A 
ATOM     42  N   UNL A   1      41.386  29.262  32.823  1.00  0.00    -0.248 NA
ATOM     43  C   UNL A   1      42.323  27.421  31.734  1.00  0.00     0.031 C 
ATOM     44  C   UNL A   1      38.661  29.877  29.319  1.00  0.00     0.029 A 
ATOM     45  N   UNL A   1      39.247  30.641  31.338  1.00  0.00    -0.354 N 
ATOM     46  C   UNL A   1      42.386  28.715  33.620  1.00  0.00     0.074 A 
ATOM     47  C   UNL A   1      42.905  27.563  32.917  1.00  0.00     0.031 C 
ATOM     48  C   UNL A   1      37.901  30.954  29.580  1.00  0.00     0.029 A 
ATOM     49  C   UNL A   1      38.239  31.469  30.906  1.00  0.00     0.049 A 
ATOM     50  H   UNL A   1      39.703  30.755  32.203  1.00  0.00     0.167 HD
ATOM     51  C   UNL A   1      42.840  29.144  34.821  1.00  0.00     0.037 A 
ATOM     52  C   UNL A   1      37.651  32.516  31.516  1.00  0.00     0.037 A 
ATOM     53  C   UNL A   1      42.323  30.296  35.513  1.00  0.00     0.049 A 
ATOM     54  C   UNL A   1      38.140  32.946  32.875  1.00  0.00     0.074 A 
ATOM     55  C   UNL A   1      42.729  30.826  36.724  1.00  0.00     0.029 A 
ATOM     56  N   UNL A   1      41.281  31.090  35.058  1.00  0.00    -0.354 N 
ATOM     57  N   UNL A   1      39.108  32.439  33.601  1.00  0.00    -0.248 NA
ATOM     58  C   UNL A   1      37.462  34.094  33.494  1.00  0.00     0.031 C 
ATOM     59  C   UNL A   1      41.902  31.916  37.022  1.00  0.00     0.029 A 
ATOM     60  C   UNL A   1      41.014  32.093  35.974  1.00  0.00     0.049 A 
ATOM     61  H   UNL A   1      40.802  30.960  34.207  1.00  0.00     0.167 HD
ATOM     62  C   UNL A   1      39.169  33.218  34.752  1.00  0.00     0.074 A 
ATOM     63  C   UNL A   1      38.151  34.240  34.617  1.00  0.00     0.031 C 
ATOM     64  C   UNL A   1      39.994  33.101  35.823  1.00  0.00     0.037 A 
BRANCH  51  65
ATOM     65  C   UNL A   1      43.937  28.350  35.473  1.00  0.00     0.058 A 
ATOM     66  C   UNL A   1      43.663  27.340  36.409  1.00  0.00     0.135 A 
ATOM     67  C   UNL A   1      45.281  28.583  35.138  1.00  0.00     0.135 A 
ATOM     68  F   UNL A   1      42.398  27.088  36.781  1.00  0.00    -0.206 F 
ATOM     69  C   UNL A   1      44.683  26.608  37.009  1.00  0.00     0.059 A 
ATOM     70  C   UNL A   1      46.316  27.845  35.706  1.00  0.00     0.059 A 
ATOM     71  F   UNL A   1      45.599  29.539  34.251  1.00  0.00    -0.206 F 
ATOM     72  C   UNL A   1      46.007  26.869  36.652  1.00  0.00     0.060 A 
BRANCH  72  73
ATOM     73  S   UNL A   1      47.319  25.909  37.435  1.00  0.00     0.124 S 
ATOM     74  O   UNL A   1      46.759  24.561  37.393  1.00  0.00    -0.237 OA
ATOM     75  O   UNL A   1      48.455  26.151  36.550  1.00  0.00    -0.237 OA
ATOM     76  O   UNL A   1      47.428  26.502  38.764  1.00  0.00    -0.744 OA
ENDBRANCH  72  73
ENDBRANCH  51  65
BRANCH  52  77
ATOM     77  C   UNL A   1      36.530  33.230  30.849  1.00  0.00     0.058 A 
ATOM     78  C   UNL A   1      35.208  33.083  31.292  1.00  0.00     0.135 A 
ATOM     79  C   UNL A   1      36.763  34.078  29.756  1.00  0.00     0.135 A 
ATOM     80  F   UNL A   1      34.932  32.276  32.327  1.00  0.00    -0.206 F 
ATOM     81  C   UNL A   1      34.153  33.743  30.668  1.00  0.00     0.059 A 
ATOM     82  C   UNL A   1      35.728  34.768  29.131  1.00  0.00     0.059 A 
ATOM     83  F   UNL A   1      38.012  34.262  29.300  1.00  0.00    -0.206 F 
ATOM     84  C   UNL A   1      34.425  34.586  29.589  1.00  0.00     0.060 A 
BRANCH  84  85
ATOM     85  S   UNL A   1      33.058  35.482  28.820  1.00  0.00     0.124 S 
ATOM     86  O   UNL A   1      33.768  36.476  28.026  1.00  0.00    -0.237 OA
ATOM     87  O   UNL A   1      32.383  34.427  28.071  1.00  0.00    -0.237 OA
ATOM     88  O   UNL A   1      32.313  36.000  29.964  1.00  0.00    -0.744 OA
ENDBRANCH  84  85
ENDBRANCH  52  77
BRANCH  64  89
ATOM     89  C   UNL A   1      39.844  34.115  36.924  1.00  0.00     0.058 A 
ATOM     90  C   UNL A   1      40.408  35.397  36.826  1.00  0.00     0.135 A 
ATOM     91  C   UNL A   1      39.092  33.815  38.071  1.00  0.00     0.135 A 
ATOM     92  F   UNL A   1      41.139  35.733  35.752  1.00  0.00    -0.206 F 
ATOM     93  C   UNL A   1      40.254  36.337  37.839  1.00  0.00     0.059 A 
ATOM     94  C   UNL A   1      38.904  34.749  39.085  1.00  0.00     0.059 A 
ATOM     95  F   UNL A   1      38.522  32.607  38.209  1.00  0.00    -0.206 F 
ATOM     96  C   UNL A   1      39.501  36.003  38.967  1.00  0.00     0.060 A 
BRANCH  96  97
ATOM     97  S   UNL A   1      39.291  37.238  40.267  1.00  0.00     0.124 S 
ATOM     98  O   UNL A   1      38.526  36.490  41.260  1.00  0.00    -0.237 OA
ATOM     99  O   UNL A   1      40.671  37.546  40.631  1.00  0.00    -0.237 OA
ATOM    100  O   UNL A   1      38.570  38.316  39.599  1.00  0.00    -0.744 OA
ENDBRANCH  96  97
ENDBRANCH  64  89
ENDBRANCH  38  39
ENDBRANCH  31  33
ENDBRANCH  30  31
ENDBRANCH  29  30
ENDBRANCH   1  29
TORSDOF 21
ENDMDL
MODEL 2
REMARK VINA RESULT:     -10.6      4.772      6.326
REMARK SMILES CCc1cc(OC(F)(F)F)cc2c1O[C@H](C(F)(F)F)C(C(=O)OCCOCCOC(=O)c1ccc(-c3c4nc(c(-c5c(F)cc(S(=O)(=O)[O-])cc5F)c5ccc([nH]5)c(-c5c(F)cc(S(=O)(=O)[O-])cc5F)c5nc(c(-c6c(F)cc(S(=O)(=O)[O-])cc6F)c6ccc3[nH]6)C=C5)C=C4)cc1)=C2
REMARK SMILES IDX 27 1 26 2 25 3 24 4 23 5 21 6 22 7 20 8 3 9 4 10 13 11 5 12
REMARK SMILES IDX 12 13 14 14 11 15 98 16 15 17 2 18 1 19 6 20 7 21 8 22 9 23
REMARK SMILES IDX 10 24 16 25 17 26 18 27 19 28 28 29 29 30 30 31 31 32 32 33
REMARK SMILES IDX 33 34 97 35 34 36 96 37 35 38 36 39 37 40 90 41 38 42 95 43
REMARK SMILES IDX 89 44 91 45 39 46 94 47 88 48 87 49 40 51 74 52 53 53 73 54
REMARK SMILES IDX 54 55 57 56 72 57 92 58 55 59 56 60 71 62 93 63 58 64 41 65
REMARK SMILES IDX 42 66 51 67 43 68 44 69 50 70 52 71 45 72 46 73 47 74 48 75
REMARK SMILES IDX 49 76 75 77 76 78 85 79 77 80 78 81 84 82 86 83 79 84 80 85
REMARK SMILES IDX 81 86 82 87 83 88 59 89 60 90 69 91 61 92 62 93 68 94 70 95
REMARK SMILES IDX 63 96 64 97 65 98 66 99 67 100
REMARK H PARENT 91 50 57 61
REMARK Flexibility Score: inf
ROOT
ATOM      1  C   UNL A   1      34.405  23.574  25.549  1.00  0.00     0.202 C 
ENDROOT
BRANCH   1   2
ATOM      2  O   UNL A   1      33.318  22.856  24.964  1.00  0.00    -0.374 OA
BRANCH   2   3
ATOM      3  C   UNL A   1      33.588  22.164  23.746  1.00  0.00     0.202 C 
BRANCH   3   4
ATOM      4  C   UNL A   1      33.635  23.022  22.476  1.00  0.00     0.261 C 
BRANCH   4   5
ATOM      5  O   UNL A   1      32.590  24.014  22.453  1.00  0.00    -0.460 OA
BRANCH   5   6
ATOM      6  C   UNL A   1      33.004  25.258  22.123  1.00  0.00     0.338 C 
ATOM      7  O   UNL A   1      33.388  25.621  21.021  1.00  0.00    -0.246 OA
BRANCH   6   8
ATOM      8  C   UNL A   1      32.823  26.221  23.229  1.00  0.00     0.087 C 
ATOM      9  C   UNL A   1      32.044  29.626  25.501  1.00  0.00    -0.002 A 
ATOM     10  C   UNL A   1      32.833  29.897  26.628  1.00  0.00     0.054 A 
ATOM     11  C   UNL A   1      32.341  28.489  24.742  1.00  0.00     0.131 A 
ATOM     12  C   UNL A   1      33.902  29.061  26.975  1.00  0.00     0.130 A 
ATOM     13  C   UNL A   1      33.417  27.643  25.061  1.00  0.00     0.021 A 
ATOM     14  O   UNL A   1      31.566  28.266  23.633  1.00  0.00    -0.475 OA
ATOM     15  C   UNL A   1      34.185  27.932  26.190  1.00  0.00     0.058 A 
ATOM     16  C   UNL A   1      33.757  26.551  24.137  1.00  0.00     0.027 C 
ATOM     17  C   UNL A   1      31.461  26.872  23.265  1.00  0.00     0.316 C 
BRANCH   9  18
ATOM     18  C   UNL A   1      30.944  30.584  25.097  1.00  0.00     0.036 C 
ATOM     19  C   UNL A   1      30.844  31.836  25.961  1.00  0.00     0.009 C 
ENDBRANCH   9  18
BRANCH  12  20
ATOM     20  O   UNL A   1      34.744  29.244  28.037  1.00  0.00    -0.406 OA
BRANCH  20  21
ATOM     21  C   UNL A   1      35.273  30.545  28.239  1.00  0.00     0.573 C 
ATOM     22  F   UNL A   1      36.280  30.806  27.376  1.00  0.00    -0.132 F 
ATOM     23  F   UNL A   1      34.314  31.487  28.102  1.00  0.00    -0.132 F 
ATOM     24  F   UNL A   1      35.766  30.631  29.494  1.00  0.00    -0.132 F 
ENDBRANCH  20  21
ENDBRANCH  12  20
BRANCH  17  25
ATOM     25  C   UNL A   1      30.451  26.101  24.150  1.00  0.00     0.430 C 
ATOM     26  F   UNL A   1      29.786  25.137  23.470  1.00  0.00    -0.167 F 
ATOM     27  F   UNL A   1      31.079  25.483  25.181  1.00  0.00    -0.167 F 
ATOM     28  F   UNL A   1      29.505  26.902  24.697  1.00  0.00    -0.167 F 
ENDBRANCH  17  25
ENDBRANCH   6   8
ENDBRANCH   5   6
ENDBRANCH   4   5
ENDBRANCH   3   4
ENDBRANCH   2   3
ENDBRANCH   1   2
BRANCH   1  29
ATOM     29  C   UNL A   1      35.781  22.904  25.500  1.00  0.00     0.261 C 
BRANCH  29  30
ATOM     30  O   UNL A   1      36.809  23.781  25.991  1.00  0.00    -0.460 OA
BRANCH  30  31
ATOM     31  C   UNL A   1      38.039  23.223  26.059  1.00  0.00     0.338 C 
ATOM     32  O   UNL A   1      38.370  22.120  25.642  1.00  0.00    -0.246 OA
BRANCH  31  33
ATOM     33  C   UNL A   1      39.018  24.210  26.548  1.00  0.00     0.060 A 
ATOM     34  C   UNL A   1      39.067  24.426  27.931  1.00  0.00     0.016 A 
ATOM     35  C   UNL A   1      39.829  24.952  25.684  1.00  0.00     0.016 A 
ATOM     36  C   UNL A   1      39.873  25.434  28.450  1.00  0.00     0.010 A 
ATOM     37  C   UNL A   1      40.636  25.969  26.208  1.00  0.00     0.010 A 
ATOM     38  C   UNL A   1      40.626  26.242  27.588  1.00  0.00    -0.014 A 
BRANCH  38  39
ATOM     39  C   UNL A   1      41.260  27.467  28.130  1.00  0.00     0.031 A 
ATOM     40  C   UNL A   1      42.757  27.608  28.044  1.00  0.00     0.074 A 
ATOM     41  C   UNL A   1      40.510  28.465  28.630  1.00  0.00     0.049 A 
ATOM     42  N   UNL A   1      43.518  28.604  28.417  1.00  0.00    -0.248 NA
ATOM     43  C   UNL A   1      43.492  26.476  27.458  1.00  0.00     0.031 C 
ATOM     44  C   UNL A   1      39.051  28.452  28.737  1.00  0.00     0.029 A 
ATOM     45  N   UNL A   1      40.873  29.686  29.138  1.00  0.00    -0.354 N 
ATOM     46  C   UNL A   1      44.819  28.220  28.114  1.00  0.00     0.074 A 
ATOM     47  C   UNL A   1      44.748  26.887  27.558  1.00  0.00     0.031 C 
ATOM     48  C   UNL A   1      38.643  29.612  29.279  1.00  0.00     0.029 A 
ATOM     49  C   UNL A   1      39.811  30.438  29.579  1.00  0.00     0.049 A 
ATOM     50  H   UNL A   1      41.807  29.994  29.183  1.00  0.00     0.167 HD
ATOM     51  C   UNL A   1      45.966  28.922  28.270  1.00  0.00     0.037 A 
ATOM     52  C   UNL A   1      39.787  31.651  30.165  1.00  0.00     0.037 A 
ATOM     53  C   UNL A   1      46.029  30.252  28.818  1.00  0.00     0.049 A 
ATOM     54  C   UNL A   1      41.082  32.393  30.373  1.00  0.00     0.074 A 
ATOM     55  C   UNL A   1      47.139  31.057  28.998  1.00  0.00     0.029 A 
ATOM     56  N   UNL A   1      44.936  30.968  29.282  1.00  0.00    -0.354 N 
ATOM     57  N   UNL A   1      42.301  32.030  30.052  1.00  0.00    -0.248 NA
ATOM     58  C   UNL A   1      40.997  33.711  31.018  1.00  0.00     0.031 C 
ATOM     59  C   UNL A   1      46.722  32.244  29.613  1.00  0.00     0.029 A 
ATOM     60  C   UNL A   1      45.347  32.197  29.771  1.00  0.00     0.049 A 
ATOM     61  H   UNL A   1      44.004  30.650  29.266  1.00  0.00     0.167 HD
ATOM     62  C   UNL A   1      43.125  33.084  30.435  1.00  0.00     0.074 A 
ATOM     63  C   UNL A   1      42.264  34.103  30.998  1.00  0.00     0.031 C 
ATOM     64  C   UNL A   1      44.473  33.199  30.330  1.00  0.00     0.037 A 
BRANCH  51  65
ATOM     65  C   UNL A   1      47.250  28.254  27.862  1.00  0.00     0.058 A 
ATOM     66  C   UNL A   1      47.764  28.372  26.560  1.00  0.00     0.135 A 
ATOM     67  C   UNL A   1      47.991  27.507  28.791  1.00  0.00     0.135 A 
ATOM     68  F   UNL A   1      47.086  29.059  25.626  1.00  0.00    -0.206 F 
ATOM     69  C   UNL A   1      48.953  27.752  26.188  1.00  0.00     0.059 A 
ATOM     70  C   UNL A   1      49.196  26.900  28.449  1.00  0.00     0.059 A 
ATOM     71  F   UNL A   1      47.544  27.359  30.049  1.00  0.00    -0.206 F 
ATOM     72  C   UNL A   1      49.661  27.017  27.140  1.00  0.00     0.060 A 
BRANCH  72  73
ATOM     73  S   UNL A   1      51.203  26.221  26.644  1.00  0.00     0.124 S 
ATOM     74  O   UNL A   1      51.118  26.301  25.189  1.00  0.00    -0.237 OA
ATOM     75  O   UNL A   1      52.210  27.074  27.268  1.00  0.00    -0.237 OA
ATOM     76  O   UNL A   1      51.090  24.879  27.206  1.00  0.00    -0.744 OA
ENDBRANCH  72  73
ENDBRANCH  51  65
BRANCH  52  77
ATOM     77  C   UNL A   1      38.493  32.238  30.602  1.00  0.00     0.058 A 
ATOM     78  C   UNL A   1      37.796  33.146  29.792  1.00  0.00     0.135 A 
ATOM     79  C   UNL A   1      37.926  31.896  31.839  1.00  0.00     0.135 A 
ATOM     80  F   UNL A   1      38.302  33.513  28.605  1.00  0.00    -0.206 F 
ATOM     81  C   UNL A   1      36.587  33.705  30.198  1.00  0.00     0.059 A 
ATOM     82  C   UNL A   1      36.706  32.421  32.256  1.00  0.00     0.059 A 
ATOM     83  F   UNL A   1      38.547  31.022  32.646  1.00  0.00    -0.206 F 
ATOM     84  C   UNL A   1      36.049  33.333  31.431  1.00  0.00     0.060 A 
BRANCH  84  85
ATOM     85  S   UNL A   1      34.453  34.019  31.925  1.00  0.00     0.124 S 
ATOM     86  O   UNL A   1      33.875  32.909  32.673  1.00  0.00    -0.237 OA
ATOM     87  O   UNL A   1      34.850  35.183  32.711  1.00  0.00    -0.237 OA
ATOM     88  O   UNL A   1      33.811  34.325  30.649  1.00  0.00    -0.744 OA
ENDBRANCH  84  85
ENDBRANCH  52  77
BRANCH  64  89
ATOM     89  C   UNL A   1      45.097  34.479  30.813  1.00  0.00     0.058 A 
ATOM     90  C   UNL A   1      45.233  35.595  29.972  1.00  0.00     0.135 A 
ATOM     91  C   UNL A   1      45.524  34.604  32.145  1.00  0.00     0.135 A 
ATOM     92  F   UNL A   1      44.845  35.527  28.690  1.00  0.00    -0.206 F 
ATOM     93  C   UNL A   1      45.796  36.783  30.428  1.00  0.00     0.059 A 
ATOM     94  C   UNL A   1      46.066  35.791  32.629  1.00  0.00     0.059 A 
ATOM     95  F   UNL A   1      45.405  33.571  32.993  1.00  0.00    -0.206 F 
ATOM     96  C   UNL A   1      46.211  36.871  31.758  1.00  0.00     0.060 A 
BRANCH  96  97
ATOM     97  S   UNL A   1      46.922  38.423  32.345  1.00  0.00     0.124 S 
ATOM     98  O   UNL A   1      48.306  38.035  32.598  1.00  0.00    -0.237 OA
ATOM     99  O   UNL A   1      46.713  39.313  31.207  1.00  0.00    -0.237 OA
ATOM    100  O   UNL A   1      46.129  38.734  33.530  1.00  0.00    -0.744 OA
ENDBRANCH  96  97
ENDBRANCH  64  89
ENDBRANCH  38  39
ENDBRANCH  31  33
ENDBRANCH  30  31
ENDBRANCH  29  30
ENDBRANCH   1  29
TORSDOF 21
ENDMDL
MODEL 3
REMARK VINA RESULT:     -10.2      3.176      4.119
REMARK SMILES CCc1cc(OC(F)(F)F)cc2c1O[C@H](C(F)(F)F)C(C(=O)OCCOCCOC(=O)c1ccc(-c3c4nc(c(-c5c(F)cc(S(=O)(=O)[O-])cc5F)c5ccc([nH]5)c(-c5c(F)cc(S(=O)(=O)[O-])cc5F)c5nc(c(-c6c(F)cc(S(=O)(=O)[O-])cc6F)c6ccc3[nH]6)C=C5)C=C4)cc1)=C2
REMARK SMILES IDX 27 1 26 2 25 3 24 4 23 5 21 6 22 7 20 8 3 9 4 10 13 11 5 12
REMARK SMILES IDX 12 13 14 14 11 15 98 16 15 17 2 18 1 19 6 20 7 21 8 22 9 23
REMARK SMILES IDX 10 24 16 25 17 26 18 27 19 28 28 29 29 30 30 31 31 32 32 33
REMARK SMILES IDX 33 34 97 35 34 36 96 37 35 38 36 39 37 40 90 41 38 42 95 43
REMARK SMILES IDX 89 44 91 45 39 46 94 47 88 48 87 49 40 51 74 52 53 53 73 54
REMARK SMILES IDX 54 55 57 56 72 57 92 58 55 59 56 60 71 62 93 63 58 64 41 65
REMARK SMILES IDX 42 66 51 67 43 68 44 69 50 70 52 71 45 72 46 73 47 74 48 75
REMARK SMILES IDX 49 76 75 77 76 78 85 79 77 80 78 81 84 82 86 83 79 84 80 85
REMARK SMILES IDX 81 86 82 87 83 88 59 89 60 90 69 91 61 92 62 93 68 94 70 95
REMARK SMILES IDX 63 96 64 97 65 98 66 99 67 100
REMARK H PARENT 91 50 57 61
REMARK Flexibility Score: inf
ROOT
ATOM      1  C   UNL A   1      34.816  23.599  25.898  1.00  0.00     0.202 C 
ENDROOT
BRANCH   1   2
ATOM      2  O   UNL A   1      33.798  22.599  25.862  1.00  0.00    -0.374 OA
BRANCH   2   3
ATOM      3  C   UNL A   1      33.951  21.563  24.892  1.00  0.00     0.202 C 
BRANCH   3   4
ATOM      4  C   UNL A   1      34.148  22.017  23.442  1.00  0.00     0.261 C 
BRANCH   4   5
ATOM      5  O   UNL A   1      32.948  22.589  22.885  1.00  0.00    -0.460 OA
BRANCH   5   6
ATOM      6  C   UNL A   1      33.157  23.640  22.060  1.00  0.00     0.338 C 
ATOM      7  O   UNL A   1      33.526  23.581  20.897  1.00  0.00    -0.246 OA
BRANCH   6   8
ATOM      8  C   UNL A   1      32.759  24.923  22.675  1.00  0.00     0.087 C 
ATOM      9  C   UNL A   1      31.377  28.797  23.345  1.00  0.00    -0.002 A 
ATOM     10  C   UNL A   1      32.014  29.598  24.304  1.00  0.00     0.054 A 
ATOM     11  C   UNL A   1      31.876  27.508  23.123  1.00  0.00     0.131 A 
ATOM     12  C   UNL A   1      33.130  29.128  25.008  1.00  0.00     0.130 A 
ATOM     13  C   UNL A   1      33.002  27.019  23.806  1.00  0.00     0.021 A 
ATOM     14  O   UNL A   1      31.246  26.759  22.163  1.00  0.00    -0.475 OA
ATOM     15  C   UNL A   1      33.616  27.835  24.758  1.00  0.00     0.058 A 
ATOM     16  C   UNL A   1      33.554  25.712  23.416  1.00  0.00     0.027 C 
ATOM     17  C   UNL A   1      31.335  25.334  22.382  1.00  0.00     0.316 C 
BRANCH   9  18
ATOM     18  C   UNL A   1      30.223  29.351  22.539  1.00  0.00     0.036 C 
ATOM     19  C   UNL A   1      28.848  28.862  22.980  1.00  0.00     0.009 C 
ENDBRANCH   9  18
BRANCH  12  20
ATOM     20  O   UNL A   1      33.835  29.832  25.945  1.00  0.00    -0.406 OA
BRANCH  20  21
ATOM     21  C   UNL A   1      33.484  29.646  27.307  1.00  0.00     0.573 C 
ATOM     22  F   UNL A   1      34.268  28.715  27.896  1.00  0.00    -0.132 F 
ATOM     23  F   UNL A   1      33.576  30.805  27.996  1.00  0.00    -0.132 F 
ATOM     24  F   UNL A   1      32.204  29.219  27.379  1.00  0.00    -0.132 F 
ENDBRANCH  20  21
ENDBRANCH  12  20
BRANCH  17  25
ATOM     25  C   UNL A   1      30.335  24.836  23.453  1.00  0.00     0.430 C 
ATOM     26  F   UNL A   1      29.889  23.580  23.213  1.00  0.00    -0.167 F 
ATOM     27  F   UNL A   1      30.909  24.812  24.682  1.00  0.00    -0.167 F 
ATOM     28  F   UNL A   1      29.233  25.618  23.555  1.00  0.00    -0.167 F 
ENDBRANCH  17  25
ENDBRANCH   6   8
ENDBRANCH   5   6
ENDBRANCH   4   5
ENDBRANCH   3   4
ENDBRANCH   2   3
ENDBRANCH   1   2
BRANCH   1  29
ATOM     29  C   UNL A   1      36.251  23.134  25.634  1.00  0.00     0.261 C 
BRANCH  29  30
ATOM     30  O   UNL A   1      37.205  24.147  25.994  1.00  0.00    -0.460 OA
BRANCH  30  31
ATOM     31  C   UNL A   1      38.430  23.676  26.321  1.00  0.00     0.338 C 
ATOM     32  O   UNL A   1      38.933  22.621  25.954  1.00  0.00    -0.246 OA
BRANCH  31  33
ATOM     33  C   UNL A   1      39.192  24.705  27.051  1.00  0.00     0.060 A 
ATOM     34  C   UNL A   1      38.956  24.813  28.427  1.00  0.00     0.016 A 
ATOM     35  C   UNL A   1      40.070  25.583  26.409  1.00  0.00     0.016 A 
ATOM     36  C   UNL A   1      39.542  25.844  29.154  1.00  0.00     0.010 A 
ATOM     37  C   UNL A   1      40.654  26.623  27.142  1.00  0.00     0.010 A 
ATOM     38  C   UNL A   1      40.355  26.783  28.507  1.00  0.00    -0.014 A 
BRANCH  38  39
ATOM     39  C   UNL A   1      40.746  28.013  29.237  1.00  0.00     0.031 A 
ATOM     40  C   UNL A   1      42.142  28.116  29.790  1.00  0.00     0.074 A 
ATOM     41  C   UNL A   1      39.892  29.047  29.346  1.00  0.00     0.049 A 
ATOM     42  N   UNL A   1      42.711  29.107  30.426  1.00  0.00    -0.248 NA
ATOM     43  C   UNL A   1      43.014  26.945  29.600  1.00  0.00     0.031 C 
ATOM     44  C   UNL A   1      38.526  29.071  28.824  1.00  0.00     0.029 A 
ATOM     45  N   UNL A   1      40.052  30.277  29.930  1.00  0.00    -0.354 N 
ATOM     46  C   UNL A   1      44.003  28.682  30.713  1.00  0.00     0.074 A 
ATOM     47  C   UNL A   1      44.124  27.330  30.213  1.00  0.00     0.031 C 
ATOM     48  C   UNL A   1      37.970  30.260  29.113  1.00  0.00     0.029 A 
ATOM     49  C   UNL A   1      38.932  31.070  29.859  1.00  0.00     0.049 A 
ATOM     50  H   UNL A   1      40.890  30.565  30.359  1.00  0.00     0.167 HD
ATOM     51  C   UNL A   1      45.002  29.362  31.323  1.00  0.00     0.037 A 
ATOM     52  C   UNL A   1      38.708  32.305  30.350  1.00  0.00     0.037 A 
ATOM     53  C   UNL A   1      44.876  30.710  31.813  1.00  0.00     0.049 A 
ATOM     54  C   UNL A   1      39.819  33.024  31.069  1.00  0.00     0.074 A 
ATOM     55  C   UNL A   1      45.835  31.496  32.427  1.00  0.00     0.029 A 
ATOM     56  N   UNL A   1      43.717  31.469  31.752  1.00  0.00    -0.354 N 
ATOM     57  N   UNL A   1      41.046  32.621  31.304  1.00  0.00    -0.248 NA
ATOM     58  C   UNL A   1      39.519  34.367  31.584  1.00  0.00     0.031 C 
ATOM     59  C   UNL A   1      45.242  32.715  32.777  1.00  0.00     0.029 A 
ATOM     60  C   UNL A   1      43.928  32.705  32.337  1.00  0.00     0.049 A 
ATOM     61  H   UNL A   1      42.868  31.172  31.350  1.00  0.00     0.167 HD
ATOM     62  C   UNL A   1      41.669  33.669  31.975  1.00  0.00     0.074 A 
ATOM     63  C   UNL A   1      40.689  34.729  32.093  1.00  0.00     0.031 C 
ATOM     64  C   UNL A   1      42.938  33.748  32.448  1.00  0.00     0.037 A 
BRANCH  51  65
ATOM     65  C   UNL A   1      46.312  28.649  31.515  1.00  0.00     0.058 A 
ATOM     66  C   UNL A   1      47.340  28.724  30.562  1.00  0.00     0.135 A 
ATOM     67  C   UNL A   1      46.552  27.903  32.679  1.00  0.00     0.135 A 
ATOM     68  F   UNL A   1      47.156  29.408  29.421  1.00  0.00    -0.206 F 
ATOM     69  C   UNL A   1      48.551  28.062  30.745  1.00  0.00     0.059 A 
ATOM     70  C   UNL A   1      47.765  27.255  32.895  1.00  0.00     0.059 A 
ATOM     71  F   UNL A   1      45.602  27.796  33.621  1.00  0.00    -0.206 F 
ATOM     72  C   UNL A   1      48.753  27.329  31.915  1.00  0.00     0.060 A 
BRANCH  72  73
ATOM     73  S   UNL A   1      50.329  26.479  32.140  1.00  0.00     0.124 S 
ATOM     74  O   UNL A   1      50.688  26.886  33.496  1.00  0.00    -0.237 OA
ATOM     75  O   UNL A   1      49.956  25.078  31.977  1.00  0.00    -0.237 OA
ATOM     76  O   UNL A   1      51.167  27.028  31.078  1.00  0.00    -0.744 OA
ENDBRANCH  72  73
ENDBRANCH  51  65
BRANCH  52  77
ATOM     77  C   UNL A   1      37.373  32.939  30.181  1.00  0.00     0.058 A 
ATOM     78  C   UNL A   1      36.436  32.948  31.224  1.00  0.00     0.135 A 
ATOM     79  C   UNL A   1      37.013  33.553  28.972  1.00  0.00     0.135 A 
ATOM     80  F   UNL A   1      36.729  32.365  32.396  1.00  0.00    -0.206 F 
ATOM     81  C   UNL A   1      35.183  33.534  31.071  1.00  0.00     0.059 A 
ATOM     82  C   UNL A   1      35.776  34.167  28.803  1.00  0.00     0.059 A 
ATOM     83  F   UNL A   1      37.879  33.581  27.947  1.00  0.00    -0.206 F 
ATOM     84  C   UNL A   1      34.864  34.144  29.857  1.00  0.00     0.060 A 
BRANCH  84  85
ATOM     85  S   UNL A   1      33.257  34.950  29.685  1.00  0.00     0.124 S 
ATOM     86  O   UNL A   1      32.585  34.069  28.737  1.00  0.00    -0.237 OA
ATOM     87  O   UNL A   1      32.752  34.921  31.054  1.00  0.00    -0.237 OA
ATOM     88  O   UNL A   1      33.600  36.277  29.181  1.00  0.00    -0.744 OA
ENDBRANCH  84  85
ENDBRANCH  52  77
BRANCH  64  89
ATOM     89  C   UNL A   1      43.346  35.031  33.118  1.00  0.00     0.058 A 
ATOM     90  C   UNL A   1      43.894  36.100  32.391  1.00  0.00     0.135 A 
ATOM     91  C   UNL A   1      43.146  35.209  34.496  1.00  0.00     0.135 A 
ATOM     92  F   UNL A   1      44.109  35.980  31.072  1.00  0.00    -0.206 F 
ATOM     93  C   UNL A   1      44.255  37.291  33.013  1.00  0.00     0.059 A 
ATOM     94  C   UNL A   1      43.476  36.401  35.134  1.00  0.00     0.059 A 
ATOM     95  F   UNL A   1      42.614  34.223  35.236  1.00  0.00    -0.206 F 
ATOM     96  C   UNL A   1      44.044  37.432  34.386  1.00  0.00     0.060 A 
BRANCH  96  97
ATOM     97  S   UNL A   1      44.498  38.989  35.179  1.00  0.00     0.124 S 
ATOM     98  O   UNL A   1      43.640  39.937  34.475  1.00  0.00    -0.237 OA
ATOM     99  O   UNL A   1      44.155  38.741  36.576  1.00  0.00    -0.237 OA
ATOM    100  O   UNL A   1      45.926  39.107  34.902  1.00  0.00    -0.744 OA
ENDBRANCH  96  97
ENDBRANCH  64  89
ENDBRANCH  38  39
ENDBRANCH  31  33
ENDBRANCH  30  31
ENDBRANCH  29  30
ENDBRANCH   1  29
TORSDOF 21
ENDMDL
