MODEL 1
REMARK VINA RESULT:     -11.9      0.000      0.000
REMARK SMILES Cc1ccccc1NC(=O)NC[C@@H]1CC[C@@H](C(=O)OCCOCCOC(=O)c2ccc(-c3c4nc(c(-c5c(F)cc(S(=O)(=O)[O-])cc5F)c5ccc([nH]5)c(-c5c(F)cc(S(=O)(=O)[O-])cc5F)c5nc(c(-c6c(F)cc(S(=O)(=O)[O-])cc6F)c6ccc3[nH]6)C=C5)C=C4)cc2)O1
REMARK SMILES IDX 22 1 21 2 20 3 19 4 17 5 18 6 16 7 13 8 14 9 94 10 15 11
REMARK SMILES IDX 12 12 11 13 8 14 9 15 10 17 7 19 1 20 2 21 3 22 4 23 6 24
REMARK SMILES IDX 5 25 23 26 24 27 25 28 26 29 27 30 28 31 29 32 93 33 30 34
REMARK SMILES IDX 92 35 31 36 32 37 33 38 86 39 34 40 91 41 85 42 87 43 35 44
REMARK SMILES IDX 90 45 84 46 83 47 36 49 70 50 49 51 69 52 50 53 53 54 68 55
REMARK SMILES IDX 88 56 51 57 52 58 67 60 89 61 54 62 37 63 38 64 47 65 39 66
REMARK SMILES IDX 40 67 46 68 48 69 41 70 42 71 43 72 44 73 45 74 71 75 72 76
REMARK SMILES IDX 81 77 73 78 74 79 80 80 82 81 75 82 76 83 77 84 78 85 79 86
REMARK SMILES IDX 55 87 56 88 65 89 57 90 58 91 64 92 66 93 59 94 60 95 61 96
REMARK SMILES IDX 62 97 63 98
REMARK H PARENT 8 16 11 18 87 48 53 59
REMARK Flexibility Score: inf
ROOT
ATOM      1  O   UNL A   1      36.151  21.174  25.257  1.00  0.00    -0.374 OA
ENDROOT
BRANCH   1   2
ATOM      2  C   UNL A   1      35.064  20.319  24.943  1.00  0.00     0.202 C 
BRANCH   2   3
ATOM      3  C   UNL A   1      33.865  20.875  25.663  1.00  0.00     0.261 C 
BRANCH   3   4
ATOM      4  O   UNL A   1      33.437  22.168  25.187  1.00  0.00    -0.461 OA
BRANCH   4   5
ATOM      5  C   UNL A   1      33.334  22.420  23.847  1.00  0.00     0.335 C 
ATOM      6  O   UNL A   1      32.657  21.805  23.032  1.00  0.00    -0.249 OA
BRANCH   5   7
ATOM      7  C   UNL A   1      34.178  23.641  23.511  1.00  0.00     0.228 C 
ATOM      8  C   UNL A   1      33.137  25.695  23.150  1.00  0.00     0.138 C 
ATOM      9  C   UNL A   1      34.143  25.882  24.269  1.00  0.00     0.037 C 
ATOM     10  O   UNL A   1      33.564  24.483  22.511  1.00  0.00    -0.361 OA
ATOM     11  C   UNL A   1      34.359  24.494  24.756  1.00  0.00     0.047 C 
BRANCH   8  12
ATOM     12  C   UNL A   1      33.094  26.870  22.153  1.00  0.00     0.149 C 
BRANCH  12  13
ATOM     13  N   UNL A   1      31.730  27.350  21.928  1.00  0.00    -0.335 N 
ATOM     14  N   UNL A   1      31.037  28.831  23.694  1.00  0.00    -0.308 N 
ATOM     15  C   UNL A   1      30.900  28.227  22.500  1.00  0.00     0.319 C 
ATOM     16  H   UNL A   1      30.439  29.610  23.765  1.00  0.00     0.171 HD
ATOM     17  O   UNL A   1      29.917  28.571  21.830  1.00  0.00    -0.249 OA
ATOM     18  H   UNL A   1      31.314  26.909  21.152  1.00  0.00     0.165 HD
BRANCH  14  19
ATOM     19  C   UNL A   1      31.791  28.665  24.867  1.00  0.00     0.045 A 
ATOM     20  C   UNL A   1      30.496  26.561  25.577  1.00  0.00     0.046 C 
ATOM     21  C   UNL A   1      31.462  27.685  25.822  1.00  0.00    -0.027 A 
ATOM     22  C   UNL A   1      32.149  27.655  27.059  1.00  0.00     0.005 A 
ATOM     23  C   UNL A   1      33.174  28.547  27.336  1.00  0.00     0.000 A 
ATOM     24  C   UNL A   1      32.938  29.401  25.100  1.00  0.00     0.026 A 
ATOM     25  C   UNL A   1      33.599  29.394  26.333  1.00  0.00     0.002 A 
ENDBRANCH  14  19
ENDBRANCH  12  13
ENDBRANCH   8  12
ENDBRANCH   5   7
ENDBRANCH   4   5
ENDBRANCH   3   4
ENDBRANCH   2   3
ENDBRANCH   1   2
BRANCH   1  26
ATOM     26  C   UNL A   1      37.420  20.809  24.765  1.00  0.00     0.202 C 
BRANCH  26  27
ATOM     27  C   UNL A   1      38.567  21.080  25.745  1.00  0.00     0.261 C 
BRANCH  27  28
ATOM     28  O   UNL A   1      38.551  22.449  26.201  1.00  0.00    -0.460 OA
BRANCH  28  29
ATOM     29  C   UNL A   1      39.599  22.837  26.989  1.00  0.00     0.338 C 
ATOM     30  O   UNL A   1      40.358  22.062  27.539  1.00  0.00    -0.246 OA
BRANCH  29  31
ATOM     31  C   UNL A   1      39.669  24.326  27.059  1.00  0.00     0.060 A 
ATOM     32  C   UNL A   1      40.320  25.087  26.069  1.00  0.00     0.016 A 
ATOM     33  C   UNL A   1      39.247  24.944  28.228  1.00  0.00     0.016 A 
ATOM     34  C   UNL A   1      40.682  26.427  26.318  1.00  0.00     0.010 A 
ATOM     35  C   UNL A   1      39.687  26.219  28.503  1.00  0.00     0.010 A 
ATOM     36  C   UNL A   1      40.432  26.971  27.574  1.00  0.00    -0.014 A 
BRANCH  36  37
ATOM     37  C   UNL A   1      40.900  28.253  28.129  1.00  0.00     0.031 A 
ATOM     38  C   UNL A   1      39.875  29.318  28.268  1.00  0.00     0.074 A 
ATOM     39  C   UNL A   1      42.027  28.315  28.886  1.00  0.00     0.049 A 
ATOM     40  N   UNL A   1      40.060  30.421  28.896  1.00  0.00    -0.248 NA
ATOM     41  C   UNL A   1      38.529  29.231  27.700  1.00  0.00     0.031 C 
ATOM     42  C   UNL A   1      42.260  29.131  30.085  1.00  0.00     0.029 A 
ATOM     43  N   UNL A   1      43.234  27.624  28.760  1.00  0.00    -0.354 N 
ATOM     44  C   UNL A   1      38.833  30.995  29.131  1.00  0.00     0.074 A 
ATOM     45  C   UNL A   1      37.930  30.282  28.268  1.00  0.00     0.031 C 
ATOM     46  C   UNL A   1      43.562  29.101  30.420  1.00  0.00     0.029 A 
ATOM     47  C   UNL A   1      44.249  28.380  29.366  1.00  0.00     0.049 A 
ATOM     48  H   UNL A   1      43.353  26.751  28.320  1.00  0.00     0.167 HD
ATOM     49  C   UNL A   1      38.759  31.930  30.121  1.00  0.00     0.037 A 
ATOM     50  C   UNL A   1      45.310  28.801  28.628  1.00  0.00     0.037 A 
ATOM     51  C   UNL A   1      40.121  32.300  30.551  1.00  0.00     0.049 A 
ATOM     52  C   UNL A   1      45.236  30.301  28.544  1.00  0.00     0.074 A 
ATOM     53  C   UNL A   1      40.878  32.065  31.685  1.00  0.00     0.029 A 
ATOM     54  N   UNL A   1      41.013  32.767  29.582  1.00  0.00    -0.354 N 
ATOM     55  N   UNL A   1      44.117  30.958  28.709  1.00  0.00    -0.248 NA
ATOM     56  C   UNL A   1      46.392  31.183  28.451  1.00  0.00     0.031 C 
ATOM     57  C   UNL A   1      42.246  32.310  31.352  1.00  0.00     0.029 A 
ATOM     58  C   UNL A   1      42.319  32.724  30.028  1.00  0.00     0.049 A 
ATOM     59  H   UNL A   1      40.743  33.088  28.691  1.00  0.00     0.167 HD
ATOM     60  C   UNL A   1      44.380  32.284  28.856  1.00  0.00     0.074 A 
ATOM     61  C   UNL A   1      45.814  32.384  28.642  1.00  0.00     0.031 C 
ATOM     62  C   UNL A   1      43.415  33.195  29.177  1.00  0.00     0.037 A 
BRANCH  49  63
ATOM     63  C   UNL A   1      37.496  32.430  30.807  1.00  0.00     0.058 A 
ATOM     64  C   UNL A   1      37.332  33.810  31.069  1.00  0.00     0.135 A 
ATOM     65  C   UNL A   1      36.446  31.625  31.306  1.00  0.00     0.135 A 
ATOM     66  F   UNL A   1      38.252  34.705  30.683  1.00  0.00    -0.206 F 
ATOM     67  C   UNL A   1      36.231  34.340  31.754  1.00  0.00     0.059 A 
ATOM     68  C   UNL A   1      35.319  32.135  31.963  1.00  0.00     0.059 A 
ATOM     69  F   UNL A   1      36.464  30.291  31.229  1.00  0.00    -0.206 F 
ATOM     70  C   UNL A   1      35.223  33.495  32.194  1.00  0.00     0.060 A 
BRANCH  70  71
ATOM     71  S   UNL A   1      33.806  34.186  33.069  1.00  0.00     0.124 S 
ATOM     72  O   UNL A   1      33.152  34.965  32.023  1.00  0.00    -0.237 OA
ATOM     73  O   UNL A   1      33.099  32.988  33.506  1.00  0.00    -0.237 OA
ATOM     74  O   UNL A   1      34.415  34.972  34.140  1.00  0.00    -0.744 OA
ENDBRANCH  70  71
ENDBRANCH  49  63
BRANCH  50  75
ATOM     75  C   UNL A   1      45.704  27.757  27.622  1.00  0.00     0.058 A 
ATOM     76  C   UNL A   1      45.131  27.907  26.334  1.00  0.00     0.135 A 
ATOM     77  C   UNL A   1      46.959  27.126  27.678  1.00  0.00     0.135 A 
ATOM     78  F   UNL A   1      43.932  28.502  26.204  1.00  0.00    -0.206 F 
ATOM     79  C   UNL A   1      45.839  27.630  25.161  1.00  0.00     0.059 A 
ATOM     80  C   UNL A   1      47.689  26.849  26.510  1.00  0.00     0.059 A 
ATOM     81  F   UNL A   1      47.569  26.951  28.858  1.00  0.00    -0.206 F 
ATOM     82  C   UNL A   1      47.147  27.163  25.260  1.00  0.00     0.060 A 
BRANCH  82  83
ATOM     83  S   UNL A   1      48.188  27.181  23.767  1.00  0.00     0.124 S 
ATOM     84  O   UNL A   1      47.417  28.033  22.870  1.00  0.00    -0.237 OA
ATOM     85  O   UNL A   1      49.440  27.759  24.256  1.00  0.00    -0.237 OA
ATOM     86  O   UNL A   1      48.267  25.773  23.400  1.00  0.00    -0.744 OA
ENDBRANCH  82  83
ENDBRANCH  50  75
BRANCH  62  87
ATOM     87  C   UNL A   1      43.472  34.645  28.760  1.00  0.00     0.058 A 
ATOM     88  C   UNL A   1      43.648  35.704  29.670  1.00  0.00     0.135 A 
ATOM     89  C   UNL A   1      43.532  35.008  27.393  1.00  0.00     0.135 A 
ATOM     90  F   UNL A   1      43.768  35.499  30.988  1.00  0.00    -0.206 F 
ATOM     91  C   UNL A   1      43.759  37.028  29.263  1.00  0.00     0.059 A 
ATOM     92  C   UNL A   1      43.728  36.316  26.963  1.00  0.00     0.059 A 
ATOM     93  F   UNL A   1      43.430  34.101  26.410  1.00  0.00    -0.206 F 
ATOM     94  C   UNL A   1      43.796  37.325  27.908  1.00  0.00     0.060 A 
BRANCH  94  95
ATOM     95  S   UNL A   1      43.959  39.039  27.402  1.00  0.00     0.124 S 
ATOM     96  O   UNL A   1      42.628  39.306  26.869  1.00  0.00    -0.237 OA
ATOM     97  O   UNL A   1      44.281  39.709  28.658  1.00  0.00    -0.237 OA
ATOM     98  O   UNL A   1      45.040  39.003  26.422  1.00  0.00    -0.744 OA
ENDBRANCH  94  95
ENDBRANCH  62  87
ENDBRANCH  36  37
ENDBRANCH  29  31
ENDBRANCH  28  29
ENDBRANCH  27  28
ENDBRANCH  26  27
ENDBRANCH   1  26
TORSDOF 20
ENDMDL
MODEL 2
REMARK VINA RESULT:     -11.8      4.510     10.695
REMARK SMILES Cc1ccccc1NC(=O)NC[C@@H]1CC[C@@H](C(=O)OCCOCCOC(=O)c2ccc(-c3c4nc(c(-c5c(F)cc(S(=O)(=O)[O-])cc5F)c5ccc([nH]5)c(-c5c(F)cc(S(=O)(=O)[O-])cc5F)c5nc(c(-c6c(F)cc(S(=O)(=O)[O-])cc6F)c6ccc3[nH]6)C=C5)C=C4)cc2)O1
REMARK SMILES IDX 22 1 21 2 20 3 19 4 17 5 18 6 16 7 13 8 14 9 94 10 15 11
REMARK SMILES IDX 12 12 11 13 8 14 9 15 10 17 7 19 1 20 2 21 3 22 4 23 6 24
REMARK SMILES IDX 5 25 23 26 24 27 25 28 26 29 27 30 28 31 29 32 93 33 30 34
REMARK SMILES IDX 92 35 31 36 32 37 33 38 86 39 34 40 91 41 85 42 87 43 35 44
REMARK SMILES IDX 90 45 84 46 83 47 36 49 70 50 49 51 69 52 50 53 53 54 68 55
REMARK SMILES IDX 88 56 51 57 52 58 67 60 89 61 54 62 37 63 38 64 47 65 39 66
REMARK SMILES IDX 40 67 46 68 48 69 41 70 42 71 43 72 44 73 45 74 71 75 72 76
REMARK SMILES IDX 81 77 73 78 74 79 80 80 82 81 75 82 76 83 77 84 78 85 79 86
REMARK SMILES IDX 55 87 56 88 65 89 57 90 58 91 64 92 66 93 59 94 60 95 61 96
REMARK SMILES IDX 62 97 63 98
REMARK H PARENT 8 16 11 18 87 48 53 59
REMARK Flexibility Score: inf
ROOT
ATOM      1  O   UNL A   1      31.997  28.951  25.522  1.00  0.00    -0.374 OA
ENDROOT
BRANCH   1   2
ATOM      2  C   UNL A   1      32.416  28.795  24.176  1.00  0.00     0.202 C 
BRANCH   2   3
ATOM      3  C   UNL A   1      33.518  27.770  24.191  1.00  0.00     0.261 C 
BRANCH   3   4
ATOM      4  O   UNL A   1      33.452  26.848  25.299  1.00  0.00    -0.461 OA
BRANCH   4   5
ATOM      5  C   UNL A   1      32.401  25.982  25.425  1.00  0.00     0.335 C 
ATOM      6  O   UNL A   1      31.724  25.787  26.428  1.00  0.00    -0.249 OA
BRANCH   5   7
ATOM      7  C   UNL A   1      32.159  25.304  24.085  1.00  0.00     0.228 C 
ATOM      8  C   UNL A   1      32.096  22.976  23.969  1.00  0.00     0.138 C 
ATOM      9  C   UNL A   1      30.783  23.497  23.419  1.00  0.00     0.037 C 
ATOM     10  O   UNL A   1      32.965  24.117  23.909  1.00  0.00    -0.361 OA
ATOM     11  C   UNL A   1      30.706  24.868  23.988  1.00  0.00     0.047 C 
BRANCH   8  12
ATOM     12  C   UNL A   1      32.675  21.789  23.172  1.00  0.00     0.149 C 
BRANCH  12  13
ATOM     13  N   UNL A   1      32.483  20.516  23.868  1.00  0.00    -0.335 N 
ATOM     14  N   UNL A   1      33.967  20.334  25.755  1.00  0.00    -0.308 N 
ATOM     15  C   UNL A   1      32.938  19.939  24.984  1.00  0.00     0.319 C 
ATOM     16  H   UNL A   1      33.933  19.900  26.638  1.00  0.00     0.171 HD
ATOM     17  O   UNL A   1      32.304  18.955  25.392  1.00  0.00    -0.249 OA
ATOM     18  H   UNL A   1      31.853  19.931  23.387  1.00  0.00     0.165 HD
BRANCH  14  19
ATOM     19  C   UNL A   1      35.076  21.191  25.656  1.00  0.00     0.045 A 
ATOM     20  C   UNL A   1      34.035  22.956  27.207  1.00  0.00     0.046 C 
ATOM     21  C   UNL A   1      35.065  22.479  26.223  1.00  0.00    -0.027 A 
ATOM     22  C   UNL A   1      36.137  23.365  25.967  1.00  0.00     0.005 A 
ATOM     23  C   UNL A   1      37.225  22.977  25.200  1.00  0.00     0.000 A 
ATOM     24  C   UNL A   1      36.257  20.779  25.067  1.00  0.00     0.026 A 
ATOM     25  C   UNL A   1      37.304  21.663  24.786  1.00  0.00     0.002 A 
ENDBRANCH  14  19
ENDBRANCH  12  13
ENDBRANCH   8  12
ENDBRANCH   5   7
ENDBRANCH   4   5
ENDBRANCH   3   4
ENDBRANCH   2   3
ENDBRANCH   1   2
BRANCH   1  26
ATOM     26  C   UNL A   1      32.245  30.198  26.132  1.00  0.00     0.202 C 
BRANCH  26  27
ATOM     27  C   UNL A   1      33.328  30.153  27.217  1.00  0.00     0.261 C 
BRANCH  27  28
ATOM     28  O   UNL A   1      34.468  30.958  26.848  1.00  0.00    -0.460 OA
BRANCH  28  29
ATOM     29  C   UNL A   1      35.215  31.457  27.879  1.00  0.00     0.338 C 
ATOM     30  O   UNL A   1      35.088  32.582  28.325  1.00  0.00    -0.246 OA
BRANCH  29  31
ATOM     31  C   UNL A   1      36.179  30.427  28.365  1.00  0.00     0.060 A 
ATOM     32  C   UNL A   1      36.043  29.819  29.628  1.00  0.00     0.016 A 
ATOM     33  C   UNL A   1      37.334  30.215  27.627  1.00  0.00     0.016 A 
ATOM     34  C   UNL A   1      37.126  29.129  30.212  1.00  0.00     0.010 A 
ATOM     35  C   UNL A   1      38.417  29.626  28.239  1.00  0.00     0.010 A 
ATOM     36  C   UNL A   1      38.345  29.101  29.544  1.00  0.00    -0.014 A 
BRANCH  36  37
ATOM     37  C   UNL A   1      39.652  28.635  30.039  1.00  0.00     0.031 A 
ATOM     38  C   UNL A   1      40.118  27.323  29.520  1.00  0.00     0.074 A 
ATOM     39  C   UNL A   1      40.564  29.513  30.534  1.00  0.00     0.049 A 
ATOM     40  N   UNL A   1      41.299  26.855  29.696  1.00  0.00    -0.248 NA
ATOM     41  C   UNL A   1      39.276  26.410  28.745  1.00  0.00     0.031 C 
ATOM     42  C   UNL A   1      42.021  29.495  30.348  1.00  0.00     0.029 A 
ATOM     43  N   UNL A   1      40.379  30.658  31.311  1.00  0.00    -0.354 N 
ATOM     44  C   UNL A   1      41.492  25.825  28.806  1.00  0.00     0.074 A 
ATOM     45  C   UNL A   1      40.172  25.511  28.325  1.00  0.00     0.031 C 
ATOM     46  C   UNL A   1      42.604  30.382  31.174  1.00  0.00     0.029 A 
ATOM     47  C   UNL A   1      41.558  30.907  32.030  1.00  0.00     0.049 A 
ATOM     48  H   UNL A   1      39.558  31.200  31.348  1.00  0.00     0.167 HD
ATOM     49  C   UNL A   1      42.779  25.468  28.532  1.00  0.00     0.037 A 
ATOM     50  C   UNL A   1      41.529  30.925  33.389  1.00  0.00     0.037 A 
ATOM     51  C   UNL A   1      43.688  26.131  29.486  1.00  0.00     0.049 A 
ATOM     52  C   UNL A   1      42.336  29.752  33.875  1.00  0.00     0.074 A 
ATOM     53  C   UNL A   1      44.611  27.158  29.394  1.00  0.00     0.029 A 
ATOM     54  N   UNL A   1      43.466  25.933  30.852  1.00  0.00    -0.354 N 
ATOM     55  N   UNL A   1      42.554  28.696  33.134  1.00  0.00    -0.248 NA
ATOM     56  C   UNL A   1      43.096  29.727  35.117  1.00  0.00     0.031 C 
ATOM     57  C   UNL A   1      44.867  27.630  30.719  1.00  0.00     0.029 A 
ATOM     58  C   UNL A   1      44.126  26.873  31.617  1.00  0.00     0.049 A 
ATOM     59  H   UNL A   1      42.907  25.211  31.223  1.00  0.00     0.167 HD
ATOM     60  C   UNL A   1      43.523  27.929  33.700  1.00  0.00     0.074 A 
ATOM     61  C   UNL A   1      43.801  28.591  34.964  1.00  0.00     0.031 C 
ATOM     62  C   UNL A   1      44.051  26.833  33.080  1.00  0.00     0.037 A 
BRANCH  49  63
ATOM     63  C   UNL A   1      43.261  24.640  27.349  1.00  0.00     0.058 A 
ATOM     64  C   UNL A   1      43.356  23.233  27.462  1.00  0.00     0.135 A 
ATOM     65  C   UNL A   1      43.720  25.146  26.111  1.00  0.00     0.135 A 
ATOM     66  F   UNL A   1      42.984  22.599  28.582  1.00  0.00    -0.206 F 
ATOM     67  C   UNL A   1      43.853  22.410  26.444  1.00  0.00     0.059 A 
ATOM     68  C   UNL A   1      44.188  24.341  25.066  1.00  0.00     0.059 A 
ATOM     69  F   UNL A   1      43.786  26.455  25.850  1.00  0.00    -0.206 F 
ATOM     70  C   UNL A   1      44.261  22.970  25.243  1.00  0.00     0.060 A 
BRANCH  70  71
ATOM     71  S   UNL A   1      44.893  21.903  23.935  1.00  0.00     0.124 S 
ATOM     72  O   UNL A   1      46.321  22.208  23.956  1.00  0.00    -0.237 OA
ATOM     73  O   UNL A   1      44.520  20.576  24.412  1.00  0.00    -0.237 OA
ATOM     74  O   UNL A   1      44.178  22.357  22.745  1.00  0.00    -0.744 OA
ENDBRANCH  70  71
ENDBRANCH  49  63
BRANCH  50  75
ATOM     75  C   UNL A   1      40.250  31.538  33.884  1.00  0.00     0.058 A 
ATOM     76  C   UNL A   1      39.245  30.617  34.273  1.00  0.00     0.135 A 
ATOM     77  C   UNL A   1      40.242  32.784  34.536  1.00  0.00     0.135 A 
ATOM     78  F   UNL A   1      39.193  29.405  33.693  1.00  0.00    -0.206 F 
ATOM     79  C   UNL A   1      38.410  30.838  35.372  1.00  0.00     0.059 A 
ATOM     80  C   UNL A   1      39.416  33.020  35.648  1.00  0.00     0.059 A 
ATOM     81  F   UNL A   1      41.163  33.707  34.228  1.00  0.00    -0.206 F 
ATOM     82  C   UNL A   1      38.550  32.018  36.096  1.00  0.00     0.060 A 
BRANCH  82  83
ATOM     83  S   UNL A   1      37.757  32.131  37.731  1.00  0.00     0.124 S 
ATOM     84  O   UNL A   1      36.728  33.137  37.500  1.00  0.00    -0.237 OA
ATOM     85  O   UNL A   1      37.265  30.770  37.943  1.00  0.00    -0.237 OA
ATOM     86  O   UNL A   1      38.854  32.528  38.605  1.00  0.00    -0.744 OA
ENDBRANCH  82  83
ENDBRANCH  50  75
BRANCH  62  87
ATOM     87  C   UNL A   1      44.610  25.647  33.828  1.00  0.00     0.058 A 
ATOM     88  C   UNL A   1      45.982  25.336  33.869  1.00  0.00     0.135 A 
ATOM     89  C   UNL A   1      43.791  24.876  34.689  1.00  0.00     0.135 A 
ATOM     90  F   UNL A   1      46.900  26.073  33.230  1.00  0.00    -0.206 F 
ATOM     91  C   UNL A   1      46.486  24.275  34.612  1.00  0.00     0.059 A 
ATOM     92  C   UNL A   1      44.288  23.866  35.505  1.00  0.00     0.059 A 
ATOM     93  F   UNL A   1      42.472  25.089  34.796  1.00  0.00    -0.206 F 
ATOM     94  C   UNL A   1      45.632  23.544  35.426  1.00  0.00     0.060 A 
BRANCH  94  95
ATOM     95  S   UNL A   1      46.305  22.191  36.392  1.00  0.00     0.124 S 
ATOM     96  O   UNL A   1      45.746  22.477  37.709  1.00  0.00    -0.237 OA
ATOM     97  O   UNL A   1      45.757  21.018  35.716  1.00  0.00    -0.237 OA
ATOM     98  O   UNL A   1      47.748  22.365  36.264  1.00  0.00    -0.744 OA
ENDBRANCH  94  95
ENDBRANCH  62  87
ENDBRANCH  36  37
ENDBRANCH  29  31
ENDBRANCH  28  29
ENDBRANCH  27  28
ENDBRANCH  26  27
ENDBRANCH   1  26
TORSDOF 20
ENDMDL
MODEL 3
REMARK VINA RESULT:     -11.7      2.108      2.898
REMARK SMILES Cc1ccccc1NC(=O)NC[C@@H]1CC[C@@H](C(=O)OCCOCCOC(=O)c2ccc(-c3c4nc(c(-c5c(F)cc(S(=O)(=O)[O-])cc5F)c5ccc([nH]5)c(-c5c(F)cc(S(=O)(=O)[O-])cc5F)c5nc(c(-c6c(F)cc(S(=O)(=O)[O-])cc6F)c6ccc3[nH]6)C=C5)C=C4)cc2)O1
REMARK SMILES IDX 22 1 21 2 20 3 19 4 17 5 18 6 16 7 13 8 14 9 94 10 15 11
REMARK SMILES IDX 12 12 11 13 8 14 9 15 10 17 7 19 1 20 2 21 3 22 4 23 6 24
REMARK SMILES IDX 5 25 23 26 24 27 25 28 26 29 27 30 28 31 29 32 93 33 30 34
REMARK SMILES IDX 92 35 31 36 32 37 33 38 86 39 34 40 91 41 85 42 87 43 35 44
REMARK SMILES IDX 90 45 84 46 83 47 36 49 70 50 49 51 69 52 50 53 53 54 68 55
REMARK SMILES IDX 88 56 51 57 52 58 67 60 89 61 54 62 37 63 38 64 47 65 39 66
REMARK SMILES IDX 40 67 46 68 48 69 41 70 42 71 43 72 44 73 45 74 71 75 72 76
REMARK SMILES IDX 81 77 73 78 74 79 80 80 82 81 75 82 76 83 77 84 78 85 79 86
REMARK SMILES IDX 55 87 56 88 65 89 57 90 58 91 64 92 66 93 59 94 60 95 61 96
REMARK SMILES IDX 62 97 63 98
REMARK H PARENT 8 16 11 18 87 48 53 59
REMARK Flexibility Score: inf
ROOT
ATOM      1  O   UNL A   1      35.558  20.339  25.270  1.00  0.00    -0.374 OA
ENDROOT
BRANCH   1   2
ATOM      2  C   UNL A   1      34.572  19.534  24.644  1.00  0.00     0.202 C 
BRANCH   2   3
ATOM      3  C   UNL A   1      33.368  19.561  25.546  1.00  0.00     0.261 C 
BRANCH   3   4
ATOM      4  O   UNL A   1      32.146  19.958  24.890  1.00  0.00    -0.461 OA
BRANCH   4   5
ATOM      5  C   UNL A   1      32.174  20.799  23.813  1.00  0.00     0.335 C 
ATOM      6  O   UNL A   1      32.053  20.489  22.633  1.00  0.00    -0.249 OA
BRANCH   5   7
ATOM      7  C   UNL A   1      32.342  22.228  24.309  1.00  0.00     0.228 C 
ATOM      8  C   UNL A   1      30.795  23.854  23.678  1.00  0.00     0.138 C 
ATOM      9  C   UNL A   1      30.825  23.815  25.193  1.00  0.00     0.037 C 
ATOM     10  O   UNL A   1      32.020  23.209  23.298  1.00  0.00    -0.361 OA
ATOM     11  C   UNL A   1      31.402  22.475  25.479  1.00  0.00     0.047 C 
BRANCH   8  12
ATOM     12  C   UNL A   1      30.709  25.279  23.096  1.00  0.00     0.149 C 
BRANCH  12  13
ATOM     13  N   UNL A   1      31.505  25.422  21.876  1.00  0.00    -0.335 N 
ATOM     14  N   UNL A   1      33.630  26.448  22.348  1.00  0.00    -0.308 N 
ATOM     15  C   UNL A   1      32.743  25.814  21.561  1.00  0.00     0.319 C 
ATOM     16  H   UNL A   1      34.538  26.392  21.972  1.00  0.00     0.171 HD
ATOM     17  O   UNL A   1      33.146  25.509  20.430  1.00  0.00    -0.249 OA
ATOM     18  H   UNL A   1      30.992  25.160  21.076  1.00  0.00     0.165 HD
BRANCH  14  19
ATOM     19  C   UNL A   1      33.627  27.168  23.555  1.00  0.00     0.045 A 
ATOM     20  C   UNL A   1      34.447  25.154  24.926  1.00  0.00     0.046 C 
ATOM     21  C   UNL A   1      33.880  26.538  24.789  1.00  0.00    -0.027 A 
ATOM     22  C   UNL A   1      33.713  27.263  25.991  1.00  0.00     0.005 A 
ATOM     23  C   UNL A   1      33.346  28.601  25.982  1.00  0.00     0.000 A 
ATOM     24  C   UNL A   1      33.457  28.539  23.579  1.00  0.00     0.026 A 
ATOM     25  C   UNL A   1      33.261  29.251  24.767  1.00  0.00     0.002 A 
ENDBRANCH  14  19
ENDBRANCH  12  13
ENDBRANCH   8  12
ENDBRANCH   5   7
ENDBRANCH   4   5
ENDBRANCH   3   4
ENDBRANCH   2   3
ENDBRANCH   1   2
BRANCH   1  26
ATOM     26  C   UNL A   1      35.945  21.519  24.603  1.00  0.00     0.202 C 
BRANCH  26  27
ATOM     27  C   UNL A   1      37.419  21.890  24.802  1.00  0.00     0.261 C 
BRANCH  27  28
ATOM     28  O   UNL A   1      37.670  22.320  26.157  1.00  0.00    -0.460 OA
BRANCH  28  29
ATOM     29  C   UNL A   1      38.981  22.479  26.508  1.00  0.00     0.338 C 
ATOM     30  O   UNL A   1      39.769  21.560  26.624  1.00  0.00    -0.246 OA
BRANCH  29  31
ATOM     31  C   UNL A   1      39.290  23.925  26.711  1.00  0.00     0.060 A 
ATOM     32  C   UNL A   1      39.975  24.682  25.741  1.00  0.00     0.016 A 
ATOM     33  C   UNL A   1      39.059  24.471  27.966  1.00  0.00     0.016 A 
ATOM     34  C   UNL A   1      40.561  25.919  26.081  1.00  0.00     0.010 A 
ATOM     35  C   UNL A   1      39.713  25.629  28.318  1.00  0.00     0.010 A 
ATOM     36  C   UNL A   1      40.495  26.357  27.400  1.00  0.00    -0.014 A 
BRANCH  36  37
ATOM     37  C   UNL A   1      41.199  27.488  28.028  1.00  0.00     0.031 A 
ATOM     38  C   UNL A   1      40.385  28.704  28.283  1.00  0.00     0.074 A 
ATOM     39  C   UNL A   1      42.337  27.291  28.744  1.00  0.00     0.049 A 
ATOM     40  N   UNL A   1      40.780  29.705  28.982  1.00  0.00    -0.248 NA
ATOM     41  C   UNL A   1      39.032  28.901  27.761  1.00  0.00     0.031 C 
ATOM     42  C   UNL A   1      42.742  27.957  29.989  1.00  0.00     0.029 A 
ATOM     43  N   UNL A   1      43.397  26.409  28.524  1.00  0.00    -0.354 N 
ATOM     44  C   UNL A   1      39.683  30.467  29.304  1.00  0.00     0.074 A 
ATOM     45  C   UNL A   1      38.645  29.995  28.426  1.00  0.00     0.031 C 
ATOM     46  C   UNL A   1      44.025  27.671  30.272  1.00  0.00     0.029 A 
ATOM     47  C   UNL A   1      44.546  26.924  29.143  1.00  0.00     0.049 A 
ATOM     48  H   UNL A   1      43.346  25.566  28.017  1.00  0.00     0.167 HD
ATOM     49  C   UNL A   1      39.802  31.320  30.361  1.00  0.00     0.037 A 
ATOM     50  C   UNL A   1      45.646  27.206  28.398  1.00  0.00     0.037 A 
ATOM     51  C   UNL A   1      41.218  31.409  30.765  1.00  0.00     0.049 A 
ATOM     52  C   UNL A   1      45.841  28.698  28.425  1.00  0.00     0.074 A 
ATOM     53  C   UNL A   1      41.948  30.955  31.849  1.00  0.00     0.029 A 
ATOM     54  N   UNL A   1      42.155  31.784  29.799  1.00  0.00    -0.354 N 
ATOM     55  N   UNL A   1      44.862  29.528  28.679  1.00  0.00    -0.248 NA
ATOM     56  C   UNL A   1      47.133  29.366  28.352  1.00  0.00     0.031 C 
ATOM     57  C   UNL A   1      43.329  30.980  31.482  1.00  0.00     0.029 A 
ATOM     58  C   UNL A   1      43.443  31.476  30.190  1.00  0.00     0.049 A 
ATOM     59  H   UNL A   1      41.926  32.216  28.944  1.00  0.00     0.167 HD
ATOM     60  C   UNL A   1      45.362  30.771  28.912  1.00  0.00     0.074 A 
ATOM     61  C   UNL A   1      46.786  30.632  28.652  1.00  0.00     0.031 C 
ATOM     62  C   UNL A   1      44.584  31.810  29.334  1.00  0.00     0.037 A 
BRANCH  49  63
ATOM     63  C   UNL A   1      38.666  31.981  31.129  1.00  0.00     0.058 A 
ATOM     64  C   UNL A   1      37.767  31.190  31.882  1.00  0.00     0.135 A 
ATOM     65  C   UNL A   1      38.344  33.357  31.116  1.00  0.00     0.135 A 
ATOM     66  F   UNL A   1      37.918  29.862  31.974  1.00  0.00    -0.206 F 
ATOM     67  C   UNL A   1      36.659  31.716  32.560  1.00  0.00     0.059 A 
ATOM     68  C   UNL A   1      37.263  33.911  31.814  1.00  0.00     0.059 A 
ATOM     69  F   UNL A   1      39.027  34.249  30.392  1.00  0.00    -0.206 F 
ATOM     70  C   UNL A   1      36.417  33.081  32.527  1.00  0.00     0.060 A 
BRANCH  70  71
ATOM     71  S   UNL A   1      34.993  33.749  33.408  1.00  0.00     0.124 S 
ATOM     72  O   UNL A   1      35.303  33.407  34.793  1.00  0.00    -0.237 OA
ATOM     73  O   UNL A   1      35.061  35.167  33.073  1.00  0.00    -0.237 OA
ATOM     74  O   UNL A   1      33.862  33.029  32.828  1.00  0.00    -0.744 OA
ENDBRANCH  70  71
ENDBRANCH  49  63
BRANCH  50  75
ATOM     75  C   UNL A   1      45.822  26.191  27.305  1.00  0.00     0.058 A 
ATOM     76  C   UNL A   1      46.247  24.907  27.730  1.00  0.00     0.135 A 
ATOM     77  C   UNL A   1      45.042  26.235  26.135  1.00  0.00     0.135 A 
ATOM     78  F   UNL A   1      46.995  24.788  28.841  1.00  0.00    -0.206 F 
ATOM     79  C   UNL A   1      45.770  23.728  27.149  1.00  0.00     0.059 A 
ATOM     80  C   UNL A   1      44.546  25.061  25.544  1.00  0.00     0.059 A 
ATOM     81  F   UNL A   1      44.596  27.411  25.671  1.00  0.00    -0.206 F 
ATOM     82  C   UNL A   1      44.864  23.817  26.096  1.00  0.00     0.060 A 
BRANCH  82  83
ATOM     83  S   UNL A   1      43.952  22.318  25.610  1.00  0.00     0.124 S 
ATOM     84  O   UNL A   1      43.399  22.706  24.318  1.00  0.00    -0.237 OA
ATOM     85  O   UNL A   1      45.005  21.304  25.561  1.00  0.00    -0.237 OA
ATOM     86  O   UNL A   1      42.990  22.150  26.692  1.00  0.00    -0.744 OA
ENDBRANCH  82  83
ENDBRANCH  50  75
BRANCH  62  87
ATOM     87  C   UNL A   1      44.891  33.255  29.022  1.00  0.00     0.058 A 
ATOM     88  C   UNL A   1      44.470  33.896  27.842  1.00  0.00     0.135 A 
ATOM     89  C   UNL A   1      45.472  34.104  29.995  1.00  0.00     0.135 A 
ATOM     90  F   UNL A   1      43.768  33.259  26.895  1.00  0.00    -0.206 F 
ATOM     91  C   UNL A   1      44.708  35.244  27.598  1.00  0.00     0.059 A 
ATOM     92  C   UNL A   1      45.642  35.470  29.805  1.00  0.00     0.059 A 
ATOM     93  F   UNL A   1      45.876  33.646  31.189  1.00  0.00    -0.206 F 
ATOM     94  C   UNL A   1      45.297  36.023  28.584  1.00  0.00     0.060 A 
BRANCH  94  95
ATOM     95  S   UNL A   1      45.579  37.764  28.257  1.00  0.00     0.124 S 
ATOM     96  O   UNL A   1      44.729  37.976  27.091  1.00  0.00    -0.237 OA
ATOM     97  O   UNL A   1      45.123  38.394  29.493  1.00  0.00    -0.237 OA
ATOM     98  O   UNL A   1      47.016  37.837  28.017  1.00  0.00    -0.744 OA
ENDBRANCH  94  95
ENDBRANCH  62  87
ENDBRANCH  36  37
ENDBRANCH  29  31
ENDBRANCH  28  29
ENDBRANCH  27  28
ENDBRANCH  26  27
ENDBRANCH   1  26
TORSDOF 20
ENDMDL
