MODEL 1
REMARK VINA RESULT:     -10.6      0.000      0.000
REMARK SMILES O=C(OCCOCCOC(=O)[C@@H]1CCCN(C(=O)/C=C/c2c(F)cccc2Cl)C1)c1ccc(-c2c3nc(c(-c4c(F)cc(S(=O)(=O)[O-])cc4F)c4ccc([nH]4)c(-c4c(F)cc(S(=O)(=O)[O-])cc4F)c4nc(c(-c5c(F)cc(S(=O)(=O)[O-])cc5F)c5ccc2[nH]5)C=C4)C=C3)cc1
REMARK SMILES IDX 6 1 5 2 4 3 3 4 2 5 1 6 30 7 31 8 95 9 32 10 94 11 33 12
REMARK SMILES IDX 34 13 35 14 88 15 36 16 93 17 87 18 89 19 37 20 92 21 86 22
REMARK SMILES IDX 85 23 38 25 72 26 51 27 71 28 52 29 55 30 70 31 90 32 53 33
REMARK SMILES IDX 54 34 69 36 91 37 56 38 39 39 40 40 49 41 41 42 42 43 48 44
REMARK SMILES IDX 50 45 43 46 44 47 45 48 46 49 47 50 73 51 74 52 83 53 75 54
REMARK SMILES IDX 76 55 82 56 84 57 77 58 78 59 79 60 80 61 81 62 57 63 58 64
REMARK SMILES IDX 67 65 59 66 60 67 66 68 68 69 61 70 62 71 63 72 64 73 65 74
REMARK SMILES IDX 7 75 8 76 9 77 10 78 11 79 12 80 13 81 29 82 14 83 16 84
REMARK SMILES IDX 15 85 17 86 18 87 19 88 20 89 21 90 22 91 27 92 23 93 24 94
REMARK SMILES IDX 26 95 28 96 25 97
REMARK H PARENT 89 24 55 35
REMARK Flexibility Score: inf
ROOT
ATOM      1  O   UNL A   1      32.573  29.420  25.506  1.00  0.00    -0.374 OA
ENDROOT
BRANCH   1   2
ATOM      2  C   UNL A   1      33.200  30.177  26.542  1.00  0.00     0.202 C 
BRANCH   2   3
ATOM      3  C   UNL A   1      34.013  29.426  27.611  1.00  0.00     0.261 C 
BRANCH   3   4
ATOM      4  O   UNL A   1      35.416  29.762  27.545  1.00  0.00    -0.460 OA
BRANCH   4   5
ATOM      5  C   UNL A   1      36.257  30.028  28.572  1.00  0.00     0.338 C 
ATOM      6  O   UNL A   1      35.830  30.545  29.601  1.00  0.00    -0.246 OA
BRANCH   5   7
ATOM      7  C   UNL A   1      37.705  29.706  28.484  1.00  0.00     0.060 A 
ATOM      8  C   UNL A   1      38.374  29.628  27.272  1.00  0.00     0.016 A 
ATOM      9  C   UNL A   1      38.446  29.530  29.657  1.00  0.00     0.016 A 
ATOM     10  C   UNL A   1      39.691  29.302  27.168  1.00  0.00     0.010 A 
ATOM     11  C   UNL A   1      39.818  29.261  29.578  1.00  0.00     0.010 A 
ATOM     12  C   UNL A   1      40.427  29.150  28.323  1.00  0.00    -0.014 A 
BRANCH  12  13
ATOM     13  C   UNL A   1      41.806  28.738  28.090  1.00  0.00     0.031 A 
ATOM     14  C   UNL A   1      42.867  29.751  28.337  1.00  0.00     0.074 A 
ATOM     15  C   UNL A   1      42.056  27.424  27.935  1.00  0.00     0.049 A 
ATOM     16  N   UNL A   1      44.149  29.653  28.153  1.00  0.00    -0.248 NA
ATOM     17  C   UNL A   1      42.426  31.049  28.885  1.00  0.00     0.031 C 
ATOM     18  C   UNL A   1      41.036  26.363  27.934  1.00  0.00     0.029 A 
ATOM     19  N   UNL A   1      43.232  26.749  27.806  1.00  0.00    -0.354 N 
ATOM     20  C   UNL A   1      44.663  30.895  28.491  1.00  0.00     0.074 A 
ATOM     21  C   UNL A   1      43.563  31.724  28.924  1.00  0.00     0.031 C 
ATOM     22  C   UNL A   1      41.639  25.172  27.817  1.00  0.00     0.029 A 
ATOM     23  C   UNL A   1      43.063  25.398  27.624  1.00  0.00     0.049 A 
ATOM     24  H   UNL A   1      44.114  27.185  27.840  1.00  0.00     0.167 HD
ATOM     25  C   UNL A   1      45.951  31.289  28.404  1.00  0.00     0.037 A 
ATOM     26  C   UNL A   1      43.965  24.472  27.259  1.00  0.00     0.037 A 
ATOM     27  C   UNL A   1      46.987  30.395  27.967  1.00  0.00     0.049 A 
ATOM     28  C   UNL A   1      45.371  24.957  27.052  1.00  0.00     0.074 A 
ATOM     29  C   UNL A   1      48.322  30.657  27.738  1.00  0.00     0.029 A 
ATOM     30  N   UNL A   1      46.784  29.045  27.688  1.00  0.00    -0.354 N 
ATOM     31  N   UNL A   1      45.856  26.166  27.240  1.00  0.00    -0.248 NA
ATOM     32  C   UNL A   1      46.347  23.981  26.566  1.00  0.00     0.031 C 
ATOM     33  C   UNL A   1      48.912  29.478  27.267  1.00  0.00     0.029 A 
ATOM     34  C   UNL A   1      47.962  28.462  27.266  1.00  0.00     0.049 A 
ATOM     35  H   UNL A   1      45.924  28.574  27.779  1.00  0.00     0.167 HD
ATOM     36  C   UNL A   1      47.198  26.097  26.906  1.00  0.00     0.074 A 
ATOM     37  C   UNL A   1      47.450  24.718  26.524  1.00  0.00     0.031 C 
ATOM     38  C   UNL A   1      48.141  27.074  26.907  1.00  0.00     0.037 A 
BRANCH  25  39
ATOM     39  C   UNL A   1      46.237  32.740  28.657  1.00  0.00     0.058 A 
ATOM     40  C   UNL A   1      46.529  33.246  29.933  1.00  0.00     0.135 A 
ATOM     41  C   UNL A   1      46.133  33.659  27.599  1.00  0.00     0.135 A 
ATOM     42  F   UNL A   1      46.594  32.418  30.989  1.00  0.00    -0.206 F 
ATOM     43  C   UNL A   1      46.677  34.611  30.159  1.00  0.00     0.059 A 
ATOM     44  C   UNL A   1      46.305  35.026  27.796  1.00  0.00     0.059 A 
ATOM     45  F   UNL A   1      45.829  33.236  26.363  1.00  0.00    -0.206 F 
ATOM     46  C   UNL A   1      46.559  35.494  29.084  1.00  0.00     0.060 A 
BRANCH  46  47
ATOM     47  S   UNL A   1      46.733  37.264  29.392  1.00  0.00     0.124 S 
ATOM     48  O   UNL A   1      45.373  37.629  29.778  1.00  0.00    -0.237 OA
ATOM     49  O   UNL A   1      47.726  37.298  30.461  1.00  0.00    -0.237 OA
ATOM     50  O   UNL A   1      47.182  37.791  28.107  1.00  0.00    -0.744 OA
ENDBRANCH  46  47
ENDBRANCH  25  39
BRANCH  26  51
ATOM     51  C   UNL A   1      43.535  23.076  26.972  1.00  0.00     0.058 A 
ATOM     52  C   UNL A   1      43.435  22.591  25.662  1.00  0.00     0.135 A 
ATOM     53  C   UNL A   1      43.239  22.183  28.017  1.00  0.00     0.135 A 
ATOM     54  F   UNL A   1      43.703  23.399  24.625  1.00  0.00    -0.206 F 
ATOM     55  C   UNL A   1      43.048  21.278  25.396  1.00  0.00     0.059 A 
ATOM     56  C   UNL A   1      42.882  20.859  27.779  1.00  0.00     0.059 A 
ATOM     57  F   UNL A   1      43.328  22.585  29.296  1.00  0.00    -0.206 F 
ATOM     58  C   UNL A   1      42.776  20.419  26.463  1.00  0.00     0.060 A 
BRANCH  58  59
ATOM     59  S   UNL A   1      42.306  18.711  26.110  1.00  0.00     0.124 S 
ATOM     60  O   UNL A   1      40.920  18.870  25.682  1.00  0.00    -0.237 OA
ATOM     61  O   UNL A   1      43.258  18.341  25.067  1.00  0.00    -0.237 OA
ATOM     62  O   UNL A   1      42.496  18.036  27.390  1.00  0.00    -0.744 OA
ENDBRANCH  58  59
ENDBRANCH  26  51
BRANCH  38  63
ATOM     63  C   UNL A   1      49.527  26.662  26.520  1.00  0.00     0.058 A 
ATOM     64  C   UNL A   1      49.990  26.783  25.203  1.00  0.00     0.135 A 
ATOM     65  C   UNL A   1      50.421  26.211  27.505  1.00  0.00     0.135 A 
ATOM     66  F   UNL A   1      49.165  27.200  24.230  1.00  0.00    -0.206 F 
ATOM     67  C   UNL A   1      51.297  26.458  24.869  1.00  0.00     0.059 A 
ATOM     68  C   UNL A   1      51.740  25.912  27.200  1.00  0.00     0.059 A 
ATOM     69  F   UNL A   1      50.020  26.091  28.780  1.00  0.00    -0.206 F 
ATOM     70  C   UNL A   1      52.166  26.031  25.877  1.00  0.00     0.060 A 
BRANCH  70  71
ATOM     71  S   UNL A   1      53.876  25.667  25.440  1.00  0.00     0.124 S 
ATOM     72  O   UNL A   1      54.214  26.810  24.600  1.00  0.00    -0.237 OA
ATOM     73  O   UNL A   1      54.528  25.624  26.746  1.00  0.00    -0.237 OA
ATOM     74  O   UNL A   1      53.786  24.384  24.750  1.00  0.00    -0.744 OA
ENDBRANCH  70  71
ENDBRANCH  38  63
ENDBRANCH  12  13
ENDBRANCH   5   7
ENDBRANCH   4   5
ENDBRANCH   3   4
ENDBRANCH   2   3
ENDBRANCH   1   2
BRANCH   1  75
ATOM     75  C   UNL A   1      32.449  28.016  25.744  1.00  0.00     0.202 C 
BRANCH  75  76
ATOM     76  C   UNL A   1      33.186  27.258  24.651  1.00  0.00     0.261 C 
BRANCH  76  77
ATOM     77  O   UNL A   1      32.988  25.853  24.882  1.00  0.00    -0.463 OA
BRANCH  77  78
ATOM     78  C   UNL A   1      33.087  25.034  23.804  1.00  0.00     0.310 C 
ATOM     79  O   UNL A   1      34.073  24.924  23.080  1.00  0.00    -0.252 OA
BRANCH  78  80
ATOM     80  C   UNL A   1      31.795  24.282  23.547  1.00  0.00     0.119 C 
ATOM     81  C   UNL A   1      30.798  24.547  24.676  1.00  0.00     0.019 C 
ATOM     82  C   UNL A   1      31.950  22.778  23.288  1.00  0.00     0.135 C 
ATOM     83  C   UNL A   1      31.046  23.669  25.908  1.00  0.00     0.022 C 
ATOM     84  N   UNL A   1      32.239  22.023  24.512  1.00  0.00    -0.338 N 
ATOM     85  C   UNL A   1      31.225  22.198  25.543  1.00  0.00     0.120 C 
BRANCH  84  86
ATOM     86  C   UNL A   1      33.249  21.071  24.512  1.00  0.00     0.246 C 
ATOM     87  O   UNL A   1      33.064  19.922  24.108  1.00  0.00    -0.270 OA
BRANCH  86  88
ATOM     88  C   UNL A   1      34.593  21.377  25.086  1.00  0.00     0.072 C 
ATOM     89  C   UNL A   1      35.600  22.002  24.456  1.00  0.00     0.018 C 
BRANCH  89  90
ATOM     90  C   UNL A   1      36.866  22.355  25.124  1.00  0.00     0.029 A 
ATOM     91  C   UNL A   1      37.058  23.644  25.636  1.00  0.00     0.131 A 
ATOM     92  C   UNL A   1      37.896  21.417  25.323  1.00  0.00     0.051 A 
ATOM     93  F   UNL A   1      36.109  24.579  25.482  1.00  0.00    -0.206 F 
ATOM     94  C   UNL A   1      38.217  23.991  26.336  1.00  0.00     0.040 A 
ATOM     95  C   UNL A   1      39.057  21.758  26.032  1.00  0.00     0.021 A 
ATOM     96  Cl  UNL A   1      37.789  19.793  24.735  1.00  0.00    -0.084 Cl
ATOM     97  C   UNL A   1      39.216  23.044  26.544  1.00  0.00     0.005 A 
ENDBRANCH  89  90
ENDBRANCH  86  88
ENDBRANCH  84  86
ENDBRANCH  78  80
ENDBRANCH  77  78
ENDBRANCH  76  77
ENDBRANCH  75  76
ENDBRANCH   1  75
TORSDOF 20
ENDMDL
MODEL 2
REMARK VINA RESULT:     -10.5      1.533      8.461
REMARK SMILES O=C(OCCOCCOC(=O)[C@@H]1CCCN(C(=O)/C=C/c2c(F)cccc2Cl)C1)c1ccc(-c2c3nc(c(-c4c(F)cc(S(=O)(=O)[O-])cc4F)c4ccc([nH]4)c(-c4c(F)cc(S(=O)(=O)[O-])cc4F)c4nc(c(-c5c(F)cc(S(=O)(=O)[O-])cc5F)c5ccc2[nH]5)C=C4)C=C3)cc1
REMARK SMILES IDX 6 1 5 2 4 3 3 4 2 5 1 6 30 7 31 8 95 9 32 10 94 11 33 12
REMARK SMILES IDX 34 13 35 14 88 15 36 16 93 17 87 18 89 19 37 20 92 21 86 22
REMARK SMILES IDX 85 23 38 25 72 26 51 27 71 28 52 29 55 30 70 31 90 32 53 33
REMARK SMILES IDX 54 34 69 36 91 37 56 38 39 39 40 40 49 41 41 42 42 43 48 44
REMARK SMILES IDX 50 45 43 46 44 47 45 48 46 49 47 50 73 51 74 52 83 53 75 54
REMARK SMILES IDX 76 55 82 56 84 57 77 58 78 59 79 60 80 61 81 62 57 63 58 64
REMARK SMILES IDX 67 65 59 66 60 67 66 68 68 69 61 70 62 71 63 72 64 73 65 74
REMARK SMILES IDX 7 75 8 76 9 77 10 78 11 79 12 80 13 81 29 82 14 83 16 84
REMARK SMILES IDX 15 85 17 86 18 87 19 88 20 89 21 90 22 91 27 92 23 93 24 94
REMARK SMILES IDX 26 95 28 96 25 97
REMARK H PARENT 89 24 55 35
REMARK Flexibility Score: inf
ROOT
ATOM      1  O   UNL A   1      34.556  31.075  27.531  1.00  0.00    -0.374 OA
ENDROOT
BRANCH   1   2
ATOM      2  C   UNL A   1      35.461  31.944  28.214  1.00  0.00     0.202 C 
BRANCH   2   3
ATOM      3  C   UNL A   1      35.289  32.136  29.731  1.00  0.00     0.261 C 
BRANCH   3   4
ATOM      4  O   UNL A   1      36.459  31.701  30.458  1.00  0.00    -0.460 OA
BRANCH   4   5
ATOM      5  C   UNL A   1      36.972  30.451  30.539  1.00  0.00     0.338 C 
ATOM      6  O   UNL A   1      36.273  29.523  30.938  1.00  0.00    -0.246 OA
BRANCH   5   7
ATOM      7  C   UNL A   1      38.378  30.168  30.153  1.00  0.00     0.060 A 
ATOM      8  C   UNL A   1      38.782  30.098  28.828  1.00  0.00     0.016 A 
ATOM      9  C   UNL A   1      39.352  30.022  31.145  1.00  0.00     0.016 A 
ATOM     10  C   UNL A   1      40.058  29.808  28.452  1.00  0.00     0.010 A 
ATOM     11  C   UNL A   1      40.684  29.792  30.783  1.00  0.00     0.010 A 
ATOM     12  C   UNL A   1      41.022  29.686  29.429  1.00  0.00    -0.014 A 
BRANCH  12  13
ATOM     13  C   UNL A   1      42.334  29.311  28.915  1.00  0.00     0.031 A 
ATOM     14  C   UNL A   1      42.475  27.941  28.353  1.00  0.00     0.074 A 
ATOM     15  C   UNL A   1      43.244  30.286  28.733  1.00  0.00     0.049 A 
ATOM     16  N   UNL A   1      43.538  27.354  27.891  1.00  0.00    -0.248 NA
ATOM     17  C   UNL A   1      41.247  27.126  28.282  1.00  0.00     0.031 C 
ATOM     18  C   UNL A   1      43.037  31.707  29.055  1.00  0.00     0.029 A 
ATOM     19  N   UNL A   1      44.490  30.251  28.186  1.00  0.00    -0.354 N 
ATOM     20  C   UNL A   1      43.127  26.076  27.542  1.00  0.00     0.074 A 
ATOM     21  C   UNL A   1      41.712  25.980  27.813  1.00  0.00     0.031 C 
ATOM     22  C   UNL A   1      44.123  32.404  28.691  1.00  0.00     0.029 A 
ATOM     23  C   UNL A   1      45.129  31.467  28.219  1.00  0.00     0.049 A 
ATOM     24  H   UNL A   1      44.893  29.438  27.804  1.00  0.00     0.167 HD
ATOM     25  C   UNL A   1      43.901  25.078  27.068  1.00  0.00     0.037 A 
ATOM     26  C   UNL A   1      46.418  31.756  27.968  1.00  0.00     0.037 A 
ATOM     27  C   UNL A   1      45.305  25.262  26.822  1.00  0.00     0.049 A 
ATOM     28  C   UNL A   1      47.289  30.604  27.556  1.00  0.00     0.074 A 
ATOM     29  C   UNL A   1      46.247  24.335  26.428  1.00  0.00     0.029 A 
ATOM     30  N   UNL A   1      45.965  26.482  26.955  1.00  0.00    -0.354 N 
ATOM     31  N   UNL A   1      46.946  29.351  27.347  1.00  0.00    -0.248 NA
ATOM     32  C   UNL A   1      48.714  30.883  27.367  1.00  0.00     0.031 C 
ATOM     33  C   UNL A   1      47.486  24.983  26.379  1.00  0.00     0.029 A 
ATOM     34  C   UNL A   1      47.308  26.330  26.675  1.00  0.00     0.049 A 
ATOM     35  H   UNL A   1      45.536  27.330  27.212  1.00  0.00     0.167 HD
ATOM     36  C   UNL A   1      48.110  28.689  26.991  1.00  0.00     0.074 A 
ATOM     37  C   UNL A   1      49.163  29.691  26.994  1.00  0.00     0.031 C 
ATOM     38  C   UNL A   1      48.302  27.379  26.692  1.00  0.00     0.037 A 
BRANCH  25  39
ATOM     39  C   UNL A   1      43.263  23.728  26.934  1.00  0.00     0.058 A 
ATOM     40  C   UNL A   1      43.058  22.871  28.028  1.00  0.00     0.135 A 
ATOM     41  C   UNL A   1      42.922  23.248  25.658  1.00  0.00     0.135 A 
ATOM     42  F   UNL A   1      43.408  23.260  29.264  1.00  0.00    -0.206 F 
ATOM     43  C   UNL A   1      42.569  21.579  27.859  1.00  0.00     0.059 A 
ATOM     44  C   UNL A   1      42.406  21.970  25.469  1.00  0.00     0.059 A 
ATOM     45  F   UNL A   1      43.122  24.011  24.573  1.00  0.00    -0.206 F 
ATOM     46  C   UNL A   1      42.249  21.136  26.574  1.00  0.00     0.060 A 
BRANCH  46  47
ATOM     47  S   UNL A   1      41.635  19.452  26.366  1.00  0.00     0.124 S 
ATOM     48  O   UNL A   1      41.935  18.867  27.670  1.00  0.00    -0.237 OA
ATOM     49  O   UNL A   1      40.220  19.669  26.080  1.00  0.00    -0.237 OA
ATOM     50  O   UNL A   1      42.424  18.936  25.252  1.00  0.00    -0.744 OA
ENDBRANCH  46  47
ENDBRANCH  25  39
BRANCH  26  51
ATOM     51  C   UNL A   1      46.941  33.128  28.210  1.00  0.00     0.058 A 
ATOM     52  C   UNL A   1      47.470  33.507  29.450  1.00  0.00     0.135 A 
ATOM     53  C   UNL A   1      46.948  34.089  27.182  1.00  0.00     0.135 A 
ATOM     54  F   UNL A   1      47.488  32.633  30.467  1.00  0.00    -0.206 F 
ATOM     55  C   UNL A   1      47.975  34.788  29.668  1.00  0.00     0.059 A 
ATOM     56  C   UNL A   1      47.476  35.363  27.365  1.00  0.00     0.059 A 
ATOM     57  F   UNL A   1      46.465  33.781  25.967  1.00  0.00    -0.206 F 
ATOM     58  C   UNL A   1      47.976  35.709  28.617  1.00  0.00     0.060 A 
BRANCH  58  59
ATOM     59  S   UNL A   1      48.661  37.355  28.901  1.00  0.00     0.124 S 
ATOM     60  O   UNL A   1      49.884  37.305  28.106  1.00  0.00    -0.237 OA
ATOM     61  O   UNL A   1      47.603  38.220  28.390  1.00  0.00    -0.237 OA
ATOM     62  O   UNL A   1      48.852  37.397  30.347  1.00  0.00    -0.744 OA
ENDBRANCH  58  59
ENDBRANCH  26  51
BRANCH  38  63
ATOM     63  C   UNL A   1      49.694  26.982  26.309  1.00  0.00     0.058 A 
ATOM     64  C   UNL A   1      50.633  26.575  27.266  1.00  0.00     0.135 A 
ATOM     65  C   UNL A   1      50.058  26.937  24.954  1.00  0.00     0.135 A 
ATOM     66  F   UNL A   1      50.328  26.612  28.573  1.00  0.00    -0.206 F 
ATOM     67  C   UNL A   1      51.899  26.147  26.893  1.00  0.00     0.059 A 
ATOM     68  C   UNL A   1      51.307  26.482  24.557  1.00  0.00     0.059 A 
ATOM     69  F   UNL A   1      49.185  27.308  24.005  1.00  0.00    -0.206 F 
ATOM     70  C   UNL A   1      52.223  26.097  25.535  1.00  0.00     0.060 A 
BRANCH  70  71
ATOM     71  S   UNL A   1      53.851  25.486  25.061  1.00  0.00     0.124 S 
ATOM     72  O   UNL A   1      54.583  25.597  26.318  1.00  0.00    -0.237 OA
ATOM     73  O   UNL A   1      53.554  24.127  24.616  1.00  0.00    -0.237 OA
ATOM     74  O   UNL A   1      54.266  26.407  24.009  1.00  0.00    -0.744 OA
ENDBRANCH  70  71
ENDBRANCH  38  63
ENDBRANCH  12  13
ENDBRANCH   5   7
ENDBRANCH   4   5
ENDBRANCH   3   4
ENDBRANCH   2   3
ENDBRANCH   1   2
BRANCH   1  75
ATOM     75  C   UNL A   1      34.851  29.678  27.609  1.00  0.00     0.202 C 
BRANCH  75  76
ATOM     76  C   UNL A   1      34.218  28.967  26.422  1.00  0.00     0.261 C 
BRANCH  76  77
ATOM     77  O   UNL A   1      33.082  28.232  26.907  1.00  0.00    -0.463 OA
BRANCH  77  78
ATOM     78  C   UNL A   1      32.738  27.113  26.220  1.00  0.00     0.310 C 
ATOM     79  O   UNL A   1      33.269  26.011  26.341  1.00  0.00    -0.252 OA
BRANCH  78  80
ATOM     80  C   UNL A   1      31.630  27.382  25.221  1.00  0.00     0.119 C 
ATOM     81  C   UNL A   1      30.421  26.497  25.526  1.00  0.00     0.019 C 
ATOM     82  C   UNL A   1      32.033  27.276  23.746  1.00  0.00     0.135 C 
ATOM     83  C   UNL A   1      30.563  25.078  24.962  1.00  0.00     0.022 C 
ATOM     84  N   UNL A   1      32.201  25.887  23.306  1.00  0.00    -0.338 N 
ATOM     85  C   UNL A   1      31.005  25.078  23.502  1.00  0.00     0.120 C 
BRANCH  84  86
ATOM     86  C   UNL A   1      33.316  25.529  22.560  1.00  0.00     0.246 C 
ATOM     87  O   UNL A   1      33.679  26.175  21.576  1.00  0.00    -0.270 OA
BRANCH  86  88
ATOM     88  C   UNL A   1      34.082  24.286  22.873  1.00  0.00     0.072 C 
ATOM     89  C   UNL A   1      34.609  23.959  24.063  1.00  0.00     0.018 C 
BRANCH  89  90
ATOM     90  C   UNL A   1      35.269  22.665  24.318  1.00  0.00     0.029 A 
ATOM     91  C   UNL A   1      36.666  22.570  24.305  1.00  0.00     0.131 A 
ATOM     92  C   UNL A   1      34.542  21.502  24.633  1.00  0.00     0.051 A 
ATOM     93  F   UNL A   1      37.412  23.646  24.017  1.00  0.00    -0.206 F 
ATOM     94  C   UNL A   1      37.324  21.375  24.611  1.00  0.00     0.040 A 
ATOM     95  C   UNL A   1      35.197  20.303  24.949  1.00  0.00     0.021 A 
ATOM     96  Cl  UNL A   1      32.811  21.480  24.676  1.00  0.00    -0.084 Cl
ATOM     97  C   UNL A   1      36.589  20.240  24.944  1.00  0.00     0.005 A 
ENDBRANCH  89  90
ENDBRANCH  86  88
ENDBRANCH  84  86
ENDBRANCH  78  80
ENDBRANCH  77  78
ENDBRANCH  76  77
ENDBRANCH  75  76
ENDBRANCH   1  75
TORSDOF 20
ENDMDL
MODEL 3
REMARK VINA RESULT:     -10.5      5.083      9.291
REMARK SMILES O=C(OCCOCCOC(=O)[C@@H]1CCCN(C(=O)/C=C/c2c(F)cccc2Cl)C1)c1ccc(-c2c3nc(c(-c4c(F)cc(S(=O)(=O)[O-])cc4F)c4ccc([nH]4)c(-c4c(F)cc(S(=O)(=O)[O-])cc4F)c4nc(c(-c5c(F)cc(S(=O)(=O)[O-])cc5F)c5ccc2[nH]5)C=C4)C=C3)cc1
REMARK SMILES IDX 6 1 5 2 4 3 3 4 2 5 1 6 30 7 31 8 95 9 32 10 94 11 33 12
REMARK SMILES IDX 34 13 35 14 88 15 36 16 93 17 87 18 89 19 37 20 92 21 86 22
REMARK SMILES IDX 85 23 38 25 72 26 51 27 71 28 52 29 55 30 70 31 90 32 53 33
REMARK SMILES IDX 54 34 69 36 91 37 56 38 39 39 40 40 49 41 41 42 42 43 48 44
REMARK SMILES IDX 50 45 43 46 44 47 45 48 46 49 47 50 73 51 74 52 83 53 75 54
REMARK SMILES IDX 76 55 82 56 84 57 77 58 78 59 79 60 80 61 81 62 57 63 58 64
REMARK SMILES IDX 67 65 59 66 60 67 66 68 68 69 61 70 62 71 63 72 64 73 65 74
REMARK SMILES IDX 7 75 8 76 9 77 10 78 11 79 12 80 13 81 29 82 14 83 16 84
REMARK SMILES IDX 15 85 17 86 18 87 19 88 20 89 21 90 22 91 27 92 23 93 24 94
REMARK SMILES IDX 26 95 28 96 25 97
REMARK H PARENT 89 24 55 35
REMARK Flexibility Score: inf
ROOT
ATOM      1  O   UNL A   1      33.088  28.615  24.654  1.00  0.00    -0.374 OA
ENDROOT
BRANCH   1   2
ATOM      2  C   UNL A   1      32.040  29.251  25.388  1.00  0.00     0.202 C 
BRANCH   2   3
ATOM      3  C   UNL A   1      32.327  29.708  26.829  1.00  0.00     0.261 C 
BRANCH   3   4
ATOM      4  O   UNL A   1      33.726  29.572  27.161  1.00  0.00    -0.460 OA
BRANCH   4   5
ATOM      5  C   UNL A   1      34.569  30.526  27.622  1.00  0.00     0.338 C 
ATOM      6  O   UNL A   1      34.265  31.712  27.533  1.00  0.00    -0.246 OA
BRANCH   5   7
ATOM      7  C   UNL A   1      35.872  30.169  28.240  1.00  0.00     0.060 A 
ATOM      8  C   UNL A   1      35.959  29.561  29.483  1.00  0.00     0.016 A 
ATOM      9  C   UNL A   1      37.057  30.393  27.534  1.00  0.00     0.016 A 
ATOM     10  C   UNL A   1      37.143  29.256  30.083  1.00  0.00     0.010 A 
ATOM     11  C   UNL A   1      38.284  30.025  28.099  1.00  0.00     0.010 A 
ATOM     12  C   UNL A   1      38.310  29.456  29.378  1.00  0.00    -0.014 A 
BRANCH  12  13
ATOM     13  C   UNL A   1      39.516  29.156  30.141  1.00  0.00     0.031 A 
ATOM     14  C   UNL A   1      40.451  28.155  29.564  1.00  0.00     0.074 A 
ATOM     15  C   UNL A   1      39.841  29.977  31.157  1.00  0.00     0.049 A 
ATOM     16  N   UNL A   1      41.550  27.678  30.068  1.00  0.00    -0.248 NA
ATOM     17  C   UNL A   1      40.115  27.630  28.226  1.00  0.00     0.031 C 
ATOM     18  C   UNL A   1      39.047  31.137  31.596  1.00  0.00     0.029 A 
ATOM     19  N   UNL A   1      40.937  30.005  31.966  1.00  0.00    -0.354 N 
ATOM     20  C   UNL A   1      42.000  26.745  29.146  1.00  0.00     0.074 A 
ATOM     21  C   UNL A   1      41.077  26.742  28.036  1.00  0.00     0.031 C 
ATOM     22  C   UNL A   1      39.693  31.762  32.590  1.00  0.00     0.029 A 
ATOM     23  C   UNL A   1      40.876  30.986  32.925  1.00  0.00     0.049 A 
ATOM     24  H   UNL A   1      41.696  29.385  31.872  1.00  0.00     0.167 HD
ATOM     25  C   UNL A   1      43.082  25.947  29.264  1.00  0.00     0.037 A 
ATOM     26  C   UNL A   1      41.659  31.169  34.002  1.00  0.00     0.037 A 
ATOM     27  C   UNL A   1      43.953  26.019  30.405  1.00  0.00     0.049 A 
ATOM     28  C   UNL A   1      42.789  30.195  34.177  1.00  0.00     0.074 A 
ATOM     29  C   UNL A   1      45.037  25.227  30.721  1.00  0.00     0.029 A 
ATOM     30  N   UNL A   1      43.822  26.958  31.426  1.00  0.00    -0.354 N 
ATOM     31  N   UNL A   1      43.155  29.214  33.380  1.00  0.00    -0.248 NA
ATOM     32  C   UNL A   1      43.596  30.324  35.391  1.00  0.00     0.031 C 
ATOM     33  C   UNL A   1      45.525  25.653  31.963  1.00  0.00     0.029 A 
ATOM     34  C   UNL A   1      44.790  26.753  32.389  1.00  0.00     0.049 A 
ATOM     35  H   UNL A   1      43.139  27.666  31.457  1.00  0.00     0.167 HD
ATOM     36  C   UNL A   1      44.244  28.611  33.987  1.00  0.00     0.074 A 
ATOM     37  C   UNL A   1      44.487  29.356  35.212  1.00  0.00     0.031 C 
ATOM     38  C   UNL A   1      44.977  27.543  33.585  1.00  0.00     0.037 A 
BRANCH  25  39
ATOM     39  C   UNL A   1      43.264  24.889  28.217  1.00  0.00     0.058 A 
ATOM     40  C   UNL A   1      42.928  23.543  28.431  1.00  0.00     0.135 A 
ATOM     41  C   UNL A   1      43.869  25.224  26.994  1.00  0.00     0.135 A 
ATOM     42  F   UNL A   1      42.390  23.158  29.600  1.00  0.00    -0.206 F 
ATOM     43  C   UNL A   1      43.214  22.562  27.485  1.00  0.00     0.059 A 
ATOM     44  C   UNL A   1      44.139  24.265  26.023  1.00  0.00     0.059 A 
ATOM     45  F   UNL A   1      44.237  26.490  26.746  1.00  0.00    -0.206 F 
ATOM     46  C   UNL A   1      43.823  22.934  26.285  1.00  0.00     0.060 A 
BRANCH  46  47
ATOM     47  S   UNL A   1      44.206  21.651  25.074  1.00  0.00     0.124 S 
ATOM     48  O   UNL A   1      45.549  21.251  25.486  1.00  0.00    -0.237 OA
ATOM     49  O   UNL A   1      43.152  20.670  25.315  1.00  0.00    -0.237 OA
ATOM     50  O   UNL A   1      44.126  22.353  23.797  1.00  0.00    -0.744 OA
ENDBRANCH  46  47
ENDBRANCH  25  39
BRANCH  26  51
ATOM     51  C   UNL A   1      41.325  32.217  35.005  1.00  0.00     0.058 A 
ATOM     52  C   UNL A   1      41.890  33.497  34.949  1.00  0.00     0.135 A 
ATOM     53  C   UNL A   1      40.402  31.962  36.035  1.00  0.00     0.135 A 
ATOM     54  F   UNL A   1      42.779  33.797  33.990  1.00  0.00    -0.206 F 
ATOM     55  C   UNL A   1      41.563  34.482  35.879  1.00  0.00     0.059 A 
ATOM     56  C   UNL A   1      40.034  32.937  36.956  1.00  0.00     0.059 A 
ATOM     57  F   UNL A   1      39.817  30.757  36.134  1.00  0.00    -0.206 F 
ATOM     58  C   UNL A   1      40.630  34.192  36.879  1.00  0.00     0.060 A 
BRANCH  58  59
ATOM     59  S   UNL A   1      40.189  35.484  38.061  1.00  0.00     0.124 S 
ATOM     60  O   UNL A   1      39.036  34.890  38.729  1.00  0.00    -0.237 OA
ATOM     61  O   UNL A   1      41.404  35.596  38.861  1.00  0.00    -0.237 OA
ATOM     62  O   UNL A   1      39.899  36.635  37.211  1.00  0.00    -0.744 OA
ENDBRANCH  58  59
ENDBRANCH  26  51
BRANCH  38  63
ATOM     63  C   UNL A   1      46.127  27.156  34.463  1.00  0.00     0.058 A 
ATOM     64  C   UNL A   1      47.393  27.738  34.316  1.00  0.00     0.135 A 
ATOM     65  C   UNL A   1      45.927  26.244  35.511  1.00  0.00     0.135 A 
ATOM     66  F   UNL A   1      47.629  28.607  33.321  1.00  0.00    -0.206 F 
ATOM     67  C   UNL A   1      48.434  27.419  35.177  1.00  0.00     0.059 A 
ATOM     68  C   UNL A   1      46.944  25.936  36.403  1.00  0.00     0.059 A 
ATOM     69  F   UNL A   1      44.727  25.672  35.693  1.00  0.00    -0.206 F 
ATOM     70  C   UNL A   1      48.197  26.522  36.221  1.00  0.00     0.060 A 
BRANCH  70  71
ATOM     71  S   UNL A   1      49.540  26.160  37.366  1.00  0.00     0.124 S 
ATOM     72  O   UNL A   1      48.821  25.543  38.475  1.00  0.00    -0.237 OA
ATOM     73  O   UNL A   1      50.385  25.265  36.580  1.00  0.00    -0.237 OA
ATOM     74  O   UNL A   1      50.115  27.472  37.642  1.00  0.00    -0.744 OA
ENDBRANCH  70  71
ENDBRANCH  38  63
ENDBRANCH  12  13
ENDBRANCH   5   7
ENDBRANCH   4   5
ENDBRANCH   3   4
ENDBRANCH   2   3
ENDBRANCH   1   2
BRANCH   1  75
ATOM     75  C   UNL A   1      33.149  27.191  24.757  1.00  0.00     0.202 C 
BRANCH  75  76
ATOM     76  C   UNL A   1      33.690  26.619  23.456  1.00  0.00     0.261 C 
BRANCH  76  77
ATOM     77  O   UNL A   1      32.773  25.606  23.008  1.00  0.00    -0.463 OA
BRANCH  77  78
ATOM     78  C   UNL A   1      33.273  24.354  22.848  1.00  0.00     0.310 C 
ATOM     79  O   UNL A   1      34.465  24.067  22.767  1.00  0.00    -0.252 OA
BRANCH  78  80
ATOM     80  C   UNL A   1      32.172  23.319  22.727  1.00  0.00     0.119 C 
ATOM     81  C   UNL A   1      31.010  23.675  23.654  1.00  0.00     0.019 C 
ATOM     82  C   UNL A   1      32.613  21.863  22.928  1.00  0.00     0.135 C 
ATOM     83  C   UNL A   1      31.245  23.232  25.103  1.00  0.00     0.022 C 
ATOM     84  N   UNL A   1      32.869  21.542  24.336  1.00  0.00    -0.338 N 
ATOM     85  C   UNL A   1      31.718  21.784  25.196  1.00  0.00     0.120 C 
BRANCH  84  86
ATOM     86  C   UNL A   1      34.019  20.847  24.687  1.00  0.00     0.246 C 
ATOM     87  O   UNL A   1      34.094  19.621  24.598  1.00  0.00    -0.270 OA
BRANCH  86  88
ATOM     88  C   UNL A   1      35.195  21.555  25.272  1.00  0.00     0.072 C 
ATOM     89  C   UNL A   1      36.487  21.284  25.025  1.00  0.00     0.018 C 
BRANCH  89  90
ATOM     90  C   UNL A   1      37.593  22.094  25.567  1.00  0.00     0.029 A 
ATOM     91  C   UNL A   1      37.412  23.460  25.814  1.00  0.00     0.131 A 
ATOM     92  C   UNL A   1      38.838  21.532  25.906  1.00  0.00     0.051 A 
ATOM     93  F   UNL A   1      36.245  24.051  25.517  1.00  0.00    -0.206 F 
ATOM     94  C   UNL A   1      38.416  24.241  26.393  1.00  0.00     0.040 A 
ATOM     95  C   UNL A   1      39.846  22.310  26.495  1.00  0.00     0.021 A 
ATOM     96  Cl  UNL A   1      39.195  19.858  25.646  1.00  0.00    -0.084 Cl
ATOM     97  C   UNL A   1      39.634  23.664  26.744  1.00  0.00     0.005 A 
ENDBRANCH  89  90
ENDBRANCH  86  88
ENDBRANCH  84  86
ENDBRANCH  78  80
ENDBRANCH  77  78
ENDBRANCH  76  77
ENDBRANCH  75  76
ENDBRANCH   1  75
TORSDOF 20
ENDMDL
