MODEL 1
REMARK VINA RESULT:     -10.1      0.000      0.000
REMARK SMILES O=C(OCCOCCOC(=O)[C@@H]([NH2+]CC1CC1)c1cccc(C2CC2)c1)c1ccc(-c2c3nc(c(-c4c(F)cc(S(=O)(=O)[O-])cc4F)c4ccc([nH]4)c(-c4c(F)cc(S(=O)(=O)[O-])cc4F)c4nc(c(-c5c(F)cc(S(=O)(=O)[O-])cc5F)c5ccc2[nH]5)C=C4)C=C3)cc1
REMARK SMILES IDX 6 1 5 2 4 3 3 4 2 5 1 6 27 7 28 8 92 9 29 10 91 11 30 12
REMARK SMILES IDX 31 13 32 14 85 15 33 16 90 17 84 18 86 19 34 20 89 21 83 22
REMARK SMILES IDX 82 23 35 25 69 26 48 27 68 28 49 29 52 30 67 31 87 32 50 33
REMARK SMILES IDX 51 34 66 36 88 37 53 38 36 39 37 40 46 41 38 42 39 43 45 44
REMARK SMILES IDX 47 45 40 46 41 47 42 48 43 49 44 50 70 51 71 52 80 53 72 54
REMARK SMILES IDX 73 55 79 56 81 57 74 58 75 59 76 60 77 61 78 62 54 63 55 64
REMARK SMILES IDX 64 65 56 66 57 67 63 68 65 69 58 70 59 71 60 72 61 73 62 74
REMARK SMILES IDX 7 75 8 76 9 77 10 78 11 79 12 80 13 81 14 84 15 85 16 86
REMARK SMILES IDX 17 87 18 88 19 89 26 90 20 91 22 92 21 93 23 94 24 95 25 96
REMARK H PARENT 86 24 52 35 13 82 13 83
REMARK Flexibility Score: inf
ROOT
ATOM      1  O   UNL A   1      39.121  21.157  25.835  1.00  0.00    -0.374 OA
ENDROOT
BRANCH   1   2
ATOM      2  C   UNL A   1      39.458  22.322  26.590  1.00  0.00     0.202 C 
BRANCH   2   3
ATOM      3  C   UNL A   1      40.952  22.669  26.612  1.00  0.00     0.261 C 
BRANCH   3   4
ATOM      4  O   UNL A   1      41.164  24.057  26.283  1.00  0.00    -0.460 OA
BRANCH   4   5
ATOM      5  C   UNL A   1      42.134  24.899  26.714  1.00  0.00     0.338 C 
ATOM      6  O   UNL A   1      43.261  24.790  26.232  1.00  0.00    -0.246 OA
BRANCH   5   7
ATOM      7  C   UNL A   1      41.917  25.948  27.757  1.00  0.00     0.060 A 
ATOM      8  C   UNL A   1      42.750  27.045  27.948  1.00  0.00     0.016 A 
ATOM      9  C   UNL A   1      40.762  25.864  28.557  1.00  0.00     0.016 A 
ATOM     10  C   UNL A   1      42.494  28.007  28.896  1.00  0.00     0.010 A 
ATOM     11  C   UNL A   1      40.478  26.841  29.521  1.00  0.00     0.010 A 
ATOM     12  C   UNL A   1      41.360  27.911  29.689  1.00  0.00    -0.014 A 
BRANCH  12  13
ATOM     13  C   UNL A   1      41.292  28.908  30.764  1.00  0.00     0.031 A 
ATOM     14  C   UNL A   1      40.166  29.893  30.719  1.00  0.00     0.074 A 
ATOM     15  C   UNL A   1      42.008  28.682  31.882  1.00  0.00     0.049 A 
ATOM     16  N   UNL A   1      39.815  30.783  31.602  1.00  0.00    -0.248 NA
ATOM     17  C   UNL A   1      39.287  29.837  29.535  1.00  0.00     0.031 C 
ATOM     18  C   UNL A   1      42.972  27.587  32.054  1.00  0.00     0.029 A 
ATOM     19  N   UNL A   1      41.977  29.289  33.106  1.00  0.00    -0.354 N 
ATOM     20  C   UNL A   1      38.689  31.403  31.078  1.00  0.00     0.074 A 
ATOM     21  C   UNL A   1      38.404  30.786  29.805  1.00  0.00     0.031 C 
ATOM     22  C   UNL A   1      43.408  27.580  33.323  1.00  0.00     0.029 A 
ATOM     23  C   UNL A   1      42.817  28.709  34.027  1.00  0.00     0.049 A 
ATOM     24  H   UNL A   1      41.407  30.066  33.309  1.00  0.00     0.167 HD
ATOM     25  C   UNL A   1      37.972  32.411  31.622  1.00  0.00     0.037 A 
ATOM     26  C   UNL A   1      43.099  29.087  35.289  1.00  0.00     0.037 A 
ATOM     27  C   UNL A   1      38.306  33.002  32.888  1.00  0.00     0.049 A 
ATOM     28  C   UNL A   1      42.376  30.297  35.817  1.00  0.00     0.074 A 
ATOM     29  C   UNL A   1      37.783  34.130  33.488  1.00  0.00     0.029 A 
ATOM     30  N   UNL A   1      39.265  32.489  33.755  1.00  0.00    -0.354 N 
ATOM     31  N   UNL A   1      41.416  30.992  35.250  1.00  0.00    -0.248 NA
ATOM     32  C   UNL A   1      42.787  30.795  37.134  1.00  0.00     0.031 C 
ATOM     33  C   UNL A   1      38.449  34.316  34.705  1.00  0.00     0.029 A 
ATOM     34  C   UNL A   1      39.356  33.279  34.884  1.00  0.00     0.049 A 
ATOM     35  H   UNL A   1      39.800  31.679  33.590  1.00  0.00     0.167 HD
ATOM     36  C   UNL A   1      41.113  32.016  36.135  1.00  0.00     0.074 A 
ATOM     37  C   UNL A   1      41.966  31.823  37.294  1.00  0.00     0.031 C 
ATOM     38  C   UNL A   1      40.228  33.037  36.006  1.00  0.00     0.037 A 
BRANCH  25  39
ATOM     39  C   UNL A   1      36.850  32.970  30.799  1.00  0.00     0.058 A 
ATOM     40  C   UNL A   1      37.061  33.951  29.818  1.00  0.00     0.135 A 
ATOM     41  C   UNL A   1      35.530  32.557  31.039  1.00  0.00     0.135 A 
ATOM     42  F   UNL A   1      38.299  34.414  29.580  1.00  0.00    -0.206 F 
ATOM     43  C   UNL A   1      36.000  34.515  29.115  1.00  0.00     0.059 A 
ATOM     44  C   UNL A   1      34.456  33.094  30.337  1.00  0.00     0.059 A 
ATOM     45  F   UNL A   1      35.271  31.640  31.985  1.00  0.00    -0.206 F 
ATOM     46  C   UNL A   1      34.699  34.084  29.386  1.00  0.00     0.060 A 
BRANCH  46  47
ATOM     47  S   UNL A   1      33.329  34.841  28.486  1.00  0.00     0.124 S 
ATOM     48  O   UNL A   1      34.037  35.712  27.553  1.00  0.00    -0.237 OA
ATOM     49  O   UNL A   1      32.668  33.683  27.894  1.00  0.00    -0.237 OA
ATOM     50  O   UNL A   1      32.573  35.524  29.530  1.00  0.00    -0.744 OA
ENDBRANCH  46  47
ENDBRANCH  25  39
BRANCH  26  51
ATOM     51  C   UNL A   1      44.165  28.400  36.069  1.00  0.00     0.058 A 
ATOM     52  C   UNL A   1      45.521  28.729  35.936  1.00  0.00     0.135 A 
ATOM     53  C   UNL A   1      43.838  27.358  36.957  1.00  0.00     0.135 A 
ATOM     54  F   UNL A   1      45.894  29.710  35.098  1.00  0.00    -0.206 F 
ATOM     55  C   UNL A   1      46.514  28.039  36.630  1.00  0.00     0.059 A 
ATOM     56  C   UNL A   1      44.808  26.677  37.685  1.00  0.00     0.059 A 
ATOM     57  F   UNL A   1      42.557  27.000  37.134  1.00  0.00    -0.206 F 
ATOM     58  C   UNL A   1      46.146  27.009  37.499  1.00  0.00     0.060 A 
BRANCH  58  59
ATOM     59  S   UNL A   1      47.429  26.112  38.399  1.00  0.00     0.124 S 
ATOM     60  O   UNL A   1      46.982  26.268  39.777  1.00  0.00    -0.237 OA
ATOM     61  O   UNL A   1      47.322  24.768  37.839  1.00  0.00    -0.237 OA
ATOM     62  O   UNL A   1      48.650  26.832  38.046  1.00  0.00    -0.744 OA
ENDBRANCH  58  59
ENDBRANCH  26  51
BRANCH  38  63
ATOM     63  C   UNL A   1      40.149  33.998  37.151  1.00  0.00     0.058 A 
ATOM     64  C   UNL A   1      39.302  33.760  38.244  1.00  0.00     0.135 A 
ATOM     65  C   UNL A   1      40.957  35.144  37.171  1.00  0.00     0.135 A 
ATOM     66  F   UNL A   1      38.508  32.677  38.262  1.00  0.00    -0.206 F 
ATOM     67  C   UNL A   1      39.238  34.646  39.310  1.00  0.00     0.059 A 
ATOM     68  C   UNL A   1      40.927  36.031  38.240  1.00  0.00     0.059 A 
ATOM     69  F   UNL A   1      41.790  35.403  36.150  1.00  0.00    -0.206 F 
ATOM     70  C   UNL A   1      40.053  35.779  39.298  1.00  0.00     0.060 A 
BRANCH  70  71
ATOM     71  S   UNL A   1      39.981  36.913  40.699  1.00  0.00     0.124 S 
ATOM     72  O   UNL A   1      41.161  37.739  40.467  1.00  0.00    -0.237 OA
ATOM     73  O   UNL A   1      38.695  37.574  40.504  1.00  0.00    -0.237 OA
ATOM     74  O   UNL A   1      40.052  36.023  41.855  1.00  0.00    -0.744 OA
ENDBRANCH  70  71
ENDBRANCH  38  63
ENDBRANCH  12  13
ENDBRANCH   5   7
ENDBRANCH   4   5
ENDBRANCH   3   4
ENDBRANCH   2   3
ENDBRANCH   1   2
BRANCH   1  75
ATOM     75  C   UNL A   1      37.902  21.236  25.092  1.00  0.00     0.202 C 
BRANCH  75  76
ATOM     76  C   UNL A   1      36.916  22.123  25.827  1.00  0.00     0.261 C 
BRANCH  76  77
ATOM     77  O   UNL A   1      35.617  21.911  25.258  1.00  0.00    -0.459 OA
BRANCH  77  78
ATOM     78  C   UNL A   1      34.656  21.415  26.097  1.00  0.00     0.369 C 
ATOM     79  O   UNL A   1      34.661  21.515  27.320  1.00  0.00    -0.245 OA
BRANCH  78  80
ATOM     80  C   UNL A   1      33.587  20.622  25.299  1.00  0.00     0.324 C 
BRANCH  80  81
ATOM     81  N   UNL A   1      33.022  19.539  26.140  1.00  0.00    -0.330 N 
ATOM     82  H   UNL A   1      32.123  19.857  26.502  1.00  0.00     0.347 HD
ATOM     83  H   UNL A   1      33.714  19.357  26.867  1.00  0.00     0.347 HD
BRANCH  81  84
ATOM     84  C   UNL A   1      32.809  18.270  25.459  1.00  0.00     0.264 C 
BRANCH  84  85
ATOM     85  C   UNL A   1      33.556  18.146  24.158  1.00  0.00     0.044 C 
ATOM     86  C   UNL A   1      33.764  16.809  23.487  1.00  0.00     0.010 C 
ATOM     87  C   UNL A   1      32.765  17.777  22.926  1.00  0.00     0.010 C 
ENDBRANCH  84  85
ENDBRANCH  81  84
ENDBRANCH  80  81
BRANCH  80  88
ATOM     88  C   UNL A   1      32.541  21.568  24.725  1.00  0.00     0.021 A 
ATOM     89  C   UNL A   1      32.380  21.701  23.345  1.00  0.00     0.010 A 
ATOM     90  C   UNL A   1      31.813  22.431  25.563  1.00  0.00     0.014 A 
ATOM     91  C   UNL A   1      31.568  22.713  22.837  1.00  0.00     0.001 A 
ATOM     92  C   UNL A   1      31.085  23.527  25.091  1.00  0.00    -0.044 A 
ATOM     93  C   UNL A   1      30.956  23.631  23.700  1.00  0.00     0.004 A 
BRANCH  92  94
ATOM     94  C   UNL A   1      30.561  24.602  26.027  1.00  0.00     0.019 C 
ATOM     95  C   UNL A   1      31.132  26.003  26.116  1.00  0.00     0.009 C 
ATOM     96  C   UNL A   1      29.845  25.777  25.384  1.00  0.00     0.009 C 
ENDBRANCH  92  94
ENDBRANCH  80  88
ENDBRANCH  78  80
ENDBRANCH  77  78
ENDBRANCH  76  77
ENDBRANCH  75  76
ENDBRANCH   1  75
TORSDOF 22
ENDMDL
MODEL 2
REMARK VINA RESULT:     -10.0      4.976     10.229
REMARK SMILES O=C(OCCOCCOC(=O)[C@@H]([NH2+]CC1CC1)c1cccc(C2CC2)c1)c1ccc(-c2c3nc(c(-c4c(F)cc(S(=O)(=O)[O-])cc4F)c4ccc([nH]4)c(-c4c(F)cc(S(=O)(=O)[O-])cc4F)c4nc(c(-c5c(F)cc(S(=O)(=O)[O-])cc5F)c5ccc2[nH]5)C=C4)C=C3)cc1
REMARK SMILES IDX 6 1 5 2 4 3 3 4 2 5 1 6 27 7 28 8 92 9 29 10 91 11 30 12
REMARK SMILES IDX 31 13 32 14 85 15 33 16 90 17 84 18 86 19 34 20 89 21 83 22
REMARK SMILES IDX 82 23 35 25 69 26 48 27 68 28 49 29 52 30 67 31 87 32 50 33
REMARK SMILES IDX 51 34 66 36 88 37 53 38 36 39 37 40 46 41 38 42 39 43 45 44
REMARK SMILES IDX 47 45 40 46 41 47 42 48 43 49 44 50 70 51 71 52 80 53 72 54
REMARK SMILES IDX 73 55 79 56 81 57 74 58 75 59 76 60 77 61 78 62 54 63 55 64
REMARK SMILES IDX 64 65 56 66 57 67 63 68 65 69 58 70 59 71 60 72 61 73 62 74
REMARK SMILES IDX 7 75 8 76 9 77 10 78 11 79 12 80 13 81 14 84 15 85 16 86
REMARK SMILES IDX 17 87 18 88 19 89 26 90 20 91 22 92 21 93 23 94 24 95 25 96
REMARK H PARENT 86 24 52 35 13 82 13 83
REMARK Flexibility Score: inf
ROOT
ATOM      1  O   UNL A   1      30.920  27.528  25.483  1.00  0.00    -0.374 OA
ENDROOT
BRANCH   1   2
ATOM      2  C   UNL A   1      31.796  28.592  25.857  1.00  0.00     0.202 C 
BRANCH   2   3
ATOM      3  C   UNL A   1      32.342  28.510  27.288  1.00  0.00     0.261 C 
BRANCH   3   4
ATOM      4  O   UNL A   1      33.773  28.683  27.306  1.00  0.00    -0.460 OA
BRANCH   4   5
ATOM      5  C   UNL A   1      34.503  29.708  27.809  1.00  0.00     0.338 C 
ATOM      6  O   UNL A   1      33.971  30.813  27.908  1.00  0.00    -0.246 OA
BRANCH   5   7
ATOM      7  C   UNL A   1      35.930  29.577  28.237  1.00  0.00     0.060 A 
ATOM      8  C   UNL A   1      37.020  29.762  27.395  1.00  0.00     0.016 A 
ATOM      9  C   UNL A   1      36.196  29.316  29.595  1.00  0.00     0.016 A 
ATOM     10  C   UNL A   1      38.317  29.668  27.839  1.00  0.00     0.010 A 
ATOM     11  C   UNL A   1      37.513  29.228  30.068  1.00  0.00     0.010 A 
ATOM     12  C   UNL A   1      38.573  29.399  29.175  1.00  0.00    -0.014 A 
BRANCH  12  13
ATOM     13  C   UNL A   1      39.989  29.164  29.481  1.00  0.00     0.031 A 
ATOM     14  C   UNL A   1      40.578  27.857  29.052  1.00  0.00     0.074 A 
ATOM     15  C   UNL A   1      40.750  30.226  29.806  1.00  0.00     0.049 A 
ATOM     16  N   UNL A   1      41.818  27.461  29.091  1.00  0.00    -0.248 NA
ATOM     17  C   UNL A   1      39.649  26.879  28.453  1.00  0.00     0.031 C 
ATOM     18  C   UNL A   1      40.242  31.587  30.024  1.00  0.00     0.029 A 
ATOM     19  N   UNL A   1      42.106  30.359  29.919  1.00  0.00    -0.354 N 
ATOM     20  C   UNL A   1      41.818  26.186  28.541  1.00  0.00     0.074 A 
ATOM     21  C   UNL A   1      40.460  25.873  28.163  1.00  0.00     0.031 C 
ATOM     22  C   UNL A   1      41.278  32.421  30.204  1.00  0.00     0.029 A 
ATOM     23  C   UNL A   1      42.511  31.644  30.192  1.00  0.00     0.049 A 
ATOM     24  H   UNL A   1      42.732  29.606  29.813  1.00  0.00     0.167 HD
ATOM     25  C   UNL A   1      42.872  25.354  28.382  1.00  0.00     0.037 A 
ATOM     26  C   UNL A   1      43.745  32.119  30.444  1.00  0.00     0.037 A 
ATOM     27  C   UNL A   1      44.203  25.708  28.789  1.00  0.00     0.049 A 
ATOM     28  C   UNL A   1      44.881  31.134  30.388  1.00  0.00     0.074 A 
ATOM     29  C   UNL A   1      45.334  24.918  28.848  1.00  0.00     0.029 A 
ATOM     30  N   UNL A   1      44.576  26.982  29.204  1.00  0.00    -0.354 N 
ATOM     31  N   UNL A   1      44.856  29.872  30.022  1.00  0.00    -0.248 NA
ATOM     32  C   UNL A   1      46.202  31.617  30.802  1.00  0.00     0.031 C 
ATOM     33  C   UNL A   1      46.384  25.708  29.330  1.00  0.00     0.029 A 
ATOM     34  C   UNL A   1      45.918  27.001  29.529  1.00  0.00     0.049 A 
ATOM     35  H   UNL A   1      43.971  27.757  29.258  1.00  0.00     0.167 HD
ATOM     36  C   UNL A   1      46.154  29.406  30.172  1.00  0.00     0.074 A 
ATOM     37  C   UNL A   1      46.946  30.536  30.623  1.00  0.00     0.031 C 
ATOM     38  C   UNL A   1      46.652  28.159  29.975  1.00  0.00     0.037 A 
BRANCH  25  39
ATOM     39  C   UNL A   1      42.583  23.984  27.847  1.00  0.00     0.058 A 
ATOM     40  C   UNL A   1      42.466  22.865  28.685  1.00  0.00     0.135 A 
ATOM     41  C   UNL A   1      42.479  23.779  26.462  1.00  0.00     0.135 A 
ATOM     42  F   UNL A   1      42.603  22.998  30.015  1.00  0.00    -0.206 F 
ATOM     43  C   UNL A   1      42.273  21.586  28.167  1.00  0.00     0.059 A 
ATOM     44  C   UNL A   1      42.269  22.514  25.923  1.00  0.00     0.059 A 
ATOM     45  F   UNL A   1      42.608  24.813  25.615  1.00  0.00    -0.206 F 
ATOM     46  C   UNL A   1      42.182  21.420  26.784  1.00  0.00     0.060 A 
BRANCH  46  47
ATOM     47  S   UNL A   1      41.957  19.756  26.122  1.00  0.00     0.124 S 
ATOM     48  O   UNL A   1      40.531  19.754  25.813  1.00  0.00    -0.237 OA
ATOM     49  O   UNL A   1      42.855  19.753  24.972  1.00  0.00    -0.237 OA
ATOM     50  O   UNL A   1      42.359  18.892  27.228  1.00  0.00    -0.744 OA
ENDBRANCH  46  47
ENDBRANCH  25  39
BRANCH  26  51
ATOM     51  C   UNL A   1      43.944  33.532  30.872  1.00  0.00     0.058 A 
ATOM     52  C   UNL A   1      43.855  33.928  32.214  1.00  0.00     0.135 A 
ATOM     53  C   UNL A   1      44.202  34.535  29.919  1.00  0.00     0.135 A 
ATOM     54  F   UNL A   1      43.604  33.016  33.167  1.00  0.00    -0.206 F 
ATOM     55  C   UNL A   1      43.987  35.262  32.594  1.00  0.00     0.059 A 
ATOM     56  C   UNL A   1      44.369  35.868  30.278  1.00  0.00     0.059 A 
ATOM     57  F   UNL A   1      44.305  34.220  28.619  1.00  0.00    -0.206 F 
ATOM     58  C   UNL A   1      44.238  36.227  31.616  1.00  0.00     0.060 A 
BRANCH  58  59
ATOM     59  S   UNL A   1      44.408  37.957  32.105  1.00  0.00     0.124 S 
ATOM     60  O   UNL A   1      43.478  38.036  33.223  1.00  0.00    -0.237 OA
ATOM     61  O   UNL A   1      45.825  38.049  32.443  1.00  0.00    -0.237 OA
ATOM     62  O   UNL A   1      44.013  38.685  30.902  1.00  0.00    -0.744 OA
ENDBRANCH  58  59
ENDBRANCH  26  51
BRANCH  38  63
ATOM     63  C   UNL A   1      48.114  27.977  30.244  1.00  0.00     0.058 A 
ATOM     64  C   UNL A   1      49.078  28.333  29.289  1.00  0.00     0.135 A 
ATOM     65  C   UNL A   1      48.551  27.481  31.480  1.00  0.00     0.135 A 
ATOM     66  F   UNL A   1      48.702  28.806  28.090  1.00  0.00    -0.206 F 
ATOM     67  C   UNL A   1      50.434  28.174  29.542  1.00  0.00     0.059 A 
ATOM     68  C   UNL A   1      49.903  27.338  31.764  1.00  0.00     0.059 A 
ATOM     69  F   UNL A   1      47.661  27.140  32.426  1.00  0.00    -0.206 F 
ATOM     70  C   UNL A   1      50.836  27.674  30.783  1.00  0.00     0.060 A 
BRANCH  70  71
ATOM     71  S   UNL A   1      52.599  27.495  31.113  1.00  0.00     0.124 S 
ATOM     72  O   UNL A   1      53.137  28.700  30.492  1.00  0.00    -0.237 OA
ATOM     73  O   UNL A   1      52.645  27.457  32.571  1.00  0.00    -0.237 OA
ATOM     74  O   UNL A   1      52.940  26.239  30.449  1.00  0.00    -0.744 OA
ENDBRANCH  70  71
ENDBRANCH  38  63
ENDBRANCH  12  13
ENDBRANCH   5   7
ENDBRANCH   4   5
ENDBRANCH   3   4
ENDBRANCH   2   3
ENDBRANCH   1   2
BRANCH   1  75
ATOM     75  C   UNL A   1      31.561  26.341  25.007  1.00  0.00     0.202 C 
BRANCH  75  76
ATOM     76  C   UNL A   1      30.770  25.124  25.447  1.00  0.00     0.261 C 
BRANCH  76  77
ATOM     77  O   UNL A   1      31.617  24.319  26.277  1.00  0.00    -0.459 OA
BRANCH  77  78
ATOM     78  C   UNL A   1      31.398  22.968  26.246  1.00  0.00     0.369 C 
ATOM     79  O   UNL A   1      30.297  22.427  26.271  1.00  0.00    -0.245 OA
BRANCH  78  80
ATOM     80  C   UNL A   1      32.743  22.194  26.262  1.00  0.00     0.324 C 
BRANCH  80  81
ATOM     81  N   UNL A   1      32.493  20.735  26.187  1.00  0.00    -0.330 N 
ATOM     82  H   UNL A   1      31.529  20.595  25.882  1.00  0.00     0.347 HD
ATOM     83  H   UNL A   1      32.684  20.367  27.119  1.00  0.00     0.347 HD
BRANCH  81  84
ATOM     84  C   UNL A   1      33.362  20.000  25.279  1.00  0.00     0.264 C 
BRANCH  84  85
ATOM     85  C   UNL A   1      32.720  18.778  24.679  1.00  0.00     0.044 C 
ATOM     86  C   UNL A   1      32.580  18.607  23.185  1.00  0.00     0.010 C 
ATOM     87  C   UNL A   1      33.608  17.812  23.933  1.00  0.00     0.010 C 
ENDBRANCH  84  85
ENDBRANCH  81  84
ENDBRANCH  80  81
BRANCH  80  88
ATOM     88  C   UNL A   1      33.673  22.718  25.178  1.00  0.00     0.021 A 
ATOM     89  C   UNL A   1      33.293  22.685  23.835  1.00  0.00     0.010 A 
ATOM     90  C   UNL A   1      34.987  23.116  25.484  1.00  0.00     0.014 A 
ATOM     91  C   UNL A   1      34.228  22.976  22.843  1.00  0.00     0.001 A 
ATOM     92  C   UNL A   1      35.979  23.300  24.518  1.00  0.00    -0.044 A 
ATOM     93  C   UNL A   1      35.559  23.248  23.182  1.00  0.00     0.004 A 
BRANCH  92  94
ATOM     94  C   UNL A   1      37.445  23.434  24.893  1.00  0.00     0.019 C 
ATOM     95  C   UNL A   1      37.939  23.793  26.279  1.00  0.00     0.009 C 
ATOM     96  C   UNL A   1      38.014  22.371  25.816  1.00  0.00     0.009 C 
ENDBRANCH  92  94
ENDBRANCH  80  88
ENDBRANCH  78  80
ENDBRANCH  77  78
ENDBRANCH  76  77
ENDBRANCH  75  76
ENDBRANCH   1  75
TORSDOF 22
ENDMDL
MODEL 3
REMARK VINA RESULT:      -9.9      6.698     11.809
REMARK SMILES O=C(OCCOCCOC(=O)[C@@H]([NH2+]CC1CC1)c1cccc(C2CC2)c1)c1ccc(-c2c3nc(c(-c4c(F)cc(S(=O)(=O)[O-])cc4F)c4ccc([nH]4)c(-c4c(F)cc(S(=O)(=O)[O-])cc4F)c4nc(c(-c5c(F)cc(S(=O)(=O)[O-])cc5F)c5ccc2[nH]5)C=C4)C=C3)cc1
REMARK SMILES IDX 6 1 5 2 4 3 3 4 2 5 1 6 27 7 28 8 92 9 29 10 91 11 30 12
REMARK SMILES IDX 31 13 32 14 85 15 33 16 90 17 84 18 86 19 34 20 89 21 83 22
REMARK SMILES IDX 82 23 35 25 69 26 48 27 68 28 49 29 52 30 67 31 87 32 50 33
REMARK SMILES IDX 51 34 66 36 88 37 53 38 36 39 37 40 46 41 38 42 39 43 45 44
REMARK SMILES IDX 47 45 40 46 41 47 42 48 43 49 44 50 70 51 71 52 80 53 72 54
REMARK SMILES IDX 73 55 79 56 81 57 74 58 75 59 76 60 77 61 78 62 54 63 55 64
REMARK SMILES IDX 64 65 56 66 57 67 63 68 65 69 58 70 59 71 60 72 61 73 62 74
REMARK SMILES IDX 7 75 8 76 9 77 10 78 11 79 12 80 13 81 14 84 15 85 16 86
REMARK SMILES IDX 17 87 18 88 19 89 26 90 20 91 22 92 21 93 23 94 24 95 25 96
REMARK H PARENT 86 24 52 35 13 82 13 83
REMARK Flexibility Score: inf
ROOT
ATOM      1  O   UNL A   1      33.447  31.305  27.619  1.00  0.00    -0.374 OA
ENDROOT
BRANCH   1   2
ATOM      2  C   UNL A   1      34.702  31.852  28.027  1.00  0.00     0.202 C 
BRANCH   2   3
ATOM      3  C   UNL A   1      34.805  32.196  29.518  1.00  0.00     0.261 C 
BRANCH   3   4
ATOM      4  O   UNL A   1      36.103  31.849  30.039  1.00  0.00    -0.460 OA
BRANCH   4   5
ATOM      5  C   UNL A   1      36.622  30.623  30.294  1.00  0.00     0.338 C 
ATOM      6  O   UNL A   1      35.996  29.864  31.034  1.00  0.00    -0.246 OA
BRANCH   5   7
ATOM      7  C   UNL A   1      37.923  30.141  29.737  1.00  0.00     0.060 A 
ATOM      8  C   UNL A   1      38.984  29.685  30.511  1.00  0.00     0.016 A 
ATOM      9  C   UNL A   1      38.068  30.081  28.338  1.00  0.00     0.016 A 
ATOM     10  C   UNL A   1      40.151  29.216  29.956  1.00  0.00     0.010 A 
ATOM     11  C   UNL A   1      39.246  29.596  27.754  1.00  0.00     0.010 A 
ATOM     12  C   UNL A   1      40.292  29.170  28.577  1.00  0.00    -0.014 A 
BRANCH  12  13
ATOM     13  C   UNL A   1      41.638  28.806  28.121  1.00  0.00     0.031 A 
ATOM     14  C   UNL A   1      42.730  29.808  28.332  1.00  0.00     0.074 A 
ATOM     15  C   UNL A   1      41.890  27.508  27.866  1.00  0.00     0.049 A 
ATOM     16  N   UNL A   1      44.011  29.682  28.135  1.00  0.00    -0.248 NA
ATOM     17  C   UNL A   1      42.328  31.116  28.884  1.00  0.00     0.031 C 
ATOM     18  C   UNL A   1      40.879  26.442  27.864  1.00  0.00     0.029 A 
ATOM     19  N   UNL A   1      43.066  26.846  27.652  1.00  0.00    -0.354 N 
ATOM     20  C   UNL A   1      44.567  30.894  28.522  1.00  0.00     0.074 A 
ATOM     21  C   UNL A   1      43.491  31.743  28.975  1.00  0.00     0.031 C 
ATOM     22  C   UNL A   1      41.488  25.258  27.699  1.00  0.00     0.029 A 
ATOM     23  C   UNL A   1      42.913  25.488  27.506  1.00  0.00     0.049 A 
ATOM     24  H   UNL A   1      43.939  27.299  27.609  1.00  0.00     0.167 HD
ATOM     25  C   UNL A   1      45.869  31.256  28.483  1.00  0.00     0.037 A 
ATOM     26  C   UNL A   1      43.830  24.548  27.209  1.00  0.00     0.037 A 
ATOM     27  C   UNL A   1      46.902  30.377  28.008  1.00  0.00     0.049 A 
ATOM     28  C   UNL A   1      45.253  25.010  27.042  1.00  0.00     0.074 A 
ATOM     29  C   UNL A   1      48.230  30.654  27.753  1.00  0.00     0.029 A 
ATOM     30  N   UNL A   1      46.705  29.031  27.723  1.00  0.00    -0.354 N 
ATOM     31  N   UNL A   1      45.757  26.206  27.249  1.00  0.00    -0.248 NA
ATOM     32  C   UNL A   1      46.225  24.017  26.577  1.00  0.00     0.031 C 
ATOM     33  C   UNL A   1      48.829  29.479  27.283  1.00  0.00     0.029 A 
ATOM     34  C   UNL A   1      47.884  28.461  27.287  1.00  0.00     0.049 A 
ATOM     35  H   UNL A   1      45.849  28.553  27.819  1.00  0.00     0.167 HD
ATOM     36  C   UNL A   1      47.104  26.113  26.930  1.00  0.00     0.074 A 
ATOM     37  C   UNL A   1      47.341  24.730  26.555  1.00  0.00     0.031 C 
ATOM     38  C   UNL A   1      48.060  27.076  26.925  1.00  0.00     0.037 A 
BRANCH  25  39
ATOM     39  C   UNL A   1      46.194  32.668  28.867  1.00  0.00     0.058 A 
ATOM     40  C   UNL A   1      46.143  33.724  27.944  1.00  0.00     0.135 A 
ATOM     41  C   UNL A   1      46.622  32.960  30.172  1.00  0.00     0.135 A 
ATOM     42  F   UNL A   1      45.784  33.492  26.670  1.00  0.00    -0.206 F 
ATOM     43  C   UNL A   1      46.521  35.017  28.296  1.00  0.00     0.059 A 
ATOM     44  C   UNL A   1      46.989  34.247  30.552  1.00  0.00     0.059 A 
ATOM     45  F   UNL A   1      46.713  31.981  31.087  1.00  0.00    -0.206 F 
ATOM     46  C   UNL A   1      46.949  35.267  29.602  1.00  0.00     0.060 A 
BRANCH  46  47
ATOM     47  S   UNL A   1      47.461  36.942  30.042  1.00  0.00     0.124 S 
ATOM     48  O   UNL A   1      46.714  37.739  29.074  1.00  0.00    -0.237 OA
ATOM     49  O   UNL A   1      47.018  37.049  31.428  1.00  0.00    -0.237 OA
ATOM     50  O   UNL A   1      48.908  36.917  29.849  1.00  0.00    -0.744 OA
ENDBRANCH  46  47
ENDBRANCH  25  39
BRANCH  26  51
ATOM     51  C   UNL A   1      43.420  23.141  26.943  1.00  0.00     0.058 A 
ATOM     52  C   UNL A   1      43.079  22.253  27.974  1.00  0.00     0.135 A 
ATOM     53  C   UNL A   1      43.394  22.643  25.627  1.00  0.00     0.135 A 
ATOM     54  F   UNL A   1      43.093  22.669  29.250  1.00  0.00    -0.206 F 
ATOM     55  C   UNL A   1      42.752  20.923  27.715  1.00  0.00     0.059 A 
ATOM     56  C   UNL A   1      43.040  21.329  25.342  1.00  0.00     0.059 A 
ATOM     57  F   UNL A   1      43.704  23.445  24.597  1.00  0.00    -0.206 F 
ATOM     58  C   UNL A   1      42.741  20.469  26.394  1.00  0.00     0.060 A 
BRANCH  58  59
ATOM     59  S   UNL A   1      42.320  18.745  26.056  1.00  0.00     0.124 S 
ATOM     60  O   UNL A   1      40.921  18.858  25.666  1.00  0.00    -0.237 OA
ATOM     61  O   UNL A   1      43.255  18.398  24.991  1.00  0.00    -0.237 OA
ATOM     62  O   UNL A   1      42.568  18.084  27.335  1.00  0.00    -0.744 OA
ENDBRANCH  58  59
ENDBRANCH  26  51
BRANCH  38  63
ATOM     63  C   UNL A   1      49.433  26.648  26.510  1.00  0.00     0.058 A 
ATOM     64  C   UNL A   1      49.853  26.749  25.175  1.00  0.00     0.135 A 
ATOM     65  C   UNL A   1      50.345  26.172  27.461  1.00  0.00     0.135 A 
ATOM     66  F   UNL A   1      49.008  27.195  24.231  1.00  0.00    -0.206 F 
ATOM     67  C   UNL A   1      51.129  26.362  24.791  1.00  0.00     0.059 A 
ATOM     68  C   UNL A   1      51.635  25.803  27.104  1.00  0.00     0.059 A 
ATOM     69  F   UNL A   1      49.987  26.071  28.752  1.00  0.00    -0.206 F 
ATOM     70  C   UNL A   1      52.012  25.889  25.763  1.00  0.00     0.060 A 
BRANCH  70  71
ATOM     71  S   UNL A   1      53.677  25.411  25.261  1.00  0.00     0.124 S 
ATOM     72  O   UNL A   1      53.993  26.442  24.278  1.00  0.00    -0.237 OA
ATOM     73  O   UNL A   1      54.418  25.483  26.516  1.00  0.00    -0.237 OA
ATOM     74  O   UNL A   1      53.494  24.065  24.726  1.00  0.00    -0.744 OA
ENDBRANCH  70  71
ENDBRANCH  38  63
ENDBRANCH  12  13
ENDBRANCH   5   7
ENDBRANCH   4   5
ENDBRANCH   3   4
ENDBRANCH   2   3
ENDBRANCH   1   2
BRANCH   1  75
ATOM     75  C   UNL A   1      33.522  30.160  26.767  1.00  0.00     0.202 C 
BRANCH  75  76
ATOM     76  C   UNL A   1      34.368  29.088  27.428  1.00  0.00     0.261 C 
BRANCH  76  77
ATOM     77  O   UNL A   1      33.994  27.821  26.871  1.00  0.00    -0.459 OA
BRANCH  77  78
ATOM     78  C   UNL A   1      32.657  27.613  26.667  1.00  0.00     0.369 C 
ATOM     79  O   UNL A   1      31.761  27.945  27.438  1.00  0.00    -0.245 OA
BRANCH  78  80
ATOM     80  C   UNL A   1      32.419  26.812  25.359  1.00  0.00     0.324 C 
BRANCH  80  81
ATOM     81  N   UNL A   1      32.914  27.584  24.193  1.00  0.00    -0.330 N 
ATOM     82  H   UNL A   1      33.724  27.095  23.812  1.00  0.00     0.347 HD
ATOM     83  H   UNL A   1      33.128  28.518  24.543  1.00  0.00     0.347 HD
BRANCH  81  84
ATOM     84  C   UNL A   1      31.953  27.767  23.115  1.00  0.00     0.264 C 
BRANCH  84  85
ATOM     85  C   UNL A   1      30.853  28.742  23.442  1.00  0.00     0.044 C 
ATOM     86  C   UNL A   1      30.033  29.404  22.360  1.00  0.00     0.010 C 
ATOM     87  C   UNL A   1      29.430  28.307  23.187  1.00  0.00     0.010 C 
ENDBRANCH  84  85
ENDBRANCH  81  84
ENDBRANCH  80  81
BRANCH  80  88
ATOM     88  C   UNL A   1      33.014  25.416  25.473  1.00  0.00     0.021 A 
ATOM     89  C   UNL A   1      32.483  24.485  26.367  1.00  0.00     0.010 A 
ATOM     90  C   UNL A   1      34.195  25.077  24.788  1.00  0.00     0.014 A 
ATOM     91  C   UNL A   1      33.160  23.291  26.608  1.00  0.00     0.001 A 
ATOM     92  C   UNL A   1      34.959  23.946  25.088  1.00  0.00    -0.044 A 
ATOM     93  C   UNL A   1      34.396  23.043  25.998  1.00  0.00     0.004 A 
BRANCH  92  94
ATOM     94  C   UNL A   1      36.366  23.765  24.545  1.00  0.00     0.019 C 
ATOM     95  C   UNL A   1      37.349  22.733  25.058  1.00  0.00     0.009 C 
ATOM     96  C   UNL A   1      36.638  22.492  23.763  1.00  0.00     0.009 C 
ENDBRANCH  92  94
ENDBRANCH  80  88
ENDBRANCH  78  80
ENDBRANCH  77  78
ENDBRANCH  76  77
ENDBRANCH  75  76
ENDBRANCH   1  75
TORSDOF 22
ENDMDL
