MODEL 1
REMARK VINA RESULT:     -11.2      0.000      0.000
REMARK SMILES Cc1ccc(Cl)c(Nc2ccccc2C(=O)N[C@@H](C)C(=O)OCCOCCOC(=O)c2ccc(-c3c4nc(c(-c5c(F)cc(S(=O)(=O)[O-])cc5F)c5ccc([nH]5)c(-c5c(F)cc(S(=O)(=O)[O-])cc5F)c5nc(c(-c6c(F)cc(S(=O)(=O)[O-])cc6F)c6ccc3[nH]6)C=C5)C=C4)cc2)c1Cl
REMARK SMILES IDX 24 1 23 2 22 3 20 4 21 5 18 6 19 7 17 8 15 9 16 10 14 12
REMARK SMILES IDX 9 13 10 14 11 15 13 16 12 17 8 18 7 20 1 21 2 22 3 23 97 24
REMARK SMILES IDX 4 25 98 26 5 27 6 28 25 29 26 30 27 31 28 32 29 33 30 34
REMARK SMILES IDX 31 35 32 36 96 37 33 38 95 39 34 40 35 41 36 42 89 43 37 44
REMARK SMILES IDX 94 45 88 46 90 47 38 48 93 49 87 50 86 51 39 53 73 54 52 55
REMARK SMILES IDX 72 56 53 57 56 58 71 59 91 60 54 61 55 62 70 64 92 65 57 66
REMARK SMILES IDX 40 67 41 68 50 69 42 70 43 71 49 72 51 73 44 74 45 75 46 76
REMARK SMILES IDX 47 77 48 78 74 79 75 80 84 81 76 82 77 83 83 84 85 85 78 86
REMARK SMILES IDX 79 87 80 88 81 89 82 90 58 91 59 92 68 93 60 94 61 95 67 96
REMARK SMILES IDX 69 97 62 98 63 99 64 100 65 101 66 102
REMARK H PARENT 17 11 8 19 90 52 56 63
REMARK Flexibility Score: inf
ROOT
ATOM      1  C   UNL A   1      34.334  34.061  30.046  1.00  0.00     0.202 C 
ENDROOT
BRANCH   1   2
ATOM      2  C   UNL A   1      34.798  32.770  29.232  1.00  0.00     0.261 C 
BRANCH   2   3
ATOM      3  O   UNL A   1      34.284  32.514  27.879  1.00  0.00    -0.462 OA
BRANCH   3   4
ATOM      4  C   UNL A   1      34.364  31.213  27.420  1.00  0.00     0.328 C 
ATOM      5  O   UNL A   1      35.373  30.525  27.580  1.00  0.00    -0.250 OA
BRANCH   4   6
ATOM      6  C   UNL A   1      33.012  30.570  26.872  1.00  0.00     0.189 C 
ATOM      7  C   UNL A   1      31.923  31.644  26.774  1.00  0.00     0.043 C 
BRANCH   6   8
ATOM      8  N   UNL A   1      32.437  29.391  27.516  1.00  0.00    -0.339 N 
ATOM      9  C   UNL A   1      31.629  28.332  27.161  1.00  0.00     0.254 C 
ATOM     10  O   UNL A   1      31.232  27.734  28.177  1.00  0.00    -0.269 OA
ATOM     11  H   UNL A   1      32.698  29.339  28.463  1.00  0.00     0.164 HD
BRANCH   9  12
ATOM     12  C   UNL A   1      31.188  27.739  25.810  1.00  0.00     0.063 A 
ATOM     13  C   UNL A   1      30.818  26.446  25.349  1.00  0.00     0.051 A 
ATOM     14  C   UNL A   1      30.425  26.259  23.983  1.00  0.00     0.027 A 
ATOM     15  C   UNL A   1      30.317  27.308  23.080  1.00  0.00     0.002 A 
ATOM     16  C   UNL A   1      31.110  28.768  24.816  1.00  0.00     0.016 A 
ATOM     17  C   UNL A   1      30.667  28.572  23.499  1.00  0.00     0.001 A 
BRANCH  13  18
ATOM     18  N   UNL A   1      30.521  25.305  26.131  1.00  0.00    -0.352 N 
ATOM     19  H   UNL A   1      29.672  25.290  26.627  1.00  0.00     0.167 HD
BRANCH  18  20
ATOM     20  C   UNL A   1      31.394  24.162  26.238  1.00  0.00     0.077 A 
ATOM     21  C   UNL A   1      33.439  24.036  23.415  1.00  0.00     0.046 C 
ATOM     22  C   UNL A   1      32.886  23.359  24.631  1.00  0.00    -0.030 A 
ATOM     23  C   UNL A   1      32.307  22.087  24.700  1.00  0.00     0.006 A 
ATOM     24  C   UNL A   1      32.656  24.222  25.671  1.00  0.00     0.069 A 
ATOM     25  C   UNL A   1      31.331  21.817  25.660  1.00  0.00     0.023 A 
ATOM     26  Cl  UNL A   1      33.844  25.424  26.040  1.00  0.00    -0.082 Cl
ATOM     27  C   UNL A   1      30.813  22.890  26.376  1.00  0.00     0.066 A 
ATOM     28  Cl  UNL A   1      29.373  22.681  27.298  1.00  0.00    -0.082 Cl
ENDBRANCH  18  20
ENDBRANCH  13  18
ENDBRANCH   9  12
ENDBRANCH   6   8
ENDBRANCH   4   6
ENDBRANCH   3   4
ENDBRANCH   2   3
ENDBRANCH   1   2
BRANCH   1  29
ATOM     29  O   UNL A   1      34.168  34.008  31.466  1.00  0.00    -0.374 OA
BRANCH  29  30
ATOM     30  C   UNL A   1      34.508  32.771  32.134  1.00  0.00     0.202 C 
BRANCH  30  31
ATOM     31  C   UNL A   1      35.845  32.743  32.916  1.00  0.00     0.261 C 
BRANCH  31  32
ATOM     32  O   UNL A   1      36.785  31.979  32.165  1.00  0.00    -0.460 OA
BRANCH  32  33
ATOM     33  C   UNL A   1      37.620  32.648  31.359  1.00  0.00     0.338 C 
ATOM     34  O   UNL A   1      37.811  33.856  31.294  1.00  0.00    -0.246 OA
BRANCH  33  35
ATOM     35  C   UNL A   1      38.451  31.616  30.735  1.00  0.00     0.060 A 
ATOM     36  C   UNL A   1      39.387  30.988  31.568  1.00  0.00     0.016 A 
ATOM     37  C   UNL A   1      38.398  31.335  29.374  1.00  0.00     0.016 A 
ATOM     38  C   UNL A   1      40.290  30.079  31.051  1.00  0.00     0.010 A 
ATOM     39  C   UNL A   1      39.349  30.460  28.838  1.00  0.00     0.010 A 
ATOM     40  C   UNL A   1      40.332  29.883  29.669  1.00  0.00    -0.014 A 
BRANCH  40  41
ATOM     41  C   UNL A   1      41.616  29.399  29.114  1.00  0.00     0.031 A 
ATOM     42  C   UNL A   1      42.771  30.368  29.090  1.00  0.00     0.074 A 
ATOM     43  C   UNL A   1      41.810  28.111  28.786  1.00  0.00     0.049 A 
ATOM     44  N   UNL A   1      43.993  30.190  28.663  1.00  0.00    -0.248 NA
ATOM     45  C   UNL A   1      42.515  31.713  29.636  1.00  0.00     0.031 C 
ATOM     46  C   UNL A   1      40.811  27.049  28.874  1.00  0.00     0.029 A 
ATOM     47  N   UNL A   1      42.936  27.484  28.319  1.00  0.00    -0.354 N 
ATOM     48  C   UNL A   1      44.642  31.402  28.867  1.00  0.00     0.074 A 
ATOM     49  C   UNL A   1      43.678  32.313  29.442  1.00  0.00     0.031 C 
ATOM     50  C   UNL A   1      41.368  25.898  28.453  1.00  0.00     0.029 A 
ATOM     51  C   UNL A   1      42.749  26.155  28.037  1.00  0.00     0.049 A 
ATOM     52  H   UNL A   1      43.798  27.945  28.196  1.00  0.00     0.167 HD
ATOM     53  C   UNL A   1      45.927  31.730  28.604  1.00  0.00     0.037 A 
ATOM     54  C   UNL A   1      43.587  25.257  27.481  1.00  0.00     0.037 A 
ATOM     55  C   UNL A   1      46.896  30.826  28.044  1.00  0.00     0.049 A 
ATOM     56  C   UNL A   1      44.991  25.669  27.112  1.00  0.00     0.074 A 
ATOM     57  C   UNL A   1      48.219  31.077  27.728  1.00  0.00     0.029 A 
ATOM     58  N   UNL A   1      46.651  29.503  27.716  1.00  0.00    -0.354 N 
ATOM     59  N   UNL A   1      45.586  26.827  27.277  1.00  0.00    -0.248 NA
ATOM     60  C   UNL A   1      45.838  24.645  26.483  1.00  0.00     0.031 C 
ATOM     61  C   UNL A   1      48.762  29.918  27.166  1.00  0.00     0.029 A 
ATOM     62  C   UNL A   1      47.793  28.928  27.185  1.00  0.00     0.049 A 
ATOM     63  H   UNL A   1      45.791  29.039  27.842  1.00  0.00     0.167 HD
ATOM     64  C   UNL A   1      46.886  26.659  26.803  1.00  0.00     0.074 A 
ATOM     65  C   UNL A   1      46.991  25.287  26.353  1.00  0.00     0.031 C 
ATOM     66  C   UNL A   1      47.900  27.558  26.752  1.00  0.00     0.037 A 
BRANCH  53  67
ATOM     67  C   UNL A   1      46.348  33.146  28.877  1.00  0.00     0.058 A 
ATOM     68  C   UNL A   1      46.909  33.533  30.103  1.00  0.00     0.135 A 
ATOM     69  C   UNL A   1      46.207  34.123  27.879  1.00  0.00     0.135 A 
ATOM     70  F   UNL A   1      47.039  32.642  31.100  1.00  0.00    -0.206 F 
ATOM     71  C   UNL A   1      47.302  34.846  30.337  1.00  0.00     0.059 A 
ATOM     72  C   UNL A   1      46.619  35.436  28.081  1.00  0.00     0.059 A 
ATOM     73  F   UNL A   1      45.667  33.806  26.692  1.00  0.00    -0.206 F 
ATOM     74  C   UNL A   1      47.152  35.790  29.319  1.00  0.00     0.060 A 
BRANCH  74  75
ATOM     75  S   UNL A   1      47.678  37.488  29.631  1.00  0.00     0.124 S 
ATOM     76  O   UNL A   1      46.451  38.080  30.157  1.00  0.00    -0.237 OA
ATOM     77  O   UNL A   1      48.758  37.308  30.596  1.00  0.00    -0.237 OA
ATOM     78  O   UNL A   1      48.091  37.964  28.315  1.00  0.00    -0.744 OA
ENDBRANCH  74  75
ENDBRANCH  53  67
BRANCH  54  79
ATOM     79  C   UNL A   1      43.113  23.876  27.207  1.00  0.00     0.058 A 
ATOM     80  C   UNL A   1      42.633  23.508  25.942  1.00  0.00     0.135 A 
ATOM     81  C   UNL A   1      43.110  22.902  28.219  1.00  0.00     0.135 A 
ATOM     82  F   UNL A   1      42.601  24.410  24.949  1.00  0.00    -0.206 F 
ATOM     83  C   UNL A   1      42.152  22.228  25.691  1.00  0.00     0.059 A 
ATOM     84  C   UNL A   1      42.661  21.607  27.985  1.00  0.00     0.059 A 
ATOM     85  F   UNL A   1      43.564  23.204  29.445  1.00  0.00    -0.206 F 
ATOM     86  C   UNL A   1      42.174  21.282  26.719  1.00  0.00     0.060 A 
BRANCH  86  87
ATOM     87  S   UNL A   1      41.598  19.608  26.369  1.00  0.00     0.124 S 
ATOM     88  O   UNL A   1      42.429  19.245  25.227  1.00  0.00    -0.237 OA
ATOM     89  O   UNL A   1      41.891  18.916  27.619  1.00  0.00    -0.237 OA
ATOM     90  O   UNL A   1      40.179  19.796  26.083  1.00  0.00    -0.744 OA
ENDBRANCH  86  87
ENDBRANCH  54  79
BRANCH  66  91
ATOM     91  C   UNL A   1      49.236  27.081  26.245  1.00  0.00     0.058 A 
ATOM     92  C   UNL A   1      49.557  27.077  24.879  1.00  0.00     0.135 A 
ATOM     93  C   UNL A   1      50.225  26.656  27.149  1.00  0.00     0.135 A 
ATOM     94  F   UNL A   1      48.652  27.472  23.970  1.00  0.00    -0.206 F 
ATOM     95  C   UNL A   1      50.796  26.633  24.423  1.00  0.00     0.059 A 
ATOM     96  C   UNL A   1      51.480  26.235  26.718  1.00  0.00     0.059 A 
ATOM     97  F   UNL A   1      49.980  26.655  28.468  1.00  0.00    -0.206 F 
ATOM     98  C   UNL A   1      51.750  26.210  25.351  1.00  0.00     0.060 A 
BRANCH  98  99
ATOM     99  S   UNL A   1      53.356  25.641  24.751  1.00  0.00     0.124 S 
ATOM    100  O   UNL A   1      54.271  26.418  25.581  1.00  0.00    -0.237 OA
ATOM    101  O   UNL A   1      53.307  24.208  25.030  1.00  0.00    -0.237 OA
ATOM    102  O   UNL A   1      53.336  25.997  23.336  1.00  0.00    -0.744 OA
ENDBRANCH  98  99
ENDBRANCH  66  91
ENDBRANCH  40  41
ENDBRANCH  33  35
ENDBRANCH  32  33
ENDBRANCH  31  32
ENDBRANCH  30  31
ENDBRANCH  29  30
ENDBRANCH   1  29
TORSDOF 21
ENDMDL
MODEL 2
REMARK VINA RESULT:     -11.1      6.232     11.845
REMARK SMILES Cc1ccc(Cl)c(Nc2ccccc2C(=O)N[C@@H](C)C(=O)OCCOCCOC(=O)c2ccc(-c3c4nc(c(-c5c(F)cc(S(=O)(=O)[O-])cc5F)c5ccc([nH]5)c(-c5c(F)cc(S(=O)(=O)[O-])cc5F)c5nc(c(-c6c(F)cc(S(=O)(=O)[O-])cc6F)c6ccc3[nH]6)C=C5)C=C4)cc2)c1Cl
REMARK SMILES IDX 24 1 23 2 22 3 20 4 21 5 18 6 19 7 17 8 15 9 16 10 14 12
REMARK SMILES IDX 9 13 10 14 11 15 13 16 12 17 8 18 7 20 1 21 2 22 3 23 97 24
REMARK SMILES IDX 4 25 98 26 5 27 6 28 25 29 26 30 27 31 28 32 29 33 30 34
REMARK SMILES IDX 31 35 32 36 96 37 33 38 95 39 34 40 35 41 36 42 89 43 37 44
REMARK SMILES IDX 94 45 88 46 90 47 38 48 93 49 87 50 86 51 39 53 73 54 52 55
REMARK SMILES IDX 72 56 53 57 56 58 71 59 91 60 54 61 55 62 70 64 92 65 57 66
REMARK SMILES IDX 40 67 41 68 50 69 42 70 43 71 49 72 51 73 44 74 45 75 46 76
REMARK SMILES IDX 47 77 48 78 74 79 75 80 84 81 76 82 77 83 83 84 85 85 78 86
REMARK SMILES IDX 79 87 80 88 81 89 82 90 58 91 59 92 68 93 60 94 61 95 67 96
REMARK SMILES IDX 69 97 62 98 63 99 64 100 65 101 66 102
REMARK H PARENT 17 11 8 19 90 52 56 63
REMARK Flexibility Score: inf
ROOT
ATOM      1  C   UNL A   1      37.022  22.219  25.100  1.00  0.00     0.202 C 
ENDROOT
BRANCH   1   2
ATOM      2  C   UNL A   1      35.647  21.737  25.750  1.00  0.00     0.261 C 
BRANCH   2   3
ATOM      3  O   UNL A   1      34.557  21.229  24.904  1.00  0.00    -0.462 OA
BRANCH   3   4
ATOM      4  C   UNL A   1      33.271  21.407  25.375  1.00  0.00     0.328 C 
ATOM      5  O   UNL A   1      32.449  20.491  25.393  1.00  0.00    -0.250 OA
BRANCH   4   6
ATOM      6  C   UNL A   1      32.968  22.793  26.102  1.00  0.00     0.189 C 
ATOM      7  C   UNL A   1      32.883  22.583  27.619  1.00  0.00     0.043 C 
BRANCH   6   8
ATOM      8  N   UNL A   1      31.832  23.616  25.690  1.00  0.00    -0.339 N 
ATOM      9  C   UNL A   1      31.434  24.930  25.805  1.00  0.00     0.254 C 
ATOM     10  O   UNL A   1      30.238  25.048  25.483  1.00  0.00    -0.269 OA
ATOM     11  H   UNL A   1      31.169  23.085  25.194  1.00  0.00     0.164 HD
BRANCH   9  12
ATOM     12  C   UNL A   1      32.166  26.232  26.183  1.00  0.00     0.063 A 
ATOM     13  C   UNL A   1      33.387  26.850  25.801  1.00  0.00     0.051 A 
ATOM     14  C   UNL A   1      33.751  28.121  26.356  1.00  0.00     0.027 A 
ATOM     15  C   UNL A   1      32.923  28.832  27.215  1.00  0.00     0.002 A 
ATOM     16  C   UNL A   1      31.384  26.990  27.115  1.00  0.00     0.016 A 
ATOM     17  C   UNL A   1      31.732  28.259  27.600  1.00  0.00     0.001 A 
BRANCH  13  18
ATOM     18  N   UNL A   1      34.223  26.506  24.713  1.00  0.00    -0.352 N 
ATOM     19  H   UNL A   1      35.160  26.274  24.901  1.00  0.00     0.167 HD
BRANCH  18  20
ATOM     20  C   UNL A   1      33.777  26.477  23.342  1.00  0.00     0.077 A 
ATOM     21  C   UNL A   1      30.715  28.132  23.118  1.00  0.00     0.046 C 
ATOM     22  C   UNL A   1      31.731  27.223  22.499  1.00  0.00    -0.030 A 
ATOM     23  C   UNL A   1      31.499  25.977  21.904  1.00  0.00     0.006 A 
ATOM     24  C   UNL A   1      33.018  27.529  22.857  1.00  0.00     0.069 A 
ATOM     25  C   UNL A   1      32.496  25.001  21.921  1.00  0.00     0.023 A 
ATOM     26  Cl  UNL A   1      33.509  29.187  22.879  1.00  0.00    -0.082 Cl
ATOM     27  C   UNL A   1      33.610  25.227  22.722  1.00  0.00     0.066 A 
ATOM     28  Cl  UNL A   1      34.685  23.926  23.070  1.00  0.00    -0.082 Cl
ENDBRANCH  18  20
ENDBRANCH  13  18
ENDBRANCH   9  12
ENDBRANCH   6   8
ENDBRANCH   4   6
ENDBRANCH   3   4
ENDBRANCH   2   3
ENDBRANCH   1   2
BRANCH   1  29
ATOM     29  O   UNL A   1      38.144  22.542  25.926  1.00  0.00    -0.374 OA
BRANCH  29  30
ATOM     30  C   UNL A   1      39.135  21.512  26.144  1.00  0.00     0.202 C 
BRANCH  30  31
ATOM     31  C   UNL A   1      40.465  21.950  26.808  1.00  0.00     0.261 C 
BRANCH  31  32
ATOM     32  O   UNL A   1      40.314  23.289  27.271  1.00  0.00    -0.460 OA
BRANCH  32  33
ATOM     33  C   UNL A   1      41.418  23.928  27.678  1.00  0.00     0.338 C 
ATOM     34  O   UNL A   1      42.589  23.621  27.491  1.00  0.00    -0.246 OA
BRANCH  33  35
ATOM     35  C   UNL A   1      40.943  25.217  28.185  1.00  0.00     0.060 A 
ATOM     36  C   UNL A   1      41.919  26.206  28.374  1.00  0.00     0.016 A 
ATOM     37  C   UNL A   1      39.621  25.433  28.558  1.00  0.00     0.016 A 
ATOM     38  C   UNL A   1      41.590  27.418  28.949  1.00  0.00     0.010 A 
ATOM     39  C   UNL A   1      39.296  26.636  29.194  1.00  0.00     0.010 A 
ATOM     40  C   UNL A   1      40.296  27.600  29.443  1.00  0.00    -0.014 A 
BRANCH  40  41
ATOM     41  C   UNL A   1      40.141  28.603  30.521  1.00  0.00     0.031 A 
ATOM     42  C   UNL A   1      41.091  28.520  31.689  1.00  0.00     0.074 A 
ATOM     43  C   UNL A   1      39.300  29.644  30.408  1.00  0.00     0.049 A 
ATOM     44  N   UNL A   1      41.166  29.277  32.751  1.00  0.00    -0.248 NA
ATOM     45  C   UNL A   1      42.101  27.447  31.642  1.00  0.00     0.031 C 
ATOM     46  C   UNL A   1      38.412  29.906  29.278  1.00  0.00     0.029 A 
ATOM     47  N   UNL A   1      39.073  30.686  31.270  1.00  0.00    -0.354 N 
ATOM     48  C   UNL A   1      42.212  28.761  33.506  1.00  0.00     0.074 A 
ATOM     49  C   UNL A   1      42.734  27.618  32.791  1.00  0.00     0.031 C 
ATOM     50  C   UNL A   1      37.719  31.032  29.527  1.00  0.00     0.029 A 
ATOM     51  C   UNL A   1      38.093  31.548  30.846  1.00  0.00     0.049 A 
ATOM     52  H   UNL A   1      39.566  30.805  32.115  1.00  0.00     0.167 HD
ATOM     53  C   UNL A   1      42.700  29.199  34.689  1.00  0.00     0.037 A 
ATOM     54  C   UNL A   1      37.543  32.611  31.465  1.00  0.00     0.037 A 
ATOM     55  C   UNL A   1      42.196  30.343  35.400  1.00  0.00     0.049 A 
ATOM     56  C   UNL A   1      38.042  33.029  32.826  1.00  0.00     0.074 A 
ATOM     57  C   UNL A   1      42.620  30.851  36.615  1.00  0.00     0.029 A 
ATOM     58  N   UNL A   1      41.161  31.155  34.966  1.00  0.00    -0.354 N 
ATOM     59  N   UNL A   1      39.008  32.514  33.549  1.00  0.00    -0.248 NA
ATOM     60  C   UNL A   1      37.375  34.180  33.452  1.00  0.00     0.031 C 
ATOM     61  C   UNL A   1      41.810  31.944  36.938  1.00  0.00     0.029 A 
ATOM     62  C   UNL A   1      40.920  32.151  35.897  1.00  0.00     0.049 A 
ATOM     63  H   UNL A   1      40.669  31.040  34.120  1.00  0.00     0.167 HD
ATOM     64  C   UNL A   1      39.086  33.299  34.698  1.00  0.00     0.074 A 
ATOM     65  C   UNL A   1      38.074  34.327  34.569  1.00  0.00     0.031 C 
ATOM     66  C   UNL A   1      39.922  33.182  35.759  1.00  0.00     0.037 A 
BRANCH  53  67
ATOM     67  C   UNL A   1      43.812  28.405  35.313  1.00  0.00     0.058 A 
ATOM     68  C   UNL A   1      45.161  28.651  35.014  1.00  0.00     0.135 A 
ATOM     69  C   UNL A   1      43.517  27.398  36.245  1.00  0.00     0.135 A 
ATOM     70  F   UNL A   1      45.495  29.583  34.108  1.00  0.00    -0.206 F 
ATOM     71  C   UNL A   1      46.179  27.913  35.607  1.00  0.00     0.059 A 
ATOM     72  C   UNL A   1      44.520  26.668  36.872  1.00  0.00     0.059 A 
ATOM     73  F   UNL A   1      42.241  27.118  36.558  1.00  0.00    -0.206 F 
ATOM     74  C   UNL A   1      45.848  26.923  36.535  1.00  0.00     0.060 A 
BRANCH  74  75
ATOM     75  S   UNL A   1      47.181  25.982  37.307  1.00  0.00     0.124 S 
ATOM     76  O   UNL A   1      48.358  26.597  36.702  1.00  0.00    -0.237 OA
ATOM     77  O   UNL A   1      46.979  26.261  38.725  1.00  0.00    -0.237 OA
ATOM     78  O   UNL A   1      46.909  24.608  36.896  1.00  0.00    -0.744 OA
ENDBRANCH  74  75
ENDBRANCH  53  67
BRANCH  54  79
ATOM     79  C   UNL A   1      36.426  33.346  30.816  1.00  0.00     0.058 A 
ATOM     80  C   UNL A   1      36.654  34.216  29.740  1.00  0.00     0.135 A 
ATOM     81  C   UNL A   1      35.108  33.209  31.281  1.00  0.00     0.135 A 
ATOM     82  F   UNL A   1      37.900  34.392  29.272  1.00  0.00    -0.206 F 
ATOM     83  C   UNL A   1      35.619  34.935  29.155  1.00  0.00     0.059 A 
ATOM     84  C   UNL A   1      34.052  33.896  30.694  1.00  0.00     0.059 A 
ATOM     85  F   UNL A   1      34.838  32.386  32.305  1.00  0.00    -0.206 F 
ATOM     86  C   UNL A   1      34.318  34.766  29.638  1.00  0.00     0.060 A 
BRANCH  86  87
ATOM     87  S   UNL A   1      32.973  35.664  28.837  1.00  0.00     0.124 S 
ATOM     88  O   UNL A   1      33.703  36.682  28.092  1.00  0.00    -0.237 OA
ATOM     89  O   UNL A   1      32.340  34.619  28.039  1.00  0.00    -0.237 OA
ATOM     90  O   UNL A   1      32.180  36.150  29.962  1.00  0.00    -0.744 OA
ENDBRANCH  86  87
ENDBRANCH  54  79
BRANCH  66  91
ATOM     91  C   UNL A   1      39.827  34.220  36.846  1.00  0.00     0.058 A 
ATOM     92  C   UNL A   1      39.007  34.050  37.972  1.00  0.00     0.135 A 
ATOM     93  C   UNL A   1      40.601  35.391  36.775  1.00  0.00     0.135 A 
ATOM     94  F   UNL A   1      38.246  32.951  38.093  1.00  0.00    -0.206 F 
ATOM     95  C   UNL A   1      38.928  35.018  38.970  1.00  0.00     0.059 A 
ATOM     96  C   UNL A   1      40.560  36.360  37.773  1.00  0.00     0.059 A 
ATOM     97  F   UNL A   1      41.417  35.601  35.729  1.00  0.00    -0.206 F 
ATOM     98  C   UNL A   1      39.707  36.173  38.859  1.00  0.00     0.060 A 
BRANCH  98  99
ATOM     99  S   UNL A   1      39.602  37.421  40.161  1.00  0.00     0.124 S 
ATOM    100  O   UNL A   1      40.972  37.921  40.198  1.00  0.00    -0.237 OA
ATOM    101  O   UNL A   1      38.604  38.346  39.631  1.00  0.00    -0.237 OA
ATOM    102  O   UNL A   1      39.180  36.658  41.331  1.00  0.00    -0.744 OA
ENDBRANCH  98  99
ENDBRANCH  66  91
ENDBRANCH  40  41
ENDBRANCH  33  35
ENDBRANCH  32  33
ENDBRANCH  31  32
ENDBRANCH  30  31
ENDBRANCH  29  30
ENDBRANCH   1  29
TORSDOF 21
ENDMDL
MODEL 3
REMARK VINA RESULT:     -10.8      5.675     11.800
REMARK SMILES Cc1ccc(Cl)c(Nc2ccccc2C(=O)N[C@@H](C)C(=O)OCCOCCOC(=O)c2ccc(-c3c4nc(c(-c5c(F)cc(S(=O)(=O)[O-])cc5F)c5ccc([nH]5)c(-c5c(F)cc(S(=O)(=O)[O-])cc5F)c5nc(c(-c6c(F)cc(S(=O)(=O)[O-])cc6F)c6ccc3[nH]6)C=C5)C=C4)cc2)c1Cl
REMARK SMILES IDX 24 1 23 2 22 3 20 4 21 5 18 6 19 7 17 8 15 9 16 10 14 12
REMARK SMILES IDX 9 13 10 14 11 15 13 16 12 17 8 18 7 20 1 21 2 22 3 23 97 24
REMARK SMILES IDX 4 25 98 26 5 27 6 28 25 29 26 30 27 31 28 32 29 33 30 34
REMARK SMILES IDX 31 35 32 36 96 37 33 38 95 39 34 40 35 41 36 42 89 43 37 44
REMARK SMILES IDX 94 45 88 46 90 47 38 48 93 49 87 50 86 51 39 53 73 54 52 55
REMARK SMILES IDX 72 56 53 57 56 58 71 59 91 60 54 61 55 62 70 64 92 65 57 66
REMARK SMILES IDX 40 67 41 68 50 69 42 70 43 71 49 72 51 73 44 74 45 75 46 76
REMARK SMILES IDX 47 77 48 78 74 79 75 80 84 81 76 82 77 83 83 84 85 85 78 86
REMARK SMILES IDX 79 87 80 88 81 89 82 90 58 91 59 92 68 93 60 94 61 95 67 96
REMARK SMILES IDX 69 97 62 98 63 99 64 100 65 101 66 102
REMARK H PARENT 17 11 8 19 90 52 56 63
REMARK Flexibility Score: inf
ROOT
ATOM      1  C   UNL A   1      41.919  20.749  26.715  1.00  0.00     0.202 C 
ENDROOT
BRANCH   1   2
ATOM      2  C   UNL A   1      40.618  21.643  26.947  1.00  0.00     0.261 C 
BRANCH   2   3
ATOM      3  O   UNL A   1      39.527  21.645  25.963  1.00  0.00    -0.462 OA
BRANCH   3   4
ATOM      4  C   UNL A   1      38.549  22.608  26.122  1.00  0.00     0.328 C 
ATOM      5  O   UNL A   1      38.812  23.751  26.497  1.00  0.00    -0.250 OA
BRANCH   4   6
ATOM      6  C   UNL A   1      37.095  22.237  25.583  1.00  0.00     0.189 C 
ATOM      7  C   UNL A   1      36.886  22.833  24.186  1.00  0.00     0.043 C 
BRANCH   6   8
ATOM      8  N   UNL A   1      35.909  22.526  26.386  1.00  0.00    -0.339 N 
ATOM      9  C   UNL A   1      34.600  22.900  26.169  1.00  0.00     0.254 C 
ATOM     10  O   UNL A   1      34.073  23.263  27.236  1.00  0.00    -0.269 OA
ATOM     11  H   UNL A   1      36.096  22.428  27.347  1.00  0.00     0.164 HD
BRANCH   9  12
ATOM     12  C   UNL A   1      33.688  22.901  24.927  1.00  0.00     0.063 A 
ATOM     13  C   UNL A   1      33.203  23.894  24.033  1.00  0.00     0.051 A 
ATOM     14  C   UNL A   1      32.366  23.517  22.932  1.00  0.00     0.027 A 
ATOM     15  C   UNL A   1      32.051  22.196  22.642  1.00  0.00     0.002 A 
ATOM     16  C   UNL A   1      33.282  21.565  24.607  1.00  0.00     0.016 A 
ATOM     17  C   UNL A   1      32.510  21.213  23.490  1.00  0.00     0.001 A 
BRANCH  13  18
ATOM     18  N   UNL A   1      33.645  25.232  23.909  1.00  0.00    -0.352 N 
ATOM     19  H   UNL A   1      34.591  25.391  23.693  1.00  0.00     0.167 HD
BRANCH  18  20
ATOM     20  C   UNL A   1      32.785  26.376  24.083  1.00  0.00     0.077 A 
ATOM     21  C   UNL A   1      29.788  25.324  25.525  1.00  0.00     0.046 C 
ATOM     22  C   UNL A   1      30.566  26.386  24.811  1.00  0.00    -0.030 A 
ATOM     23  C   UNL A   1      30.174  27.099  23.673  1.00  0.00     0.006 A 
ATOM     24  C   UNL A   1      31.895  26.396  25.144  1.00  0.00     0.069 A 
ATOM     25  C   UNL A   1      31.139  27.574  22.783  1.00  0.00     0.023 A 
ATOM     26  Cl  UNL A   1      32.343  26.222  26.806  1.00  0.00    -0.082 Cl
ATOM     27  C   UNL A   1      32.446  27.133  22.949  1.00  0.00     0.066 A 
ATOM     28  Cl  UNL A   1      33.594  27.384  21.689  1.00  0.00    -0.082 Cl
ENDBRANCH  18  20
ENDBRANCH  13  18
ENDBRANCH   9  12
ENDBRANCH   6   8
ENDBRANCH   4   6
ENDBRANCH   3   4
ENDBRANCH   2   3
ENDBRANCH   1   2
BRANCH   1  29
ATOM     29  O   UNL A   1      42.607  20.773  25.461  1.00  0.00    -0.374 OA
BRANCH  29  30
ATOM     30  C   UNL A   1      43.693  21.715  25.310  1.00  0.00     0.202 C 
BRANCH  30  31
ATOM     31  C   UNL A   1      43.336  23.108  24.732  1.00  0.00     0.261 C 
BRANCH  31  32
ATOM     32  O   UNL A   1      43.025  23.977  25.817  1.00  0.00    -0.460 OA
BRANCH  32  33
ATOM     33  C   UNL A   1      43.470  25.238  25.743  1.00  0.00     0.338 C 
ATOM     34  O   UNL A   1      44.309  25.707  24.983  1.00  0.00    -0.246 OA
BRANCH  33  35
ATOM     35  C   UNL A   1      42.564  26.009  26.597  1.00  0.00     0.060 A 
ATOM     36  C   UNL A   1      42.770  27.395  26.626  1.00  0.00     0.016 A 
ATOM     37  C   UNL A   1      41.615  25.407  27.416  1.00  0.00     0.016 A 
ATOM     38  C   UNL A   1      42.039  28.197  27.482  1.00  0.00     0.010 A 
ATOM     39  C   UNL A   1      40.915  26.208  28.325  1.00  0.00     0.010 A 
ATOM     40  C   UNL A   1      41.175  27.593  28.398  1.00  0.00    -0.014 A 
BRANCH  40  41
ATOM     41  C   UNL A   1      40.877  28.364  29.626  1.00  0.00     0.031 A 
ATOM     42  C   UNL A   1      41.762  28.130  30.824  1.00  0.00     0.074 A 
ATOM     43  C   UNL A   1      39.963  29.347  29.645  1.00  0.00     0.049 A 
ATOM     44  N   UNL A   1      41.715  28.679  32.009  1.00  0.00    -0.248 NA
ATOM     45  C   UNL A   1      42.857  27.157  30.655  1.00  0.00     0.031 C 
ATOM     46  C   UNL A   1      39.123  29.754  28.520  1.00  0.00     0.029 A 
ATOM     47  N   UNL A   1      39.603  30.192  30.663  1.00  0.00    -0.354 N 
ATOM     48  C   UNL A   1      42.754  28.104  32.730  1.00  0.00     0.074 A 
ATOM     49  C   UNL A   1      43.407  27.153  31.859  1.00  0.00     0.031 C 
ATOM     50  C   UNL A   1      38.328  30.763  28.920  1.00  0.00     0.029 A 
ATOM     51  C   UNL A   1      38.583  31.048  30.333  1.00  0.00     0.049 A 
ATOM     52  H   UNL A   1      40.036  30.185  31.548  1.00  0.00     0.167 HD
ATOM     53  C   UNL A   1      43.136  28.346  34.005  1.00  0.00     0.037 A 
ATOM     54  C   UNL A   1      37.914  31.936  31.094  1.00  0.00     0.037 A 
ATOM     55  C   UNL A   1      42.501  29.300  34.874  1.00  0.00     0.049 A 
ATOM     56  C   UNL A   1      38.299  32.127  32.541  1.00  0.00     0.074 A 
ATOM     57  C   UNL A   1      42.812  29.601  36.188  1.00  0.00     0.029 A 
ATOM     58  N   UNL A   1      41.430  30.106  34.522  1.00  0.00    -0.354 N 
ATOM     59  N   UNL A   1      39.260  31.553  33.225  1.00  0.00    -0.248 NA
ATOM     60  C   UNL A   1      37.505  33.092  33.316  1.00  0.00     0.031 C 
ATOM     61  C   UNL A   1      41.899  30.555  36.646  1.00  0.00     0.029 A 
ATOM     62  C   UNL A   1      41.056  30.891  35.599  1.00  0.00     0.049 A 
ATOM     63  H   UNL A   1      40.999  30.117  33.637  1.00  0.00     0.167 HD
ATOM     64  C   UNL A   1      39.207  32.113  34.500  1.00  0.00     0.074 A 
ATOM     65  C   UNL A   1      38.125  33.075  34.489  1.00  0.00     0.031 C 
ATOM     66  C   UNL A   1      39.988  31.858  35.580  1.00  0.00     0.037 A 
BRANCH  53  67
ATOM     67  C   UNL A   1      44.271  27.529  34.552  1.00  0.00     0.058 A 
ATOM     68  C   UNL A   1      45.603  27.967  34.489  1.00  0.00     0.135 A 
ATOM     69  C   UNL A   1      44.012  26.296  35.171  1.00  0.00     0.135 A 
ATOM     70  F   UNL A   1      45.907  29.125  33.882  1.00  0.00    -0.206 F 
ATOM     71  C   UNL A   1      46.641  27.202  35.009  1.00  0.00     0.059 A 
ATOM     72  C   UNL A   1      45.031  25.529  35.723  1.00  0.00     0.059 A 
ATOM     73  F   UNL A   1      42.756  25.828  35.248  1.00  0.00    -0.206 F 
ATOM     74  C   UNL A   1      46.345  25.984  35.624  1.00  0.00     0.060 A 
BRANCH  74  75
ATOM     75  S   UNL A   1      47.701  25.008  36.306  1.00  0.00     0.124 S 
ATOM     76  O   UNL A   1      47.189  24.689  37.635  1.00  0.00    -0.237 OA
ATOM     77  O   UNL A   1      47.780  23.890  35.372  1.00  0.00    -0.237 OA
ATOM     78  O   UNL A   1      48.833  25.929  36.273  1.00  0.00    -0.744 OA
ENDBRANCH  74  75
ENDBRANCH  53  67
BRANCH  54  79
ATOM     79  C   UNL A   1      36.780  32.701  30.512  1.00  0.00     0.058 A 
ATOM     80  C   UNL A   1      36.993  33.888  29.796  1.00  0.00     0.135 A 
ATOM     81  C   UNL A   1      35.456  32.267  30.683  1.00  0.00     0.135 A 
ATOM     82  F   UNL A   1      38.241  34.351  29.621  1.00  0.00    -0.206 F 
ATOM     83  C   UNL A   1      35.934  34.628  29.283  1.00  0.00     0.059 A 
ATOM     84  C   UNL A   1      34.381  32.974  30.155  1.00  0.00     0.059 A 
ATOM     85  F   UNL A   1      35.201  31.135  31.357  1.00  0.00    -0.206 F 
ATOM     86  C   UNL A   1      34.630  34.159  29.465  1.00  0.00     0.060 A 
BRANCH  86  87
ATOM     87  S   UNL A   1      33.265  35.098  28.749  1.00  0.00     0.124 S 
ATOM     88  O   UNL A   1      33.977  36.126  27.998  1.00  0.00    -0.237 OA
ATOM     89  O   UNL A   1      32.581  34.084  27.954  1.00  0.00    -0.237 OA
ATOM     90  O   UNL A   1      32.530  35.566  29.921  1.00  0.00    -0.744 OA
ENDBRANCH  86  87
ENDBRANCH  54  79
BRANCH  66  91
ATOM     91  C   UNL A   1      39.747  32.667  36.827  1.00  0.00     0.058 A 
ATOM     92  C   UNL A   1      38.737  32.340  37.746  1.00  0.00     0.135 A 
ATOM     93  C   UNL A   1      40.568  33.768  37.127  1.00  0.00     0.135 A 
ATOM     94  F   UNL A   1      37.923  31.299  37.512  1.00  0.00    -0.206 F 
ATOM     95  C   UNL A   1      38.524  33.096  38.895  1.00  0.00     0.059 A 
ATOM     96  C   UNL A   1      40.393  34.521  38.284  1.00  0.00     0.059 A 
ATOM     97  F   UNL A   1      41.561  34.117  36.294  1.00  0.00    -0.206 F 
ATOM     98  C   UNL A   1      39.356  34.189  39.154  1.00  0.00     0.060 A 
BRANCH  98  99
ATOM     99  S   UNL A   1      39.076  35.160  40.651  1.00  0.00     0.124 S 
ATOM    100  O   UNL A   1      39.070  36.519  40.120  1.00  0.00    -0.237 OA
ATOM    101  O   UNL A   1      37.788  34.656  41.117  1.00  0.00    -0.237 OA
ATOM    102  O   UNL A   1      40.217  34.821  41.495  1.00  0.00    -0.744 OA
ENDBRANCH  98  99
ENDBRANCH  66  91
ENDBRANCH  40  41
ENDBRANCH  33  35
ENDBRANCH  32  33
ENDBRANCH  31  32
ENDBRANCH  30  31
ENDBRANCH  29  30
ENDBRANCH   1  29
TORSDOF 21
ENDMDL
