MODEL 1
REMARK VINA RESULT:     -10.5      0.000      0.000
REMARK SMILES COc1ccc(/C=C/c2ncc(C(=O)OCCOCCOC(=O)c3ccc(-c4c5nc(c(-c6c(F)cc(S(=O)(=O)[O-])cc6F)c6ccc([nH]6)c(-c6c(F)cc(S(=O)(=O)[O-])cc6F)c6nc(c(-c7c(F)cc(S(=O)(=O)[O-])cc7F)c7ccc4[nH]7)C=C6)C=C5)cc3)s2)cc1O
REMARK SMILES IDX 18 1 17 2 16 3 15 4 13 5 14 6 12 7 9 8 10 9 90 10 11 11 8 12
REMARK SMILES IDX 7 13 6 14 3 15 4 16 92 17 5 18 91 19 2 20 1 21 93 22 19 24
REMARK SMILES IDX 20 25 21 26 22 27 23 28 24 29 25 30 89 31 26 32 88 33 27 34
REMARK SMILES IDX 28 35 29 36 82 37 30 38 87 39 81 40 83 41 31 42 86 43 80 44
REMARK SMILES IDX 79 45 32 47 66 48 45 49 65 50 46 51 49 52 64 53 84 54 47 55
REMARK SMILES IDX 48 56 63 58 85 59 50 60 33 61 34 62 43 63 35 64 36 65 42 66
REMARK SMILES IDX 44 67 37 68 38 69 39 70 40 71 41 72 67 73 68 74 77 75 69 76
REMARK SMILES IDX 70 77 76 78 78 79 71 80 72 81 73 82 74 83 75 84 51 85 52 86
REMARK SMILES IDX 61 87 53 88 54 89 60 90 62 91 55 92 56 93 57 94 58 95 59 96
REMARK H PARENT 93 23 83 46 49 57
REMARK Flexibility Score: inf
ROOT
ATOM      1  O   UNL A   1      43.842  21.874  24.506  1.00  0.00    -0.374 OA
ENDROOT
BRANCH   1   2
ATOM      2  C   UNL A   1      43.735  21.293  25.808  1.00  0.00     0.202 C 
BRANCH   2   3
ATOM      3  C   UNL A   1      42.671  20.196  25.911  1.00  0.00     0.261 C 
BRANCH   3   4
ATOM      4  O   UNL A   1      41.369  20.749  25.653  1.00  0.00    -0.459 OA
BRANCH   4   5
ATOM      5  C   UNL A   1      40.587  20.944  26.752  1.00  0.00     0.350 C 
ATOM      6  O   UNL A   1      40.750  20.385  27.831  1.00  0.00    -0.245 OA
BRANCH   5   7
ATOM      7  C   UNL A   1      39.612  21.970  26.480  1.00  0.00     0.132 A 
ATOM      8  C   UNL A   1      37.670  23.206  25.677  1.00  0.00     0.116 A 
ATOM      9  N   UNL A   1      38.412  23.977  26.450  1.00  0.00    -0.244 NA
ATOM     10  S   UNL A   1      38.263  21.596  25.497  1.00  0.00    -0.107 S 
ATOM     11  C   UNL A   1      39.506  23.271  26.925  1.00  0.00     0.139 A 
BRANCH   8  12
ATOM     12  C   UNL A   1      36.494  23.563  24.964  1.00  0.00     0.040 C 
ATOM     13  C   UNL A   1      35.523  24.263  25.569  1.00  0.00     0.011 C 
BRANCH  13  14
ATOM     14  C   UNL A   1      34.333  24.802  24.893  1.00  0.00    -0.022 A 
ATOM     15  C   UNL A   1      32.065  25.741  23.474  1.00  0.00     0.160 A 
ATOM     16  C   UNL A   1      32.779  26.584  24.332  1.00  0.00     0.051 A 
ATOM     17  C   UNL A   1      32.507  24.426  23.328  1.00  0.00     0.158 A 
ATOM     18  C   UNL A   1      33.906  26.126  25.027  1.00  0.00     0.012 A 
ATOM     19  C   UNL A   1      33.615  23.956  24.038  1.00  0.00     0.058 A 
BRANCH  15  20
ATOM     20  O   UNL A   1      31.011  26.359  22.860  1.00  0.00    -0.493 OA
ATOM     21  C   UNL A   1      29.890  26.725  23.649  1.00  0.00     0.278 C 
ENDBRANCH  15  20
BRANCH  17  22
ATOM     22  O   UNL A   1      31.942  23.534  22.462  1.00  0.00    -0.504 OA
ATOM     23  H   UNL A   1      32.459  23.149  21.782  1.00  0.00     0.293 HD
ENDBRANCH  17  22
ENDBRANCH  13  14
ENDBRANCH   8  12
ENDBRANCH   5   7
ENDBRANCH   4   5
ENDBRANCH   3   4
ENDBRANCH   2   3
ENDBRANCH   1   2
BRANCH   1  24
ATOM     24  C   UNL A   1      44.068  23.287  24.466  1.00  0.00     0.202 C 
BRANCH  24  25
ATOM     25  C   UNL A   1      43.959  23.993  25.821  1.00  0.00     0.261 C 
BRANCH  25  26
ATOM     26  O   UNL A   1      42.633  24.516  26.022  1.00  0.00    -0.460 OA
BRANCH  26  27
ATOM     27  C   UNL A   1      42.498  25.844  25.789  1.00  0.00     0.338 C 
ATOM     28  O   UNL A   1      42.324  26.384  24.711  1.00  0.00    -0.246 OA
BRANCH  27  29
ATOM     29  C   UNL A   1      42.406  26.569  27.074  1.00  0.00     0.060 A 
ATOM     30  C   UNL A   1      41.417  26.154  27.975  1.00  0.00     0.016 A 
ATOM     31  C   UNL A   1      43.235  27.651  27.385  1.00  0.00     0.016 A 
ATOM     32  C   UNL A   1      41.219  26.848  29.166  1.00  0.00     0.010 A 
ATOM     33  C   UNL A   1      43.031  28.352  28.580  1.00  0.00     0.010 A 
ATOM     34  C   UNL A   1      42.000  27.974  29.459  1.00  0.00    -0.014 A 
BRANCH  34  35
ATOM     35  C   UNL A   1      41.644  28.829  30.617  1.00  0.00     0.031 A 
ATOM     36  C   UNL A   1      42.460  28.728  31.877  1.00  0.00     0.074 A 
ATOM     37  C   UNL A   1      40.628  29.706  30.537  1.00  0.00     0.049 A 
ATOM     38  N   UNL A   1      42.321  29.372  33.006  1.00  0.00    -0.248 NA
ATOM     39  C   UNL A   1      43.581  27.775  31.859  1.00  0.00     0.031 C 
ATOM     40  C   UNL A   1      39.784  29.916  29.362  1.00  0.00     0.029 A 
ATOM     41  N   UNL A   1      40.132  30.582  31.470  1.00  0.00    -0.354 N 
ATOM     42  C   UNL A   1      43.333  28.902  33.836  1.00  0.00     0.074 A 
ATOM     43  C   UNL A   1      44.060  27.898  33.089  1.00  0.00     0.031 C 
ATOM     44  C   UNL A   1      38.864  30.855  29.648  1.00  0.00     0.029 A 
ATOM     45  C   UNL A   1      39.041  31.295  31.031  1.00  0.00     0.049 A 
ATOM     46  H   UNL A   1      40.520  30.691  32.367  1.00  0.00     0.167 HD
ATOM     47  C   UNL A   1      43.634  29.279  35.101  1.00  0.00     0.037 A 
ATOM     48  C   UNL A   1      38.265  32.187  31.678  1.00  0.00     0.037 A 
ATOM     49  C   UNL A   1      42.911  30.277  35.843  1.00  0.00     0.049 A 
ATOM     50  C   UNL A   1      38.586  32.551  33.104  1.00  0.00     0.074 A 
ATOM     51  C   UNL A   1      43.152  30.743  37.124  1.00  0.00     0.029 A 
ATOM     52  N   UNL A   1      41.798  30.959  35.373  1.00  0.00    -0.354 N 
ATOM     53  N   UNL A   1      39.562  32.119  33.866  1.00  0.00    -0.248 NA
ATOM     54  C   UNL A   1      37.703  33.530  33.755  1.00  0.00     0.031 C 
ATOM     55  C   UNL A   1      42.160  31.677  37.444  1.00  0.00     0.029 A 
ATOM     56  C   UNL A   1      41.327  31.825  36.346  1.00  0.00     0.049 A 
ATOM     57  H   UNL A   1      41.401  30.843  34.480  1.00  0.00     0.167 HD
ATOM     58  C   UNL A   1      39.425  32.787  35.078  1.00  0.00     0.074 A 
ATOM     59  C   UNL A   1      38.275  33.660  34.946  1.00  0.00     0.031 C 
ATOM     60  C   UNL A   1      40.183  32.690  36.198  1.00  0.00     0.037 A 
BRANCH  47  61
ATOM     61  C   UNL A   1      44.789  28.587  35.770  1.00  0.00     0.058 A 
ATOM     62  C   UNL A   1      46.098  29.087  35.683  1.00  0.00     0.135 A 
ATOM     63  C   UNL A   1      44.580  27.417  36.519  1.00  0.00     0.135 A 
ATOM     64  F   UNL A   1      46.354  30.190  34.965  1.00  0.00    -0.206 F 
ATOM     65  C   UNL A   1      47.166  28.434  36.292  1.00  0.00     0.059 A 
ATOM     66  C   UNL A   1      45.629  26.762  37.155  1.00  0.00     0.059 A 
ATOM     67  F   UNL A   1      43.349  26.897  36.631  1.00  0.00    -0.206 F 
ATOM     68  C   UNL A   1      46.921  27.269  37.022  1.00  0.00     0.060 A 
BRANCH  68  69
ATOM     69  S   UNL A   1      48.317  26.426  37.798  1.00  0.00     0.124 S 
ATOM     70  O   UNL A   1      48.358  27.076  39.105  1.00  0.00    -0.237 OA
ATOM     71  O   UNL A   1      47.882  25.033  37.797  1.00  0.00    -0.237 OA
ATOM     72  O   UNL A   1      49.434  26.732  36.910  1.00  0.00    -0.744 OA
ENDBRANCH  68  69
ENDBRANCH  47  61
BRANCH  48  73
ATOM     73  C   UNL A   1      37.102  32.793  30.981  1.00  0.00     0.058 A 
ATOM     74  C   UNL A   1      37.268  33.858  30.085  1.00  0.00     0.135 A 
ATOM     75  C   UNL A   1      35.801  32.308  31.188  1.00  0.00     0.135 A 
ATOM     76  F   UNL A   1      38.492  34.363  29.863  1.00  0.00    -0.206 F 
ATOM     77  C   UNL A   1      36.186  34.425  29.419  1.00  0.00     0.059 A 
ATOM     78  C   UNL A   1      34.706  32.845  30.520  1.00  0.00     0.059 A 
ATOM     79  F   UNL A   1      35.591  31.284  32.031  1.00  0.00    -0.206 F 
ATOM     80  C   UNL A   1      34.908  33.908  29.641  1.00  0.00     0.060 A 
BRANCH  80  81
ATOM     81  S   UNL A   1      33.518  34.605  28.723  1.00  0.00     0.124 S 
ATOM     82  O   UNL A   1      32.576  34.901  29.796  1.00  0.00    -0.237 OA
ATOM     83  O   UNL A   1      34.128  35.760  28.071  1.00  0.00    -0.237 OA
ATOM     84  O   UNL A   1      33.132  33.520  27.825  1.00  0.00    -0.744 OA
ENDBRANCH  80  81
ENDBRANCH  48  73
BRANCH  60  85
ATOM     85  C   UNL A   1      39.815  33.566  37.363  1.00  0.00     0.058 A 
ATOM     86  C   UNL A   1      38.869  33.162  38.318  1.00  0.00     0.135 A 
ATOM     87  C   UNL A   1      40.458  34.799  37.556  1.00  0.00     0.135 A 
ATOM     88  F   UNL A   1      38.223  31.994  38.176  1.00  0.00    -0.206 F 
ATOM     89  C   UNL A   1      38.559  33.960  39.414  1.00  0.00     0.059 A 
ATOM     90  C   UNL A   1      40.180  35.603  38.657  1.00  0.00     0.059 A 
ATOM     91  F   UNL A   1      41.379  35.226  36.677  1.00  0.00    -0.206 F 
ATOM     92  C   UNL A   1      39.220  35.180  39.577  1.00  0.00     0.060 A 
BRANCH  92  93
ATOM     93  S   UNL A   1      38.837  36.191  41.022  1.00  0.00     0.124 S 
ATOM     94  O   UNL A   1      37.674  35.498  41.565  1.00  0.00    -0.237 OA
ATOM     95  O   UNL A   1      40.061  36.090  41.811  1.00  0.00    -0.237 OA
ATOM     96  O   UNL A   1      38.574  37.510  40.453  1.00  0.00    -0.744 OA
ENDBRANCH  92  93
ENDBRANCH  60  85
ENDBRANCH  34  35
ENDBRANCH  27  29
ENDBRANCH  26  27
ENDBRANCH  25  26
ENDBRANCH  24  25
ENDBRANCH   1  24
TORSDOF 21
ENDMDL
MODEL 2
REMARK VINA RESULT:     -10.2      4.045     10.102
REMARK SMILES COc1ccc(/C=C/c2ncc(C(=O)OCCOCCOC(=O)c3ccc(-c4c5nc(c(-c6c(F)cc(S(=O)(=O)[O-])cc6F)c6ccc([nH]6)c(-c6c(F)cc(S(=O)(=O)[O-])cc6F)c6nc(c(-c7c(F)cc(S(=O)(=O)[O-])cc7F)c7ccc4[nH]7)C=C6)C=C5)cc3)s2)cc1O
REMARK SMILES IDX 18 1 17 2 16 3 15 4 13 5 14 6 12 7 9 8 10 9 90 10 11 11 8 12
REMARK SMILES IDX 7 13 6 14 3 15 4 16 92 17 5 18 91 19 2 20 1 21 93 22 19 24
REMARK SMILES IDX 20 25 21 26 22 27 23 28 24 29 25 30 89 31 26 32 88 33 27 34
REMARK SMILES IDX 28 35 29 36 82 37 30 38 87 39 81 40 83 41 31 42 86 43 80 44
REMARK SMILES IDX 79 45 32 47 66 48 45 49 65 50 46 51 49 52 64 53 84 54 47 55
REMARK SMILES IDX 48 56 63 58 85 59 50 60 33 61 34 62 43 63 35 64 36 65 42 66
REMARK SMILES IDX 44 67 37 68 38 69 39 70 40 71 41 72 67 73 68 74 77 75 69 76
REMARK SMILES IDX 70 77 76 78 78 79 71 80 72 81 73 82 74 83 75 84 51 85 52 86
REMARK SMILES IDX 61 87 53 88 54 89 60 90 62 91 55 92 56 93 57 94 58 95 59 96
REMARK H PARENT 93 23 83 46 49 57
REMARK Flexibility Score: inf
ROOT
ATOM      1  O   UNL A   1      41.721  19.385  25.639  1.00  0.00    -0.374 OA
ENDROOT
BRANCH   1   2
ATOM      2  C   UNL A   1      42.988  18.921  26.114  1.00  0.00     0.202 C 
BRANCH   2   3
ATOM      3  C   UNL A   1      44.073  18.868  25.034  1.00  0.00     0.261 C 
BRANCH   3   4
ATOM      4  O   UNL A   1      44.178  20.144  24.381  1.00  0.00    -0.459 OA
BRANCH   4   5
ATOM      5  C   UNL A   1      44.997  21.047  24.988  1.00  0.00     0.350 C 
ATOM      6  O   UNL A   1      46.146  20.815  25.349  1.00  0.00    -0.245 OA
BRANCH   5   7
ATOM      7  C   UNL A   1      44.346  22.331  25.051  1.00  0.00     0.132 A 
ATOM      8  C   UNL A   1      43.879  24.724  25.118  1.00  0.00     0.116 A 
ATOM      9  N   UNL A   1      42.750  24.039  25.133  1.00  0.00    -0.244 NA
ATOM     10  S   UNL A   1      45.301  23.751  25.029  1.00  0.00    -0.107 S 
ATOM     11  C   UNL A   1      43.012  22.679  25.075  1.00  0.00     0.139 A 
BRANCH   8  12
ATOM     12  C   UNL A   1      44.043  26.132  25.210  1.00  0.00     0.040 C 
ATOM     13  C   UNL A   1      44.437  26.693  26.364  1.00  0.00     0.011 C 
BRANCH  13  14
ATOM     14  C   UNL A   1      44.770  28.115  26.532  1.00  0.00    -0.022 A 
ATOM     15  C   UNL A   1      45.556  30.816  26.893  1.00  0.00     0.160 A 
ATOM     16  C   UNL A   1      44.238  30.411  27.126  1.00  0.00     0.051 A 
ATOM     17  C   UNL A   1      46.477  29.850  26.487  1.00  0.00     0.158 A 
ATOM     18  C   UNL A   1      43.848  29.076  26.958  1.00  0.00     0.012 A 
ATOM     19  C   UNL A   1      46.089  28.521  26.294  1.00  0.00     0.058 A 
BRANCH  15  20
ATOM     20  O   UNL A   1      45.764  32.146  27.129  1.00  0.00    -0.493 OA
ATOM     21  C   UNL A   1      44.663  33.034  27.010  1.00  0.00     0.278 C 
ENDBRANCH  15  20
BRANCH  17  22
ATOM     22  O   UNL A   1      47.806  30.106  26.305  1.00  0.00    -0.504 OA
ATOM     23  H   UNL A   1      48.424  29.402  26.300  1.00  0.00     0.293 HD
ENDBRANCH  17  22
ENDBRANCH  13  14
ENDBRANCH   8  12
ENDBRANCH   5   7
ENDBRANCH   4   5
ENDBRANCH   3   4
ENDBRANCH   2   3
ENDBRANCH   1   2
BRANCH   1  24
ATOM     24  C   UNL A   1      40.888  20.034  26.605  1.00  0.00     0.202 C 
BRANCH  24  25
ATOM     25  C   UNL A   1      39.900  21.050  26.024  1.00  0.00     0.261 C 
BRANCH  25  26
ATOM     26  O   UNL A   1      40.101  22.350  26.608  1.00  0.00    -0.460 OA
BRANCH  26  27
ATOM     27  C   UNL A   1      39.138  23.261  26.327  1.00  0.00     0.338 C 
ATOM     28  O   UNL A   1      38.119  23.074  25.685  1.00  0.00    -0.246 OA
BRANCH  27  29
ATOM     29  C   UNL A   1      39.398  24.510  27.074  1.00  0.00     0.060 A 
ATOM     30  C   UNL A   1      40.182  25.483  26.442  1.00  0.00     0.016 A 
ATOM     31  C   UNL A   1      38.925  24.719  28.372  1.00  0.00     0.016 A 
ATOM     32  C   UNL A   1      40.538  26.646  27.122  1.00  0.00     0.010 A 
ATOM     33  C   UNL A   1      39.288  25.885  29.057  1.00  0.00     0.010 A 
ATOM     34  C   UNL A   1      40.124  26.837  28.447  1.00  0.00    -0.014 A 
BRANCH  34  35
ATOM     35  C   UNL A   1      40.680  27.967  29.230  1.00  0.00     0.031 A 
ATOM     36  C   UNL A   1      39.828  29.185  29.460  1.00  0.00     0.074 A 
ATOM     37  C   UNL A   1      41.915  27.896  29.757  1.00  0.00     0.049 A 
ATOM     38  N   UNL A   1      40.113  30.285  30.106  1.00  0.00    -0.248 NA
ATOM     39  C   UNL A   1      38.473  29.156  28.886  1.00  0.00     0.031 C 
ATOM     40  C   UNL A   1      42.824  26.758  29.627  1.00  0.00     0.029 A 
ATOM     41  N   UNL A   1      42.619  28.807  30.504  1.00  0.00    -0.354 N 
ATOM     42  C   UNL A   1      38.979  31.083  30.015  1.00  0.00     0.074 A 
ATOM     43  C   UNL A   1      38.010  30.351  29.226  1.00  0.00     0.031 C 
ATOM     44  C   UNL A   1      43.973  27.044  30.266  1.00  0.00     0.029 A 
ATOM     45  C   UNL A   1      43.888  28.391  30.828  1.00  0.00     0.049 A 
ATOM     46  H   UNL A   1      42.250  29.675  30.782  1.00  0.00     0.167 HD
ATOM     47  C   UNL A   1      38.760  32.309  30.546  1.00  0.00     0.037 A 
ATOM     48  C   UNL A   1      44.874  29.032  31.487  1.00  0.00     0.037 A 
ATOM     49  C   UNL A   1      39.724  33.035  31.328  1.00  0.00     0.049 A 
ATOM     50  C   UNL A   1      44.627  30.417  32.024  1.00  0.00     0.074 A 
ATOM     51  C   UNL A   1      39.589  34.276  31.928  1.00  0.00     0.029 A 
ATOM     52  N   UNL A   1      41.007  32.591  31.615  1.00  0.00    -0.354 N 
ATOM     53  N   UNL A   1      43.540  31.148  31.953  1.00  0.00    -0.248 NA
ATOM     54  C   UNL A   1      45.740  31.064  32.734  1.00  0.00     0.031 C 
ATOM     55  C   UNL A   1      40.804  34.600  32.542  1.00  0.00     0.029 A 
ATOM     56  C   UNL A   1      41.681  33.542  32.363  1.00  0.00     0.049 A 
ATOM     57  H   UNL A   1      41.382  31.728  31.328  1.00  0.00     0.167 HD
ATOM     58  C   UNL A   1      43.829  32.329  32.628  1.00  0.00     0.074 A 
ATOM     59  C   UNL A   1      45.192  32.213  33.107  1.00  0.00     0.031 C 
ATOM     60  C   UNL A   1      43.038  33.410  32.835  1.00  0.00     0.037 A 
BRANCH  47  61
ATOM     61  C   UNL A   1      37.428  32.950  30.275  1.00  0.00     0.058 A 
ATOM     62  C   UNL A   1      37.254  33.876  29.235  1.00  0.00     0.135 A 
ATOM     63  C   UNL A   1      36.308  32.620  31.056  1.00  0.00     0.135 A 
ATOM     64  F   UNL A   1      38.295  34.239  28.471  1.00  0.00    -0.206 F 
ATOM     65  C   UNL A   1      36.021  34.477  28.997  1.00  0.00     0.059 A 
ATOM     66  C   UNL A   1      35.061  33.191  30.821  1.00  0.00     0.059 A 
ATOM     67  F   UNL A   1      36.422  31.742  32.064  1.00  0.00    -0.206 F 
ATOM     68  C   UNL A   1      34.932  34.131  29.799  1.00  0.00     0.060 A 
BRANCH  68  69
ATOM     69  S   UNL A   1      33.340  34.926  29.487  1.00  0.00     0.124 S 
ATOM     70  O   UNL A   1      32.640  33.887  28.737  1.00  0.00    -0.237 OA
ATOM     71  O   UNL A   1      32.845  35.177  30.836  1.00  0.00    -0.237 OA
ATOM     72  O   UNL A   1      33.700  36.116  28.723  1.00  0.00    -0.744 OA
ENDBRANCH  68  69
ENDBRANCH  47  61
BRANCH  48  73
ATOM     73  C   UNL A   1      46.189  28.367  31.672  1.00  0.00     0.058 A 
ATOM     74  C   UNL A   1      46.463  27.607  32.817  1.00  0.00     0.135 A 
ATOM     75  C   UNL A   1      47.194  28.468  30.697  1.00  0.00     0.135 A 
ATOM     76  F   UNL A   1      45.538  27.491  33.783  1.00  0.00    -0.206 F 
ATOM     77  C   UNL A   1      47.689  26.972  32.994  1.00  0.00     0.059 A 
ATOM     78  C   UNL A   1      48.419  27.827  30.841  1.00  0.00     0.059 A 
ATOM     79  F   UNL A   1      46.976  29.178  29.578  1.00  0.00    -0.206 F 
ATOM     80  C   UNL A   1      48.659  27.085  31.997  1.00  0.00     0.060 A 
BRANCH  80  81
ATOM     81  S   UNL A   1      50.223  26.204  32.202  1.00  0.00     0.124 S 
ATOM     82  O   UNL A   1      51.025  26.773  31.126  1.00  0.00    -0.237 OA
ATOM     83  O   UNL A   1      50.612  26.581  33.558  1.00  0.00    -0.237 OA
ATOM     84  O   UNL A   1      49.842  24.804  32.035  1.00  0.00    -0.744 OA
ENDBRANCH  80  81
ENDBRANCH  48  73
BRANCH  60  85
ATOM     85  C   UNL A   1      43.611  34.547  33.635  1.00  0.00     0.058 A 
ATOM     86  C   UNL A   1      44.255  35.630  33.018  1.00  0.00     0.135 A 
ATOM     87  C   UNL A   1      43.464  34.579  35.031  1.00  0.00     0.135 A 
ATOM     88  F   UNL A   1      44.427  35.644  31.687  1.00  0.00    -0.206 F 
ATOM     89  C   UNL A   1      44.752  36.697  33.760  1.00  0.00     0.059 A 
ATOM     90  C   UNL A   1      43.931  35.646  35.790  1.00  0.00     0.059 A 
ATOM     91  F   UNL A   1      42.844  33.572  35.668  1.00  0.00    -0.206 F 
ATOM     92  C   UNL A   1      44.585  36.697  35.147  1.00  0.00     0.060 A 
BRANCH  92  93
ATOM     93  S   UNL A   1      45.201  38.103  36.097  1.00  0.00     0.124 S 
ATOM     94  O   UNL A   1      45.638  39.004  35.037  1.00  0.00    -0.237 OA
ATOM     95  O   UNL A   1      44.015  38.525  36.838  1.00  0.00    -0.237 OA
ATOM     96  O   UNL A   1      46.266  37.524  36.909  1.00  0.00    -0.744 OA
ENDBRANCH  92  93
ENDBRANCH  60  85
ENDBRANCH  34  35
ENDBRANCH  27  29
ENDBRANCH  26  27
ENDBRANCH  25  26
ENDBRANCH  24  25
ENDBRANCH   1  24
TORSDOF 21
ENDMDL
MODEL 3
REMARK VINA RESULT:     -10.2      5.843     12.603
REMARK SMILES COc1ccc(/C=C/c2ncc(C(=O)OCCOCCOC(=O)c3ccc(-c4c5nc(c(-c6c(F)cc(S(=O)(=O)[O-])cc6F)c6ccc([nH]6)c(-c6c(F)cc(S(=O)(=O)[O-])cc6F)c6nc(c(-c7c(F)cc(S(=O)(=O)[O-])cc7F)c7ccc4[nH]7)C=C6)C=C5)cc3)s2)cc1O
REMARK SMILES IDX 18 1 17 2 16 3 15 4 13 5 14 6 12 7 9 8 10 9 90 10 11 11 8 12
REMARK SMILES IDX 7 13 6 14 3 15 4 16 92 17 5 18 91 19 2 20 1 21 93 22 19 24
REMARK SMILES IDX 20 25 21 26 22 27 23 28 24 29 25 30 89 31 26 32 88 33 27 34
REMARK SMILES IDX 28 35 29 36 82 37 30 38 87 39 81 40 83 41 31 42 86 43 80 44
REMARK SMILES IDX 79 45 32 47 66 48 45 49 65 50 46 51 49 52 64 53 84 54 47 55
REMARK SMILES IDX 48 56 63 58 85 59 50 60 33 61 34 62 43 63 35 64 36 65 42 66
REMARK SMILES IDX 44 67 37 68 38 69 39 70 40 71 41 72 67 73 68 74 77 75 69 76
REMARK SMILES IDX 70 77 76 78 78 79 71 80 72 81 73 82 74 83 75 84 51 85 52 86
REMARK SMILES IDX 61 87 53 88 54 89 60 90 62 91 55 92 56 93 57 94 58 95 59 96
REMARK H PARENT 93 23 83 46 49 57
REMARK Flexibility Score: inf
ROOT
ATOM      1  O   UNL A   1      34.998  34.381  33.358  1.00  0.00    -0.374 OA
ENDROOT
BRANCH   1   2
ATOM      2  C   UNL A   1      33.991  34.164  32.366  1.00  0.00     0.202 C 
BRANCH   2   3
ATOM      3  C   UNL A   1      34.057  35.146  31.192  1.00  0.00     0.261 C 
BRANCH   3   4
ATOM      4  O   UNL A   1      34.623  34.497  30.041  1.00  0.00    -0.459 OA
BRANCH   4   5
ATOM      5  C   UNL A   1      33.732  34.140  29.073  1.00  0.00     0.350 C 
ATOM      6  O   UNL A   1      32.769  34.815  28.728  1.00  0.00    -0.245 OA
BRANCH   5   7
ATOM      7  C   UNL A   1      34.150  32.904  28.460  1.00  0.00     0.132 A 
ATOM      8  C   UNL A   1      34.206  30.790  27.247  1.00  0.00     0.116 A 
ATOM      9  N   UNL A   1      35.416  31.104  27.670  1.00  0.00    -0.244 NA
ATOM     10  S   UNL A   1      32.990  31.948  27.642  1.00  0.00    -0.107 S 
ATOM     11  C   UNL A   1      35.391  32.316  28.342  1.00  0.00     0.139 A 
BRANCH   8  12
ATOM     12  C   UNL A   1      33.803  29.612  26.560  1.00  0.00     0.040 C 
ATOM     13  C   UNL A   1      33.270  28.585  27.238  1.00  0.00     0.011 C 
BRANCH  13  14
ATOM     14  C   UNL A   1      32.695  27.382  26.617  1.00  0.00    -0.022 A 
ATOM     15  C   UNL A   1      31.703  25.063  25.320  1.00  0.00     0.160 A 
ATOM     16  C   UNL A   1      30.839  25.955  25.964  1.00  0.00     0.051 A 
ATOM     17  C   UNL A   1      33.067  25.352  25.326  1.00  0.00     0.158 A 
ATOM     18  C   UNL A   1      31.324  27.107  26.598  1.00  0.00     0.012 A 
ATOM     19  C   UNL A   1      33.560  26.486  25.977  1.00  0.00     0.058 A 
BRANCH  15  20
ATOM     20  O   UNL A   1      31.056  24.010  24.735  1.00  0.00    -0.493 OA
ATOM     21  C   UNL A   1      30.909  22.810  25.479  1.00  0.00     0.278 C 
ENDBRANCH  15  20
BRANCH  17  22
ATOM     22  O   UNL A   1      33.998  24.602  24.666  1.00  0.00    -0.504 OA
ATOM     23  H   UNL A   1      34.256  24.834  23.795  1.00  0.00     0.293 HD
ENDBRANCH  17  22
ENDBRANCH  13  14
ENDBRANCH   8  12
ENDBRANCH   5   7
ENDBRANCH   4   5
ENDBRANCH   3   4
ENDBRANCH   2   3
ENDBRANCH   1   2
BRANCH   1  24
ATOM     24  C   UNL A   1      36.247  33.719  33.139  1.00  0.00     0.202 C 
BRANCH  24  25
ATOM     25  C   UNL A   1      36.139  32.216  32.863  1.00  0.00     0.261 C 
BRANCH  25  26
ATOM     26  O   UNL A   1      36.617  31.901  31.543  1.00  0.00    -0.460 OA
BRANCH  26  27
ATOM     27  C   UNL A   1      36.853  30.586  31.315  1.00  0.00     0.338 C 
ATOM     28  O   UNL A   1      36.040  29.680  31.351  1.00  0.00    -0.246 OA
BRANCH  27  29
ATOM     29  C   UNL A   1      38.236  30.405  30.825  1.00  0.00     0.060 A 
ATOM     30  C   UNL A   1      38.424  30.357  29.438  1.00  0.00     0.016 A 
ATOM     31  C   UNL A   1      39.323  30.247  31.690  1.00  0.00     0.016 A 
ATOM     32  C   UNL A   1      39.688  30.102  28.911  1.00  0.00     0.010 A 
ATOM     33  C   UNL A   1      40.592  29.985  31.159  1.00  0.00     0.010 A 
ATOM     34  C   UNL A   1      40.773  29.878  29.768  1.00  0.00    -0.014 A 
BRANCH  34  35
ATOM     35  C   UNL A   1      42.059  29.399  29.209  1.00  0.00     0.031 A 
ATOM     36  C   UNL A   1      43.210  30.361  29.096  1.00  0.00     0.074 A 
ATOM     37  C   UNL A   1      42.211  28.116  28.836  1.00  0.00     0.049 A 
ATOM     38  N   UNL A   1      44.416  30.160  28.632  1.00  0.00    -0.248 NA
ATOM     39  C   UNL A   1      42.967  31.733  29.571  1.00  0.00     0.031 C 
ATOM     40  C   UNL A   1      41.181  27.083  28.924  1.00  0.00     0.029 A 
ATOM     41  N   UNL A   1      43.296  27.466  28.301  1.00  0.00    -0.354 N 
ATOM     42  C   UNL A   1      45.077  31.376  28.755  1.00  0.00     0.074 A 
ATOM     43  C   UNL A   1      44.128  32.318  29.310  1.00  0.00     0.031 C 
ATOM     44  C   UNL A   1      41.680  25.928  28.448  1.00  0.00     0.029 A 
ATOM     45  C   UNL A   1      43.055  26.146  28.003  1.00  0.00     0.049 A 
ATOM     46  H   UNL A   1      44.164  27.903  28.148  1.00  0.00     0.167 HD
ATOM     47  C   UNL A   1      46.359  31.679  28.441  1.00  0.00     0.037 A 
ATOM     48  C   UNL A   1      43.848  25.225  27.421  1.00  0.00     0.037 A 
ATOM     49  C   UNL A   1      47.300  30.742  27.889  1.00  0.00     0.049 A 
ATOM     50  C   UNL A   1      45.254  25.599  27.031  1.00  0.00     0.074 A 
ATOM     51  C   UNL A   1      48.628  30.949  27.556  1.00  0.00     0.029 A 
ATOM     52  N   UNL A   1      47.012  29.421  27.578  1.00  0.00    -0.354 N 
ATOM     53  N   UNL A   1      45.874  26.745  27.178  1.00  0.00    -0.248 NA
ATOM     54  C   UNL A   1      46.071  24.551  26.400  1.00  0.00     0.031 C 
ATOM     55  C   UNL A   1      49.131  29.764  27.007  1.00  0.00     0.029 A 
ATOM     56  C   UNL A   1      48.129  28.807  27.038  1.00  0.00     0.049 A 
ATOM     57  H   UNL A   1      46.140  28.986  27.720  1.00  0.00     0.167 HD
ATOM     58  C   UNL A   1      47.158  26.552  26.680  1.00  0.00     0.074 A 
ATOM     59  C   UNL A   1      47.230  25.176  26.234  1.00  0.00     0.031 C 
ATOM     60  C   UNL A   1      48.185  27.433  26.601  1.00  0.00     0.037 A 
BRANCH  47  61
ATOM     61  C   UNL A   1      46.808  33.095  28.671  1.00  0.00     0.058 A 
ATOM     62  C   UNL A   1      46.674  34.080  27.681  1.00  0.00     0.135 A 
ATOM     63  C   UNL A   1      47.365  33.474  29.904  1.00  0.00     0.135 A 
ATOM     64  F   UNL A   1      46.165  33.767  26.479  1.00  0.00    -0.206 F 
ATOM     65  C   UNL A   1      47.104  35.387  27.893  1.00  0.00     0.059 A 
ATOM     66  C   UNL A   1      47.780  34.779  30.146  1.00  0.00     0.059 A 
ATOM     67  F   UNL A   1      47.517  32.569  30.883  1.00  0.00    -0.206 F 
ATOM     68  C   UNL A   1      47.660  35.725  29.129  1.00  0.00     0.060 A 
BRANCH  68  69
ATOM     69  S   UNL A   1      48.224  37.421  29.389  1.00  0.00     0.124 S 
ATOM     70  O   UNL A   1      48.406  37.446  30.837  1.00  0.00    -0.237 OA
ATOM     71  O   UNL A   1      49.448  37.469  28.595  1.00  0.00    -0.237 OA
ATOM     72  O   UNL A   1      47.119  38.227  28.881  1.00  0.00    -0.744 OA
ENDBRANCH  68  69
ENDBRANCH  47  61
BRANCH  48  73
ATOM     73  C   UNL A   1      43.326  23.858  27.167  1.00  0.00     0.058 A 
ATOM     74  C   UNL A   1      42.841  23.490  25.904  1.00  0.00     0.135 A 
ATOM     75  C   UNL A   1      43.316  22.887  28.181  1.00  0.00     0.135 A 
ATOM     76  F   UNL A   1      42.819  24.387  24.906  1.00  0.00    -0.206 F 
ATOM     77  C   UNL A   1      42.359  22.209  25.655  1.00  0.00     0.059 A 
ATOM     78  C   UNL A   1      42.858  21.594  27.951  1.00  0.00     0.059 A 
ATOM     79  F   UNL A   1      43.778  23.189  29.405  1.00  0.00    -0.206 F 
ATOM     80  C   UNL A   1      42.376  21.266  26.684  1.00  0.00     0.060 A 
BRANCH  80  81
ATOM     81  S   UNL A   1      41.812  19.587  26.335  1.00  0.00     0.124 S 
ATOM     82  O   UNL A   1      40.375  19.784  26.187  1.00  0.00    -0.237 OA
ATOM     83  O   UNL A   1      42.542  19.265  25.113  1.00  0.00    -0.237 OA
ATOM     84  O   UNL A   1      42.229  18.841  27.519  1.00  0.00    -0.744 OA
ENDBRANCH  80  81
ENDBRANCH  48  73
BRANCH  60  85
ATOM     85  C   UNL A   1      49.487  26.935  26.037  1.00  0.00     0.058 A 
ATOM     86  C   UNL A   1      49.814  27.101  24.683  1.00  0.00     0.135 A 
ATOM     87  C   UNL A   1      50.440  26.332  26.873  1.00  0.00     0.135 A 
ATOM     88  F   UNL A   1      48.934  27.666  23.840  1.00  0.00    -0.206 F 
ATOM     89  C   UNL A   1      51.034  26.670  24.173  1.00  0.00     0.059 A 
ATOM     90  C   UNL A   1      51.675  25.914  26.390  1.00  0.00     0.059 A 
ATOM     91  F   UNL A   1      50.179  26.159  28.180  1.00  0.00    -0.206 F 
ATOM     92  C   UNL A   1      51.960  26.078  25.035  1.00  0.00     0.060 A 
BRANCH  92  93
ATOM     93  S   UNL A   1      53.555  25.555  24.371  1.00  0.00     0.124 S 
ATOM     94  O   UNL A   1      53.412  25.897  22.960  1.00  0.00    -0.237 OA
ATOM     95  O   UNL A   1      54.496  26.374  25.130  1.00  0.00    -0.237 OA
ATOM     96  O   UNL A   1      53.596  24.127  24.670  1.00  0.00    -0.744 OA
ENDBRANCH  92  93
ENDBRANCH  60  85
ENDBRANCH  34  35
ENDBRANCH  27  29
ENDBRANCH  26  27
ENDBRANCH  25  26
ENDBRANCH  24  25
ENDBRANCH   1  24
TORSDOF 21
ENDMDL
