MODEL 1
REMARK VINA RESULT:     -10.8      0.000      0.000
REMARK SMILES N#Cc1cc(-c2cncc(C(=O)OCCOCCOC(=O)c3ccc(-c4c5nc(c(-c6c(F)cc(S(=O)(=O)[O-])cc6F)c6ccc([nH]6)c(-c6c(F)cc(S(=O)(=O)[O-])cc6F)c6nc(c(-c7c(F)cc(S(=O)(=O)[O-])cc7F)c7ccc4[nH]7)C=C6)C=C5)cc3)c2)ccc1Cl
REMARK SMILES IDX 17 1 16 2 15 3 14 4 13 5 11 6 12 7 10 8 6 9 7 10 88 11 8 12
REMARK SMILES IDX 9 13 5 14 3 15 4 16 91 17 90 18 92 19 89 20 2 21 1 22 18 23
REMARK SMILES IDX 19 24 20 25 21 26 22 27 23 28 87 29 24 30 86 31 25 32 26 33
REMARK SMILES IDX 27 34 80 35 28 36 85 37 79 38 81 39 29 40 84 41 78 42 77 43
REMARK SMILES IDX 30 45 64 46 43 47 63 48 44 49 47 50 62 51 82 52 45 53 46 54
REMARK SMILES IDX 61 56 83 57 48 58 31 59 32 60 41 61 33 62 34 63 40 64 42 65
REMARK SMILES IDX 35 66 36 67 37 68 38 69 39 70 65 71 66 72 75 73 67 74 68 75
REMARK SMILES IDX 74 76 76 77 69 78 70 79 71 80 72 81 73 82 49 83 50 84 59 85
REMARK SMILES IDX 51 86 52 87 58 88 60 89 53 90 54 91 55 92 56 93 57 94
REMARK H PARENT 81 44 47 55
REMARK Flexibility Score: inf
ROOT
ATOM      1  C   UNL A   1      38.280  23.110  26.054  1.00  0.00     0.202 C 
ENDROOT
BRANCH   1   2
ATOM      2  O   UNL A   1      37.392  22.289  25.300  1.00  0.00    -0.374 OA
BRANCH   2   3
ATOM      3  C   UNL A   1      36.036  22.180  25.725  1.00  0.00     0.202 C 
BRANCH   3   4
ATOM      4  C   UNL A   1      34.919  22.423  24.703  1.00  0.00     0.261 C 
BRANCH   4   5
ATOM      5  O   UNL A   1      35.109  23.631  23.952  1.00  0.00    -0.460 OA
BRANCH   5   6
ATOM      6  C   UNL A   1      34.156  23.864  23.017  1.00  0.00     0.339 C 
ATOM      7  O   UNL A   1      33.916  23.194  22.027  1.00  0.00    -0.246 OA
BRANCH   6   8
ATOM      8  C   UNL A   1      33.282  24.965  23.452  1.00  0.00     0.079 A 
ATOM      9  C   UNL A   1      32.767  26.986  24.687  1.00  0.00     0.001 A 
ATOM     10  C   UNL A   1      31.499  26.919  24.095  1.00  0.00     0.119 A 
ATOM     11  C   UNL A   1      33.662  25.950  24.366  1.00  0.00     0.027 A 
ATOM     12  N   UNL A   1      31.087  25.951  23.243  1.00  0.00    -0.263 NA
ATOM     13  C   UNL A   1      31.998  25.005  22.926  1.00  0.00     0.126 A 
BRANCH   9  14
ATOM     14  C   UNL A   1      33.158  28.126  25.532  1.00  0.00    -0.015 A 
ATOM     15  C   UNL A   1      32.650  30.341  26.460  1.00  0.00     0.071 A 
ATOM     16  C   UNL A   1      32.343  29.270  25.605  1.00  0.00     0.029 A 
ATOM     17  C   UNL A   1      33.797  30.278  27.253  1.00  0.00     0.058 A 
ATOM     18  C   UNL A   1      34.627  29.157  27.185  1.00  0.00     0.022 A 
ATOM     19  Cl  UNL A   1      34.231  31.539  28.350  1.00  0.00    -0.083 Cl
ATOM     20  C   UNL A   1      34.311  28.093  26.333  1.00  0.00     0.010 A 
BRANCH  15  21
ATOM     21  C   UNL A   1      31.746  31.454  26.516  1.00  0.00     0.101 C 
ATOM     22  N   UNL A   1      30.987  32.325  26.585  1.00  0.00    -0.192 NA
ENDBRANCH  15  21
ENDBRANCH   9  14
ENDBRANCH   6   8
ENDBRANCH   5   6
ENDBRANCH   4   5
ENDBRANCH   3   4
ENDBRANCH   2   3
ENDBRANCH   1   2
BRANCH   1  23
ATOM     23  C   UNL A   1      39.586  22.517  26.600  1.00  0.00     0.261 C 
BRANCH  23  24
ATOM     24  O   UNL A   1      40.197  23.306  27.632  1.00  0.00    -0.460 OA
BRANCH  24  25
ATOM     25  C   UNL A   1      40.913  24.362  27.169  1.00  0.00     0.338 C 
ATOM     26  O   UNL A   1      41.578  24.410  26.148  1.00  0.00    -0.246 OA
BRANCH  25  27
ATOM     27  C   UNL A   1      40.628  25.553  27.989  1.00  0.00     0.060 A 
ATOM     28  C   UNL A   1      41.610  26.549  28.062  1.00  0.00     0.016 A 
ATOM     29  C   UNL A   1      39.453  25.653  28.733  1.00  0.00     0.016 A 
ATOM     30  C   UNL A   1      41.440  27.633  28.920  1.00  0.00     0.010 A 
ATOM     31  C   UNL A   1      39.287  26.739  29.596  1.00  0.00     0.010 A 
ATOM     32  C   UNL A   1      40.294  27.714  29.722  1.00  0.00    -0.014 A 
BRANCH  32  33
ATOM     33  C   UNL A   1      40.201  28.748  30.780  1.00  0.00     0.031 A 
ATOM     34  C   UNL A   1      41.115  28.663  31.972  1.00  0.00     0.074 A 
ATOM     35  C   UNL A   1      39.319  29.757  30.673  1.00  0.00     0.049 A 
ATOM     36  N   UNL A   1      41.168  29.425  33.035  1.00  0.00    -0.248 NA
ATOM     37  C   UNL A   1      42.095  27.566  31.968  1.00  0.00     0.031 C 
ATOM     38  C   UNL A   1      38.412  29.969  29.547  1.00  0.00     0.029 A 
ATOM     39  N   UNL A   1      39.038  30.790  31.532  1.00  0.00    -0.354 N 
ATOM     40  C   UNL A   1      42.178  28.896  33.830  1.00  0.00     0.074 A 
ATOM     41  C   UNL A   1      42.675  27.719  33.148  1.00  0.00     0.031 C 
ATOM     42  C   UNL A   1      37.677  31.069  29.780  1.00  0.00     0.029 A 
ATOM     43  C   UNL A   1      38.029  31.612  31.090  1.00  0.00     0.049 A 
ATOM     44  H   UNL A   1      39.515  30.929  32.382  1.00  0.00     0.167 HD
ATOM     45  C   UNL A   1      42.655  29.355  35.013  1.00  0.00     0.037 A 
ATOM     46  C   UNL A   1      37.445  32.670  31.686  1.00  0.00     0.037 A 
ATOM     47  C   UNL A   1      42.139  30.519  35.688  1.00  0.00     0.049 A 
ATOM     48  C   UNL A   1      37.923  33.107  33.046  1.00  0.00     0.074 A 
ATOM     49  C   UNL A   1      42.554  31.075  36.885  1.00  0.00     0.029 A 
ATOM     50  N   UNL A   1      41.082  31.297  35.234  1.00  0.00    -0.354 N 
ATOM     51  N   UNL A   1      38.891  32.612  33.780  1.00  0.00    -0.248 NA
ATOM     52  C   UNL A   1      37.229  34.248  33.657  1.00  0.00     0.031 C 
ATOM     53  C   UNL A   1      41.704  32.144  37.189  1.00  0.00     0.029 A 
ATOM     54  C   UNL A   1      40.808  32.307  36.143  1.00  0.00     0.049 A 
ATOM     55  H   UNL A   1      40.597  31.153  34.389  1.00  0.00     0.167 HD
ATOM     56  C   UNL A   1      38.949  33.406  34.922  1.00  0.00     0.074 A 
ATOM     57  C   UNL A   1      37.920  34.417  34.775  1.00  0.00     0.031 C 
ATOM     58  C   UNL A   1      39.781  33.311  35.989  1.00  0.00     0.037 A 
BRANCH  45  59
ATOM     59  C   UNL A   1      43.765  28.569  35.663  1.00  0.00     0.058 A 
ATOM     60  C   UNL A   1      43.510  27.539  36.586  1.00  0.00     0.135 A 
ATOM     61  C   UNL A   1      45.109  28.853  35.366  1.00  0.00     0.135 A 
ATOM     62  F   UNL A   1      42.247  27.228  36.919  1.00  0.00    -0.206 F 
ATOM     63  C   UNL A   1      44.541  26.865  37.232  1.00  0.00     0.059 A 
ATOM     64  C   UNL A   1      46.157  28.162  35.968  1.00  0.00     0.059 A 
ATOM     65  F   UNL A   1      45.419  29.821  34.488  1.00  0.00    -0.206 F 
ATOM     66  C   UNL A   1      45.862  27.187  36.921  1.00  0.00     0.060 A 
BRANCH  66  67
ATOM     67  S   UNL A   1      47.188  26.332  37.798  1.00  0.00     0.124 S 
ATOM     68  O   UNL A   1      48.159  26.126  36.727  1.00  0.00    -0.237 OA
ATOM     69  O   UNL A   1      47.565  27.307  38.817  1.00  0.00    -0.237 OA
ATOM     70  O   UNL A   1      46.541  25.123  38.299  1.00  0.00    -0.744 OA
ENDBRANCH  66  67
ENDBRANCH  45  59
BRANCH  46  71
ATOM     71  C   UNL A   1      36.357  33.403  30.985  1.00  0.00     0.058 A 
ATOM     72  C   UNL A   1      35.042  33.366  31.469  1.00  0.00     0.135 A 
ATOM     73  C   UNL A   1      36.611  34.175  29.840  1.00  0.00     0.135 A 
ATOM     74  F   UNL A   1      34.746  32.632  32.553  1.00  0.00    -0.206 F 
ATOM     75  C   UNL A   1      34.015  34.066  30.845  1.00  0.00     0.059 A 
ATOM     76  C   UNL A   1      35.608  34.908  29.215  1.00  0.00     0.059 A 
ATOM     77  F   UNL A   1      37.855  34.250  29.342  1.00  0.00    -0.206 F 
ATOM     78  C   UNL A   1      34.312  34.845  29.725  1.00  0.00     0.060 A 
BRANCH  78  79
ATOM     79  S   UNL A   1      32.984  35.813  28.977  1.00  0.00     0.124 S 
ATOM     80  O   UNL A   1      33.728  36.881  28.321  1.00  0.00    -0.237 OA
ATOM     81  O   UNL A   1      32.358  34.833  28.094  1.00  0.00    -0.237 OA
ATOM     82  O   UNL A   1      32.176  36.218  30.124  1.00  0.00    -0.744 OA
ENDBRANCH  78  79
ENDBRANCH  46  71
BRANCH  58  83
ATOM     83  C   UNL A   1      39.651  34.353  37.071  1.00  0.00     0.058 A 
ATOM     84  C   UNL A   1      38.898  34.133  38.235  1.00  0.00     0.135 A 
ATOM     85  C   UNL A   1      40.337  35.576  36.962  1.00  0.00     0.135 A 
ATOM     86  F   UNL A   1      38.215  32.987  38.392  1.00  0.00    -0.206 F 
ATOM     87  C   UNL A   1      38.804  35.095  39.236  1.00  0.00     0.059 A 
ATOM     88  C   UNL A   1      40.288  36.537  37.967  1.00  0.00     0.059 A 
ATOM     89  F   UNL A   1      41.082  35.839  35.876  1.00  0.00    -0.206 F 
ATOM     90  C   UNL A   1      39.509  36.292  39.096  1.00  0.00     0.060 A 
BRANCH  90  91
ATOM     91  S   UNL A   1      39.409  37.514  40.420  1.00  0.00     0.124 S 
ATOM     92  O   UNL A   1      38.254  38.305  40.006  1.00  0.00    -0.237 OA
ATOM     93  O   UNL A   1      39.214  36.677  41.600  1.00  0.00    -0.237 OA
ATOM     94  O   UNL A   1      40.696  38.200  40.351  1.00  0.00    -0.744 OA
ENDBRANCH  90  91
ENDBRANCH  58  83
ENDBRANCH  32  33
ENDBRANCH  25  27
ENDBRANCH  24  25
ENDBRANCH  23  24
ENDBRANCH   1  23
TORSDOF 19
ENDMDL
MODEL 2
REMARK VINA RESULT:     -10.7      5.080     10.886
REMARK SMILES N#Cc1cc(-c2cncc(C(=O)OCCOCCOC(=O)c3ccc(-c4c5nc(c(-c6c(F)cc(S(=O)(=O)[O-])cc6F)c6ccc([nH]6)c(-c6c(F)cc(S(=O)(=O)[O-])cc6F)c6nc(c(-c7c(F)cc(S(=O)(=O)[O-])cc7F)c7ccc4[nH]7)C=C6)C=C5)cc3)c2)ccc1Cl
REMARK SMILES IDX 17 1 16 2 15 3 14 4 13 5 11 6 12 7 10 8 6 9 7 10 88 11 8 12
REMARK SMILES IDX 9 13 5 14 3 15 4 16 91 17 90 18 92 19 89 20 2 21 1 22 18 23
REMARK SMILES IDX 19 24 20 25 21 26 22 27 23 28 87 29 24 30 86 31 25 32 26 33
REMARK SMILES IDX 27 34 80 35 28 36 85 37 79 38 81 39 29 40 84 41 78 42 77 43
REMARK SMILES IDX 30 45 64 46 43 47 63 48 44 49 47 50 62 51 82 52 45 53 46 54
REMARK SMILES IDX 61 56 83 57 48 58 31 59 32 60 41 61 33 62 34 63 40 64 42 65
REMARK SMILES IDX 35 66 36 67 37 68 38 69 39 70 65 71 66 72 75 73 67 74 68 75
REMARK SMILES IDX 74 76 76 77 69 78 70 79 71 80 72 81 73 82 49 83 50 84 59 85
REMARK SMILES IDX 51 86 52 87 58 88 60 89 53 90 54 91 55 92 56 93 57 94
REMARK H PARENT 81 44 47 55
REMARK Flexibility Score: inf
ROOT
ATOM      1  C   UNL A   1      33.396  29.179  25.270  1.00  0.00     0.202 C 
ENDROOT
BRANCH   1   2
ATOM      2  O   UNL A   1      32.542  28.275  24.574  1.00  0.00    -0.374 OA
BRANCH   2   3
ATOM      3  C   UNL A   1      31.558  28.807  23.691  1.00  0.00     0.202 C 
BRANCH   3   4
ATOM      4  C   UNL A   1      30.893  27.871  22.674  1.00  0.00     0.261 C 
BRANCH   4   5
ATOM      5  O   UNL A   1      31.059  26.485  23.007  1.00  0.00    -0.460 OA
BRANCH   5   6
ATOM      6  C   UNL A   1      30.128  26.001  23.864  1.00  0.00     0.339 C 
ATOM      7  O   UNL A   1      28.919  26.150  23.801  1.00  0.00    -0.246 OA
BRANCH   6   8
ATOM      8  C   UNL A   1      30.757  25.074  24.819  1.00  0.00     0.079 A 
ATOM      9  C   UNL A   1      31.943  23.055  25.443  1.00  0.00     0.001 A 
ATOM     10  C   UNL A   1      31.880  23.530  26.759  1.00  0.00     0.119 A 
ATOM     11  C   UNL A   1      31.329  23.851  24.461  1.00  0.00     0.027 A 
ATOM     12  N   UNL A   1      31.292  24.687  27.143  1.00  0.00    -0.263 NA
ATOM     13  C   UNL A   1      30.759  25.443  26.157  1.00  0.00     0.126 A 
BRANCH   9  14
ATOM     14  C   UNL A   1      32.684  21.828  25.108  1.00  0.00    -0.015 A 
ATOM     15  C   UNL A   1      34.821  20.639  24.901  1.00  0.00     0.071 A 
ATOM     16  C   UNL A   1      34.090  21.814  25.142  1.00  0.00     0.029 A 
ATOM     17  C   UNL A   1      34.142  19.455  24.610  1.00  0.00     0.058 A 
ATOM     18  C   UNL A   1      32.746  19.451  24.558  1.00  0.00     0.022 A 
ATOM     19  Cl  UNL A   1      34.964  17.963  24.330  1.00  0.00    -0.083 Cl
ATOM     20  C   UNL A   1      32.025  20.625  24.803  1.00  0.00     0.010 A 
BRANCH  15  21
ATOM     21  C   UNL A   1      36.252  20.691  24.999  1.00  0.00     0.101 C 
ATOM     22  N   UNL A   1      37.403  20.780  25.081  1.00  0.00    -0.192 NA
ENDBRANCH  15  21
ENDBRANCH   9  14
ENDBRANCH   6   8
ENDBRANCH   5   6
ENDBRANCH   4   5
ENDBRANCH   3   4
ENDBRANCH   2   3
ENDBRANCH   1   2
BRANCH   1  23
ATOM     23  C   UNL A   1      32.816  30.075  26.374  1.00  0.00     0.261 C 
BRANCH  23  24
ATOM     24  O   UNL A   1      33.404  29.860  27.666  1.00  0.00    -0.460 OA
BRANCH  24  25
ATOM     25  C   UNL A   1      34.330  30.791  28.014  1.00  0.00     0.338 C 
ATOM     26  O   UNL A   1      34.125  31.955  28.314  1.00  0.00    -0.246 OA
BRANCH  25  27
ATOM     27  C   UNL A   1      35.646  30.147  28.172  1.00  0.00     0.060 A 
ATOM     28  C   UNL A   1      36.007  29.697  29.448  1.00  0.00     0.016 A 
ATOM     29  C   UNL A   1      36.539  30.059  27.104  1.00  0.00     0.016 A 
ATOM     30  C   UNL A   1      37.286  29.196  29.674  1.00  0.00     0.010 A 
ATOM     31  C   UNL A   1      37.823  29.560  27.335  1.00  0.00     0.010 A 
ATOM     32  C   UNL A   1      38.216  29.160  28.626  1.00  0.00    -0.014 A 
BRANCH  32  33
ATOM     33  C   UNL A   1      39.633  28.825  28.903  1.00  0.00     0.031 A 
ATOM     34  C   UNL A   1      40.524  29.860  29.533  1.00  0.00     0.074 A 
ATOM     35  C   UNL A   1      40.116  27.605  28.606  1.00  0.00     0.049 A 
ATOM     36  N   UNL A   1      41.801  29.799  29.812  1.00  0.00    -0.248 NA
ATOM     37  C   UNL A   1      39.890  31.139  29.888  1.00  0.00     0.031 C 
ATOM     38  C   UNL A   1      39.340  26.507  28.034  1.00  0.00     0.029 A 
ATOM     39  N   UNL A   1      41.381  27.091  28.740  1.00  0.00    -0.354 N 
ATOM     40  C   UNL A   1      42.127  31.031  30.366  1.00  0.00     0.074 A 
ATOM     41  C   UNL A   1      40.923  31.836  30.336  1.00  0.00     0.031 C 
ATOM     42  C   UNL A   1      40.145  25.444  27.870  1.00  0.00     0.029 A 
ATOM     43  C   UNL A   1      41.500  25.801  28.283  1.00  0.00     0.049 A 
ATOM     44  H   UNL A   1      42.131  27.598  29.127  1.00  0.00     0.167 HD
ATOM     45  C   UNL A   1      43.316  31.450  30.865  1.00  0.00     0.037 A 
ATOM     46  C   UNL A   1      42.585  25.006  28.191  1.00  0.00     0.037 A 
ATOM     47  C   UNL A   1      44.510  30.643  30.873  1.00  0.00     0.049 A 
ATOM     48  C   UNL A   1      43.919  25.524  28.660  1.00  0.00     0.074 A 
ATOM     49  C   UNL A   1      45.765  30.966  31.360  1.00  0.00     0.029 A 
ATOM     50  N   UNL A   1      44.605  29.358  30.354  1.00  0.00    -0.354 N 
ATOM     51  N   UNL A   1      44.212  26.683  29.200  1.00  0.00    -0.248 NA
ATOM     52  C   UNL A   1      45.069  24.623  28.509  1.00  0.00     0.031 C 
ATOM     53  C   UNL A   1      46.632  29.907  31.072  1.00  0.00     0.029 A 
ATOM     54  C   UNL A   1      45.903  28.888  30.478  1.00  0.00     0.049 A 
ATOM     55  H   UNL A   1      43.858  28.854  29.957  1.00  0.00     0.167 HD
ATOM     56  C   UNL A   1      45.573  26.637  29.488  1.00  0.00     0.074 A 
ATOM     57  C   UNL A   1      46.041  25.330  29.068  1.00  0.00     0.031 C 
ATOM     58  C   UNL A   1      46.361  27.585  30.056  1.00  0.00     0.037 A 
BRANCH  45  59
ATOM     59  C   UNL A   1      43.384  32.856  31.404  1.00  0.00     0.058 A 
ATOM     60  C   UNL A   1      43.746  33.949  30.597  1.00  0.00     0.135 A 
ATOM     61  C   UNL A   1      43.089  33.118  32.753  1.00  0.00     0.135 A 
ATOM     62  F   UNL A   1      44.049  33.762  29.302  1.00  0.00    -0.206 F 
ATOM     63  C   UNL A   1      43.872  35.233  31.118  1.00  0.00     0.059 A 
ATOM     64  C   UNL A   1      43.167  34.401  33.286  1.00  0.00     0.059 A 
ATOM     65  F   UNL A   1      42.731  32.118  33.574  1.00  0.00    -0.206 F 
ATOM     66  C   UNL A   1      43.586  35.448  32.467  1.00  0.00     0.060 A 
BRANCH  66  67
ATOM     67  S   UNL A   1      43.794  37.111  33.137  1.00  0.00     0.124 S 
ATOM     68  O   UNL A   1      43.765  37.919  31.921  1.00  0.00    -0.237 OA
ATOM     69  O   UNL A   1      42.633  37.240  34.012  1.00  0.00    -0.237 OA
ATOM     70  O   UNL A   1      45.084  37.047  33.816  1.00  0.00    -0.744 OA
ENDBRANCH  66  67
ENDBRANCH  45  59
BRANCH  46  71
ATOM     71  C   UNL A   1      42.444  23.627  27.652  1.00  0.00     0.058 A 
ATOM     72  C   UNL A   1      42.463  23.394  26.269  1.00  0.00     0.135 A 
ATOM     73  C   UNL A   1      42.320  22.516  28.501  1.00  0.00     0.135 A 
ATOM     74  F   UNL A   1      42.567  24.424  25.416  1.00  0.00    -0.206 F 
ATOM     75  C   UNL A   1      42.361  22.110  25.746  1.00  0.00     0.059 A 
ATOM     76  C   UNL A   1      42.247  21.220  28.003  1.00  0.00     0.059 A 
ATOM     77  F   UNL A   1      42.307  22.685  29.833  1.00  0.00    -0.206 F 
ATOM     78  C   UNL A   1      42.267  21.027  26.623  1.00  0.00     0.060 A 
BRANCH  78  79
ATOM     79  S   UNL A   1      42.220  19.362  25.927  1.00  0.00     0.124 S 
ATOM     80  O   UNL A   1      40.794  19.187  25.673  1.00  0.00    -0.237 OA
ATOM     81  O   UNL A   1      43.067  19.504  24.747  1.00  0.00    -0.237 OA
ATOM     82  O   UNL A   1      42.778  18.536  26.994  1.00  0.00    -0.744 OA
ENDBRANCH  78  79
ENDBRANCH  46  71
BRANCH  58  83
ATOM     83  C   UNL A   1      47.807  27.236  30.302  1.00  0.00     0.058 A 
ATOM     84  C   UNL A   1      48.824  27.588  29.401  1.00  0.00     0.135 A 
ATOM     85  C   UNL A   1      48.186  26.582  31.487  1.00  0.00     0.135 A 
ATOM     86  F   UNL A   1      48.522  28.208  28.249  1.00  0.00    -0.206 F 
ATOM     87  C   UNL A   1      50.159  27.279  29.651  1.00  0.00     0.059 A 
ATOM     88  C   UNL A   1      49.517  26.297  31.775  1.00  0.00     0.059 A 
ATOM     89  F   UNL A   1      47.258  26.229  32.391  1.00  0.00    -0.206 F 
ATOM     90  C   UNL A   1      50.496  26.639  30.844  1.00  0.00     0.060 A 
BRANCH  90  91
ATOM     91  S   UNL A   1      52.234  26.280  31.172  1.00  0.00     0.124 S 
ATOM     92  O   UNL A   1      52.638  27.453  31.941  1.00  0.00    -0.237 OA
ATOM     93  O   UNL A   1      52.157  25.028  31.918  1.00  0.00    -0.237 OA
ATOM     94  O   UNL A   1      52.818  26.173  29.837  1.00  0.00    -0.744 OA
ENDBRANCH  90  91
ENDBRANCH  58  83
ENDBRANCH  32  33
ENDBRANCH  25  27
ENDBRANCH  24  25
ENDBRANCH  23  24
ENDBRANCH   1  23
TORSDOF 19
ENDMDL
MODEL 3
REMARK VINA RESULT:     -10.7      2.585      9.087
REMARK SMILES N#Cc1cc(-c2cncc(C(=O)OCCOCCOC(=O)c3ccc(-c4c5nc(c(-c6c(F)cc(S(=O)(=O)[O-])cc6F)c6ccc([nH]6)c(-c6c(F)cc(S(=O)(=O)[O-])cc6F)c6nc(c(-c7c(F)cc(S(=O)(=O)[O-])cc7F)c7ccc4[nH]7)C=C6)C=C5)cc3)c2)ccc1Cl
REMARK SMILES IDX 17 1 16 2 15 3 14 4 13 5 11 6 12 7 10 8 6 9 7 10 88 11 8 12
REMARK SMILES IDX 9 13 5 14 3 15 4 16 91 17 90 18 92 19 89 20 2 21 1 22 18 23
REMARK SMILES IDX 19 24 20 25 21 26 22 27 23 28 87 29 24 30 86 31 25 32 26 33
REMARK SMILES IDX 27 34 80 35 28 36 85 37 79 38 81 39 29 40 84 41 78 42 77 43
REMARK SMILES IDX 30 45 64 46 43 47 63 48 44 49 47 50 62 51 82 52 45 53 46 54
REMARK SMILES IDX 61 56 83 57 48 58 31 59 32 60 41 61 33 62 34 63 40 64 42 65
REMARK SMILES IDX 35 66 36 67 37 68 38 69 39 70 65 71 66 72 75 73 67 74 68 75
REMARK SMILES IDX 74 76 76 77 69 78 70 79 71 80 72 81 73 82 49 83 50 84 59 85
REMARK SMILES IDX 51 86 52 87 58 88 60 89 53 90 54 91 55 92 56 93 57 94
REMARK H PARENT 81 44 47 55
REMARK Flexibility Score: inf
ROOT
ATOM      1  C   UNL A   1      44.032  22.251  25.504  1.00  0.00     0.202 C 
ENDROOT
BRANCH   1   2
ATOM      2  O   UNL A   1      43.044  21.274  25.190  1.00  0.00    -0.374 OA
BRANCH   2   3
ATOM      3  C   UNL A   1      43.183  19.963  25.732  1.00  0.00     0.202 C 
BRANCH   3   4
ATOM      4  C   UNL A   1      42.148  19.470  26.751  1.00  0.00     0.261 C 
BRANCH   4   5
ATOM      5  O   UNL A   1      41.083  20.410  26.957  1.00  0.00    -0.460 OA
BRANCH   5   6
ATOM      6  C   UNL A   1      40.023  20.244  26.129  1.00  0.00     0.339 C 
ATOM      7  O   UNL A   1      39.652  19.208  25.605  1.00  0.00    -0.246 OA
BRANCH   6   8
ATOM      8  C   UNL A   1      39.223  21.479  26.083  1.00  0.00     0.079 A 
ATOM      9  C   UNL A   1      37.262  22.790  25.525  1.00  0.00     0.001 A 
ATOM     10  C   UNL A   1      37.918  23.867  26.134  1.00  0.00     0.119 A 
ATOM     11  C   UNL A   1      37.966  21.574  25.481  1.00  0.00     0.027 A 
ATOM     12  N   UNL A   1      39.154  23.817  26.684  1.00  0.00    -0.263 NA
ATOM     13  C   UNL A   1      39.771  22.616  26.662  1.00  0.00     0.126 A 
BRANCH   9  14
ATOM     14  C   UNL A   1      35.880  22.914  25.034  1.00  0.00    -0.015 A 
ATOM     15  C   UNL A   1      33.500  23.302  25.494  1.00  0.00     0.071 A 
ATOM     16  C   UNL A   1      34.818  23.104  25.937  1.00  0.00     0.029 A 
ATOM     17  C   UNL A   1      33.230  23.301  24.124  1.00  0.00     0.058 A 
ATOM     18  C   UNL A   1      34.267  23.101  23.212  1.00  0.00     0.022 A 
ATOM     19  Cl  UNL A   1      31.643  23.565  23.497  1.00  0.00    -0.083 Cl
ATOM     20  C   UNL A   1      35.578  22.908  23.662  1.00  0.00     0.010 A 
BRANCH  15  21
ATOM     21  C   UNL A   1      32.477  23.536  26.472  1.00  0.00     0.101 C 
ATOM     22  N   UNL A   1      31.635  23.681  27.252  1.00  0.00    -0.192 NA
ENDBRANCH  15  21
ENDBRANCH   9  14
ENDBRANCH   6   8
ENDBRANCH   5   6
ENDBRANCH   4   5
ENDBRANCH   3   4
ENDBRANCH   2   3
ENDBRANCH   1   2
BRANCH   1  23
ATOM     23  C   UNL A   1      43.880  23.107  26.769  1.00  0.00     0.261 C 
BRANCH  23  24
ATOM     24  O   UNL A   1      42.797  24.047  26.709  1.00  0.00    -0.460 OA
BRANCH  24  25
ATOM     25  C   UNL A   1      43.185  25.325  26.469  1.00  0.00     0.338 C 
ATOM     26  O   UNL A   1      43.788  25.739  25.493  1.00  0.00    -0.246 OA
BRANCH  25  27
ATOM     27  C   UNL A   1      42.602  26.221  27.483  1.00  0.00     0.060 A 
ATOM     28  C   UNL A   1      43.149  27.503  27.617  1.00  0.00     0.016 A 
ATOM     29  C   UNL A   1      41.592  25.782  28.338  1.00  0.00     0.016 A 
ATOM     30  C   UNL A   1      42.716  28.341  28.642  1.00  0.00     0.010 A 
ATOM     31  C   UNL A   1      41.163  26.623  29.368  1.00  0.00     0.010 A 
ATOM     32  C   UNL A   1      41.748  27.891  29.548  1.00  0.00    -0.014 A 
BRANCH  32  33
ATOM     33  C   UNL A   1      41.434  28.691  30.757  1.00  0.00     0.031 A 
ATOM     34  C   UNL A   1      40.278  29.652  30.721  1.00  0.00     0.074 A 
ATOM     35  C   UNL A   1      42.166  28.551  31.876  1.00  0.00     0.049 A 
ATOM     36  N   UNL A   1      39.861  30.485  31.640  1.00  0.00    -0.248 NA
ATOM     37  C   UNL A   1      39.492  29.684  29.478  1.00  0.00     0.031 C 
ATOM     38  C   UNL A   1      43.281  27.622  32.045  1.00  0.00     0.029 A 
ATOM     39  N   UNL A   1      42.081  29.200  33.082  1.00  0.00    -0.354 N 
ATOM     40  C   UNL A   1      38.772  31.147  31.086  1.00  0.00     0.074 A 
ATOM     41  C   UNL A   1      38.625  30.653  29.732  1.00  0.00     0.031 C 
ATOM     42  C   UNL A   1      43.776  27.756  33.287  1.00  0.00     0.029 A 
ATOM     43  C   UNL A   1      43.042  28.810  33.983  1.00  0.00     0.049 A 
ATOM     44  H   UNL A   1      41.397  29.879  33.282  1.00  0.00     0.167 HD
ATOM     45  C   UNL A   1      37.961  32.072  31.656  1.00  0.00     0.037 A 
ATOM     46  C   UNL A   1      43.310  29.267  35.223  1.00  0.00     0.037 A 
ATOM     47  C   UNL A   1      38.129  32.567  32.999  1.00  0.00     0.049 A 
ATOM     48  C   UNL A   1      42.458  30.365  35.803  1.00  0.00     0.074 A 
ATOM     49  C   UNL A   1      37.361  33.498  33.677  1.00  0.00     0.029 A 
ATOM     50  N   UNL A   1      39.146  32.185  33.865  1.00  0.00    -0.354 N 
ATOM     51  N   UNL A   1      41.419  30.970  35.278  1.00  0.00    -0.248 NA
ATOM     52  C   UNL A   1      42.816  30.841  37.146  1.00  0.00     0.031 C 
ATOM     53  C   UNL A   1      37.954  33.730  34.922  1.00  0.00     0.029 A 
ATOM     54  C   UNL A   1      39.045  32.886  35.056  1.00  0.00     0.049 A 
ATOM     55  H   UNL A   1      39.837  31.514  33.662  1.00  0.00     0.167 HD
ATOM     56  C   UNL A   1      40.974  31.871  36.242  1.00  0.00     0.074 A 
ATOM     57  C   UNL A   1      41.856  31.724  37.383  1.00  0.00     0.031 C 
ATOM     58  C   UNL A   1      39.928  32.733  36.190  1.00  0.00     0.037 A 
BRANCH  45  59
ATOM     59  C   UNL A   1      36.847  32.632  30.808  1.00  0.00     0.058 A 
ATOM     60  C   UNL A   1      37.057  33.683  29.898  1.00  0.00     0.135 A 
ATOM     61  C   UNL A   1      35.544  32.115  30.911  1.00  0.00     0.135 A 
ATOM     62  F   UNL A   1      38.277  34.226  29.762  1.00  0.00    -0.206 F 
ATOM     63  C   UNL A   1      36.010  34.238  29.169  1.00  0.00     0.059 A 
ATOM     64  C   UNL A   1      34.490  32.627  30.160  1.00  0.00     0.059 A 
ATOM     65  F   UNL A   1      35.280  31.107  31.757  1.00  0.00    -0.206 F 
ATOM     66  C   UNL A   1      34.727  33.707  29.312  1.00  0.00     0.060 A 
BRANCH  66  67
ATOM     67  S   UNL A   1      33.373  34.466  28.391  1.00  0.00     0.124 S 
ATOM     68  O   UNL A   1      32.529  34.964  29.473  1.00  0.00    -0.237 OA
ATOM     69  O   UNL A   1      34.064  35.485  27.606  1.00  0.00    -0.237 OA
ATOM     70  O   UNL A   1      32.818  33.356  27.623  1.00  0.00    -0.744 OA
ENDBRANCH  66  67
ENDBRANCH  45  59
BRANCH  46  71
ATOM     71  C   UNL A   1      44.423  28.666  36.005  1.00  0.00     0.058 A 
ATOM     72  C   UNL A   1      45.723  29.184  35.915  1.00  0.00     0.135 A 
ATOM     73  C   UNL A   1      44.208  27.587  36.878  1.00  0.00     0.135 A 
ATOM     74  F   UNL A   1      45.981  30.207  35.086  1.00  0.00    -0.206 F 
ATOM     75  C   UNL A   1      46.771  28.655  36.658  1.00  0.00     0.059 A 
ATOM     76  C   UNL A   1      45.234  27.060  37.655  1.00  0.00     0.059 A 
ATOM     77  F   UNL A   1      42.980  27.060  37.007  1.00  0.00    -0.206 F 
ATOM     78  C   UNL A   1      46.513  27.600  37.536  1.00  0.00     0.060 A 
BRANCH  78  79
ATOM     79  S   UNL A   1      47.869  26.981  38.555  1.00  0.00     0.124 S 
ATOM     80  O   UNL A   1      48.894  27.994  38.331  1.00  0.00    -0.237 OA
ATOM     81  O   UNL A   1      47.265  26.964  39.883  1.00  0.00    -0.237 OA
ATOM     82  O   UNL A   1      48.146  25.665  37.984  1.00  0.00    -0.744 OA
ENDBRANCH  78  79
ENDBRANCH  46  71
BRANCH  58  83
ATOM     83  C   UNL A   1      39.644  33.561  37.417  1.00  0.00     0.058 A 
ATOM     84  C   UNL A   1      38.701  33.171  38.381  1.00  0.00     0.135 A 
ATOM     85  C   UNL A   1      40.368  34.742  37.658  1.00  0.00     0.135 A 
ATOM     86  F   UNL A   1      37.974  32.056  38.202  1.00  0.00    -0.206 F 
ATOM     87  C   UNL A   1      38.464  33.934  39.521  1.00  0.00     0.059 A 
ATOM     88  C   UNL A   1      40.175  35.501  38.808  1.00  0.00     0.059 A 
ATOM     89  F   UNL A   1      41.291  35.161  36.776  1.00  0.00    -0.206 F 
ATOM     90  C   UNL A   1      39.212  35.095  39.729  1.00  0.00     0.060 A 
BRANCH  90  91
ATOM     91  S   UNL A   1      38.921  36.052  41.231  1.00  0.00     0.124 S 
ATOM     92  O   UNL A   1      37.784  35.347  41.815  1.00  0.00    -0.237 OA
ATOM     93  O   UNL A   1      40.189  35.909  41.940  1.00  0.00    -0.237 OA
ATOM     94  O   UNL A   1      38.637  37.395  40.731  1.00  0.00    -0.744 OA
ENDBRANCH  90  91
ENDBRANCH  58  83
ENDBRANCH  32  33
ENDBRANCH  25  27
ENDBRANCH  24  25
ENDBRANCH  23  24
ENDBRANCH   1  23
TORSDOF 19
ENDMDL
