MODEL 1
REMARK VINA RESULT:     -12.2      0.000      0.000
REMARK SMILES Cc1cc(S(F)(F)(F)(F)F)cc2c1O[C@H](C(F)(F)F)C(C(=O)OCCOCCOC(=O)c1ccc(-c3c4nc(c(-c5c(F)cc(S(=O)(=O)[O-])cc5F)c5ccc([nH]5)c(-c5c(F)cc(S(=O)(=O)[O-])cc5F)c5nc(c(-c6c(F)cc(S(=O)(=O)[O-])cc6F)c6ccc3[nH]6)C=C5)C=C4)cc1)=C2
REMARK SMILES IDX 27 1 26 2 25 3 24 4 23 5 21 6 22 7 20 8 1 9 2 10 3 11 13 12
REMARK SMILES IDX 4 13 12 14 14 15 11 16 98 17 15 18 5 19 6 20 7 21 8 22 9 23
REMARK SMILES IDX 10 24 16 25 17 26 18 27 19 28 28 29 29 30 30 31 31 32 32 33
REMARK SMILES IDX 33 34 97 35 34 36 96 37 35 38 36 39 37 40 90 41 38 42 95 43
REMARK SMILES IDX 89 44 91 45 39 46 94 47 88 48 87 49 40 51 74 52 53 53 73 54
REMARK SMILES IDX 54 55 57 56 72 57 92 58 55 59 56 60 71 62 93 63 58 64 41 65
REMARK SMILES IDX 42 66 51 67 43 68 44 69 50 70 52 71 45 72 46 73 47 74 48 75
REMARK SMILES IDX 49 76 75 77 76 78 85 79 77 80 78 81 84 82 86 83 79 84 80 85
REMARK SMILES IDX 81 86 82 87 83 88 59 89 60 90 69 91 61 92 62 93 68 94 70 95
REMARK SMILES IDX 63 96 64 97 65 98 66 99 67 100
REMARK H PARENT 91 50 57 61
REMARK Flexibility Score: inf
ROOT
ATOM      1  C   UNL A   1      31.776  28.753  25.840  1.00  0.00     0.202 C 
ENDROOT
BRANCH   1   2
ATOM      2  O   UNL A   1      31.368  28.820  24.482  1.00  0.00    -0.374 OA
BRANCH   2   3
ATOM      3  C   UNL A   1      30.778  27.584  24.104  1.00  0.00     0.202 C 
BRANCH   3   4
ATOM      4  C   UNL A   1      31.110  27.288  22.651  1.00  0.00     0.261 C 
BRANCH   4   5
ATOM      5  O   UNL A   1      31.281  25.889  22.480  1.00  0.00    -0.460 OA
BRANCH   5   6
ATOM      6  C   UNL A   1      32.516  25.379  22.000  1.00  0.00     0.338 C 
ATOM      7  O   UNL A   1      33.020  25.838  20.928  1.00  0.00    -0.246 OA
BRANCH   6   8
ATOM      8  C   UNL A   1      33.237  24.284  22.770  1.00  0.00     0.087 C 
ATOM      9  C   UNL A   1      36.530  21.513  25.693  1.00  0.00     0.048 C 
ATOM     10  C   UNL A   1      35.253  21.297  24.898  1.00  0.00    -0.007 A 
ATOM     11  C   UNL A   1      34.668  20.054  25.004  1.00  0.00     0.031 A 
ATOM     12  C   UNL A   1      34.595  22.305  24.194  1.00  0.00     0.130 A 
ATOM     13  C   UNL A   1      33.437  19.796  24.413  1.00  0.00     0.108 A 
ATOM     14  C   UNL A   1      33.342  22.041  23.598  1.00  0.00     0.019 A 
ATOM     15  O   UNL A   1      35.167  23.649  24.044  1.00  0.00    -0.475 OA
ATOM     16  C   UNL A   1      32.773  20.770  23.723  1.00  0.00     0.036 A 
ATOM     17  C   UNL A   1      32.675  23.115  22.863  1.00  0.00     0.027 C 
ATOM     18  C   UNL A   1      34.473  24.574  23.347  1.00  0.00     0.316 C 
BRANCH  13  19
ATOM     19  S   UNL A   1      32.704  18.148  24.559  1.00  0.00     0.310 S 
ATOM     20  F   UNL A   1      34.156  17.565  24.825  1.00  0.00    -0.094 F 
ATOM     21  F   UNL A   1      33.012  18.024  23.019  1.00  0.00    -0.094 F 
ATOM     22  F   UNL A   1      32.176  16.686  24.600  1.00  0.00    -0.094 F 
ATOM     23  F   UNL A   1      32.535  18.244  26.127  1.00  0.00    -0.094 F 
ATOM     24  F   UNL A   1      33.344  19.594  24.555  1.00  0.00    -0.094 F 
ENDBRANCH  13  19
BRANCH  18  25
ATOM     25  C   UNL A   1      34.098  25.578  24.426  1.00  0.00     0.430 C 
ATOM     26  F   UNL A   1      34.989  25.522  25.412  1.00  0.00    -0.167 F 
ATOM     27  F   UNL A   1      34.088  26.802  23.907  1.00  0.00    -0.167 F 
ATOM     28  F   UNL A   1      32.891  25.288  24.902  1.00  0.00    -0.167 F 
ENDBRANCH  18  25
ENDBRANCH   6   8
ENDBRANCH   5   6
ENDBRANCH   4   5
ENDBRANCH   3   4
ENDBRANCH   2   3
ENDBRANCH   1   2
BRANCH   1  29
ATOM     29  C   UNL A   1      32.924  29.723  26.072  1.00  0.00     0.261 C 
BRANCH  29  30
ATOM     30  O   UNL A   1      33.527  29.451  27.328  1.00  0.00    -0.460 OA
BRANCH  30  31
ATOM     31  C   UNL A   1      34.398  30.404  27.919  1.00  0.00     0.338 C 
ATOM     32  O   UNL A   1      33.959  31.555  28.234  1.00  0.00    -0.246 OA
BRANCH  31  33
ATOM     33  C   UNL A   1      35.854  30.049  28.175  1.00  0.00     0.060 A 
ATOM     34  C   UNL A   1      36.255  29.758  29.474  1.00  0.00     0.016 A 
ATOM     35  C   UNL A   1      36.756  30.014  27.219  1.00  0.00     0.016 A 
ATOM     36  C   UNL A   1      37.423  28.974  29.614  1.00  0.00     0.010 A 
ATOM     37  C   UNL A   1      38.090  29.699  27.505  1.00  0.00     0.010 A 
ATOM     38  C   UNL A   1      38.426  29.189  28.670  1.00  0.00    -0.014 A 
BRANCH  38  39
ATOM     39  C   UNL A   1      39.873  28.844  28.980  1.00  0.00     0.031 A 
ATOM     40  C   UNL A   1      40.617  29.871  29.564  1.00  0.00     0.074 A 
ATOM     41  C   UNL A   1      40.395  27.606  28.643  1.00  0.00     0.049 A 
ATOM     42  N   UNL A   1      41.902  29.844  29.921  1.00  0.00    -0.248 NA
ATOM     43  C   UNL A   1      40.074  31.198  29.891  1.00  0.00     0.031 C 
ATOM     44  C   UNL A   1      39.649  26.561  28.062  1.00  0.00     0.029 A 
ATOM     45  N   UNL A   1      41.690  27.164  28.798  1.00  0.00    -0.354 N 
ATOM     46  C   UNL A   1      42.254  31.011  30.464  1.00  0.00     0.074 A 
ATOM     47  C   UNL A   1      41.085  31.900  30.448  1.00  0.00     0.031 C 
ATOM     48  C   UNL A   1      40.484  25.509  27.859  1.00  0.00     0.029 A 
ATOM     49  C   UNL A   1      41.766  25.878  28.311  1.00  0.00     0.049 A 
ATOM     50  H   UNL A   1      42.432  27.678  29.190  1.00  0.00     0.167 HD
ATOM     51  C   UNL A   1      43.503  31.366  30.975  1.00  0.00     0.037 A 
ATOM     52  C   UNL A   1      42.882  25.058  28.252  1.00  0.00     0.037 A 
ATOM     53  C   UNL A   1      44.608  30.531  30.956  1.00  0.00     0.049 A 
ATOM     54  C   UNL A   1      44.147  25.435  28.710  1.00  0.00     0.074 A 
ATOM     55  C   UNL A   1      45.873  30.872  31.474  1.00  0.00     0.029 A 
ATOM     56  N   UNL A   1      44.691  29.253  30.446  1.00  0.00    -0.354 N 
ATOM     57  N   UNL A   1      44.489  26.586  29.289  1.00  0.00    -0.248 NA
ATOM     58  C   UNL A   1      45.343  24.586  28.624  1.00  0.00     0.031 C 
ATOM     59  C   UNL A   1      46.709  29.818  31.270  1.00  0.00     0.029 A 
ATOM     60  C   UNL A   1      45.981  28.803  30.622  1.00  0.00     0.049 A 
ATOM     61  H   UNL A   1      43.955  28.750  30.029  1.00  0.00     0.167 HD
ATOM     62  C   UNL A   1      45.784  26.575  29.608  1.00  0.00     0.074 A 
ATOM     63  C   UNL A   1      46.354  25.290  29.178  1.00  0.00     0.031 C 
ATOM     64  C   UNL A   1      46.513  27.580  30.244  1.00  0.00     0.037 A 
BRANCH  51  65
ATOM     65  C   UNL A   1      43.661  32.750  31.586  1.00  0.00     0.058 A 
ATOM     66  C   UNL A   1      43.993  33.831  30.796  1.00  0.00     0.135 A 
ATOM     67  C   UNL A   1      43.471  32.939  32.948  1.00  0.00     0.135 A 
ATOM     68  F   UNL A   1      44.177  33.660  29.490  1.00  0.00    -0.206 F 
ATOM     69  C   UNL A   1      44.132  35.037  31.323  1.00  0.00     0.059 A 
ATOM     70  C   UNL A   1      43.618  34.218  33.465  1.00  0.00     0.059 A 
ATOM     71  F   UNL A   1      43.155  31.918  33.739  1.00  0.00    -0.206 F 
ATOM     72  C   UNL A   1      43.952  35.254  32.615  1.00  0.00     0.060 A 
BRANCH  72  73
ATOM     73  S   UNL A   1      44.146  36.927  33.277  1.00  0.00     0.124 S 
ATOM     74  O   UNL A   1      45.331  36.958  34.246  1.00  0.00    -0.237 OA
ATOM     75  O   UNL A   1      44.401  37.905  32.128  1.00  0.00    -0.237 OA
ATOM     76  O   UNL A   1      42.720  37.382  34.106  1.00  0.00    -0.744 OA
ENDBRANCH  72  73
ENDBRANCH  51  65
BRANCH  52  77
ATOM     77  C   UNL A   1      42.720  23.669  27.656  1.00  0.00     0.058 A 
ATOM     78  C   UNL A   1      42.476  22.581  28.470  1.00  0.00     0.135 A 
ATOM     79  C   UNL A   1      42.818  23.480  26.285  1.00  0.00     0.135 A 
ATOM     80  F   UNL A   1      42.380  22.752  29.786  1.00  0.00    -0.206 F 
ATOM     81  C   UNL A   1      42.335  21.368  27.956  1.00  0.00     0.059 A 
ATOM     82  C   UNL A   1      42.660  22.198  25.781  1.00  0.00     0.059 A 
ATOM     83  F   UNL A   1      43.058  24.505  25.474  1.00  0.00    -0.206 F 
ATOM     84  C   UNL A   1      42.417  21.155  26.654  1.00  0.00     0.060 A 
BRANCH  84  85
ATOM     85  S   UNL A   1      42.208  19.478  26.008  1.00  0.00     0.124 S 
ATOM     86  O   UNL A   1      43.017  19.324  24.718  1.00  0.00    -0.237 OA
ATOM     87  O   UNL A   1      42.703  18.466  27.044  1.00  0.00    -0.237 OA
ATOM     88  O   UNL A   1      40.554  19.194  25.680  1.00  0.00    -0.744 OA
ENDBRANCH  84  85
ENDBRANCH  52  77
BRANCH  64  89
ATOM     89  C   UNL A   1      47.982  27.319  30.541  1.00  0.00     0.058 A 
ATOM     90  C   UNL A   1      48.307  26.731  31.746  1.00  0.00     0.135 A 
ATOM     91  C   UNL A   1      48.997  27.683  29.669  1.00  0.00     0.135 A 
ATOM     92  F   UNL A   1      47.340  26.378  32.588  1.00  0.00    -0.206 F 
ATOM     93  C   UNL A   1      49.571  26.512  32.072  1.00  0.00     0.059 A 
ATOM     94  C   UNL A   1      50.310  27.434  30.040  1.00  0.00     0.059 A 
ATOM     95  F   UNL A   1      48.719  28.258  28.502  1.00  0.00    -0.206 F 
ATOM     96  C   UNL A   1      50.564  26.841  31.262  1.00  0.00     0.060 A 
BRANCH  96  97
ATOM     97  S   UNL A   1      52.272  26.510  31.758  1.00  0.00     0.124 S 
ATOM     98  O   UNL A   1      52.560  27.207  33.089  1.00  0.00    -0.237 OA
ATOM     99  O   UNL A   1      52.473  25.001  31.919  1.00  0.00    -0.237 OA
ATOM    100  O   UNL A   1      53.339  27.102  30.560  1.00  0.00    -0.744 OA
ENDBRANCH  96  97
ENDBRANCH  64  89
ENDBRANCH  38  39
ENDBRANCH  31  33
ENDBRANCH  30  31
ENDBRANCH  29  30
ENDBRANCH   1  29
TORSDOF 19
ENDMDL
MODEL 2
REMARK VINA RESULT:     -11.9      0.361      8.053
REMARK SMILES Cc1cc(S(F)(F)(F)(F)F)cc2c1O[C@H](C(F)(F)F)C(C(=O)OCCOCCOC(=O)c1ccc(-c3c4nc(c(-c5c(F)cc(S(=O)(=O)[O-])cc5F)c5ccc([nH]5)c(-c5c(F)cc(S(=O)(=O)[O-])cc5F)c5nc(c(-c6c(F)cc(S(=O)(=O)[O-])cc6F)c6ccc3[nH]6)C=C5)C=C4)cc1)=C2
REMARK SMILES IDX 27 1 26 2 25 3 24 4 23 5 21 6 22 7 20 8 1 9 2 10 3 11 13 12
REMARK SMILES IDX 4 13 12 14 14 15 11 16 98 17 15 18 5 19 6 20 7 21 8 22 9 23
REMARK SMILES IDX 10 24 16 25 17 26 18 27 19 28 28 29 29 30 30 31 31 32 32 33
REMARK SMILES IDX 33 34 97 35 34 36 96 37 35 38 36 39 37 40 90 41 38 42 95 43
REMARK SMILES IDX 89 44 91 45 39 46 94 47 88 48 87 49 40 51 74 52 53 53 73 54
REMARK SMILES IDX 54 55 57 56 72 57 92 58 55 59 56 60 71 62 93 63 58 64 41 65
REMARK SMILES IDX 42 66 51 67 43 68 44 69 50 70 52 71 45 72 46 73 47 74 48 75
REMARK SMILES IDX 49 76 75 77 76 78 85 79 77 80 78 81 84 82 86 83 79 84 80 85
REMARK SMILES IDX 81 86 82 87 83 88 59 89 60 90 69 91 61 92 62 93 68 94 70 95
REMARK SMILES IDX 63 96 64 97 65 98 66 99 67 100
REMARK H PARENT 91 50 57 61
REMARK Flexibility Score: inf
ROOT
ATOM      1  C   UNL A   1      32.241  28.382  25.447  1.00  0.00     0.202 C 
ENDROOT
BRANCH   1   2
ATOM      2  O   UNL A   1      31.173  28.779  24.599  1.00  0.00    -0.374 OA
BRANCH   2   3
ATOM      3  C   UNL A   1      30.455  27.629  24.174  1.00  0.00     0.202 C 
BRANCH   3   4
ATOM      4  C   UNL A   1      30.996  27.163  22.832  1.00  0.00     0.261 C 
BRANCH   4   5
ATOM      5  O   UNL A   1      31.155  25.752  22.851  1.00  0.00    -0.460 OA
BRANCH   5   6
ATOM      6  C   UNL A   1      32.251  25.152  22.176  1.00  0.00     0.338 C 
ATOM      7  O   UNL A   1      32.562  25.534  21.005  1.00  0.00    -0.246 OA
BRANCH   6   8
ATOM      8  C   UNL A   1      33.053  24.055  22.856  1.00  0.00     0.087 C 
ATOM      9  C   UNL A   1      36.670  21.266  25.349  1.00  0.00     0.048 C 
ATOM     10  C   UNL A   1      35.297  21.060  24.731  1.00  0.00    -0.007 A 
ATOM     11  C   UNL A   1      34.716  19.826  24.926  1.00  0.00     0.031 A 
ATOM     12  C   UNL A   1      34.564  22.070  24.109  1.00  0.00     0.130 A 
ATOM     13  C   UNL A   1      33.415  19.579  24.506  1.00  0.00     0.108 A 
ATOM     14  C   UNL A   1      33.240  21.817  23.687  1.00  0.00     0.019 A 
ATOM     15  O   UNL A   1      35.127  23.405  23.871  1.00  0.00    -0.475 OA
ATOM     16  C   UNL A   1      32.677  20.556  23.899  1.00  0.00     0.036 A 
ATOM     17  C   UNL A   1      32.495  22.895  23.035  1.00  0.00     0.027 C 
ATOM     18  C   UNL A   1      34.358  24.333  23.262  1.00  0.00     0.316 C 
BRANCH  13  19
ATOM     19  S   UNL A   1      32.688  17.942  24.765  1.00  0.00     0.310 S 
ATOM     20  F   UNL A   1      34.145  17.378  25.042  1.00  0.00    -0.094 F 
ATOM     21  F   UNL A   1      32.970  17.725  23.230  1.00  0.00    -0.094 F 
ATOM     22  F   UNL A   1      32.164  16.485  24.904  1.00  0.00    -0.094 F 
ATOM     23  F   UNL A   1      32.545  18.134  26.327  1.00  0.00    -0.094 F 
ATOM     24  F   UNL A   1      33.324  19.386  24.661  1.00  0.00    -0.094 F 
ENDBRANCH  13  19
BRANCH  18  25
ATOM     25  C   UNL A   1      34.141  25.351  24.370  1.00  0.00     0.430 C 
ATOM     26  F   UNL A   1      32.964  25.133  24.949  1.00  0.00    -0.167 F 
ATOM     27  F   UNL A   1      35.109  25.234  25.275  1.00  0.00    -0.167 F 
ATOM     28  F   UNL A   1      34.161  26.578  23.857  1.00  0.00    -0.167 F 
ENDBRANCH  18  25
ENDBRANCH   6   8
ENDBRANCH   5   6
ENDBRANCH   4   5
ENDBRANCH   3   4
ENDBRANCH   2   3
ENDBRANCH   1   2
BRANCH   1  29
ATOM     29  C   UNL A   1      32.951  29.617  25.979  1.00  0.00     0.261 C 
BRANCH  29  30
ATOM     30  O   UNL A   1      33.642  29.288  27.174  1.00  0.00    -0.460 OA
BRANCH  30  31
ATOM     31  C   UNL A   1      34.441  30.264  27.824  1.00  0.00     0.338 C 
ATOM     32  O   UNL A   1      33.931  31.378  28.165  1.00  0.00    -0.246 OA
BRANCH  31  33
ATOM     33  C   UNL A   1      35.906  29.980  28.113  1.00  0.00     0.060 A 
ATOM     34  C   UNL A   1      36.300  29.752  29.427  1.00  0.00     0.016 A 
ATOM     35  C   UNL A   1      36.824  29.948  27.170  1.00  0.00     0.016 A 
ATOM     36  C   UNL A   1      37.496  29.022  29.610  1.00  0.00     0.010 A 
ATOM     37  C   UNL A   1      38.165  29.699  27.485  1.00  0.00     0.010 A 
ATOM     38  C   UNL A   1      38.504  29.245  28.673  1.00  0.00    -0.014 A 
BRANCH  38  39
ATOM     39  C   UNL A   1      39.960  28.970  29.015  1.00  0.00     0.031 A 
ATOM     40  C   UNL A   1      40.418  27.695  28.680  1.00  0.00     0.074 A 
ATOM     41  C   UNL A   1      40.728  29.924  29.661  1.00  0.00     0.049 A 
ATOM     42  N   UNL A   1      41.635  27.189  28.879  1.00  0.00    -0.248 NA
ATOM     43  C   UNL A   1      39.592  26.669  28.025  1.00  0.00     0.031 C 
ATOM     44  C   UNL A   1      40.277  31.216  29.994  1.00  0.00     0.029 A 
ATOM     45  N   UNL A   1      42.031  29.809  30.091  1.00  0.00    -0.354 N 
ATOM     46  C   UNL A   1      41.699  25.942  28.408  1.00  0.00     0.074 A 
ATOM     47  C   UNL A   1      40.385  25.588  27.856  1.00  0.00     0.031 C 
ATOM     48  C   UNL A   1      41.288  31.866  30.626  1.00  0.00     0.029 A 
ATOM     49  C   UNL A   1      42.390  30.992  30.698  1.00  0.00     0.049 A 
ATOM     50  H   UNL A   1      42.607  29.018  29.983  1.00  0.00     0.167 HD
ATOM     51  C   UNL A   1      42.804  25.089  28.414  1.00  0.00     0.037 A 
ATOM     52  C   UNL A   1      43.603  31.310  31.289  1.00  0.00     0.037 A 
ATOM     53  C   UNL A   1      44.030  25.422  28.966  1.00  0.00     0.049 A 
ATOM     54  C   UNL A   1      44.690  30.434  31.347  1.00  0.00     0.074 A 
ATOM     55  C   UNL A   1      45.156  24.575  28.973  1.00  0.00     0.029 A 
ATOM     56  N   UNL A   1      44.382  26.596  29.595  1.00  0.00    -0.354 N 
ATOM     57  N   UNL A   1      44.766  29.203  30.840  1.00  0.00    -0.248 NA
ATOM     58  C   UNL A   1      45.969  30.748  31.998  1.00  0.00     0.031 C 
ATOM     59  C   UNL A   1      46.168  25.227  29.607  1.00  0.00     0.029 A 
ATOM     60  C   UNL A   1      45.692  26.490  30.005  1.00  0.00     0.049 A 
ATOM     61  H   UNL A   1      43.796  27.377  29.728  1.00  0.00     0.167 HD
ATOM     62  C   UNL A   1      45.971  28.682  31.077  1.00  0.00     0.074 A 
ATOM     63  C   UNL A   1      46.760  29.666  31.832  1.00  0.00     0.031 C 
ATOM     64  C   UNL A   1      46.448  27.428  30.691  1.00  0.00     0.037 A 
BRANCH  51  65
ATOM     65  C   UNL A   1      42.653  23.715  27.779  1.00  0.00     0.058 A 
ATOM     66  C   UNL A   1      42.409  22.606  28.562  1.00  0.00     0.135 A 
ATOM     67  C   UNL A   1      42.758  23.565  26.404  1.00  0.00     0.135 A 
ATOM     68  F   UNL A   1      42.306  22.740  29.881  1.00  0.00    -0.206 F 
ATOM     69  C   UNL A   1      42.276  21.407  28.015  1.00  0.00     0.059 A 
ATOM     70  C   UNL A   1      42.607  22.296  25.864  1.00  0.00     0.059 A 
ATOM     71  F   UNL A   1      42.998  24.613  25.621  1.00  0.00    -0.206 F 
ATOM     72  C   UNL A   1      42.364  21.229  26.707  1.00  0.00     0.060 A 
BRANCH  72  73
ATOM     73  S   UNL A   1      42.164  19.569  26.015  1.00  0.00     0.124 S 
ATOM     74  O   UNL A   1      42.986  19.450  24.729  1.00  0.00    -0.237 OA
ATOM     75  O   UNL A   1      42.650  18.531  27.029  1.00  0.00    -0.237 OA
ATOM     76  O   UNL A   1      40.513  19.292  25.664  1.00  0.00    -0.744 OA
ENDBRANCH  72  73
ENDBRANCH  51  65
BRANCH  52  77
ATOM     77  C   UNL A   1      43.758  32.689  31.908  1.00  0.00     0.058 A 
ATOM     78  C   UNL A   1      44.299  33.729  31.177  1.00  0.00     0.135 A 
ATOM     79  C   UNL A   1      43.362  32.917  33.218  1.00  0.00     0.135 A 
ATOM     80  F   UNL A   1      44.682  33.520  29.921  1.00  0.00    -0.206 F 
ATOM     81  C   UNL A   1      44.438  34.932  31.713  1.00  0.00     0.059 A 
ATOM     82  C   UNL A   1      43.517  34.190  33.745  1.00  0.00     0.059 A 
ATOM     83  F   UNL A   1      42.844  31.936  33.951  1.00  0.00    -0.206 F 
ATOM     84  C   UNL A   1      44.065  35.184  32.956  1.00  0.00     0.060 A 
BRANCH  84  85
ATOM     85  S   UNL A   1      44.272  36.850  33.631  1.00  0.00     0.124 S 
ATOM     86  O   UNL A   1      43.152  37.136  34.635  1.00  0.00    -0.237 OA
ATOM     87  O   UNL A   1      45.627  36.950  34.336  1.00  0.00    -0.237 OA
ATOM     88  O   UNL A   1      44.205  37.993  32.362  1.00  0.00    -0.744 OA
ENDBRANCH  84  85
ENDBRANCH  52  77
BRANCH  64  89
ATOM     89  C   UNL A   1      47.882  27.069  31.044  1.00  0.00     0.058 A 
ATOM     90  C   UNL A   1      48.876  27.404  30.147  1.00  0.00     0.135 A 
ATOM     91  C   UNL A   1      48.219  26.389  32.206  1.00  0.00     0.135 A 
ATOM     92  F   UNL A   1      48.563  28.056  29.031  1.00  0.00    -0.206 F 
ATOM     93  C   UNL A   1      50.138  27.085  30.386  1.00  0.00     0.059 A 
ATOM     94  C   UNL A   1      49.551  26.076  32.427  1.00  0.00     0.059 A 
ATOM     95  F   UNL A   1      47.285  26.045  33.088  1.00  0.00    -0.206 F 
ATOM     96  C   UNL A   1      50.495  26.443  31.487  1.00  0.00     0.060 A 
BRANCH  96  97
ATOM     97  S   UNL A   1      52.237  26.040  31.763  1.00  0.00     0.124 S 
ATOM     98  O   UNL A   1      53.027  26.279  30.475  1.00  0.00    -0.237 OA
ATOM     99  O   UNL A   1      52.796  26.931  32.876  1.00  0.00    -0.237 OA
ATOM    100  O   UNL A   1      52.378  24.399  32.223  1.00  0.00    -0.744 OA
ENDBRANCH  96  97
ENDBRANCH  64  89
ENDBRANCH  38  39
ENDBRANCH  31  33
ENDBRANCH  30  31
ENDBRANCH  29  30
ENDBRANCH   1  29
TORSDOF 19
ENDMDL
MODEL 3
REMARK VINA RESULT:     -11.9      1.829      2.487
REMARK SMILES Cc1cc(S(F)(F)(F)(F)F)cc2c1O[C@H](C(F)(F)F)C(C(=O)OCCOCCOC(=O)c1ccc(-c3c4nc(c(-c5c(F)cc(S(=O)(=O)[O-])cc5F)c5ccc([nH]5)c(-c5c(F)cc(S(=O)(=O)[O-])cc5F)c5nc(c(-c6c(F)cc(S(=O)(=O)[O-])cc6F)c6ccc3[nH]6)C=C5)C=C4)cc1)=C2
REMARK SMILES IDX 27 1 26 2 25 3 24 4 23 5 21 6 22 7 20 8 1 9 2 10 3 11 13 12
REMARK SMILES IDX 4 13 12 14 14 15 11 16 98 17 15 18 5 19 6 20 7 21 8 22 9 23
REMARK SMILES IDX 10 24 16 25 17 26 18 27 19 28 28 29 29 30 30 31 31 32 32 33
REMARK SMILES IDX 33 34 97 35 34 36 96 37 35 38 36 39 37 40 90 41 38 42 95 43
REMARK SMILES IDX 89 44 91 45 39 46 94 47 88 48 87 49 40 51 74 52 53 53 73 54
REMARK SMILES IDX 54 55 57 56 72 57 92 58 55 59 56 60 71 62 93 63 58 64 41 65
REMARK SMILES IDX 42 66 51 67 43 68 44 69 50 70 52 71 45 72 46 73 47 74 48 75
REMARK SMILES IDX 49 76 75 77 76 78 85 79 77 80 78 81 84 82 86 83 79 84 80 85
REMARK SMILES IDX 81 86 82 87 83 88 59 89 60 90 69 91 61 92 62 93 68 94 70 95
REMARK SMILES IDX 63 96 64 97 65 98 66 99 67 100
REMARK H PARENT 91 50 57 61
REMARK Flexibility Score: inf
ROOT
ATOM      1  C   UNL A   1      31.821  29.205  25.800  1.00  0.00     0.202 C 
ENDROOT
BRANCH   1   2
ATOM      2  O   UNL A   1      31.723  29.383  24.395  1.00  0.00    -0.374 OA
BRANCH   2   3
ATOM      3  C   UNL A   1      30.471  28.888  23.941  1.00  0.00     0.202 C 
BRANCH   3   4
ATOM      4  C   UNL A   1      30.640  28.273  22.562  1.00  0.00     0.261 C 
BRANCH   4   5
ATOM      5  O   UNL A   1      31.965  27.783  22.421  1.00  0.00    -0.460 OA
BRANCH   5   6
ATOM      6  C   UNL A   1      32.193  26.391  22.257  1.00  0.00     0.338 C 
ATOM      7  O   UNL A   1      32.014  25.847  21.123  1.00  0.00    -0.246 OA
BRANCH   6   8
ATOM      8  C   UNL A   1      32.653  25.552  23.438  1.00  0.00     0.087 C 
ATOM      9  C   UNL A   1      32.959  22.746  27.809  1.00  0.00     0.048 C 
ATOM     10  C   UNL A   1      33.879  23.245  26.708  1.00  0.00    -0.007 A 
ATOM     11  C   UNL A   1      35.179  22.787  26.741  1.00  0.00     0.031 A 
ATOM     12  C   UNL A   1      33.453  24.014  25.626  1.00  0.00     0.130 A 
ATOM     13  C   UNL A   1      36.064  23.088  25.714  1.00  0.00     0.108 A 
ATOM     14  C   UNL A   1      34.354  24.314  24.581  1.00  0.00     0.019 A 
ATOM     15  O   UNL A   1      32.082  24.532  25.533  1.00  0.00    -0.475 OA
ATOM     16  C   UNL A   1      35.665  23.836  24.641  1.00  0.00     0.036 A 
ATOM     17  C   UNL A   1      33.881  25.125  23.459  1.00  0.00     0.027 C 
ATOM     18  C   UNL A   1      31.741  25.271  24.455  1.00  0.00     0.316 C 
BRANCH  13  19
ATOM     19  S   UNL A   1      37.768  22.483  25.796  1.00  0.00     0.310 S 
ATOM     20  F   UNL A   1      37.869  22.659  24.222  1.00  0.00    -0.094 F 
ATOM     21  F   UNL A   1      37.132  21.066  25.527  1.00  0.00    -0.094 F 
ATOM     22  F   UNL A   1      39.200  21.878  25.759  1.00  0.00    -0.094 F 
ATOM     23  F   UNL A   1      38.390  23.929  25.925  1.00  0.00    -0.094 F 
ATOM     24  F   UNL A   1      36.325  23.127  25.722  1.00  0.00    -0.094 F 
ENDBRANCH  13  19
BRANCH  18  25
ATOM     25  C   UNL A   1      30.738  24.372  23.751  1.00  0.00     0.430 C 
ATOM     26  F   UNL A   1      30.218  23.516  24.627  1.00  0.00    -0.167 F 
ATOM     27  F   UNL A   1      29.767  25.115  23.228  1.00  0.00    -0.167 F 
ATOM     28  F   UNL A   1      31.350  23.697  22.783  1.00  0.00    -0.167 F 
ENDBRANCH  18  25
ENDBRANCH   6   8
ENDBRANCH   5   6
ENDBRANCH   4   5
ENDBRANCH   3   4
ENDBRANCH   2   3
ENDBRANCH   1   2
BRANCH   1  29
ATOM     29  C   UNL A   1      33.220  28.725  26.153  1.00  0.00     0.261 C 
BRANCH  29  30
ATOM     30  O   UNL A   1      33.485  29.004  27.519  1.00  0.00    -0.460 OA
BRANCH  30  31
ATOM     31  C   UNL A   1      34.400  30.032  27.870  1.00  0.00     0.338 C 
ATOM     32  O   UNL A   1      34.012  31.242  27.904  1.00  0.00    -0.246 OA
BRANCH  31  33
ATOM     33  C   UNL A   1      35.842  29.686  28.204  1.00  0.00     0.060 A 
ATOM     34  C   UNL A   1      36.767  29.593  27.170  1.00  0.00     0.016 A 
ATOM     35  C   UNL A   1      36.254  29.463  29.434  1.00  0.00     0.016 A 
ATOM     36  C   UNL A   1      38.125  29.771  27.519  1.00  0.00     0.010 A 
ATOM     37  C   UNL A   1      37.589  29.130  29.692  1.00  0.00     0.010 A 
ATOM     38  C   UNL A   1      38.510  29.279  28.765  1.00  0.00    -0.014 A 
BRANCH  38  39
ATOM     39  C   UNL A   1      39.961  28.922  29.046  1.00  0.00     0.031 A 
ATOM     40  C   UNL A   1      40.725  29.943  29.612  1.00  0.00     0.074 A 
ATOM     41  C   UNL A   1      40.465  27.679  28.699  1.00  0.00     0.049 A 
ATOM     42  N   UNL A   1      42.016  29.906  29.944  1.00  0.00    -0.248 NA
ATOM     43  C   UNL A   1      40.200  31.275  29.949  1.00  0.00     0.031 C 
ATOM     44  C   UNL A   1      39.700  26.640  28.136  1.00  0.00     0.029 A 
ATOM     45  N   UNL A   1      41.760  27.226  28.829  1.00  0.00    -0.354 N 
ATOM     46  C   UNL A   1      42.389  31.071  30.477  1.00  0.00     0.074 A 
ATOM     47  C   UNL A   1      41.227  31.970  30.484  1.00  0.00     0.031 C 
ATOM     48  C   UNL A   1      40.522  25.581  27.918  1.00  0.00     0.029 A 
ATOM     49  C   UNL A   1      41.816  25.939  28.343  1.00  0.00     0.049 A 
ATOM     50  H   UNL A   1      42.514  27.735  29.205  1.00  0.00     0.167 HD
ATOM     51  C   UNL A   1      43.651  31.417  30.962  1.00  0.00     0.037 A 
ATOM     52  C   UNL A   1      42.923  25.110  28.263  1.00  0.00     0.037 A 
ATOM     53  C   UNL A   1      44.749  30.572  30.922  1.00  0.00     0.049 A 
ATOM     54  C   UNL A   1      44.200  25.477  28.694  1.00  0.00     0.074 A 
ATOM     55  C   UNL A   1      46.026  30.903  31.414  1.00  0.00     0.029 A 
ATOM     56  N   UNL A   1      44.811  29.293  30.413  1.00  0.00    -0.354 N 
ATOM     57  N   UNL A   1      44.563  26.627  29.265  1.00  0.00    -0.248 NA
ATOM     58  C   UNL A   1      45.387  24.618  28.585  1.00  0.00     0.031 C 
ATOM     59  C   UNL A   1      46.850  29.842  31.194  1.00  0.00     0.029 A 
ATOM     60  C   UNL A   1      46.100  28.833  30.563  1.00  0.00     0.049 A 
ATOM     61  H   UNL A   1      44.063  28.796  30.011  1.00  0.00     0.167 HD
ATOM     62  C   UNL A   1      45.865  26.604  29.557  1.00  0.00     0.074 A 
ATOM     63  C   UNL A   1      46.415  25.314  29.118  1.00  0.00     0.031 C 
ATOM     64  C   UNL A   1      46.615  27.604  30.177  1.00  0.00     0.037 A 
BRANCH  51  65
ATOM     65  C   UNL A   1      43.833  32.800  31.568  1.00  0.00     0.058 A 
ATOM     66  C   UNL A   1      44.179  33.872  30.772  1.00  0.00     0.135 A 
ATOM     67  C   UNL A   1      43.652  32.996  32.930  1.00  0.00     0.135 A 
ATOM     68  F   UNL A   1      44.356  33.694  29.466  1.00  0.00    -0.206 F 
ATOM     69  C   UNL A   1      44.338  35.079  31.295  1.00  0.00     0.059 A 
ATOM     70  C   UNL A   1      43.820  34.275  33.442  1.00  0.00     0.059 A 
ATOM     71  F   UNL A   1      43.323  31.983  33.725  1.00  0.00    -0.206 F 
ATOM     72  C   UNL A   1      44.167  35.303  32.587  1.00  0.00     0.060 A 
BRANCH  72  73
ATOM     73  S   UNL A   1      44.389  36.975  33.242  1.00  0.00     0.124 S 
ATOM     74  O   UNL A   1      45.691  37.039  34.046  1.00  0.00    -0.237 OA
ATOM     75  O   UNL A   1      44.455  37.973  32.084  1.00  0.00    -0.237 OA
ATOM     76  O   UNL A   1      43.072  37.369  34.259  1.00  0.00    -0.744 OA
ENDBRANCH  72  73
ENDBRANCH  51  65
BRANCH  52  77
ATOM     77  C   UNL A   1      42.737  23.721  27.672  1.00  0.00     0.058 A 
ATOM     78  C   UNL A   1      42.501  22.636  28.493  1.00  0.00     0.135 A 
ATOM     79  C   UNL A   1      42.805  23.529  26.300  1.00  0.00     0.135 A 
ATOM     80  F   UNL A   1      42.435  22.810  29.810  1.00  0.00    -0.206 F 
ATOM     81  C   UNL A   1      42.341  21.424  27.984  1.00  0.00     0.059 A 
ATOM     82  C   UNL A   1      42.626  22.248  25.801  1.00  0.00     0.059 A 
ATOM     83  F   UNL A   1      43.037  24.552  25.482  1.00  0.00    -0.206 F 
ATOM     84  C   UNL A   1      42.394  21.208  26.680  1.00  0.00     0.060 A 
BRANCH  84  85
ATOM     85  S   UNL A   1      42.158  19.532  26.042  1.00  0.00     0.124 S 
ATOM     86  O   UNL A   1      40.671  19.297  25.764  1.00  0.00    -0.237 OA
ATOM     87  O   UNL A   1      42.952  19.363  24.744  1.00  0.00    -0.237 OA
ATOM     88  O   UNL A   1      42.707  18.398  27.197  1.00  0.00    -0.744 OA
ENDBRANCH  84  85
ENDBRANCH  52  77
BRANCH  64  89
ATOM     89  C   UNL A   1      48.086  27.332  30.444  1.00  0.00     0.058 A 
ATOM     90  C   UNL A   1      48.999  27.670  29.465  1.00  0.00     0.135 A 
ATOM     91  C   UNL A   1      48.536  26.727  31.609  1.00  0.00     0.135 A 
ATOM     92  F   UNL A   1      48.577  28.251  28.345  1.00  0.00    -0.206 F 
ATOM     93  C   UNL A   1      50.289  27.425  29.629  1.00  0.00     0.059 A 
ATOM     94  C   UNL A   1      49.895  26.490  31.750  1.00  0.00     0.059 A 
ATOM     95  F   UNL A   1      47.683  26.383  32.570  1.00  0.00    -0.206 F 
ATOM     96  C   UNL A   1      50.752  26.855  30.729  1.00  0.00     0.060 A 
BRANCH  96  97
ATOM     97  S   UNL A   1      52.528  26.551  30.900  1.00  0.00     0.124 S 
ATOM     98  O   UNL A   1      53.189  27.755  31.572  1.00  0.00    -0.237 OA
ATOM     99  O   UNL A   1      52.751  25.302  31.757  1.00  0.00    -0.237 OA
ATOM    100  O   UNL A   1      53.217  26.311  29.353  1.00  0.00    -0.744 OA
ENDBRANCH  96  97
ENDBRANCH  64  89
ENDBRANCH  38  39
ENDBRANCH  31  33
ENDBRANCH  30  31
ENDBRANCH  29  30
ENDBRANCH   1  29
TORSDOF 19
ENDMDL
