MODEL 1
REMARK VINA RESULT:     -12.2      0.000      0.000
REMARK SMILES O=C(OCCOCCOC(=O)c1ccc(-n2cnc3ccccc32)nc1)c1ccc(-c2c3nc(c(-c4c(F)cc(S(=O)(=O)[O-])cc4F)c4ccc([nH]4)c(-c4c(F)cc(S(=O)(=O)[O-])cc4F)c4nc(c(-c5c(F)cc(S(=O)(=O)[O-])cc5F)c5ccc2[nH]5)C=C4)C=C3)cc1
REMARK SMILES IDX 5 1 4 2 3 3 2 4 1 5 27 6 28 7 92 8 29 9 91 10 30 11 31 12
REMARK SMILES IDX 32 13 85 14 33 15 90 16 84 17 86 18 34 19 89 20 83 21 82 22
REMARK SMILES IDX 35 24 69 25 48 26 68 27 49 28 52 29 67 30 87 31 50 32 51 33
REMARK SMILES IDX 66 35 88 36 53 37 36 38 37 39 46 40 38 41 39 42 45 43 47 44
REMARK SMILES IDX 40 45 41 46 42 47 43 48 44 49 70 50 71 51 80 52 72 53 73 54
REMARK SMILES IDX 79 55 81 56 74 57 75 58 76 59 77 60 78 61 54 62 55 63 64 64
REMARK SMILES IDX 56 65 57 66 63 67 65 68 58 69 59 70 60 71 61 72 62 73 6 74
REMARK SMILES IDX 7 75 8 76 9 77 10 78 11 79 12 80 13 81 26 82 14 83 25 84
REMARK SMILES IDX 15 85 16 86 17 87 24 88 18 89 19 90 23 91 20 92 22 93 21 94
REMARK H PARENT 86 23 52 34
REMARK Flexibility Score: inf
ROOT
ATOM      1  C   UNL A   1      36.092  21.222  25.367  1.00  0.00     0.202 C 
ENDROOT
BRANCH   1   2
ATOM      2  C   UNL A   1      37.181  22.234  25.747  1.00  0.00     0.261 C 
BRANCH   2   3
ATOM      3  O   UNL A   1      38.542  21.872  25.409  1.00  0.00    -0.460 OA
BRANCH   3   4
ATOM      4  C   UNL A   1      39.655  22.047  26.178  1.00  0.00     0.338 C 
ATOM      5  O   UNL A   1      40.463  21.134  26.326  1.00  0.00    -0.246 OA
BRANCH   4   6
ATOM      6  C   UNL A   1      39.866  23.331  26.893  1.00  0.00     0.060 A 
ATOM      7  C   UNL A   1      39.040  24.424  26.579  1.00  0.00     0.016 A 
ATOM      8  C   UNL A   1      40.911  23.489  27.798  1.00  0.00     0.016 A 
ATOM      9  C   UNL A   1      39.340  25.696  27.077  1.00  0.00     0.010 A 
ATOM     10  C   UNL A   1      41.259  24.765  28.221  1.00  0.00     0.010 A 
ATOM     11  C   UNL A   1      40.483  25.878  27.861  1.00  0.00    -0.014 A 
BRANCH  11  12
ATOM     12  C   UNL A   1      40.709  27.131  28.594  1.00  0.00     0.031 A 
ATOM     13  C   UNL A   1      41.913  27.843  28.119  1.00  0.00     0.074 A 
ATOM     14  C   UNL A   1      39.933  27.750  29.510  1.00  0.00     0.049 A 
ATOM     15  N   UNL A   1      43.005  27.982  28.796  1.00  0.00    -0.248 NA
ATOM     16  C   UNL A   1      41.983  28.334  26.737  1.00  0.00     0.031 C 
ATOM     17  C   UNL A   1      38.689  27.291  30.101  1.00  0.00     0.029 A 
ATOM     18  N   UNL A   1      40.057  29.008  30.044  1.00  0.00    -0.354 N 
ATOM     19  C   UNL A   1      43.817  28.771  28.006  1.00  0.00     0.074 A 
ATOM     20  C   UNL A   1      43.235  28.786  26.688  1.00  0.00     0.031 C 
ATOM     21  C   UNL A   1      38.017  28.322  30.657  1.00  0.00     0.029 A 
ATOM     22  C   UNL A   1      38.893  29.478  30.648  1.00  0.00     0.049 A 
ATOM     23  H   UNL A   1      40.890  29.529  30.003  1.00  0.00     0.167 HD
ATOM     24  C   UNL A   1      44.747  29.592  28.552  1.00  0.00     0.037 A 
ATOM     25  C   UNL A   1      38.666  30.696  31.194  1.00  0.00     0.037 A 
ATOM     26  C   UNL A   1      44.992  29.313  29.942  1.00  0.00     0.049 A 
ATOM     27  C   UNL A   1      39.973  31.173  31.697  1.00  0.00     0.074 A 
ATOM     28  C   UNL A   1      45.422  28.213  30.656  1.00  0.00     0.029 A 
ATOM     29  N   UNL A   1      44.429  30.172  30.853  1.00  0.00    -0.354 N 
ATOM     30  N   UNL A   1      40.600  30.628  32.704  1.00  0.00    -0.248 NA
ATOM     31  C   UNL A   1      40.767  32.085  30.887  1.00  0.00     0.031 C 
ATOM     32  C   UNL A   1      44.786  28.297  31.927  1.00  0.00     0.029 A 
ATOM     33  C   UNL A   1      44.002  29.452  31.941  1.00  0.00     0.049 A 
ATOM     34  H   UNL A   1      44.346  31.147  30.744  1.00  0.00     0.167 HD
ATOM     35  C   UNL A   1      41.938  30.761  32.383  1.00  0.00     0.074 A 
ATOM     36  C   UNL A   1      41.981  31.808  31.371  1.00  0.00     0.031 C 
ATOM     37  C   UNL A   1      42.842  29.804  32.739  1.00  0.00     0.037 A 
BRANCH  24  38
ATOM     38  C   UNL A   1      45.127  30.882  27.898  1.00  0.00     0.058 A 
ATOM     39  C   UNL A   1      44.191  31.917  27.781  1.00  0.00     0.135 A 
ATOM     40  C   UNL A   1      46.339  31.041  27.188  1.00  0.00     0.135 A 
ATOM     41  F   UNL A   1      42.990  31.817  28.373  1.00  0.00    -0.206 F 
ATOM     42  C   UNL A   1      44.444  33.049  27.009  1.00  0.00     0.059 A 
ATOM     43  C   UNL A   1      46.640  32.185  26.468  1.00  0.00     0.059 A 
ATOM     44  F   UNL A   1      47.240  30.050  27.102  1.00  0.00    -0.206 F 
ATOM     45  C   UNL A   1      45.673  33.170  26.357  1.00  0.00     0.060 A 
BRANCH  45  46
ATOM     46  S   UNL A   1      45.983  34.600  25.309  1.00  0.00     0.124 S 
ATOM     47  O   UNL A   1      45.533  35.687  26.171  1.00  0.00    -0.237 OA
ATOM     48  O   UNL A   1      47.422  34.513  25.086  1.00  0.00    -0.237 OA
ATOM     49  O   UNL A   1      45.157  34.335  24.135  1.00  0.00    -0.744 OA
ENDBRANCH  45  46
ENDBRANCH  24  38
BRANCH  25  50
ATOM     50  C   UNL A   1      37.428  31.514  31.229  1.00  0.00     0.058 A 
ATOM     51  C   UNL A   1      36.553  31.454  32.329  1.00  0.00     0.135 A 
ATOM     52  C   UNL A   1      37.227  32.585  30.335  1.00  0.00     0.135 A 
ATOM     53  F   UNL A   1      36.666  30.472  33.236  1.00  0.00    -0.206 F 
ATOM     54  C   UNL A   1      35.594  32.441  32.576  1.00  0.00     0.059 A 
ATOM     55  C   UNL A   1      36.270  33.579  30.556  1.00  0.00     0.059 A 
ATOM     56  F   UNL A   1      38.018  32.746  29.263  1.00  0.00    -0.206 F 
ATOM     57  C   UNL A   1      35.482  33.518  31.699  1.00  0.00     0.060 A 
BRANCH  57  58
ATOM     58  S   UNL A   1      34.398  34.897  32.142  1.00  0.00     0.124 S 
ATOM     59  O   UNL A   1      34.014  35.410  30.832  1.00  0.00    -0.237 OA
ATOM     60  O   UNL A   1      33.344  34.228  32.899  1.00  0.00    -0.237 OA
ATOM     61  O   UNL A   1      35.265  35.770  32.928  1.00  0.00    -0.744 OA
ENDBRANCH  57  58
ENDBRANCH  25  50
BRANCH  37  62
ATOM     62  C   UNL A   1      42.495  28.897  33.891  1.00  0.00     0.058 A 
ATOM     63  C   UNL A   1      41.604  27.812  33.818  1.00  0.00     0.135 A 
ATOM     64  C   UNL A   1      43.204  29.062  35.091  1.00  0.00     0.135 A 
ATOM     65  F   UNL A   1      40.946  27.530  32.684  1.00  0.00    -0.206 F 
ATOM     66  C   UNL A   1      41.412  26.946  34.897  1.00  0.00     0.059 A 
ATOM     67  C   UNL A   1      43.050  28.194  36.170  1.00  0.00     0.059 A 
ATOM     68  F   UNL A   1      44.103  30.054  35.209  1.00  0.00    -0.206 F 
ATOM     69  C   UNL A   1      42.145  27.141  36.068  1.00  0.00     0.060 A 
BRANCH  69  70
ATOM     70  S   UNL A   1      41.977  25.951  37.418  1.00  0.00     0.124 S 
ATOM     71  O   UNL A   1      42.917  26.472  38.406  1.00  0.00    -0.237 OA
ATOM     72  O   UNL A   1      40.564  26.065  37.769  1.00  0.00    -0.237 OA
ATOM     73  O   UNL A   1      42.356  24.682  36.804  1.00  0.00    -0.744 OA
ENDBRANCH  69  70
ENDBRANCH  37  62
ENDBRANCH  11  12
ENDBRANCH   4   6
ENDBRANCH   3   4
ENDBRANCH   2   3
ENDBRANCH   1   2
BRANCH   1  74
ATOM     74  O   UNL A   1      35.005  21.267  26.272  1.00  0.00    -0.374 OA
BRANCH  74  75
ATOM     75  C   UNL A   1      33.704  21.473  25.736  1.00  0.00     0.202 C 
BRANCH  75  76
ATOM     76  C   UNL A   1      33.663  21.460  24.207  1.00  0.00     0.261 C 
BRANCH  76  77
ATOM     77  O   UNL A   1      33.219  22.732  23.707  1.00  0.00    -0.460 OA
BRANCH  77  78
ATOM     78  C   UNL A   1      34.196  23.632  23.503  1.00  0.00     0.339 C 
ATOM     79  O   UNL A   1      35.168  23.521  22.761  1.00  0.00    -0.246 OA
BRANCH  78  80
ATOM     80  C   UNL A   1      33.911  24.889  24.163  1.00  0.00     0.078 A 
ATOM     81  C   UNL A   1      33.966  25.067  25.540  1.00  0.00     0.021 A 
ATOM     82  C   UNL A   1      33.511  25.942  23.348  1.00  0.00     0.129 A 
ATOM     83  C   UNL A   1      33.635  26.314  26.049  1.00  0.00     0.048 A 
ATOM     84  N   UNL A   1      33.087  27.125  23.823  1.00  0.00    -0.238 NA
ATOM     85  C   UNL A   1      33.215  27.305  25.157  1.00  0.00     0.138 A 
BRANCH  85  86
ATOM     86  N   UNL A   1      32.928  28.589  25.648  1.00  0.00    -0.283 N 
ATOM     87  C   UNL A   1      31.881  29.377  25.243  1.00  0.00     0.206 A 
ATOM     88  C   UNL A   1      33.681  29.322  26.538  1.00  0.00     0.074 A 
ATOM     89  N   UNL A   1      31.811  30.494  25.934  1.00  0.00    -0.236 NA
ATOM     90  C   UNL A   1      32.952  30.497  26.702  1.00  0.00     0.089 A 
ATOM     91  C   UNL A   1      34.943  29.121  27.115  1.00  0.00     0.029 A 
ATOM     92  C   UNL A   1      33.460  31.499  27.540  1.00  0.00     0.030 A 
ATOM     93  C   UNL A   1      35.451  30.147  27.910  1.00  0.00     0.002 A 
ATOM     94  C   UNL A   1      34.717  31.312  28.133  1.00  0.00     0.002 A 
ENDBRANCH  85  86
ENDBRANCH  78  80
ENDBRANCH  77  78
ENDBRANCH  76  77
ENDBRANCH  75  76
ENDBRANCH  74  75
ENDBRANCH   1  74
TORSDOF 18
ENDMDL
MODEL 2
REMARK VINA RESULT:     -11.8      3.002      9.704
REMARK SMILES O=C(OCCOCCOC(=O)c1ccc(-n2cnc3ccccc32)nc1)c1ccc(-c2c3nc(c(-c4c(F)cc(S(=O)(=O)[O-])cc4F)c4ccc([nH]4)c(-c4c(F)cc(S(=O)(=O)[O-])cc4F)c4nc(c(-c5c(F)cc(S(=O)(=O)[O-])cc5F)c5ccc2[nH]5)C=C4)C=C3)cc1
REMARK SMILES IDX 5 1 4 2 3 3 2 4 1 5 27 6 28 7 92 8 29 9 91 10 30 11 31 12
REMARK SMILES IDX 32 13 85 14 33 15 90 16 84 17 86 18 34 19 89 20 83 21 82 22
REMARK SMILES IDX 35 24 69 25 48 26 68 27 49 28 52 29 67 30 87 31 50 32 51 33
REMARK SMILES IDX 66 35 88 36 53 37 36 38 37 39 46 40 38 41 39 42 45 43 47 44
REMARK SMILES IDX 40 45 41 46 42 47 43 48 44 49 70 50 71 51 80 52 72 53 73 54
REMARK SMILES IDX 79 55 81 56 74 57 75 58 76 59 77 60 78 61 54 62 55 63 64 64
REMARK SMILES IDX 56 65 57 66 63 67 65 68 58 69 59 70 60 71 61 72 62 73 6 74
REMARK SMILES IDX 7 75 8 76 9 77 10 78 11 79 12 80 13 81 26 82 14 83 25 84
REMARK SMILES IDX 15 85 16 86 17 87 24 88 18 89 19 90 23 91 20 92 22 93 21 94
REMARK H PARENT 86 23 52 34
REMARK Flexibility Score: inf
ROOT
ATOM      1  C   UNL A   1      31.970  30.032  25.600  1.00  0.00     0.202 C 
ENDROOT
BRANCH   1   2
ATOM      2  C   UNL A   1      32.233  31.143  26.625  1.00  0.00     0.261 C 
BRANCH   2   3
ATOM      3  O   UNL A   1      33.318  30.915  27.558  1.00  0.00    -0.460 OA
BRANCH   3   4
ATOM      4  C   UNL A   1      34.366  31.748  27.819  1.00  0.00     0.338 C 
ATOM      5  O   UNL A   1      34.209  32.965  27.834  1.00  0.00    -0.246 OA
BRANCH   4   6
ATOM      6  C   UNL A   1      35.723  31.184  28.028  1.00  0.00     0.060 A 
ATOM      7  C   UNL A   1      35.929  29.812  27.804  1.00  0.00     0.016 A 
ATOM      8  C   UNL A   1      36.763  31.971  28.517  1.00  0.00     0.016 A 
ATOM      9  C   UNL A   1      37.133  29.211  28.186  1.00  0.00     0.010 A 
ATOM     10  C   UNL A   1      37.921  31.359  28.976  1.00  0.00     0.010 A 
ATOM     11  C   UNL A   1      38.115  29.977  28.821  1.00  0.00    -0.014 A 
BRANCH  11  12
ATOM     12  C   UNL A   1      39.472  29.453  29.025  1.00  0.00     0.031 A 
ATOM     13  C   UNL A   1      39.817  29.346  30.458  1.00  0.00     0.074 A 
ATOM     14  C   UNL A   1      40.354  28.960  28.129  1.00  0.00     0.049 A 
ATOM     15  N   UNL A   1      40.685  30.084  31.066  1.00  0.00    -0.248 NA
ATOM     16  C   UNL A   1      39.055  28.448  31.336  1.00  0.00     0.031 C 
ATOM     17  C   UNL A   1      40.238  28.904  26.682  1.00  0.00     0.029 A 
ATOM     18  N   UNL A   1      41.535  28.298  28.347  1.00  0.00    -0.354 N 
ATOM     19  C   UNL A   1      40.737  29.588  32.353  1.00  0.00     0.074 A 
ATOM     20  C   UNL A   1      39.587  28.736  32.522  1.00  0.00     0.031 C 
ATOM     21  C   UNL A   1      41.110  28.009  26.170  1.00  0.00     0.029 A 
ATOM     22  C   UNL A   1      41.995  27.589  27.240  1.00  0.00     0.049 A 
ATOM     23  H   UNL A   1      42.013  28.321  29.208  1.00  0.00     0.167 HD
ATOM     24  C   UNL A   1      41.867  29.676  33.097  1.00  0.00     0.037 A 
ATOM     25  C   UNL A   1      43.077  26.781  27.153  1.00  0.00     0.037 A 
ATOM     26  C   UNL A   1      42.836  30.581  32.538  1.00  0.00     0.049 A 
ATOM     27  C   UNL A   1      44.063  27.304  28.123  1.00  0.00     0.074 A 
ATOM     28  C   UNL A   1      42.844  31.922  32.214  1.00  0.00     0.029 A 
ATOM     29  N   UNL A   1      43.907  30.017  31.890  1.00  0.00    -0.354 N 
ATOM     30  N   UNL A   1      44.673  28.450  27.985  1.00  0.00    -0.248 NA
ATOM     31  C   UNL A   1      44.167  26.699  29.443  1.00  0.00     0.031 C 
ATOM     32  C   UNL A   1      43.720  32.050  31.098  1.00  0.00     0.029 A 
ATOM     33  C   UNL A   1      44.219  30.782  30.794  1.00  0.00     0.049 A 
ATOM     34  H   UNL A   1      44.375  29.196  32.167  1.00  0.00     0.167 HD
ATOM     35  C   UNL A   1      44.828  28.911  29.279  1.00  0.00     0.074 A 
ATOM     36  C   UNL A   1      44.673  27.733  30.120  1.00  0.00     0.031 C 
ATOM     37  C   UNL A   1      44.760  30.244  29.560  1.00  0.00     0.037 A 
BRANCH  24  38
ATOM     38  C   UNL A   1      42.213  28.636  34.114  1.00  0.00     0.058 A 
ATOM     39  C   UNL A   1      42.247  28.963  35.475  1.00  0.00     0.135 A 
ATOM     40  C   UNL A   1      42.723  27.367  33.755  1.00  0.00     0.135 A 
ATOM     41  F   UNL A   1      41.840  30.172  35.894  1.00  0.00    -0.206 F 
ATOM     42  C   UNL A   1      42.753  28.081  36.427  1.00  0.00     0.059 A 
ATOM     43  C   UNL A   1      43.170  26.448  34.689  1.00  0.00     0.059 A 
ATOM     44  F   UNL A   1      42.883  27.010  32.471  1.00  0.00    -0.206 F 
ATOM     45  C   UNL A   1      43.212  26.827  36.021  1.00  0.00     0.060 A 
BRANCH  45  46
ATOM     46  S   UNL A   1      43.923  25.706  37.236  1.00  0.00     0.124 S 
ATOM     47  O   UNL A   1      43.461  26.307  38.483  1.00  0.00    -0.237 OA
ATOM     48  O   UNL A   1      43.313  24.430  36.875  1.00  0.00    -0.237 OA
ATOM     49  O   UNL A   1      45.357  25.802  36.977  1.00  0.00    -0.744 OA
ENDBRANCH  45  46
ENDBRANCH  24  38
BRANCH  25  50
ATOM     50  C   UNL A   1      43.284  25.539  26.365  1.00  0.00     0.058 A 
ATOM     51  C   UNL A   1      44.357  25.426  25.462  1.00  0.00     0.135 A 
ATOM     52  C   UNL A   1      42.622  24.339  26.695  1.00  0.00     0.135 A 
ATOM     53  F   UNL A   1      45.049  26.513  25.089  1.00  0.00    -0.206 F 
ATOM     54  C   UNL A   1      44.802  24.192  24.981  1.00  0.00     0.059 A 
ATOM     55  C   UNL A   1      43.044  23.095  26.221  1.00  0.00     0.059 A 
ATOM     56  F   UNL A   1      41.598  24.332  27.561  1.00  0.00    -0.206 F 
ATOM     57  C   UNL A   1      44.159  23.027  25.393  1.00  0.00     0.060 A 
BRANCH  57  58
ATOM     58  S   UNL A   1      44.875  21.427  24.946  1.00  0.00     0.124 S 
ATOM     59  O   UNL A   1      44.026  20.500  25.685  1.00  0.00    -0.237 OA
ATOM     60  O   UNL A   1      44.719  21.416  23.494  1.00  0.00    -0.237 OA
ATOM     61  O   UNL A   1      46.252  21.530  25.419  1.00  0.00    -0.744 OA
ENDBRANCH  57  58
ENDBRANCH  25  50
BRANCH  37  62
ATOM     62  C   UNL A   1      45.031  31.218  28.442  1.00  0.00     0.058 A 
ATOM     63  C   UNL A   1      44.132  31.521  27.406  1.00  0.00     0.135 A 
ATOM     64  C   UNL A   1      46.213  31.974  28.505  1.00  0.00     0.135 A 
ATOM     65  F   UNL A   1      42.943  30.906  27.317  1.00  0.00    -0.206 F 
ATOM     66  C   UNL A   1      44.406  32.514  26.463  1.00  0.00     0.059 A 
ATOM     67  C   UNL A   1      46.494  32.989  27.593  1.00  0.00     0.059 A 
ATOM     68  F   UNL A   1      47.093  31.763  29.498  1.00  0.00    -0.206 F 
ATOM     69  C   UNL A   1      45.588  33.249  26.569  1.00  0.00     0.060 A 
BRANCH  69  70
ATOM     70  S   UNL A   1      45.883  34.609  25.416  1.00  0.00     0.124 S 
ATOM     71  O   UNL A   1      45.039  34.242  24.284  1.00  0.00    -0.237 OA
ATOM     72  O   UNL A   1      45.444  35.775  26.179  1.00  0.00    -0.237 OA
ATOM     73  O   UNL A   1      47.321  34.543  25.171  1.00  0.00    -0.744 OA
ENDBRANCH  69  70
ENDBRANCH  37  62
ENDBRANCH  11  12
ENDBRANCH   4   6
ENDBRANCH   3   4
ENDBRANCH   2   3
ENDBRANCH   1   2
BRANCH   1  74
ATOM     74  O   UNL A   1      30.738  30.224  24.933  1.00  0.00    -0.374 OA
BRANCH  74  75
ATOM     75  C   UNL A   1      30.385  29.299  23.912  1.00  0.00     0.202 C 
BRANCH  75  76
ATOM     76  C   UNL A   1      31.395  29.240  22.764  1.00  0.00     0.261 C 
BRANCH  76  77
ATOM     77  O   UNL A   1      31.887  27.899  22.599  1.00  0.00    -0.460 OA
BRANCH  77  78
ATOM     78  C   UNL A   1      33.220  27.770  22.711  1.00  0.00     0.339 C 
ATOM     79  O   UNL A   1      34.072  28.632  22.512  1.00  0.00    -0.246 OA
BRANCH  78  80
ATOM     80  C   UNL A   1      33.587  26.484  23.268  1.00  0.00     0.078 A 
ATOM     81  C   UNL A   1      33.825  26.270  24.621  1.00  0.00     0.021 A 
ATOM     82  C   UNL A   1      33.754  25.440  22.366  1.00  0.00     0.129 A 
ATOM     83  C   UNL A   1      34.204  24.997  25.021  1.00  0.00     0.048 A 
ATOM     84  N   UNL A   1      34.220  24.229  22.714  1.00  0.00    -0.238 NA
ATOM     85  C   UNL A   1      34.377  24.016  24.040  1.00  0.00     0.138 A 
BRANCH  85  86
ATOM     86  N   UNL A   1      34.708  22.709  24.432  1.00  0.00    -0.283 N 
ATOM     87  C   UNL A   1      35.914  22.321  24.959  1.00  0.00     0.206 A 
ATOM     88  C   UNL A   1      33.939  21.578  24.275  1.00  0.00     0.074 A 
ATOM     89  N   UNL A   1      35.911  21.053  25.310  1.00  0.00    -0.236 NA
ATOM     90  C   UNL A   1      34.712  20.568  24.840  1.00  0.00     0.089 A 
ATOM     91  C   UNL A   1      32.726  21.332  23.615  1.00  0.00     0.029 A 
ATOM     92  C   UNL A   1      34.228  19.253  24.823  1.00  0.00     0.030 A 
ATOM     93  C   UNL A   1      32.282  20.011  23.571  1.00  0.00     0.002 A 
ATOM     94  C   UNL A   1      33.013  18.988  24.177  1.00  0.00     0.002 A 
ENDBRANCH  85  86
ENDBRANCH  78  80
ENDBRANCH  77  78
ENDBRANCH  76  77
ENDBRANCH  75  76
ENDBRANCH  74  75
ENDBRANCH   1  74
TORSDOF 18
ENDMDL
MODEL 3
REMARK VINA RESULT:     -11.7      1.614      2.646
REMARK SMILES O=C(OCCOCCOC(=O)c1ccc(-n2cnc3ccccc32)nc1)c1ccc(-c2c3nc(c(-c4c(F)cc(S(=O)(=O)[O-])cc4F)c4ccc([nH]4)c(-c4c(F)cc(S(=O)(=O)[O-])cc4F)c4nc(c(-c5c(F)cc(S(=O)(=O)[O-])cc5F)c5ccc2[nH]5)C=C4)C=C3)cc1
REMARK SMILES IDX 5 1 4 2 3 3 2 4 1 5 27 6 28 7 92 8 29 9 91 10 30 11 31 12
REMARK SMILES IDX 32 13 85 14 33 15 90 16 84 17 86 18 34 19 89 20 83 21 82 22
REMARK SMILES IDX 35 24 69 25 48 26 68 27 49 28 52 29 67 30 87 31 50 32 51 33
REMARK SMILES IDX 66 35 88 36 53 37 36 38 37 39 46 40 38 41 39 42 45 43 47 44
REMARK SMILES IDX 40 45 41 46 42 47 43 48 44 49 70 50 71 51 80 52 72 53 73 54
REMARK SMILES IDX 79 55 81 56 74 57 75 58 76 59 77 60 78 61 54 62 55 63 64 64
REMARK SMILES IDX 56 65 57 66 63 67 65 68 58 69 59 70 60 71 61 72 62 73 6 74
REMARK SMILES IDX 7 75 8 76 9 77 10 78 11 79 12 80 13 81 26 82 14 83 25 84
REMARK SMILES IDX 15 85 16 86 17 87 24 88 18 89 19 90 23 91 20 92 22 93 21 94
REMARK H PARENT 86 23 52 34
REMARK Flexibility Score: inf
ROOT
ATOM      1  C   UNL A   1      36.024  21.672  25.644  1.00  0.00     0.202 C 
ENDROOT
BRANCH   1   2
ATOM      2  C   UNL A   1      37.495  21.729  25.212  1.00  0.00     0.261 C 
BRANCH   2   3
ATOM      3  O   UNL A   1      38.477  21.404  26.226  1.00  0.00    -0.460 OA
BRANCH   3   4
ATOM      4  C   UNL A   1      39.740  21.908  26.339  1.00  0.00     0.338 C 
ATOM      5  O   UNL A   1      40.705  21.274  25.922  1.00  0.00    -0.246 OA
BRANCH   4   6
ATOM      6  C   UNL A   1      39.960  23.206  27.024  1.00  0.00     0.060 A 
ATOM      7  C   UNL A   1      39.007  24.227  26.864  1.00  0.00     0.016 A 
ATOM      8  C   UNL A   1      41.124  23.450  27.747  1.00  0.00     0.016 A 
ATOM      9  C   UNL A   1      39.281  25.519  27.321  1.00  0.00     0.010 A 
ATOM     10  C   UNL A   1      41.432  24.751  28.122  1.00  0.00     0.010 A 
ATOM     11  C   UNL A   1      40.519  25.796  27.908  1.00  0.00    -0.014 A 
BRANCH  11  12
ATOM     12  C   UNL A   1      40.760  27.065  28.610  1.00  0.00     0.031 A 
ATOM     13  C   UNL A   1      41.941  27.777  28.079  1.00  0.00     0.074 A 
ATOM     14  C   UNL A   1      40.012  27.695  29.540  1.00  0.00     0.049 A 
ATOM     15  N   UNL A   1      43.055  27.937  28.713  1.00  0.00    -0.248 NA
ATOM     16  C   UNL A   1      41.958  28.242  26.686  1.00  0.00     0.031 C 
ATOM     17  C   UNL A   1      38.794  27.238  30.184  1.00  0.00     0.029 A 
ATOM     18  N   UNL A   1      40.144  28.964  30.046  1.00  0.00    -0.354 N 
ATOM     19  C   UNL A   1      43.831  28.718  27.880  1.00  0.00     0.074 A 
ATOM     20  C   UNL A   1      43.203  28.703  26.584  1.00  0.00     0.031 C 
ATOM     21  C   UNL A   1      38.133  28.274  30.744  1.00  0.00     0.029 A 
ATOM     22  C   UNL A   1      38.999  29.437  30.682  1.00  0.00     0.049 A 
ATOM     23  H   UNL A   1      40.971  29.491  29.966  1.00  0.00     0.167 HD
ATOM     24  C   UNL A   1      44.773  29.556  28.378  1.00  0.00     0.037 A 
ATOM     25  C   UNL A   1      38.781  30.663  31.213  1.00  0.00     0.037 A 
ATOM     26  C   UNL A   1      45.070  29.306  29.763  1.00  0.00     0.049 A 
ATOM     27  C   UNL A   1      40.100  31.159  31.661  1.00  0.00     0.074 A 
ATOM     28  C   UNL A   1      45.535  28.223  30.481  1.00  0.00     0.029 A 
ATOM     29  N   UNL A   1      44.532  30.178  30.677  1.00  0.00    -0.354 N 
ATOM     30  N   UNL A   1      40.768  30.638  32.654  1.00  0.00    -0.248 NA
ATOM     31  C   UNL A   1      40.858  32.062  30.806  1.00  0.00     0.031 C 
ATOM     32  C   UNL A   1      44.943  28.326  31.772  1.00  0.00     0.029 A 
ATOM     33  C   UNL A   1      44.150  29.475  31.793  1.00  0.00     0.049 A 
ATOM     34  H   UNL A   1      44.437  31.150  30.553  1.00  0.00     0.167 HD
ATOM     35  C   UNL A   1      42.092  30.776  32.283  1.00  0.00     0.074 A 
ATOM     36  C   UNL A   1      42.090  31.803  31.251  1.00  0.00     0.031 C 
ATOM     37  C   UNL A   1      43.017  29.833  32.625  1.00  0.00     0.037 A 
BRANCH  24  38
ATOM     38  C   UNL A   1      45.119  30.836  27.686  1.00  0.00     0.058 A 
ATOM     39  C   UNL A   1      46.398  31.025  27.147  1.00  0.00     0.135 A 
ATOM     40  C   UNL A   1      44.278  31.972  27.733  1.00  0.00     0.135 A 
ATOM     41  F   UNL A   1      47.281  30.013  27.122  1.00  0.00    -0.206 F 
ATOM     42  C   UNL A   1      46.817  32.266  26.674  1.00  0.00     0.059 A 
ATOM     43  C   UNL A   1      44.648  33.200  27.210  1.00  0.00     0.059 A 
ATOM     44  F   UNL A   1      43.095  31.946  28.366  1.00  0.00    -0.206 F 
ATOM     45  C   UNL A   1      45.933  33.345  26.713  1.00  0.00     0.060 A 
BRANCH  45  46
ATOM     46  S   UNL A   1      46.488  34.967  26.161  1.00  0.00     0.124 S 
ATOM     47  O   UNL A   1      45.557  35.841  26.867  1.00  0.00    -0.237 OA
ATOM     48  O   UNL A   1      47.871  34.994  26.625  1.00  0.00    -0.237 OA
ATOM     49  O   UNL A   1      46.321  34.898  24.712  1.00  0.00    -0.744 OA
ENDBRANCH  45  46
ENDBRANCH  24  38
BRANCH  25  50
ATOM     50  C   UNL A   1      37.537  31.471  31.277  1.00  0.00     0.058 A 
ATOM     51  C   UNL A   1      36.722  31.455  32.424  1.00  0.00     0.135 A 
ATOM     52  C   UNL A   1      37.279  32.499  30.347  1.00  0.00     0.135 A 
ATOM     53  F   UNL A   1      36.894  30.517  33.366  1.00  0.00    -0.206 F 
ATOM     54  C   UNL A   1      35.768  32.444  32.676  1.00  0.00     0.059 A 
ATOM     55  C   UNL A   1      36.325  33.494  30.574  1.00  0.00     0.059 A 
ATOM     56  F   UNL A   1      38.010  32.617  29.228  1.00  0.00    -0.206 F 
ATOM     57  C   UNL A   1      35.598  33.479  31.759  1.00  0.00     0.060 A 
BRANCH  57  58
ATOM     58  S   UNL A   1      34.525  34.868  32.196  1.00  0.00     0.124 S 
ATOM     59  O   UNL A   1      33.460  34.203  32.938  1.00  0.00    -0.237 OA
ATOM     60  O   UNL A   1      35.420  35.712  32.982  1.00  0.00    -0.237 OA
ATOM     61  O   UNL A   1      34.138  35.417  30.899  1.00  0.00    -0.744 OA
ENDBRANCH  57  58
ENDBRANCH  25  50
BRANCH  37  62
ATOM     62  C   UNL A   1      42.718  28.945  33.805  1.00  0.00     0.058 A 
ATOM     63  C   UNL A   1      41.865  27.828  33.774  1.00  0.00     0.135 A 
ATOM     64  C   UNL A   1      43.438  29.167  34.990  1.00  0.00     0.135 A 
ATOM     65  F   UNL A   1      41.202  27.494  32.658  1.00  0.00    -0.206 F 
ATOM     66  C   UNL A   1      41.719  26.985  34.878  1.00  0.00     0.059 A 
ATOM     67  C   UNL A   1      43.330  28.323  36.093  1.00  0.00     0.059 A 
ATOM     68  F   UNL A   1      44.303  30.192  35.068  1.00  0.00    -0.206 F 
ATOM     69  C   UNL A   1      42.462  27.237  36.032  1.00  0.00     0.060 A 
BRANCH  69  70
ATOM     70  S   UNL A   1      42.356  26.078  37.416  1.00  0.00     0.124 S 
ATOM     71  O   UNL A   1      40.959  26.207  37.819  1.00  0.00    -0.237 OA
ATOM     72  O   UNL A   1      42.719  24.807  36.795  1.00  0.00    -0.237 OA
ATOM     73  O   UNL A   1      43.332  26.596  38.370  1.00  0.00    -0.744 OA
ENDBRANCH  69  70
ENDBRANCH  37  62
ENDBRANCH  11  12
ENDBRANCH   4   6
ENDBRANCH   3   4
ENDBRANCH   2   3
ENDBRANCH   1   2
BRANCH   1  74
ATOM     74  O   UNL A   1      35.374  20.530  25.119  1.00  0.00    -0.374 OA
BRANCH  74  75
ATOM     75  C   UNL A   1      33.954  20.537  25.072  1.00  0.00     0.202 C 
BRANCH  75  76
ATOM     76  C   UNL A   1      33.328  21.789  25.692  1.00  0.00     0.261 C 
BRANCH  76  77
ATOM     77  O   UNL A   1      31.896  21.744  25.573  1.00  0.00    -0.460 OA
BRANCH  77  78
ATOM     78  C   UNL A   1      31.245  22.725  26.220  1.00  0.00     0.339 C 
ATOM     79  O   UNL A   1      30.928  22.753  27.407  1.00  0.00    -0.246 OA
BRANCH  78  80
ATOM     80  C   UNL A   1      31.066  23.892  25.381  1.00  0.00     0.078 A 
ATOM     81  C   UNL A   1      30.920  23.832  24.000  1.00  0.00     0.021 A 
ATOM     82  C   UNL A   1      31.101  25.127  26.017  1.00  0.00     0.129 A 
ATOM     83  C   UNL A   1      30.792  25.027  23.307  1.00  0.00     0.048 A 
ATOM     84  N   UNL A   1      31.084  26.298  25.360  1.00  0.00    -0.238 NA
ATOM     85  C   UNL A   1      30.869  26.223  24.026  1.00  0.00     0.138 A 
BRANCH  85  86
ATOM     86  N   UNL A   1      30.688  27.440  23.350  1.00  0.00    -0.283 N 
ATOM     87  C   UNL A   1      31.695  28.263  22.913  1.00  0.00     0.206 A 
ATOM     88  C   UNL A   1      29.492  28.072  23.088  1.00  0.00     0.074 A 
ATOM     89  N   UNL A   1      31.232  29.292  22.239  1.00  0.00    -0.236 NA
ATOM     90  C   UNL A   1      29.866  29.215  22.388  1.00  0.00     0.089 A 
ATOM     91  C   UNL A   1      28.170  27.815  23.480  1.00  0.00     0.029 A 
ATOM     92  C   UNL A   1      28.873  30.118  21.984  1.00  0.00     0.030 A 
ATOM     93  C   UNL A   1      27.203  28.746  23.105  1.00  0.00     0.002 A 
ATOM     94  C   UNL A   1      27.544  29.874  22.357  1.00  0.00     0.002 A 
ENDBRANCH  85  86
ENDBRANCH  78  80
ENDBRANCH  77  78
ENDBRANCH  76  77
ENDBRANCH  75  76
ENDBRANCH  74  75
ENDBRANCH   1  74
TORSDOF 18
ENDMDL
