MODEL 1
REMARK VINA RESULT:      -9.8      0.000      0.000
REMARK SMILES C=CC[N@@H+](CC(=O)OCCOCCOC(=O)c1ccc(-c2c3nc(c(-c4c(F)cc(S(=O)(=O)[O-])cc4F)c4ccc([nH]4)c(-c4c(F)cc(S(=O)(=O)[O-])cc4F)c4nc(c(-c5c(F)cc(S(=O)(=O)[O-])cc5F)c5ccc2[nH]5)C=C4)C=C3)cc1)C[C@H]1CCC[C@H](C)C1
REMARK SMILES IDX 11 1 10 2 9 3 8 4 6 5 7 6 5 7 4 8 3 10 2 11 1 12 83 13 84 14
REMARK SMILES IDX 85 15 90 16 86 17 88 18 87 19 89 20 12 21 13 22 14 23 15 24
REMARK SMILES IDX 16 25 17 26 18 27 82 28 19 29 81 30 20 31 21 32 22 33 75 34
REMARK SMILES IDX 23 35 80 36 74 37 76 38 24 39 79 40 73 41 72 42 25 44 59 45
REMARK SMILES IDX 38 46 58 47 39 48 42 49 57 50 77 51 40 52 41 53 56 55 78 56
REMARK SMILES IDX 43 57 26 58 27 59 36 60 28 61 29 62 35 63 37 64 30 65 31 66
REMARK SMILES IDX 32 67 33 68 34 69 60 70 61 71 70 72 62 73 63 74 69 75 71 76
REMARK SMILES IDX 64 77 65 78 66 79 67 80 68 81 44 82 45 83 54 84 46 85 47 86
REMARK SMILES IDX 53 87 55 88 48 89 49 90 50 91 51 92 52 93
REMARK H PARENT 4 9 76 43 42 54
REMARK Flexibility Score: inf
ROOT
ATOM      1  O   UNL A   1      37.592  22.500  26.089  1.00  0.00    -0.374 OA
ENDROOT
BRANCH   1   2
ATOM      2  C   UNL A   1      37.377  23.155  24.837  1.00  0.00     0.202 C 
BRANCH   2   3
ATOM      3  C   UNL A   1      36.423  22.427  23.887  1.00  0.00     0.261 C 
BRANCH   3   4
ATOM      4  O   UNL A   1      35.709  23.338  23.022  1.00  0.00    -0.459 OA
BRANCH   4   5
ATOM      5  C   UNL A   1      34.353  23.230  22.993  1.00  0.00     0.361 C 
ATOM      6  O   UNL A   1      33.676  23.341  21.975  1.00  0.00    -0.245 OA
BRANCH   5   7
ATOM      7  C   UNL A   1      33.710  23.065  24.372  1.00  0.00     0.386 C 
BRANCH   7   8
ATOM      8  N   UNL A   1      32.735  21.963  24.584  1.00  0.00    -0.322 N 
ATOM      9  H   UNL A   1      32.522  21.558  23.673  1.00  0.00     0.348 HD
BRANCH   8  10
ATOM     10  C   UNL A   1      31.447  22.459  25.092  1.00  0.00     0.290 C 
BRANCH  10  11
ATOM     11  C   UNL A   1      31.164  23.860  24.633  1.00  0.00     0.025 C 
ATOM     12  C   UNL A   1      30.522  24.166  23.496  1.00  0.00     0.010 C 
ENDBRANCH  10  11
ENDBRANCH   8  10
BRANCH   8  13
ATOM     13  C   UNL A   1      33.311  20.849  25.357  1.00  0.00     0.266 C 
BRANCH  13  14
ATOM     14  C   UNL A   1      33.174  19.447  24.724  1.00  0.00     0.044 C 
ATOM     15  C   UNL A   1      32.522  19.479  23.334  1.00  0.00     0.009 C 
ATOM     16  C   UNL A   1      34.540  18.744  24.625  1.00  0.00     0.012 C 
ATOM     17  C   UNL A   1      32.347  18.065  22.779  1.00  0.00     0.001 C 
ATOM     18  C   UNL A   1      34.416  17.308  24.087  1.00  0.00    -0.014 C 
ATOM     19  C   UNL A   1      33.664  17.289  22.749  1.00  0.00     0.003 C 
ATOM     20  C   UNL A   1      33.769  16.372  25.116  1.00  0.00     0.007 C 
ENDBRANCH  13  14
ENDBRANCH   8  13
ENDBRANCH   7   8
ENDBRANCH   5   7
ENDBRANCH   4   5
ENDBRANCH   3   4
ENDBRANCH   2   3
ENDBRANCH   1   2
BRANCH   1  21
ATOM     21  C   UNL A   1      38.946  22.195  26.421  1.00  0.00     0.202 C 
BRANCH  21  22
ATOM     22  C   UNL A   1      39.489  20.940  25.732  1.00  0.00     0.261 C 
BRANCH  22  23
ATOM     23  O   UNL A   1      40.143  20.074  26.678  1.00  0.00    -0.460 OA
BRANCH  23  24
ATOM     24  C   UNL A   1      41.399  19.718  26.323  1.00  0.00     0.338 C 
ATOM     25  O   UNL A   1      41.746  18.665  25.806  1.00  0.00    -0.246 OA
BRANCH  24  26
ATOM     26  C   UNL A   1      42.316  20.859  26.480  1.00  0.00     0.060 A 
ATOM     27  C   UNL A   1      42.422  21.434  27.752  1.00  0.00     0.016 A 
ATOM     28  C   UNL A   1      42.952  21.442  25.383  1.00  0.00     0.016 A 
ATOM     29  C   UNL A   1      43.117  22.632  27.918  1.00  0.00     0.010 A 
ATOM     30  C   UNL A   1      43.657  22.642  25.556  1.00  0.00     0.010 A 
ATOM     31  C   UNL A   1      43.704  23.270  26.815  1.00  0.00    -0.014 A 
BRANCH  31  32
ATOM     32  C   UNL A   1      44.216  24.661  26.967  1.00  0.00     0.031 A 
ATOM     33  C   UNL A   1      43.271  25.752  27.407  1.00  0.00     0.074 A 
ATOM     34  C   UNL A   1      45.519  24.949  26.783  1.00  0.00     0.049 A 
ATOM     35  N   UNL A   1      43.514  27.018  27.635  1.00  0.00    -0.248 NA
ATOM     36  C   UNL A   1      41.867  25.365  27.615  1.00  0.00     0.031 C 
ATOM     37  C   UNL A   1      46.546  23.991  26.375  1.00  0.00     0.029 A 
ATOM     38  N   UNL A   1      46.201  26.133  26.919  1.00  0.00    -0.354 N 
ATOM     39  C   UNL A   1      42.295  27.578  28.004  1.00  0.00     0.074 A 
ATOM     40  C   UNL A   1      41.309  26.522  27.938  1.00  0.00     0.031 C 
ATOM     41  C   UNL A   1      47.730  24.627  26.298  1.00  0.00     0.029 A 
ATOM     42  C   UNL A   1      47.542  26.038  26.629  1.00  0.00     0.049 A 
ATOM     43  H   UNL A   1      45.770  26.973  27.198  1.00  0.00     0.167 HD
ATOM     44  C   UNL A   1      42.021  28.852  28.378  1.00  0.00     0.037 A 
ATOM     45  C   UNL A   1      48.507  26.980  26.623  1.00  0.00     0.037 A 
ATOM     46  C   UNL A   1      43.001  29.903  28.473  1.00  0.00     0.049 A 
ATOM     47  C   UNL A   1      48.175  28.395  27.021  1.00  0.00     0.074 A 
ATOM     48  C   UNL A   1      42.818  31.214  28.880  1.00  0.00     0.029 A 
ATOM     49  N   UNL A   1      44.342  29.768  28.154  1.00  0.00    -0.354 N 
ATOM     50  N   UNL A   1      47.024  28.897  27.400  1.00  0.00    -0.248 NA
ATOM     51  C   UNL A   1      49.275  29.371  26.995  1.00  0.00     0.031 C 
ATOM     52  C   UNL A   1      44.043  31.880  28.773  1.00  0.00     0.029 A 
ATOM     53  C   UNL A   1      44.997  30.974  28.337  1.00  0.00     0.049 A 
ATOM     54  H   UNL A   1      44.769  28.936  27.844  1.00  0.00     0.167 HD
ATOM     55  C   UNL A   1      47.268  30.240  27.679  1.00  0.00     0.074 A 
ATOM     56  C   UNL A   1      48.675  30.470  27.435  1.00  0.00     0.031 C 
ATOM     57  C   UNL A   1      46.401  31.194  28.099  1.00  0.00     0.037 A 
BRANCH  44  58
ATOM     58  C   UNL A   1      40.593  29.186  28.705  1.00  0.00     0.058 A 
ATOM     59  C   UNL A   1      40.151  29.309  30.032  1.00  0.00     0.135 A 
ATOM     60  C   UNL A   1      39.665  29.423  27.679  1.00  0.00     0.135 A 
ATOM     61  F   UNL A   1      40.993  29.078  31.050  1.00  0.00    -0.206 F 
ATOM     62  C   UNL A   1      38.830  29.629  30.329  1.00  0.00     0.059 A 
ATOM     63  C   UNL A   1      38.346  29.767  27.953  1.00  0.00     0.059 A 
ATOM     64  F   UNL A   1      40.039  29.319  26.394  1.00  0.00    -0.206 F 
ATOM     65  C   UNL A   1      37.934  29.854  29.282  1.00  0.00     0.060 A 
BRANCH  65  66
ATOM     66  S   UNL A   1      36.223  30.272  29.681  1.00  0.00     0.124 S 
ATOM     67  O   UNL A   1      36.110  29.761  31.043  1.00  0.00    -0.237 OA
ATOM     68  O   UNL A   1      36.214  31.725  29.547  1.00  0.00    -0.237 OA
ATOM     69  O   UNL A   1      35.453  29.548  28.673  1.00  0.00    -0.744 OA
ENDBRANCH  65  66
ENDBRANCH  44  58
BRANCH  45  70
ATOM     70  C   UNL A   1      49.892  26.618  26.220  1.00  0.00     0.058 A 
ATOM     71  C   UNL A   1      50.321  26.742  24.891  1.00  0.00     0.135 A 
ATOM     72  C   UNL A   1      50.813  26.133  27.162  1.00  0.00     0.135 A 
ATOM     73  F   UNL A   1      49.473  27.189  23.952  1.00  0.00    -0.206 F 
ATOM     74  C   UNL A   1      51.609  26.388  24.505  1.00  0.00     0.059 A 
ATOM     75  C   UNL A   1      52.113  25.793  26.806  1.00  0.00     0.059 A 
ATOM     76  F   UNL A   1      50.453  26.004  28.449  1.00  0.00    -0.206 F 
ATOM     77  C   UNL A   1      52.500  25.915  25.471  1.00  0.00     0.060 A 
BRANCH  77  78
ATOM     78  S   UNL A   1      54.188  25.507  24.976  1.00  0.00     0.124 S 
ATOM     79  O   UNL A   1      54.225  26.019  23.611  1.00  0.00    -0.237 OA
ATOM     80  O   UNL A   1      54.983  26.243  25.956  1.00  0.00    -0.237 OA
ATOM     81  O   UNL A   1      54.233  24.055  25.110  1.00  0.00    -0.744 OA
ENDBRANCH  77  78
ENDBRANCH  45  70
BRANCH  57  82
ATOM     82  C   UNL A   1      46.948  32.572  28.350  1.00  0.00     0.058 A 
ATOM     83  C   UNL A   1      46.920  33.566  27.360  1.00  0.00     0.135 A 
ATOM     84  C   UNL A   1      47.454  32.918  29.613  1.00  0.00     0.135 A 
ATOM     85  F   UNL A   1      46.451  33.287  26.134  1.00  0.00    -0.206 F 
ATOM     86  C   UNL A   1      47.395  34.851  27.607  1.00  0.00     0.059 A 
ATOM     87  C   UNL A   1      47.913  34.203  29.889  1.00  0.00     0.059 A 
ATOM     88  F   UNL A   1      47.492  32.007  30.599  1.00  0.00    -0.206 F 
ATOM     89  C   UNL A   1      47.890  35.160  28.876  1.00  0.00     0.060 A 
BRANCH  89  90
ATOM     90  S   UNL A   1      48.473  36.839  29.197  1.00  0.00     0.124 S 
ATOM     91  O   UNL A   1      49.477  36.608  30.230  1.00  0.00    -0.237 OA
ATOM     92  O   UNL A   1      48.987  37.248  27.894  1.00  0.00    -0.237 OA
ATOM     93  O   UNL A   1      47.269  37.538  29.635  1.00  0.00    -0.744 OA
ENDBRANCH  89  90
ENDBRANCH  57  82
ENDBRANCH  31  32
ENDBRANCH  24  26
ENDBRANCH  23  24
ENDBRANCH  22  23
ENDBRANCH  21  22
ENDBRANCH   1  21
TORSDOF 22
ENDMDL
MODEL 2
REMARK VINA RESULT:      -9.6      6.448     11.316
REMARK SMILES C=CC[N@@H+](CC(=O)OCCOCCOC(=O)c1ccc(-c2c3nc(c(-c4c(F)cc(S(=O)(=O)[O-])cc4F)c4ccc([nH]4)c(-c4c(F)cc(S(=O)(=O)[O-])cc4F)c4nc(c(-c5c(F)cc(S(=O)(=O)[O-])cc5F)c5ccc2[nH]5)C=C4)C=C3)cc1)C[C@H]1CCC[C@H](C)C1
REMARK SMILES IDX 11 1 10 2 9 3 8 4 6 5 7 6 5 7 4 8 3 10 2 11 1 12 83 13 84 14
REMARK SMILES IDX 85 15 90 16 86 17 88 18 87 19 89 20 12 21 13 22 14 23 15 24
REMARK SMILES IDX 16 25 17 26 18 27 82 28 19 29 81 30 20 31 21 32 22 33 75 34
REMARK SMILES IDX 23 35 80 36 74 37 76 38 24 39 79 40 73 41 72 42 25 44 59 45
REMARK SMILES IDX 38 46 58 47 39 48 42 49 57 50 77 51 40 52 41 53 56 55 78 56
REMARK SMILES IDX 43 57 26 58 27 59 36 60 28 61 29 62 35 63 37 64 30 65 31 66
REMARK SMILES IDX 32 67 33 68 34 69 60 70 61 71 70 72 62 73 63 74 69 75 71 76
REMARK SMILES IDX 64 77 65 78 66 79 67 80 68 81 44 82 45 83 54 84 46 85 47 86
REMARK SMILES IDX 53 87 55 88 48 89 49 90 50 91 51 92 52 93
REMARK H PARENT 4 9 76 43 42 54
REMARK Flexibility Score: inf
ROOT
ATOM      1  O   UNL A   1      39.470  22.427  26.215  1.00  0.00    -0.374 OA
ENDROOT
BRANCH   1   2
ATOM      2  C   UNL A   1      38.283  21.749  25.799  1.00  0.00     0.202 C 
BRANCH   2   3
ATOM      3  C   UNL A   1      37.200  22.656  25.207  1.00  0.00     0.261 C 
BRANCH   3   4
ATOM      4  O   UNL A   1      36.104  22.870  26.123  1.00  0.00    -0.459 OA
BRANCH   4   5
ATOM      5  C   UNL A   1      34.894  23.174  25.581  1.00  0.00     0.361 C 
ATOM      6  O   UNL A   1      34.735  23.568  24.430  1.00  0.00    -0.245 OA
BRANCH   5   7
ATOM      7  C   UNL A   1      33.728  23.090  26.570  1.00  0.00     0.386 C 
BRANCH   7   8
ATOM      8  N   UNL A   1      32.806  21.926  26.499  1.00  0.00    -0.322 N 
ATOM      9  H   UNL A   1      32.702  21.555  27.442  1.00  0.00     0.348 HD
BRANCH   8  10
ATOM     10  C   UNL A   1      33.379  20.820  25.716  1.00  0.00     0.290 C 
BRANCH  10  11
ATOM     11  C   UNL A   1      32.343  20.132  24.874  1.00  0.00     0.025 C 
ATOM     12  C   UNL A   1      32.495  19.852  23.572  1.00  0.00     0.010 C 
ENDBRANCH  10  11
ENDBRANCH   8  10
BRANCH   8  13
ATOM     13  C   UNL A   1      31.443  22.316  26.102  1.00  0.00     0.266 C 
BRANCH  13  14
ATOM     14  C   UNL A   1      31.302  23.715  25.462  1.00  0.00     0.044 C 
ATOM     15  C   UNL A   1      30.976  23.657  23.962  1.00  0.00     0.009 C 
ATOM     16  C   UNL A   1      30.228  24.551  26.180  1.00  0.00     0.012 C 
ATOM     17  C   UNL A   1      30.914  25.062  23.361  1.00  0.00     0.001 C 
ATOM     18  C   UNL A   1      30.136  25.982  25.622  1.00  0.00    -0.014 C 
ATOM     19  C   UNL A   1      29.927  25.963  24.102  1.00  0.00     0.003 C 
ATOM     20  C   UNL A   1      31.358  26.822  26.016  1.00  0.00     0.007 C 
ENDBRANCH  13  14
ENDBRANCH   8  13
ENDBRANCH   7   8
ENDBRANCH   5   7
ENDBRANCH   4   5
ENDBRANCH   3   4
ENDBRANCH   2   3
ENDBRANCH   1   2
BRANCH   1  21
ATOM     21  C   UNL A   1      40.699  21.727  26.027  1.00  0.00     0.202 C 
BRANCH  21  22
ATOM     22  C   UNL A   1      41.784  22.085  27.046  1.00  0.00     0.261 C 
BRANCH  22  23
ATOM     23  O   UNL A   1      41.441  23.284  27.766  1.00  0.00    -0.460 OA
BRANCH  23  24
ATOM     24  C   UNL A   1      41.900  24.421  27.193  1.00  0.00     0.338 C 
ATOM     25  O   UNL A   1      42.495  24.520  26.129  1.00  0.00    -0.246 OA
BRANCH  24  26
ATOM     26  C   UNL A   1      41.432  25.596  27.946  1.00  0.00     0.060 A 
ATOM     27  C   UNL A   1      42.358  26.615  28.197  1.00  0.00     0.016 A 
ATOM     28  C   UNL A   1      40.158  25.641  28.513  1.00  0.00     0.016 A 
ATOM     29  C   UNL A   1      42.031  27.654  29.070  1.00  0.00     0.010 A 
ATOM     30  C   UNL A   1      39.829  26.692  29.382  1.00  0.00     0.010 A 
ATOM     31  C   UNL A   1      40.780  27.679  29.704  1.00  0.00    -0.014 A 
BRANCH  31  32
ATOM     32  C   UNL A   1      40.547  28.645  30.814  1.00  0.00     0.031 A 
ATOM     33  C   UNL A   1      41.396  28.559  32.058  1.00  0.00     0.074 A 
ATOM     34  C   UNL A   1      39.638  29.633  30.700  1.00  0.00     0.049 A 
ATOM     35  N   UNL A   1      41.386  29.319  33.124  1.00  0.00    -0.248 NA
ATOM     36  C   UNL A   1      42.387  27.472  32.107  1.00  0.00     0.031 C 
ATOM     37  C   UNL A   1      38.762  29.846  29.549  1.00  0.00     0.029 A 
ATOM     38  N   UNL A   1      39.304  30.645  31.566  1.00  0.00    -0.354 N 
ATOM     39  C   UNL A   1      42.357  28.798  33.972  1.00  0.00     0.074 A 
ATOM     40  C   UNL A   1      42.917  27.640  33.310  1.00  0.00     0.031 C 
ATOM     41  C   UNL A   1      37.993  30.925  29.779  1.00  0.00     0.029 A 
ATOM     42  C   UNL A   1      38.305  31.467  31.101  1.00  0.00     0.049 A 
ATOM     43  H   UNL A   1      39.741  30.771  32.440  1.00  0.00     0.167 HD
ATOM     44  C   UNL A   1      42.761  29.249  35.184  1.00  0.00     0.037 A 
ATOM     45  C   UNL A   1      37.705  32.530  31.674  1.00  0.00     0.037 A 
ATOM     46  C   UNL A   1      42.230  30.417  35.839  1.00  0.00     0.049 A 
ATOM     47  C   UNL A   1      38.154  33.000  33.033  1.00  0.00     0.074 A 
ATOM     48  C   UNL A   1      42.606  30.969  37.052  1.00  0.00     0.029 A 
ATOM     49  N   UNL A   1      41.209  31.210  35.340  1.00  0.00    -0.354 N 
ATOM     50  N   UNL A   1      39.099  32.516  33.803  1.00  0.00    -0.248 NA
ATOM     51  C   UNL A   1      37.459  34.166  33.600  1.00  0.00     0.031 C 
ATOM     52  C   UNL A   1      41.788  32.074  37.303  1.00  0.00     0.029 A 
ATOM     53  C   UNL A   1      40.928  32.234  36.228  1.00  0.00     0.049 A 
ATOM     54  H   UNL A   1      40.750  31.066  34.481  1.00  0.00     0.167 HD
ATOM     55  C   UNL A   1      39.126  33.331  34.932  1.00  0.00     0.074 A 
ATOM     56  C   UNL A   1      38.111  34.345  34.741  1.00  0.00     0.031 C 
ATOM     57  C   UNL A   1      39.920  33.245  36.028  1.00  0.00     0.037 A 
BRANCH  44  58
ATOM     58  C   UNL A   1      43.829  28.467  35.895  1.00  0.00     0.058 A 
ATOM     59  C   UNL A   1      43.514  27.417  36.773  1.00  0.00     0.135 A 
ATOM     60  C   UNL A   1      45.186  28.748  35.668  1.00  0.00     0.135 A 
ATOM     61  F   UNL A   1      42.233  27.119  37.036  1.00  0.00    -0.206 F 
ATOM     62  C   UNL A   1      44.508  26.690  37.420  1.00  0.00     0.059 A 
ATOM     63  C   UNL A   1      46.196  28.019  36.286  1.00  0.00     0.059 A 
ATOM     64  F   UNL A   1      45.540  29.742  34.838  1.00  0.00    -0.206 F 
ATOM     65  C   UNL A   1      45.847  27.000  37.172  1.00  0.00     0.060 A 
BRANCH  65  66
ATOM     66  S   UNL A   1      47.127  26.048  38.017  1.00  0.00     0.124 S 
ATOM     67  O   UNL A   1      46.767  26.255  39.416  1.00  0.00    -0.237 OA
ATOM     68  O   UNL A   1      46.908  24.700  37.500  1.00  0.00    -0.237 OA
ATOM     69  O   UNL A   1      48.366  26.688  37.585  1.00  0.00    -0.744 OA
ENDBRANCH  65  66
ENDBRANCH  44  58
BRANCH  45  70
ATOM     70  C   UNL A   1      36.600  33.228  30.965  1.00  0.00     0.058 A 
ATOM     71  C   UNL A   1      36.853  34.074  29.875  1.00  0.00     0.135 A 
ATOM     72  C   UNL A   1      35.267  33.066  31.371  1.00  0.00     0.135 A 
ATOM     73  F   UNL A   1      38.114  34.271  29.458  1.00  0.00    -0.206 F 
ATOM     74  C   UNL A   1      35.826  34.744  29.220  1.00  0.00     0.059 A 
ATOM     75  C   UNL A   1      34.220  33.708  30.718  1.00  0.00     0.059 A 
ATOM     76  F   UNL A   1      34.972  32.262  32.404  1.00  0.00    -0.206 F 
ATOM     77  C   UNL A   1      34.511  34.553  29.648  1.00  0.00     0.060 A 
BRANCH  77  78
ATOM     78  S   UNL A   1      33.175  35.383  28.759  1.00  0.00     0.124 S 
ATOM     79  O   UNL A   1      33.915  36.336  27.940  1.00  0.00    -0.237 OA
ATOM     80  O   UNL A   1      32.548  34.276  28.042  1.00  0.00    -0.237 OA
ATOM     81  O   UNL A   1      32.370  35.959  29.831  1.00  0.00    -0.744 OA
ENDBRANCH  77  78
ENDBRANCH  45  70
BRANCH  57  82
ATOM     82  C   UNL A   1      39.749  34.287  37.098  1.00  0.00     0.058 A 
ATOM     83  C   UNL A   1      38.998  34.036  38.256  1.00  0.00     0.135 A 
ATOM     84  C   UNL A   1      40.391  35.531  36.990  1.00  0.00     0.135 A 
ATOM     85  F   UNL A   1      38.360  32.865  38.407  1.00  0.00    -0.206 F 
ATOM     86  C   UNL A   1      38.871  34.991  39.261  1.00  0.00     0.059 A 
ATOM     87  C   UNL A   1      40.296  36.492  37.992  1.00  0.00     0.059 A 
ATOM     88  F   UNL A   1      41.131  35.818  35.907  1.00  0.00    -0.206 F 
ATOM     89  C   UNL A   1      39.524  36.217  39.120  1.00  0.00     0.060 A 
BRANCH  89  90
ATOM     90  S   UNL A   1      39.380  37.436  40.444  1.00  0.00     0.124 S 
ATOM     91  O   UNL A   1      40.755  37.910  40.557  1.00  0.00    -0.237 OA
ATOM     92  O   UNL A   1      38.424  38.390  39.892  1.00  0.00    -0.237 OA
ATOM     93  O   UNL A   1      38.890  36.652  41.575  1.00  0.00    -0.744 OA
ENDBRANCH  89  90
ENDBRANCH  57  82
ENDBRANCH  31  32
ENDBRANCH  24  26
ENDBRANCH  23  24
ENDBRANCH  22  23
ENDBRANCH  21  22
ENDBRANCH   1  21
TORSDOF 22
ENDMDL
MODEL 3
REMARK VINA RESULT:      -9.5      3.157      9.125
REMARK SMILES C=CC[N@@H+](CC(=O)OCCOCCOC(=O)c1ccc(-c2c3nc(c(-c4c(F)cc(S(=O)(=O)[O-])cc4F)c4ccc([nH]4)c(-c4c(F)cc(S(=O)(=O)[O-])cc4F)c4nc(c(-c5c(F)cc(S(=O)(=O)[O-])cc5F)c5ccc2[nH]5)C=C4)C=C3)cc1)C[C@H]1CCC[C@H](C)C1
REMARK SMILES IDX 11 1 10 2 9 3 8 4 6 5 7 6 5 7 4 8 3 10 2 11 1 12 83 13 84 14
REMARK SMILES IDX 85 15 90 16 86 17 88 18 87 19 89 20 12 21 13 22 14 23 15 24
REMARK SMILES IDX 16 25 17 26 18 27 82 28 19 29 81 30 20 31 21 32 22 33 75 34
REMARK SMILES IDX 23 35 80 36 74 37 76 38 24 39 79 40 73 41 72 42 25 44 59 45
REMARK SMILES IDX 38 46 58 47 39 48 42 49 57 50 77 51 40 52 41 53 56 55 78 56
REMARK SMILES IDX 43 57 26 58 27 59 36 60 28 61 29 62 35 63 37 64 30 65 31 66
REMARK SMILES IDX 32 67 33 68 34 69 60 70 61 71 70 72 62 73 63 74 69 75 71 76
REMARK SMILES IDX 64 77 65 78 66 79 67 80 68 81 44 82 45 83 54 84 46 85 47 86
REMARK SMILES IDX 53 87 55 88 48 89 49 90 50 91 51 92 52 93
REMARK H PARENT 4 9 76 43 42 54
REMARK Flexibility Score: inf
ROOT
ATOM      1  O   UNL A   1      32.862  30.545  27.528  1.00  0.00    -0.374 OA
ENDROOT
BRANCH   1   2
ATOM      2  C   UNL A   1      32.466  30.099  26.230  1.00  0.00     0.202 C 
BRANCH   2   3
ATOM      3  C   UNL A   1      33.577  29.435  25.412  1.00  0.00     0.261 C 
BRANCH   3   4
ATOM      4  O   UNL A   1      33.333  29.512  23.991  1.00  0.00    -0.459 OA
BRANCH   4   5
ATOM      5  C   UNL A   1      33.360  28.344  23.293  1.00  0.00     0.361 C 
ATOM      6  O   UNL A   1      33.903  28.209  22.200  1.00  0.00    -0.245 OA
BRANCH   5   7
ATOM      7  C   UNL A   1      32.553  27.214  23.935  1.00  0.00     0.386 C 
BRANCH   7   8
ATOM      8  N   UNL A   1      31.068  27.283  23.904  1.00  0.00    -0.322 N 
ATOM      9  H   UNL A   1      30.781  28.065  24.491  1.00  0.00     0.348 HD
BRANCH   8  10
ATOM     10  C   UNL A   1      30.450  26.098  24.518  1.00  0.00     0.290 C 
BRANCH  10  11
ATOM     11  C   UNL A   1      30.295  24.972  23.537  1.00  0.00     0.025 C 
ATOM     12  C   UNL A   1      31.066  23.875  23.520  1.00  0.00     0.010 C 
ENDBRANCH  10  11
ENDBRANCH   8  10
BRANCH   8  13
ATOM     13  C   UNL A   1      30.553  27.618  22.565  1.00  0.00     0.266 C 
BRANCH  13  14
ATOM     14  C   UNL A   1      29.446  28.695  22.519  1.00  0.00     0.044 C 
ATOM     15  C   UNL A   1      28.128  28.227  23.152  1.00  0.00     0.009 C 
ATOM     16  C   UNL A   1      29.904  29.994  23.207  1.00  0.00     0.012 C 
ATOM     17  C   UNL A   1      27.047  29.300  23.021  1.00  0.00     0.001 C 
ATOM     18  C   UNL A   1      28.855  31.114  23.089  1.00  0.00    -0.014 C 
ATOM     19  C   UNL A   1      27.490  30.641  23.608  1.00  0.00     0.003 C 
ATOM     20  C   UNL A   1      28.762  31.653  21.656  1.00  0.00     0.007 C 
ENDBRANCH  13  14
ENDBRANCH   8  13
ENDBRANCH   7   8
ENDBRANCH   5   7
ENDBRANCH   4   5
ENDBRANCH   3   4
ENDBRANCH   2   3
ENDBRANCH   1   2
BRANCH   1  21
ATOM     21  C   UNL A   1      33.362  31.878  27.615  1.00  0.00     0.202 C 
BRANCH  21  22
ATOM     22  C   UNL A   1      34.802  31.972  28.128  1.00  0.00     0.261 C 
BRANCH  22  23
ATOM     23  O   UNL A   1      35.198  30.752  28.782  1.00  0.00    -0.460 OA
BRANCH  23  24
ATOM     24  C   UNL A   1      36.098  30.927  29.778  1.00  0.00     0.338 C 
ATOM     25  O   UNL A   1      35.922  31.525  30.831  1.00  0.00    -0.246 OA
BRANCH  24  26
ATOM     26  C   UNL A   1      37.311  30.137  29.514  1.00  0.00     0.060 A 
ATOM     27  C   UNL A   1      38.322  30.159  30.482  1.00  0.00     0.016 A 
ATOM     28  C   UNL A   1      37.517  29.501  28.289  1.00  0.00     0.016 A 
ATOM     29  C   UNL A   1      39.567  29.595  30.202  1.00  0.00     0.010 A 
ATOM     30  C   UNL A   1      38.767  28.927  28.014  1.00  0.00     0.010 A 
ATOM     31  C   UNL A   1      39.815  29.012  28.950  1.00  0.00    -0.014 A 
BRANCH  31  32
ATOM     32  C   UNL A   1      41.213  28.649  28.581  1.00  0.00     0.031 A 
ATOM     33  C   UNL A   1      42.289  29.703  28.637  1.00  0.00     0.074 A 
ATOM     34  C   UNL A   1      41.543  27.382  28.263  1.00  0.00     0.049 A 
ATOM     35  N   UNL A   1      43.571  29.595  28.394  1.00  0.00    -0.248 NA
ATOM     36  C   UNL A   1      41.865  31.061  29.017  1.00  0.00     0.031 C 
ATOM     37  C   UNL A   1      40.609  26.259  28.188  1.00  0.00     0.029 A 
ATOM     38  N   UNL A   1      42.759  26.827  27.948  1.00  0.00    -0.354 N 
ATOM     39  C   UNL A   1      44.103  30.866  28.580  1.00  0.00     0.074 A 
ATOM     40  C   UNL A   1      43.001  31.737  28.927  1.00  0.00     0.031 C 
ATOM     41  C   UNL A   1      41.289  25.148  27.850  1.00  0.00     0.029 A 
ATOM     42  C   UNL A   1      42.700  25.483  27.665  1.00  0.00     0.049 A 
ATOM     43  H   UNL A   1      43.597  27.345  27.925  1.00  0.00     0.167 HD
ATOM     44  C   UNL A   1      45.393  31.273  28.488  1.00  0.00     0.037 A 
ATOM     45  C   UNL A   1      43.668  24.621  27.294  1.00  0.00     0.037 A 
ATOM     46  C   UNL A   1      46.500  30.408  28.171  1.00  0.00     0.049 A 
ATOM     47  C   UNL A   1      45.092  25.100  27.175  1.00  0.00     0.074 A 
ATOM     48  C   UNL A   1      47.845  30.728  28.093  1.00  0.00     0.029 A 
ATOM     49  N   UNL A   1      46.393  29.059  27.876  1.00  0.00    -0.354 N 
ATOM     50  N   UNL A   1      45.580  26.298  27.390  1.00  0.00    -0.248 NA
ATOM     51  C   UNL A   1      46.098  24.107  26.767  1.00  0.00     0.031 C 
ATOM     52  C   UNL A   1      48.547  29.579  27.715  1.00  0.00     0.029 A 
ATOM     53  C   UNL A   1      47.644  28.534  27.597  1.00  0.00     0.049 A 
ATOM     54  H   UNL A   1      45.551  28.547  27.867  1.00  0.00     0.167 HD
ATOM     55  C   UNL A   1      46.951  26.197  27.166  1.00  0.00     0.074 A 
ATOM     56  C   UNL A   1      47.216  24.820  26.810  1.00  0.00     0.031 C 
ATOM     57  C   UNL A   1      47.902  27.160  27.249  1.00  0.00     0.037 A 
BRANCH  44  58
ATOM     58  C   UNL A   1      45.680  32.729  28.723  1.00  0.00     0.058 A 
ATOM     59  C   UNL A   1      45.623  33.669  27.682  1.00  0.00     0.135 A 
ATOM     60  C   UNL A   1      45.980  33.195  30.013  1.00  0.00     0.135 A 
ATOM     61  F   UNL A   1      45.356  33.274  26.428  1.00  0.00    -0.206 F 
ATOM     62  C   UNL A   1      45.880  35.018  27.908  1.00  0.00     0.059 A 
ATOM     63  C   UNL A   1      46.217  34.542  30.266  1.00  0.00     0.059 A 
ATOM     64  F   UNL A   1      46.046  32.336  31.043  1.00  0.00    -0.206 F 
ATOM     65  C   UNL A   1      46.179  35.444  29.203  1.00  0.00     0.060 A 
BRANCH  65  66
ATOM     66  S   UNL A   1      46.508  37.197  29.483  1.00  0.00     0.124 S 
ATOM     67  O   UNL A   1      47.518  37.138  30.534  1.00  0.00    -0.237 OA
ATOM     68  O   UNL A   1      46.979  37.642  28.176  1.00  0.00    -0.237 OA
ATOM     69  O   UNL A   1      45.208  37.725  29.890  1.00  0.00    -0.744 OA
ENDBRANCH  65  66
ENDBRANCH  44  58
BRANCH  45  70
ATOM     70  C   UNL A   1      43.325  23.204  26.999  1.00  0.00     0.058 A 
ATOM     71  C   UNL A   1      43.174  22.749  25.681  1.00  0.00     0.135 A 
ATOM     72  C   UNL A   1      43.134  22.279  28.037  1.00  0.00     0.135 A 
ATOM     73  F   UNL A   1      43.334  23.601  24.656  1.00  0.00    -0.206 F 
ATOM     74  C   UNL A   1      42.835  21.431  25.401  1.00  0.00     0.059 A 
ATOM     75  C   UNL A   1      42.816  20.949  27.781  1.00  0.00     0.059 A 
ATOM     76  F   UNL A   1      43.274  22.663  29.315  1.00  0.00    -0.206 F 
ATOM     77  C   UNL A   1      42.659  20.536  26.459  1.00  0.00     0.060 A 
BRANCH  77  78
ATOM     78  S   UNL A   1      42.273  18.811  26.087  1.00  0.00     0.124 S 
ATOM     79  O   UNL A   1      43.165  18.545  24.965  1.00  0.00    -0.237 OA
ATOM     80  O   UNL A   1      42.607  18.143  27.342  1.00  0.00    -0.237 OA
ATOM     81  O   UNL A   1      40.849  18.850  25.769  1.00  0.00    -0.744 OA
ENDBRANCH  77  78
ENDBRANCH  45  70
BRANCH  57  82
ATOM     82  C   UNL A   1      49.326  26.760  26.977  1.00  0.00     0.058 A 
ATOM     83  C   UNL A   1      50.161  26.276  27.996  1.00  0.00     0.135 A 
ATOM     84  C   UNL A   1      49.842  26.808  25.673  1.00  0.00     0.135 A 
ATOM     85  F   UNL A   1      49.718  26.214  29.261  1.00  0.00    -0.206 F 
ATOM     86  C   UNL A   1      51.467  25.873  27.734  1.00  0.00     0.059 A 
ATOM     87  C   UNL A   1      51.138  26.390  25.384  1.00  0.00     0.059 A 
ATOM     88  F   UNL A   1      49.081  27.253  24.660  1.00  0.00    -0.206 F 
ATOM     89  C   UNL A   1      51.947  25.934  26.424  1.00  0.00     0.060 A 
BRANCH  89  90
ATOM     90  S   UNL A   1      53.632  25.377  26.089  1.00  0.00     0.124 S 
ATOM     91  O   UNL A   1      54.250  25.504  27.405  1.00  0.00    -0.237 OA
ATOM     92  O   UNL A   1      53.425  24.013  25.614  1.00  0.00    -0.237 OA
ATOM     93  O   UNL A   1      54.106  26.320  25.079  1.00  0.00    -0.744 OA
ENDBRANCH  89  90
ENDBRANCH  57  82
ENDBRANCH  31  32
ENDBRANCH  24  26
ENDBRANCH  23  24
ENDBRANCH  22  23
ENDBRANCH  21  22
ENDBRANCH   1  21
TORSDOF 22
ENDMDL
