MODEL 1
REMARK VINA RESULT:     -10.8      0.000      0.000
REMARK SMILES C[C@H](CS[C@H]1CCOC2(CCCCC2)C1)C(=O)OCCOCCOC(=O)c1ccc(-c2c3nc(c(-c4c(F)cc(S(=O)(=O)[O-])cc4F)c4ccc([nH]4)c(-c4c(F)cc(S(=O)(=O)[O-])cc4F)c4nc(c(-c5c(F)cc(S(=O)(=O)[O-])cc5F)c5ccc2[nH]5)C=C4)C=C3)cc1
REMARK SMILES IDX 21 1 20 2 19 3 18 4 16 5 17 6 2 7 1 8 3 9 4 10 5 11 6 12
REMARK SMILES IDX 15 13 7 14 9 15 8 16 10 17 14 18 11 19 13 20 12 21 22 22
REMARK SMILES IDX 23 23 24 24 25 25 26 26 27 27 28 28 92 29 29 30 91 31 30 32
REMARK SMILES IDX 31 33 32 34 85 35 33 36 90 37 84 38 86 39 34 40 89 41 83 42
REMARK SMILES IDX 82 43 35 45 69 46 48 47 68 48 49 49 52 50 67 51 87 52 50 53
REMARK SMILES IDX 51 54 66 56 88 57 53 58 36 59 37 60 46 61 38 62 39 63 45 64
REMARK SMILES IDX 47 65 40 66 41 67 42 68 43 69 44 70 70 71 71 72 80 73 72 74
REMARK SMILES IDX 73 75 79 76 81 77 74 78 75 79 76 80 77 81 78 82 54 83 55 84
REMARK SMILES IDX 64 85 56 86 57 87 63 88 65 89 58 90 59 91 60 92 61 93 62 94
REMARK H PARENT 86 44 52 55
REMARK Flexibility Score: inf
ROOT
ATOM      1  O   UNL A   1      34.081  32.990  30.118  1.00  0.00    -0.374 OA
ENDROOT
BRANCH   1   2
ATOM      2  C   UNL A   1      34.434  33.629  28.888  1.00  0.00     0.202 C 
BRANCH   2   3
ATOM      3  C   UNL A   1      33.976  32.871  27.642  1.00  0.00     0.261 C 
BRANCH   3   4
ATOM      4  O   UNL A   1      33.568  31.528  27.975  1.00  0.00    -0.463 OA
BRANCH   4   5
ATOM      5  C   UNL A   1      32.773  30.873  27.096  1.00  0.00     0.309 C 
ATOM      6  O   UNL A   1      31.644  31.225  26.778  1.00  0.00    -0.252 OA
BRANCH   5   7
ATOM      7  C   UNL A   1      33.390  29.572  26.606  1.00  0.00     0.106 C 
ATOM      8  C   UNL A   1      34.718  29.286  27.310  1.00  0.00     0.021 C 
BRANCH   7   9
ATOM      9  C   UNL A   1      33.422  29.268  25.097  1.00  0.00     0.084 C 
BRANCH   9  10
ATOM     10  S   UNL A   1      32.828  27.732  24.326  1.00  0.00    -0.158 SA
BRANCH  10  11
ATOM     11  C   UNL A   1      31.163  28.072  23.627  1.00  0.00     0.052 C 
ATOM     12  C   UNL A   1      29.989  27.168  23.965  1.00  0.00     0.043 C 
ATOM     13  C   UNL A   1      30.791  29.519  23.979  1.00  0.00     0.050 C 
ATOM     14  C   UNL A   1      28.743  27.651  23.232  1.00  0.00     0.162 C 
ATOM     15  C   UNL A   1      29.477  29.951  23.292  1.00  0.00     0.069 C 
ATOM     16  O   UNL A   1      28.444  28.999  23.581  1.00  0.00    -0.375 OA
ATOM     17  C   UNL A   1      29.685  30.120  21.779  1.00  0.00     0.035 C 
ATOM     18  C   UNL A   1      29.027  31.309  23.878  1.00  0.00     0.035 C 
ATOM     19  C   UNL A   1      28.455  30.679  21.079  1.00  0.00     0.003 C 
ATOM     20  C   UNL A   1      27.827  31.921  23.147  1.00  0.00     0.003 C 
ATOM     21  C   UNL A   1      28.067  32.029  21.651  1.00  0.00     0.000 C 
ENDBRANCH  10  11
ENDBRANCH   9  10
ENDBRANCH   7   9
ENDBRANCH   5   7
ENDBRANCH   4   5
ENDBRANCH   3   4
ENDBRANCH   2   3
ENDBRANCH   1   2
BRANCH   1  22
ATOM     22  C   UNL A   1      34.599  33.609  31.294  1.00  0.00     0.202 C 
BRANCH  22  23
ATOM     23  C   UNL A   1      35.574  32.748  32.112  1.00  0.00     0.261 C 
BRANCH  23  24
ATOM     24  O   UNL A   1      36.680  32.245  31.339  1.00  0.00    -0.460 OA
BRANCH  24  25
ATOM     25  C   UNL A   1      36.992  30.947  31.567  1.00  0.00     0.338 C 
ATOM     26  O   UNL A   1      36.256  30.086  32.037  1.00  0.00    -0.246 OA
BRANCH  25  27
ATOM     27  C   UNL A   1      38.336  30.637  31.040  1.00  0.00     0.060 A 
ATOM     28  C   UNL A   1      38.542  30.709  29.657  1.00  0.00     0.016 A 
ATOM     29  C   UNL A   1      39.372  30.219  31.872  1.00  0.00     0.016 A 
ATOM     30  C   UNL A   1      39.768  30.327  29.097  1.00  0.00     0.010 A 
ATOM     31  C   UNL A   1      40.600  29.851  31.303  1.00  0.00     0.010 A 
ATOM     32  C   UNL A   1      40.816  29.874  29.909  1.00  0.00    -0.014 A 
BRANCH  32  33
ATOM     33  C   UNL A   1      42.097  29.356  29.320  1.00  0.00     0.031 A 
ATOM     34  C   UNL A   1      43.231  30.316  29.027  1.00  0.00     0.074 A 
ATOM     35  C   UNL A   1      42.246  28.058  28.963  1.00  0.00     0.049 A 
ATOM     36  N   UNL A   1      44.389  30.087  28.457  1.00  0.00    -0.248 NA
ATOM     37  C   UNL A   1      43.018  31.728  29.388  1.00  0.00     0.031 C 
ATOM     38  C   UNL A   1      41.218  27.018  29.066  1.00  0.00     0.029 A 
ATOM     39  N   UNL A   1      43.304  27.406  28.369  1.00  0.00    -0.354 N 
ATOM     40  C   UNL A   1      45.038  31.317  28.412  1.00  0.00     0.074 A 
ATOM     41  C   UNL A   1      44.095  32.306  28.882  1.00  0.00     0.031 C 
ATOM     42  C   UNL A   1      41.679  25.881  28.518  1.00  0.00     0.029 A 
ATOM     43  C   UNL A   1      43.041  26.095  28.037  1.00  0.00     0.049 A 
ATOM     44  H   UNL A   1      44.172  27.839  28.197  1.00  0.00     0.167 HD
ATOM     45  C   UNL A   1      46.324  31.602  28.091  1.00  0.00     0.037 A 
ATOM     46  C   UNL A   1      43.804  25.168  27.418  1.00  0.00     0.037 A 
ATOM     47  C   UNL A   1      47.289  30.629  27.656  1.00  0.00     0.049 A 
ATOM     48  C   UNL A   1      45.230  25.498  27.052  1.00  0.00     0.074 A 
ATOM     49  C   UNL A   1      48.636  30.808  27.393  1.00  0.00     0.029 A 
ATOM     50  N   UNL A   1      47.010  29.292  27.421  1.00  0.00    -0.354 N 
ATOM     51  N   UNL A   1      45.866  26.640  27.152  1.00  0.00    -0.248 NA
ATOM     52  C   UNL A   1      46.057  24.397  26.531  1.00  0.00     0.031 C 
ATOM     53  C   UNL A   1      49.167  29.585  26.970  1.00  0.00     0.029 A 
ATOM     54  C   UNL A   1      48.160  28.636  27.013  1.00  0.00     0.049 A 
ATOM     55  H   UNL A   1      46.127  28.872  27.528  1.00  0.00     0.167 HD
ATOM     56  C   UNL A   1      47.178  26.381  26.762  1.00  0.00     0.074 A 
ATOM     57  C   UNL A   1      47.244  24.976  26.424  1.00  0.00     0.031 C 
ATOM     58  C   UNL A   1      48.234  27.230  26.704  1.00  0.00     0.037 A 
BRANCH  45  59
ATOM     59  C   UNL A   1      46.779  33.025  28.286  1.00  0.00     0.058 A 
ATOM     60  C   UNL A   1      46.690  33.958  27.236  1.00  0.00     0.135 A 
ATOM     61  C   UNL A   1      47.279  33.473  29.517  1.00  0.00     0.135 A 
ATOM     62  F   UNL A   1      46.228  33.582  26.033  1.00  0.00    -0.206 F 
ATOM     63  C   UNL A   1      47.126  35.268  27.387  1.00  0.00     0.059 A 
ATOM     64  C   UNL A   1      47.688  34.792  29.701  1.00  0.00     0.059 A 
ATOM     65  F   UNL A   1      47.378  32.629  30.555  1.00  0.00    -0.206 F 
ATOM     66  C   UNL A   1      47.625  35.677  28.624  1.00  0.00     0.060 A 
BRANCH  66  67
ATOM     67  S   UNL A   1      48.183  37.384  28.796  1.00  0.00     0.124 S 
ATOM     68  O   UNL A   1      47.067  38.115  28.204  1.00  0.00    -0.237 OA
ATOM     69  O   UNL A   1      48.333  37.518  30.240  1.00  0.00    -0.237 OA
ATOM     70  O   UNL A   1      49.427  37.413  28.033  1.00  0.00    -0.744 OA
ENDBRANCH  66  67
ENDBRANCH  45  59
BRANCH  46  71
ATOM     71  C   UNL A   1      43.268  23.803  27.148  1.00  0.00     0.058 A 
ATOM     72  C   UNL A   1      43.217  22.835  28.162  1.00  0.00     0.135 A 
ATOM     73  C   UNL A   1      42.844  23.426  25.865  1.00  0.00     0.135 A 
ATOM     74  F   UNL A   1      43.621  23.144  29.404  1.00  0.00    -0.206 F 
ATOM     75  C   UNL A   1      42.801  21.531  27.908  1.00  0.00     0.059 A 
ATOM     76  C   UNL A   1      42.400  22.134  25.591  1.00  0.00     0.059 A 
ATOM     77  F   UNL A   1      42.860  24.319  24.862  1.00  0.00    -0.206 F 
ATOM     78  C   UNL A   1      42.397  21.189  26.617  1.00  0.00     0.060 A 
BRANCH  78  79
ATOM     79  S   UNL A   1      41.844  19.497  26.307  1.00  0.00     0.124 S 
ATOM     80  O   UNL A   1      40.402  19.675  26.186  1.00  0.00    -0.237 OA
ATOM     81  O   UNL A   1      42.554  19.166  25.075  1.00  0.00    -0.237 OA
ATOM     82  O   UNL A   1      42.294  18.774  27.493  1.00  0.00    -0.744 OA
ENDBRANCH  78  79
ENDBRANCH  46  71
BRANCH  58  83
ATOM     83  C   UNL A   1      49.575  26.659  26.332  1.00  0.00     0.058 A 
ATOM     84  C   UNL A   1      50.079  26.724  25.023  1.00  0.00     0.135 A 
ATOM     85  C   UNL A   1      50.388  26.068  27.315  1.00  0.00     0.135 A 
ATOM     86  F   UNL A   1      49.344  27.274  24.044  1.00  0.00    -0.206 F 
ATOM     87  C   UNL A   1      51.323  26.195  24.695  1.00  0.00     0.059 A 
ATOM     88  C   UNL A   1      51.649  25.561  27.016  1.00  0.00     0.059 A 
ATOM     89  F   UNL A   1      49.963  25.990  28.586  1.00  0.00    -0.206 F 
ATOM     90  C   UNL A   1      52.102  25.615  25.699  1.00  0.00     0.060 A 
BRANCH  90  91
ATOM     91  S   UNL A   1      53.724  24.949  25.266  1.00  0.00     0.124 S 
ATOM     92  O   UNL A   1      54.020  25.674  24.035  1.00  0.00    -0.237 OA
ATOM     93  O   UNL A   1      54.531  25.313  26.426  1.00  0.00    -0.237 OA
ATOM     94  O   UNL A   1      53.473  23.520  25.109  1.00  0.00    -0.744 OA
ENDBRANCH  90  91
ENDBRANCH  58  83
ENDBRANCH  32  33
ENDBRANCH  25  27
ENDBRANCH  24  25
ENDBRANCH  23  24
ENDBRANCH  22  23
ENDBRANCH   1  22
TORSDOF 20
ENDMDL
MODEL 2
REMARK VINA RESULT:     -10.5      6.193     12.490
REMARK SMILES C[C@H](CS[C@H]1CCOC2(CCCCC2)C1)C(=O)OCCOCCOC(=O)c1ccc(-c2c3nc(c(-c4c(F)cc(S(=O)(=O)[O-])cc4F)c4ccc([nH]4)c(-c4c(F)cc(S(=O)(=O)[O-])cc4F)c4nc(c(-c5c(F)cc(S(=O)(=O)[O-])cc5F)c5ccc2[nH]5)C=C4)C=C3)cc1
REMARK SMILES IDX 21 1 20 2 19 3 18 4 16 5 17 6 2 7 1 8 3 9 4 10 5 11 6 12
REMARK SMILES IDX 15 13 7 14 9 15 8 16 10 17 14 18 11 19 13 20 12 21 22 22
REMARK SMILES IDX 23 23 24 24 25 25 26 26 27 27 28 28 92 29 29 30 91 31 30 32
REMARK SMILES IDX 31 33 32 34 85 35 33 36 90 37 84 38 86 39 34 40 89 41 83 42
REMARK SMILES IDX 82 43 35 45 69 46 48 47 68 48 49 49 52 50 67 51 87 52 50 53
REMARK SMILES IDX 51 54 66 56 88 57 53 58 36 59 37 60 46 61 38 62 39 63 45 64
REMARK SMILES IDX 47 65 40 66 41 67 42 68 43 69 44 70 70 71 71 72 80 73 72 74
REMARK SMILES IDX 73 75 79 76 81 77 74 78 75 79 76 80 77 81 78 82 54 83 55 84
REMARK SMILES IDX 64 85 56 86 57 87 63 88 65 89 58 90 59 91 60 92 61 93 62 94
REMARK H PARENT 86 44 52 55
REMARK Flexibility Score: inf
ROOT
ATOM      1  O   UNL A   1      42.837  21.188  26.660  1.00  0.00    -0.374 OA
ENDROOT
BRANCH   1   2
ATOM      2  C   UNL A   1      41.552  21.110  26.038  1.00  0.00     0.202 C 
BRANCH   2   3
ATOM      3  C   UNL A   1      40.383  21.129  27.024  1.00  0.00     0.261 C 
BRANCH   3   4
ATOM      4  O   UNL A   1      39.464  22.196  26.713  1.00  0.00    -0.463 OA
BRANCH   4   5
ATOM      5  C   UNL A   1      38.437  21.921  25.875  1.00  0.00     0.309 C 
ATOM      6  O   UNL A   1      38.310  20.878  25.244  1.00  0.00    -0.252 OA
BRANCH   5   7
ATOM      7  C   UNL A   1      37.486  23.096  25.708  1.00  0.00     0.106 C 
ATOM      8  C   UNL A   1      37.958  24.312  26.507  1.00  0.00     0.021 C 
BRANCH   7   9
ATOM      9  C   UNL A   1      35.966  22.862  25.795  1.00  0.00     0.084 C 
BRANCH   9  10
ATOM     10  S   UNL A   1      34.798  23.047  24.415  1.00  0.00    -0.158 SA
BRANCH  10  11
ATOM     11  C   UNL A   1      33.380  24.048  25.019  1.00  0.00     0.052 C 
ATOM     12  C   UNL A   1      32.424  23.478  26.054  1.00  0.00     0.043 C 
ATOM     13  C   UNL A   1      33.934  25.383  25.538  1.00  0.00     0.050 C 
ATOM     14  C   UNL A   1      31.329  24.495  26.353  1.00  0.00     0.162 C 
ATOM     15  C   UNL A   1      32.799  26.360  25.915  1.00  0.00     0.069 C 
ATOM     16  O   UNL A   1      31.889  25.718  26.820  1.00  0.00    -0.375 OA
ATOM     17  C   UNL A   1      32.082  26.873  24.657  1.00  0.00     0.035 C 
ATOM     18  C   UNL A   1      33.407  27.571  26.659  1.00  0.00     0.035 C 
ATOM     19  C   UNL A   1      31.048  27.944  24.969  1.00  0.00     0.003 C 
ATOM     20  C   UNL A   1      32.396  28.691  26.929  1.00  0.00     0.003 C 
ATOM     21  C   UNL A   1      31.686  29.134  25.661  1.00  0.00     0.000 C 
ENDBRANCH  10  11
ENDBRANCH   9  10
ENDBRANCH   7   9
ENDBRANCH   5   7
ENDBRANCH   4   5
ENDBRANCH   3   4
ENDBRANCH   2   3
ENDBRANCH   1   2
BRANCH   1  22
ATOM     22  C   UNL A   1      43.428  22.486  26.669  1.00  0.00     0.202 C 
BRANCH  22  23
ATOM     23  C   UNL A   1      42.947  23.432  25.558  1.00  0.00     0.261 C 
BRANCH  23  24
ATOM     24  O   UNL A   1      41.968  24.389  26.006  1.00  0.00    -0.460 OA
BRANCH  24  25
ATOM     25  C   UNL A   1      42.295  25.685  25.785  1.00  0.00     0.338 C 
ATOM     26  O   UNL A   1      42.583  26.197  24.709  1.00  0.00    -0.246 OA
BRANCH  25  27
ATOM     27  C   UNL A   1      42.128  26.478  27.019  1.00  0.00     0.060 A 
ATOM     28  C   UNL A   1      41.112  26.117  27.911  1.00  0.00     0.016 A 
ATOM     29  C   UNL A   1      42.910  27.602  27.280  1.00  0.00     0.016 A 
ATOM     30  C   UNL A   1      40.847  26.897  29.045  1.00  0.00     0.010 A 
ATOM     31  C   UNL A   1      42.645  28.368  28.425  1.00  0.00     0.010 A 
ATOM     32  C   UNL A   1      41.598  28.048  29.314  1.00  0.00    -0.014 A 
BRANCH  32  33
ATOM     33  C   UNL A   1      41.258  28.956  30.461  1.00  0.00     0.031 A 
ATOM     34  C   UNL A   1      41.953  28.775  31.794  1.00  0.00     0.074 A 
ATOM     35  C   UNL A   1      40.282  29.891  30.367  1.00  0.00     0.049 A 
ATOM     36  N   UNL A   1      41.756  29.403  32.928  1.00  0.00    -0.248 NA
ATOM     37  C   UNL A   1      42.977  27.719  31.873  1.00  0.00     0.031 C 
ATOM     38  C   UNL A   1      39.432  30.127  29.197  1.00  0.00     0.029 A 
ATOM     39  N   UNL A   1      39.790  30.773  31.305  1.00  0.00    -0.354 N 
ATOM     40  C   UNL A   1      42.641  28.831  33.837  1.00  0.00     0.074 A 
ATOM     41  C   UNL A   1      43.273  27.719  33.163  1.00  0.00     0.031 C 
ATOM     42  C   UNL A   1      38.505  31.052  29.500  1.00  0.00     0.029 A 
ATOM     43  C   UNL A   1      38.697  31.493  30.879  1.00  0.00     0.049 A 
ATOM     44  H   UNL A   1      40.186  30.878  32.201  1.00  0.00     0.167 HD
ATOM     45  C   UNL A   1      42.971  29.232  35.088  1.00  0.00     0.037 A 
ATOM     46  C   UNL A   1      37.934  32.406  31.518  1.00  0.00     0.037 A 
ATOM     47  C   UNL A   1      42.382  30.356  35.764  1.00  0.00     0.049 A 
ATOM     48  C   UNL A   1      38.299  32.836  32.917  1.00  0.00     0.074 A 
ATOM     49  C   UNL A   1      42.713  30.891  36.997  1.00  0.00     0.029 A 
ATOM     50  N   UNL A   1      41.341  31.121  35.263  1.00  0.00    -0.354 N 
ATOM     51  N   UNL A   1      39.237  32.372  33.706  1.00  0.00    -0.248 NA
ATOM     52  C   UNL A   1      37.528  33.949  33.495  1.00  0.00     0.031 C 
ATOM     53  C   UNL A   1      41.851  31.962  37.256  1.00  0.00     0.029 A 
ATOM     54  C   UNL A   1      41.015  32.121  36.164  1.00  0.00     0.049 A 
ATOM     55  H   UNL A   1      40.899  30.975  34.396  1.00  0.00     0.167 HD
ATOM     56  C   UNL A   1      39.207  33.173  34.845  1.00  0.00     0.074 A 
ATOM     57  C   UNL A   1      38.158  34.148  34.644  1.00  0.00     0.031 C 
ATOM     58  C   UNL A   1      39.989  33.111  35.952  1.00  0.00     0.037 A 
BRANCH  45  59
ATOM     59  C   UNL A   1      44.086  28.488  35.774  1.00  0.00     0.058 A 
ATOM     60  C   UNL A   1      43.807  27.449  36.682  1.00  0.00     0.135 A 
ATOM     61  C   UNL A   1      45.433  28.784  35.516  1.00  0.00     0.135 A 
ATOM     62  F   UNL A   1      42.536  27.129  36.973  1.00  0.00    -0.206 F 
ATOM     63  C   UNL A   1      44.820  26.766  37.342  1.00  0.00     0.059 A 
ATOM     64  C   UNL A   1      46.465  28.088  36.141  1.00  0.00     0.059 A 
ATOM     65  F   UNL A   1      45.758  29.759  34.654  1.00  0.00    -0.206 F 
ATOM     66  C   UNL A   1      46.147  27.093  37.066  1.00  0.00     0.060 A 
BRANCH  66  67
ATOM     67  S   UNL A   1      47.446  26.191  37.936  1.00  0.00     0.124 S 
ATOM     68  O   UNL A   1      46.796  25.903  39.211  1.00  0.00    -0.237 OA
ATOM     69  O   UNL A   1      47.666  25.044  37.063  1.00  0.00    -0.237 OA
ATOM     70  O   UNL A   1      48.545  27.151  37.995  1.00  0.00    -0.744 OA
ENDBRANCH  66  67
ENDBRANCH  45  59
BRANCH  46  71
ATOM     71  C   UNL A   1      36.769  33.035  30.831  1.00  0.00     0.058 A 
ATOM     72  C   UNL A   1      36.956  34.014  29.845  1.00  0.00     0.135 A 
ATOM     73  C   UNL A   1      35.450  32.705  31.180  1.00  0.00     0.135 A 
ATOM     74  F   UNL A   1      38.199  34.372  29.484  1.00  0.00    -0.206 F 
ATOM     75  C   UNL A   1      35.882  34.674  29.255  1.00  0.00     0.059 A 
ATOM     76  C   UNL A   1      34.357  33.333  30.586  1.00  0.00     0.059 A 
ATOM     77  F   UNL A   1      35.215  31.764  32.108  1.00  0.00    -0.206 F 
ATOM     78  C   UNL A   1      34.585  34.328  29.635  1.00  0.00     0.060 A 
BRANCH  78  79
ATOM     79  S   UNL A   1      33.200  35.181  28.848  1.00  0.00     0.124 S 
ATOM     80  O   UNL A   1      33.882  36.252  28.131  1.00  0.00    -0.237 OA
ATOM     81  O   UNL A   1      32.623  34.126  28.022  1.00  0.00    -0.237 OA
ATOM     82  O   UNL A   1      32.377  35.602  29.979  1.00  0.00    -0.744 OA
ENDBRANCH  78  79
ENDBRANCH  46  71
BRANCH  58  83
ATOM     83  C   UNL A   1      39.800  34.168  37.006  1.00  0.00     0.058 A 
ATOM     84  C   UNL A   1      39.071  33.930  38.181  1.00  0.00     0.135 A 
ATOM     85  C   UNL A   1      40.393  35.433  36.852  1.00  0.00     0.135 A 
ATOM     86  F   UNL A   1      38.479  32.741  38.379  1.00  0.00    -0.206 F 
ATOM     87  C   UNL A   1      38.908  34.916  39.149  1.00  0.00     0.059 A 
ATOM     88  C   UNL A   1      40.270  36.424  37.821  1.00  0.00     0.059 A 
ATOM     89  F   UNL A   1      41.113  35.713  35.753  1.00  0.00    -0.206 F 
ATOM     90  C   UNL A   1      39.512  36.161  38.960  1.00  0.00     0.060 A 
BRANCH  90  91
ATOM     91  S   UNL A   1      39.310  37.427  40.232  1.00  0.00     0.124 S 
ATOM     92  O   UNL A   1      38.702  36.662  41.315  1.00  0.00    -0.237 OA
ATOM     93  O   UNL A   1      40.684  37.865  40.457  1.00  0.00    -0.237 OA
ATOM     94  O   UNL A   1      38.442  38.413  39.595  1.00  0.00    -0.744 OA
ENDBRANCH  90  91
ENDBRANCH  58  83
ENDBRANCH  32  33
ENDBRANCH  25  27
ENDBRANCH  24  25
ENDBRANCH  23  24
ENDBRANCH  22  23
ENDBRANCH   1  22
TORSDOF 20
ENDMDL
MODEL 3
REMARK VINA RESULT:     -10.5      6.714     13.031
REMARK SMILES C[C@H](CS[C@H]1CCOC2(CCCCC2)C1)C(=O)OCCOCCOC(=O)c1ccc(-c2c3nc(c(-c4c(F)cc(S(=O)(=O)[O-])cc4F)c4ccc([nH]4)c(-c4c(F)cc(S(=O)(=O)[O-])cc4F)c4nc(c(-c5c(F)cc(S(=O)(=O)[O-])cc5F)c5ccc2[nH]5)C=C4)C=C3)cc1
REMARK SMILES IDX 21 1 20 2 19 3 18 4 16 5 17 6 2 7 1 8 3 9 4 10 5 11 6 12
REMARK SMILES IDX 15 13 7 14 9 15 8 16 10 17 14 18 11 19 13 20 12 21 22 22
REMARK SMILES IDX 23 23 24 24 25 25 26 26 27 27 28 28 92 29 29 30 91 31 30 32
REMARK SMILES IDX 31 33 32 34 85 35 33 36 90 37 84 38 86 39 34 40 89 41 83 42
REMARK SMILES IDX 82 43 35 45 69 46 48 47 68 48 49 49 52 50 67 51 87 52 50 53
REMARK SMILES IDX 51 54 66 56 88 57 53 58 36 59 37 60 46 61 38 62 39 63 45 64
REMARK SMILES IDX 47 65 40 66 41 67 42 68 43 69 44 70 70 71 71 72 80 73 72 74
REMARK SMILES IDX 73 75 79 76 81 77 74 78 75 79 76 80 77 81 78 82 54 83 55 84
REMARK SMILES IDX 64 85 56 86 57 87 63 88 65 89 58 90 59 91 60 92 61 93 62 94
REMARK H PARENT 86 44 52 55
REMARK Flexibility Score: inf
ROOT
ATOM      1  O   UNL A   1      43.305  21.233  26.499  1.00  0.00    -0.374 OA
ENDROOT
BRANCH   1   2
ATOM      2  C   UNL A   1      41.935  21.064  26.126  1.00  0.00     0.202 C 
BRANCH   2   3
ATOM      3  C   UNL A   1      40.941  21.559  27.177  1.00  0.00     0.261 C 
BRANCH   3   4
ATOM      4  O   UNL A   1      39.971  22.449  26.589  1.00  0.00    -0.463 OA
BRANCH   4   5
ATOM      5  C   UNL A   1      38.914  21.897  25.946  1.00  0.00     0.309 C 
ATOM      6  O   UNL A   1      38.793  20.704  25.699  1.00  0.00    -0.252 OA
BRANCH   5   7
ATOM      7  C   UNL A   1      37.918  22.937  25.458  1.00  0.00     0.106 C 
ATOM      8  C   UNL A   1      37.807  24.106  26.439  1.00  0.00     0.021 C 
BRANCH   7   9
ATOM      9  C   UNL A   1      36.558  22.482  24.897  1.00  0.00     0.084 C 
BRANCH   9  10
ATOM     10  S   UNL A   1      34.967  22.623  25.765  1.00  0.00    -0.158 SA
BRANCH  10  11
ATOM     11  C   UNL A   1      33.858  21.315  25.107  1.00  0.00     0.052 C 
ATOM     12  C   UNL A   1      33.042  21.562  23.848  1.00  0.00     0.043 C 
ATOM     13  C   UNL A   1      34.694  20.042  24.913  1.00  0.00     0.050 C 
ATOM     14  C   UNL A   1      32.189  20.336  23.543  1.00  0.00     0.162 C 
ATOM     15  C   UNL A   1      33.812  18.838  24.518  1.00  0.00     0.069 C 
ATOM     16  O   UNL A   1      33.005  19.180  23.382  1.00  0.00    -0.375 OA
ATOM     17  C   UNL A   1      32.953  18.379  25.706  1.00  0.00     0.035 C 
ATOM     18  C   UNL A   1      34.726  17.664  24.094  1.00  0.00     0.035 C 
ATOM     19  C   UNL A   1      32.171  17.109  25.407  1.00  0.00     0.003 C 
ATOM     20  C   UNL A   1      33.965  16.357  23.848  1.00  0.00     0.003 C 
ATOM     21  C   UNL A   1      33.100  15.970  25.036  1.00  0.00     0.000 C 
ENDBRANCH  10  11
ENDBRANCH   9  10
ENDBRANCH   7   9
ENDBRANCH   5   7
ENDBRANCH   4   5
ENDBRANCH   3   4
ENDBRANCH   2   3
ENDBRANCH   1   2
BRANCH   1  22
ATOM     22  C   UNL A   1      44.067  22.079  25.640  1.00  0.00     0.202 C 
BRANCH  22  23
ATOM     23  C   UNL A   1      44.554  23.390  26.278  1.00  0.00     0.261 C 
BRANCH  23  24
ATOM     24  O   UNL A   1      43.580  24.002  27.144  1.00  0.00    -0.460 OA
BRANCH  24  25
ATOM     25  C   UNL A   1      42.772  24.908  26.544  1.00  0.00     0.338 C 
ATOM     26  O   UNL A   1      42.362  24.876  25.389  1.00  0.00    -0.246 OA
BRANCH  25  27
ATOM     27  C   UNL A   1      42.311  25.916  27.520  1.00  0.00     0.060 A 
ATOM     28  C   UNL A   1      43.023  27.117  27.625  1.00  0.00     0.016 A 
ATOM     29  C   UNL A   1      41.235  25.675  28.370  1.00  0.00     0.016 A 
ATOM     30  C   UNL A   1      42.689  28.062  28.603  1.00  0.00     0.010 A 
ATOM     31  C   UNL A   1      40.899  26.633  29.338  1.00  0.00     0.010 A 
ATOM     32  C   UNL A   1      41.631  27.830  29.491  1.00  0.00    -0.014 A 
BRANCH  32  33
ATOM     33  C   UNL A   1      41.328  28.778  30.616  1.00  0.00     0.031 A 
ATOM     34  C   UNL A   1      42.031  28.612  31.947  1.00  0.00     0.074 A 
ATOM     35  C   UNL A   1      40.379  29.737  30.506  1.00  0.00     0.049 A 
ATOM     36  N   UNL A   1      41.863  29.276  33.066  1.00  0.00    -0.248 NA
ATOM     37  C   UNL A   1      43.025  27.530  32.046  1.00  0.00     0.031 C 
ATOM     38  C   UNL A   1      39.525  29.967  29.337  1.00  0.00     0.029 A 
ATOM     39  N   UNL A   1      39.922  30.658  31.423  1.00  0.00    -0.354 N 
ATOM     40  C   UNL A   1      42.740  28.704  33.981  1.00  0.00     0.074 A 
ATOM     41  C   UNL A   1      43.333  27.556  33.332  1.00  0.00     0.031 C 
ATOM     42  C   UNL A   1      38.627  30.926  29.623  1.00  0.00     0.029 A 
ATOM     43  C   UNL A   1      38.845  31.399  30.988  1.00  0.00     0.049 A 
ATOM     44  H   UNL A   1      40.329  30.776  32.312  1.00  0.00     0.167 HD
ATOM     45  C   UNL A   1      43.093  29.128  35.219  1.00  0.00     0.037 A 
ATOM     46  C   UNL A   1      38.115  32.350  31.608  1.00  0.00     0.037 A 
ATOM     47  C   UNL A   1      42.544  30.287  35.869  1.00  0.00     0.049 A 
ATOM     48  C   UNL A   1      38.506  32.807  32.992  1.00  0.00     0.074 A 
ATOM     49  C   UNL A   1      42.902  30.845  37.084  1.00  0.00     0.029 A 
ATOM     50  N   UNL A   1      41.521  31.068  35.356  1.00  0.00    -0.354 N 
ATOM     51  N   UNL A   1      39.439  32.338  33.785  1.00  0.00    -0.248 NA
ATOM     52  C   UNL A   1      37.774  33.957  33.546  1.00  0.00     0.031 C 
ATOM     53  C   UNL A   1      42.074  31.947  37.321  1.00  0.00     0.029 A 
ATOM     54  C   UNL A   1      41.232  32.101  36.233  1.00  0.00     0.049 A 
ATOM     55  H   UNL A   1      41.066  30.911  34.497  1.00  0.00     0.167 HD
ATOM     56  C   UNL A   1      39.443  33.169  34.902  1.00  0.00     0.074 A 
ATOM     57  C   UNL A   1      38.420  34.168  34.684  1.00  0.00     0.031 C 
ATOM     58  C   UNL A   1      40.233  33.114  36.003  1.00  0.00     0.037 A 
BRANCH  45  59
ATOM     59  C   UNL A   1      44.194  28.371  35.915  1.00  0.00     0.058 A 
ATOM     60  C   UNL A   1      43.895  27.301  36.779  1.00  0.00     0.135 A 
ATOM     61  C   UNL A   1      45.545  28.685  35.708  1.00  0.00     0.135 A 
ATOM     62  F   UNL A   1      42.619  26.962  37.021  1.00  0.00    -0.206 F 
ATOM     63  C   UNL A   1      44.894  26.605  37.449  1.00  0.00     0.059 A 
ATOM     64  C   UNL A   1      46.564  27.977  36.341  1.00  0.00     0.059 A 
ATOM     65  F   UNL A   1      45.888  29.690  34.888  1.00  0.00    -0.206 F 
ATOM     66  C   UNL A   1      46.226  26.951  37.224  1.00  0.00     0.060 A 
BRANCH  66  67
ATOM     67  S   UNL A   1      47.505  26.031  38.104  1.00  0.00     0.124 S 
ATOM     68  O   UNL A   1      48.262  25.454  36.997  1.00  0.00    -0.237 OA
ATOM     69  O   UNL A   1      48.184  27.082  38.855  1.00  0.00    -0.237 OA
ATOM     70  O   UNL A   1      46.746  25.080  38.910  1.00  0.00    -0.744 OA
ENDBRANCH  66  67
ENDBRANCH  45  59
BRANCH  46  71
ATOM     71  C   UNL A   1      36.963  32.993  30.915  1.00  0.00     0.058 A 
ATOM     72  C   UNL A   1      35.642  32.698  31.286  1.00  0.00     0.135 A 
ATOM     73  C   UNL A   1      37.156  33.876  29.842  1.00  0.00     0.135 A 
ATOM     74  F   UNL A   1      35.404  31.852  32.300  1.00  0.00    -0.206 F 
ATOM     75  C   UNL A   1      34.553  33.223  30.595  1.00  0.00     0.059 A 
ATOM     76  C   UNL A   1      36.083  34.434  29.150  1.00  0.00     0.059 A 
ATOM     77  F   UNL A   1      38.400  34.203  29.456  1.00  0.00    -0.206 F 
ATOM     78  C   UNL A   1      34.784  34.088  29.525  1.00  0.00     0.060 A 
BRANCH  78  79
ATOM     79  S   UNL A   1      33.361  34.773  28.648  1.00  0.00     0.124 S 
ATOM     80  O   UNL A   1      33.922  35.994  28.083  1.00  0.00    -0.237 OA
ATOM     81  O   UNL A   1      33.051  33.712  27.695  1.00  0.00    -0.237 OA
ATOM     82  O   UNL A   1      32.373  34.962  29.706  1.00  0.00    -0.744 OA
ENDBRANCH  78  79
ENDBRANCH  46  71
BRANCH  58  83
ATOM     83  C   UNL A   1      40.085  34.205  37.030  1.00  0.00     0.058 A 
ATOM     84  C   UNL A   1      40.836  35.389  36.976  1.00  0.00     0.135 A 
ATOM     85  C   UNL A   1      39.144  34.075  38.066  1.00  0.00     0.135 A 
ATOM     86  F   UNL A   1      41.752  35.565  36.011  1.00  0.00    -0.206 F 
ATOM     87  C   UNL A   1      40.684  36.390  37.931  1.00  0.00     0.059 A 
ATOM     88  C   UNL A   1      38.953  35.077  39.012  1.00  0.00     0.059 A 
ATOM     89  F   UNL A   1      38.388  32.969  38.159  1.00  0.00    -0.206 F 
ATOM     90  C   UNL A   1      39.739  36.225  38.946  1.00  0.00     0.060 A 
BRANCH  90  91
ATOM     91  S   UNL A   1      39.538  37.540  40.168  1.00  0.00     0.124 S 
ATOM     92  O   UNL A   1      38.476  38.340  39.568  1.00  0.00    -0.237 OA
ATOM     93  O   UNL A   1      39.171  36.796  41.368  1.00  0.00    -0.237 OA
ATOM     94  O   UNL A   1      40.854  38.170  40.208  1.00  0.00    -0.744 OA
ENDBRANCH  90  91
ENDBRANCH  58  83
ENDBRANCH  32  33
ENDBRANCH  25  27
ENDBRANCH  24  25
ENDBRANCH  23  24
ENDBRANCH  22  23
ENDBRANCH   1  22
TORSDOF 20
ENDMDL
