MODEL 1
REMARK VINA RESULT:     -11.5      0.000      0.000
REMARK SMILES O=C(OCCOCCOC(=O)c1cccnc1C(=O)Nc1ccc([N+](=O)[O-])cc1)c1ccc(-c2c3nc(c(-c4c(F)cc(S(=O)(=O)[O-])cc4F)c4ccc([nH]4)c(-c4c(F)cc(S(=O)(=O)[O-])cc4F)c4nc(c(-c5c(F)cc(S(=O)(=O)[O-])cc5F)c5ccc2[nH]5)C=C4)C=C3)cc1
REMARK SMILES IDX 6 1 5 2 4 3 3 4 2 5 1 6 30 7 31 8 95 9 32 10 94 11 33 12
REMARK SMILES IDX 34 13 35 14 88 15 36 16 93 17 87 18 89 19 37 20 92 21 86 22
REMARK SMILES IDX 85 23 38 25 72 26 51 27 71 28 52 29 55 30 70 31 90 32 53 33
REMARK SMILES IDX 54 34 69 36 91 37 56 38 39 39 40 40 49 41 41 42 42 43 48 44
REMARK SMILES IDX 50 45 43 46 44 47 45 48 46 49 47 50 73 51 74 52 83 53 75 54
REMARK SMILES IDX 76 55 82 56 84 57 77 58 78 59 79 60 80 61 81 62 57 63 58 64
REMARK SMILES IDX 67 65 59 66 60 67 66 68 68 69 61 70 62 71 63 72 64 73 65 74
REMARK SMILES IDX 7 75 8 76 9 77 10 78 11 79 12 80 13 81 17 82 14 83 16 84
REMARK SMILES IDX 15 85 18 86 19 87 20 88 21 90 22 91 29 92 23 93 28 94 24 95
REMARK SMILES IDX 25 96 26 97 27 98
REMARK H PARENT 89 24 55 35 20 89
REMARK Flexibility Score: inf
ROOT
ATOM      1  O   UNL A   1      39.751  21.333  25.909  1.00  0.00    -0.374 OA
ENDROOT
BRANCH   1   2
ATOM      2  C   UNL A   1      40.368  21.735  27.138  1.00  0.00     0.202 C 
BRANCH   2   3
ATOM      3  C   UNL A   1      41.504  22.744  26.946  1.00  0.00     0.261 C 
BRANCH   3   4
ATOM      4  O   UNL A   1      41.012  24.007  26.466  1.00  0.00    -0.460 OA
BRANCH   4   5
ATOM      5  C   UNL A   1      41.670  25.195  26.507  1.00  0.00     0.338 C 
ATOM      6  O   UNL A   1      42.479  25.468  25.623  1.00  0.00    -0.246 OA
BRANCH   5   7
ATOM      7  C   UNL A   1      41.374  26.227  27.539  1.00  0.00     0.060 A 
ATOM      8  C   UNL A   1      42.028  27.457  27.639  1.00  0.00     0.016 A 
ATOM      9  C   UNL A   1      40.329  25.953  28.431  1.00  0.00     0.016 A 
ATOM     10  C   UNL A   1      41.759  28.337  28.674  1.00  0.00     0.010 A 
ATOM     11  C   UNL A   1      40.014  26.858  29.446  1.00  0.00     0.010 A 
ATOM     12  C   UNL A   1      40.767  28.031  29.597  1.00  0.00    -0.014 A 
BRANCH  12  13
ATOM     13  C   UNL A   1      40.666  28.858  30.811  1.00  0.00     0.031 A 
ATOM     14  C   UNL A   1      39.561  29.871  30.872  1.00  0.00     0.074 A 
ATOM     15  C   UNL A   1      41.468  28.625  31.864  1.00  0.00     0.049 A 
ATOM     16  N   UNL A   1      39.342  30.806  31.753  1.00  0.00    -0.248 NA
ATOM     17  C   UNL A   1      38.568  29.824  29.783  1.00  0.00     0.031 C 
ATOM     18  C   UNL A   1      42.485  27.571  31.938  1.00  0.00     0.029 A 
ATOM     19  N   UNL A   1      41.542  29.245  33.081  1.00  0.00    -0.354 N 
ATOM     20  C   UNL A   1      38.235  31.505  31.287  1.00  0.00     0.074 A 
ATOM     21  C   UNL A   1      37.814  30.875  30.057  1.00  0.00     0.031 C 
ATOM     22  C   UNL A   1      43.064  27.605  33.150  1.00  0.00     0.029 A 
ATOM     23  C   UNL A   1      42.514  28.728  33.904  1.00  0.00     0.049 A 
ATOM     24  H   UNL A   1      40.954  29.989  33.343  1.00  0.00     0.167 HD
ATOM     25  C   UNL A   1      37.641  32.588  31.837  1.00  0.00     0.037 A 
ATOM     26  C   UNL A   1      42.930  29.151  35.112  1.00  0.00     0.037 A 
ATOM     27  C   UNL A   1      38.067  33.159  33.085  1.00  0.00     0.049 A 
ATOM     28  C   UNL A   1      42.274  30.375  35.694  1.00  0.00     0.074 A 
ATOM     29  C   UNL A   1      37.588  34.281  33.736  1.00  0.00     0.029 A 
ATOM     30  N   UNL A   1      39.074  32.630  33.882  1.00  0.00    -0.354 N 
ATOM     31  N   UNL A   1      41.296  31.100  35.200  1.00  0.00    -0.248 NA
ATOM     32  C   UNL A   1      42.788  30.853  36.982  1.00  0.00     0.031 C 
ATOM     33  C   UNL A   1      38.324  34.442  34.916  1.00  0.00     0.029 A 
ATOM     34  C   UNL A   1      39.232  33.396  35.021  1.00  0.00     0.049 A 
ATOM     35  H   UNL A   1      39.599  31.825  33.667  1.00  0.00     0.167 HD
ATOM     36  C   UNL A   1      41.061  32.106  36.127  1.00  0.00     0.074 A 
ATOM     37  C   UNL A   1      41.994  31.890  37.216  1.00  0.00     0.031 C 
ATOM     38  C   UNL A   1      40.163  33.123  36.087  1.00  0.00     0.037 A 
BRANCH  25  39
ATOM     39  C   UNL A   1      36.543  33.242  31.049  1.00  0.00     0.058 A 
ATOM     40  C   UNL A   1      36.799  34.054  29.932  1.00  0.00     0.135 A 
ATOM     41  C   UNL A   1      35.207  33.097  31.459  1.00  0.00     0.135 A 
ATOM     42  F   UNL A   1      38.060  34.256  29.519  1.00  0.00    -0.206 F 
ATOM     43  C   UNL A   1      35.775  34.732  29.275  1.00  0.00     0.059 A 
ATOM     44  C   UNL A   1      34.165  33.744  30.801  1.00  0.00     0.059 A 
ATOM     45  F   UNL A   1      34.906  32.343  32.527  1.00  0.00    -0.206 F 
ATOM     46  C   UNL A   1      34.462  34.576  29.724  1.00  0.00     0.060 A 
BRANCH  46  47
ATOM     47  S   UNL A   1      33.146  35.491  28.892  1.00  0.00     0.124 S 
ATOM     48  O   UNL A   1      32.426  36.061  30.026  1.00  0.00    -0.237 OA
ATOM     49  O   UNL A   1      33.893  36.442  28.075  1.00  0.00    -0.237 OA
ATOM     50  O   UNL A   1      32.432  34.458  28.149  1.00  0.00    -0.744 OA
ENDBRANCH  46  47
ENDBRANCH  25  39
BRANCH  26  51
ATOM     51  C   UNL A   1      44.027  28.440  35.823  1.00  0.00     0.058 A 
ATOM     52  C   UNL A   1      43.753  27.389  36.710  1.00  0.00     0.135 A 
ATOM     53  C   UNL A   1      45.374  28.787  35.625  1.00  0.00     0.135 A 
ATOM     54  F   UNL A   1      42.482  27.022  36.940  1.00  0.00    -0.206 F 
ATOM     55  C   UNL A   1      44.768  26.716  37.384  1.00  0.00     0.059 A 
ATOM     56  C   UNL A   1      46.408  28.112  36.266  1.00  0.00     0.059 A 
ATOM     57  F   UNL A   1      45.695  29.778  34.779  1.00  0.00    -0.206 F 
ATOM     58  C   UNL A   1      46.094  27.084  37.153  1.00  0.00     0.060 A 
BRANCH  58  59
ATOM     59  S   UNL A   1      47.407  26.176  38.001  1.00  0.00     0.124 S 
ATOM     60  O   UNL A   1      48.444  26.136  36.976  1.00  0.00    -0.237 OA
ATOM     61  O   UNL A   1      47.679  27.032  39.151  1.00  0.00    -0.237 OA
ATOM     62  O   UNL A   1      46.780  24.895  38.315  1.00  0.00    -0.744 OA
ENDBRANCH  58  59
ENDBRANCH  26  51
BRANCH  38  63
ATOM     63  C   UNL A   1      40.114  34.031  37.281  1.00  0.00     0.058 A 
ATOM     64  C   UNL A   1      40.933  35.165  37.378  1.00  0.00     0.135 A 
ATOM     65  C   UNL A   1      39.196  33.783  38.312  1.00  0.00     0.135 A 
ATOM     66  F   UNL A   1      41.828  35.438  36.415  1.00  0.00    -0.206 F 
ATOM     67  C   UNL A   1      40.858  36.015  38.475  1.00  0.00     0.059 A 
ATOM     68  C   UNL A   1      39.088  34.632  39.406  1.00  0.00     0.059 A 
ATOM     69  F   UNL A   1      38.385  32.715  38.255  1.00  0.00    -0.206 F 
ATOM     70  C   UNL A   1      39.933  35.739  39.485  1.00  0.00     0.060 A 
BRANCH  70  71
ATOM     71  S   UNL A   1      39.821  36.864  40.891  1.00  0.00     0.124 S 
ATOM     72  O   UNL A   1      39.720  35.929  42.006  1.00  0.00    -0.237 OA
ATOM     73  O   UNL A   1      41.073  37.609  40.798  1.00  0.00    -0.237 OA
ATOM     74  O   UNL A   1      38.617  37.639  40.607  1.00  0.00    -0.744 OA
ENDBRANCH  70  71
ENDBRANCH  38  63
ENDBRANCH  12  13
ENDBRANCH   5   7
ENDBRANCH   4   5
ENDBRANCH   3   4
ENDBRANCH   2   3
ENDBRANCH   1   2
BRANCH   1  75
ATOM     75  C   UNL A   1      38.385  21.741  25.776  1.00  0.00     0.202 C 
BRANCH  75  76
ATOM     76  C   UNL A   1      37.665  20.713  24.928  1.00  0.00     0.261 C 
BRANCH  76  77
ATOM     77  O   UNL A   1      36.286  20.758  25.320  1.00  0.00    -0.460 OA
BRANCH  77  78
ATOM     78  C   UNL A   1      35.562  21.672  24.670  1.00  0.00     0.340 C 
ATOM     79  O   UNL A   1      35.885  22.293  23.659  1.00  0.00    -0.246 OA
BRANCH  78  80
ATOM     80  C   UNL A   1      34.403  22.022  25.468  1.00  0.00     0.091 A 
ATOM     81  C   UNL A   1      34.725  22.307  26.810  1.00  0.00     0.020 A 
ATOM     82  C   UNL A   1      33.072  22.047  25.072  1.00  0.00     0.142 A 
ATOM     83  C   UNL A   1      33.725  22.566  27.734  1.00  0.00     0.021 A 
ATOM     84  N   UNL A   1      32.095  22.359  25.991  1.00  0.00    -0.250 NA
ATOM     85  C   UNL A   1      32.427  22.582  27.278  1.00  0.00     0.112 A 
BRANCH  82  86
ATOM     86  C   UNL A   1      32.421  21.537  23.823  1.00  0.00     0.275 C 
ATOM     87  O   UNL A   1      31.896  22.407  23.104  1.00  0.00    -0.267 OA
ATOM     88  N   UNL A   1      32.307  20.276  23.299  1.00  0.00    -0.321 N 
ATOM     89  H   UNL A   1      31.958  20.321  22.378  1.00  0.00     0.170 HD
BRANCH  88  90
ATOM     90  C   UNL A   1      32.530  18.950  23.663  1.00  0.00     0.042 A 
ATOM     91  C   UNL A   1      32.459  18.685  25.046  1.00  0.00     0.033 A 
ATOM     92  C   UNL A   1      32.906  17.932  22.806  1.00  0.00     0.033 A 
ATOM     93  C   UNL A   1      32.962  17.499  25.581  1.00  0.00     0.088 A 
ATOM     94  C   UNL A   1      33.455  16.753  23.328  1.00  0.00     0.088 A 
ATOM     95  C   UNL A   1      33.529  16.568  24.714  1.00  0.00     0.269 A 
BRANCH  95  96
ATOM     96  N   UNL A   1      34.274  15.434  25.260  1.00  0.00     0.062 N 
ATOM     97  O   UNL A   1      33.657  14.379  25.457  1.00  0.00    -0.258 OA
ATOM     98  O   UNL A   1      35.470  15.618  25.532  1.00  0.00    -0.258 OA
ENDBRANCH  95  96
ENDBRANCH  88  90
ENDBRANCH  82  86
ENDBRANCH  78  80
ENDBRANCH  77  78
ENDBRANCH  76  77
ENDBRANCH  75  76
ENDBRANCH   1  75
TORSDOF 20
ENDMDL
MODEL 2
REMARK VINA RESULT:     -11.3      4.695      9.443
REMARK SMILES O=C(OCCOCCOC(=O)c1cccnc1C(=O)Nc1ccc([N+](=O)[O-])cc1)c1ccc(-c2c3nc(c(-c4c(F)cc(S(=O)(=O)[O-])cc4F)c4ccc([nH]4)c(-c4c(F)cc(S(=O)(=O)[O-])cc4F)c4nc(c(-c5c(F)cc(S(=O)(=O)[O-])cc5F)c5ccc2[nH]5)C=C4)C=C3)cc1
REMARK SMILES IDX 6 1 5 2 4 3 3 4 2 5 1 6 30 7 31 8 95 9 32 10 94 11 33 12
REMARK SMILES IDX 34 13 35 14 88 15 36 16 93 17 87 18 89 19 37 20 92 21 86 22
REMARK SMILES IDX 85 23 38 25 72 26 51 27 71 28 52 29 55 30 70 31 90 32 53 33
REMARK SMILES IDX 54 34 69 36 91 37 56 38 39 39 40 40 49 41 41 42 42 43 48 44
REMARK SMILES IDX 50 45 43 46 44 47 45 48 46 49 47 50 73 51 74 52 83 53 75 54
REMARK SMILES IDX 76 55 82 56 84 57 77 58 78 59 79 60 80 61 81 62 57 63 58 64
REMARK SMILES IDX 67 65 59 66 60 67 66 68 68 69 61 70 62 71 63 72 64 73 65 74
REMARK SMILES IDX 7 75 8 76 9 77 10 78 11 79 12 80 13 81 17 82 14 83 16 84
REMARK SMILES IDX 15 85 18 86 19 87 20 88 21 90 22 91 29 92 23 93 28 94 24 95
REMARK SMILES IDX 25 96 26 97 27 98
REMARK H PARENT 89 24 55 35 20 89
REMARK Flexibility Score: inf
ROOT
ATOM      1  O   UNL A   1      31.467  28.276  25.874  1.00  0.00    -0.374 OA
ENDROOT
BRANCH   1   2
ATOM      2  C   UNL A   1      32.695  28.917  25.504  1.00  0.00     0.202 C 
BRANCH   2   3
ATOM      3  C   UNL A   1      33.696  29.022  26.659  1.00  0.00     0.261 C 
BRANCH   3   4
ATOM      4  O   UNL A   1      33.717  30.347  27.220  1.00  0.00    -0.460 OA
BRANCH   4   5
ATOM      5  C   UNL A   1      34.615  30.825  28.120  1.00  0.00     0.338 C 
ATOM      6  O   UNL A   1      34.302  31.767  28.844  1.00  0.00    -0.246 OA
BRANCH   5   7
ATOM      7  C   UNL A   1      35.942  30.182  28.328  1.00  0.00     0.060 A 
ATOM      8  C   UNL A   1      36.319  29.506  29.491  1.00  0.00     0.016 A 
ATOM      9  C   UNL A   1      36.843  30.220  27.257  1.00  0.00     0.016 A 
ATOM     10  C   UNL A   1      37.599  29.001  29.651  1.00  0.00     0.010 A 
ATOM     11  C   UNL A   1      38.118  29.666  27.388  1.00  0.00     0.010 A 
ATOM     12  C   UNL A   1      38.513  29.099  28.608  1.00  0.00    -0.014 A 
BRANCH  12  13
ATOM     13  C   UNL A   1      39.923  28.775  28.885  1.00  0.00     0.031 A 
ATOM     14  C   UNL A   1      40.729  29.782  29.651  1.00  0.00     0.074 A 
ATOM     15  C   UNL A   1      40.423  27.572  28.557  1.00  0.00     0.049 A 
ATOM     16  N   UNL A   1      42.009  29.803  29.898  1.00  0.00    -0.248 NA
ATOM     17  C   UNL A   1      39.987  30.926  30.212  1.00  0.00     0.031 C 
ATOM     18  C   UNL A   1      39.670  26.484  27.925  1.00  0.00     0.029 A 
ATOM     19  N   UNL A   1      41.677  27.053  28.728  1.00  0.00    -0.354 N 
ATOM     20  C   UNL A   1      42.238  30.995  30.575  1.00  0.00     0.074 A 
ATOM     21  C   UNL A   1      40.963  31.661  30.719  1.00  0.00     0.031 C 
ATOM     22  C   UNL A   1      40.475  25.418  27.784  1.00  0.00     0.029 A 
ATOM     23  C   UNL A   1      41.814  25.775  28.243  1.00  0.00     0.049 A 
ATOM     24  H   UNL A   1      42.411  27.549  29.158  1.00  0.00     0.167 HD
ATOM     25  C   UNL A   1      43.416  31.489  31.018  1.00  0.00     0.037 A 
ATOM     26  C   UNL A   1      42.915  25.005  28.149  1.00  0.00     0.037 A 
ATOM     27  C   UNL A   1      44.656  30.774  30.891  1.00  0.00     0.049 A 
ATOM     28  C   UNL A   1      44.222  25.585  28.624  1.00  0.00     0.074 A 
ATOM     29  C   UNL A   1      45.929  31.173  31.252  1.00  0.00     0.029 A 
ATOM     30  N   UNL A   1      44.767  29.492  30.369  1.00  0.00    -0.354 N 
ATOM     31  N   UNL A   1      44.454  26.758  29.168  1.00  0.00    -0.248 NA
ATOM     32  C   UNL A   1      45.417  24.752  28.453  1.00  0.00     0.031 C 
ATOM     33  C   UNL A   1      46.814  30.138  30.925  1.00  0.00     0.029 A 
ATOM     34  C   UNL A   1      46.085  29.079  30.401  1.00  0.00     0.049 A 
ATOM     35  H   UNL A   1      44.016  28.955  30.028  1.00  0.00     0.167 HD
ATOM     36  C   UNL A   1      45.818  26.796  29.426  1.00  0.00     0.074 A 
ATOM     37  C   UNL A   1      46.356  25.523  28.987  1.00  0.00     0.031 C 
ATOM     38  C   UNL A   1      46.566  27.789  29.971  1.00  0.00     0.037 A 
BRANCH  25  39
ATOM     39  C   UNL A   1      43.405  32.876  31.593  1.00  0.00     0.058 A 
ATOM     40  C   UNL A   1      43.643  34.017  30.811  1.00  0.00     0.135 A 
ATOM     41  C   UNL A   1      43.208  33.059  32.972  1.00  0.00     0.135 A 
ATOM     42  F   UNL A   1      43.873  33.896  29.494  1.00  0.00    -0.206 F 
ATOM     43  C   UNL A   1      43.727  35.285  31.381  1.00  0.00     0.059 A 
ATOM     44  C   UNL A   1      43.261  34.320  33.559  1.00  0.00     0.059 A 
ATOM     45  F   UNL A   1      42.988  32.002  33.769  1.00  0.00    -0.206 F 
ATOM     46  C   UNL A   1      43.544  35.424  32.758  1.00  0.00     0.060 A 
BRANCH  46  47
ATOM     47  S   UNL A   1      43.696  37.066  33.493  1.00  0.00     0.124 S 
ATOM     48  O   UNL A   1      43.885  37.898  32.309  1.00  0.00    -0.237 OA
ATOM     49  O   UNL A   1      42.418  37.223  34.178  1.00  0.00    -0.237 OA
ATOM     50  O   UNL A   1      44.859  36.940  34.365  1.00  0.00    -0.744 OA
ENDBRANCH  46  47
ENDBRANCH  25  39
BRANCH  26  51
ATOM     51  C   UNL A   1      42.833  23.639  27.565  1.00  0.00     0.058 A 
ATOM     52  C   UNL A   1      43.183  23.403  26.227  1.00  0.00     0.135 A 
ATOM     53  C   UNL A   1      42.416  22.538  28.331  1.00  0.00     0.135 A 
ATOM     54  F   UNL A   1      43.583  24.422  25.449  1.00  0.00    -0.206 F 
ATOM     55  C   UNL A   1      43.110  22.131  25.666  1.00  0.00     0.059 A 
ATOM     56  C   UNL A   1      42.361  21.253  27.800  1.00  0.00     0.059 A 
ATOM     57  F   UNL A   1      42.079  22.706  29.619  1.00  0.00    -0.206 F 
ATOM     58  C   UNL A   1      42.700  21.061  26.462  1.00  0.00     0.060 A 
BRANCH  58  59
ATOM     59  S   UNL A   1      42.650  19.408  25.735  1.00  0.00     0.124 S 
ATOM     60  O   UNL A   1      41.234  19.272  25.414  1.00  0.00    -0.237 OA
ATOM     61  O   UNL A   1      43.552  19.545  24.597  1.00  0.00    -0.237 OA
ATOM     62  O   UNL A   1      43.138  18.553  26.814  1.00  0.00    -0.744 OA
ENDBRANCH  58  59
ENDBRANCH  26  51
BRANCH  38  63
ATOM     63  C   UNL A   1      48.025  27.505  30.172  1.00  0.00     0.058 A 
ATOM     64  C   UNL A   1      48.973  27.781  29.176  1.00  0.00     0.135 A 
ATOM     65  C   UNL A   1      48.477  26.999  31.399  1.00  0.00     0.135 A 
ATOM     66  F   UNL A   1      48.584  28.263  27.986  1.00  0.00    -0.206 F 
ATOM     67  C   UNL A   1      50.327  27.541  29.385  1.00  0.00     0.059 A 
ATOM     68  C   UNL A   1      49.827  26.774  31.638  1.00  0.00     0.059 A 
ATOM     69  F   UNL A   1      47.606  26.732  32.384  1.00  0.00    -0.206 F 
ATOM     70  C   UNL A   1      50.743  27.037  30.619  1.00  0.00     0.060 A 
BRANCH  70  71
ATOM     71  S   UNL A   1      52.504  26.757  30.892  1.00  0.00     0.124 S 
ATOM     72  O   UNL A   1      52.794  27.725  31.943  1.00  0.00    -0.237 OA
ATOM     73  O   UNL A   1      52.543  25.354  31.293  1.00  0.00    -0.237 OA
ATOM     74  O   UNL A   1      53.097  27.046  29.589  1.00  0.00    -0.744 OA
ENDBRANCH  70  71
ENDBRANCH  38  63
ENDBRANCH  12  13
ENDBRANCH   5   7
ENDBRANCH   4   5
ENDBRANCH   3   4
ENDBRANCH   2   3
ENDBRANCH   1   2
BRANCH   1  75
ATOM     75  C   UNL A   1      31.639  27.065  26.619  1.00  0.00     0.202 C 
BRANCH  75  76
ATOM     76  C   UNL A   1      31.398  25.897  25.684  1.00  0.00     0.261 C 
BRANCH  76  77
ATOM     77  O   UNL A   1      32.614  25.136  25.664  1.00  0.00    -0.460 OA
BRANCH  77  78
ATOM     78  C   UNL A   1      32.512  23.930  26.227  1.00  0.00     0.340 C 
ATOM     79  O   UNL A   1      31.718  23.581  27.098  1.00  0.00    -0.246 OA
BRANCH  78  80
ATOM     80  C   UNL A   1      33.650  23.121  25.834  1.00  0.00     0.091 A 
ATOM     81  C   UNL A   1      34.849  23.518  26.458  1.00  0.00     0.020 A 
ATOM     82  C   UNL A   1      33.680  22.084  24.910  1.00  0.00     0.142 A 
ATOM     83  C   UNL A   1      36.051  22.915  26.123  1.00  0.00     0.021 A 
ATOM     84  N   UNL A   1      34.874  21.459  24.628  1.00  0.00    -0.250 NA
ATOM     85  C   UNL A   1      36.013  21.891  25.205  1.00  0.00     0.112 A 
BRANCH  82  86
ATOM     86  C   UNL A   1      32.651  21.639  23.917  1.00  0.00     0.275 C 
ATOM     87  O   UNL A   1      32.023  22.555  23.354  1.00  0.00    -0.267 OA
ATOM     88  N   UNL A   1      32.272  20.395  23.485  1.00  0.00    -0.321 N 
ATOM     89  H   UNL A   1      31.678  20.472  22.703  1.00  0.00     0.170 HD
BRANCH  88  90
ATOM     90  C   UNL A   1      32.467  19.054  23.809  1.00  0.00     0.042 A 
ATOM     91  C   UNL A   1      32.452  18.759  25.187  1.00  0.00     0.033 A 
ATOM     92  C   UNL A   1      32.766  18.045  22.913  1.00  0.00     0.033 A 
ATOM     93  C   UNL A   1      32.938  17.544  25.671  1.00  0.00     0.088 A 
ATOM     94  C   UNL A   1      33.298  16.836  23.381  1.00  0.00     0.088 A 
ATOM     95  C   UNL A   1      33.431  16.615  24.757  1.00  0.00     0.269 A 
BRANCH  95  96
ATOM     96  N   UNL A   1      34.161  15.444  25.242  1.00  0.00     0.062 N 
ATOM     97  O   UNL A   1      35.390  15.538  25.356  1.00  0.00    -0.258 OA
ATOM     98  O   UNL A   1      33.504  14.416  25.464  1.00  0.00    -0.258 OA
ENDBRANCH  95  96
ENDBRANCH  88  90
ENDBRANCH  82  86
ENDBRANCH  78  80
ENDBRANCH  77  78
ENDBRANCH  76  77
ENDBRANCH  75  76
ENDBRANCH   1  75
TORSDOF 20
ENDMDL
MODEL 3
REMARK VINA RESULT:     -11.1      5.396      9.961
REMARK SMILES O=C(OCCOCCOC(=O)c1cccnc1C(=O)Nc1ccc([N+](=O)[O-])cc1)c1ccc(-c2c3nc(c(-c4c(F)cc(S(=O)(=O)[O-])cc4F)c4ccc([nH]4)c(-c4c(F)cc(S(=O)(=O)[O-])cc4F)c4nc(c(-c5c(F)cc(S(=O)(=O)[O-])cc5F)c5ccc2[nH]5)C=C4)C=C3)cc1
REMARK SMILES IDX 6 1 5 2 4 3 3 4 2 5 1 6 30 7 31 8 95 9 32 10 94 11 33 12
REMARK SMILES IDX 34 13 35 14 88 15 36 16 93 17 87 18 89 19 37 20 92 21 86 22
REMARK SMILES IDX 85 23 38 25 72 26 51 27 71 28 52 29 55 30 70 31 90 32 53 33
REMARK SMILES IDX 54 34 69 36 91 37 56 38 39 39 40 40 49 41 41 42 42 43 48 44
REMARK SMILES IDX 50 45 43 46 44 47 45 48 46 49 47 50 73 51 74 52 83 53 75 54
REMARK SMILES IDX 76 55 82 56 84 57 77 58 78 59 79 60 80 61 81 62 57 63 58 64
REMARK SMILES IDX 67 65 59 66 60 67 66 68 68 69 61 70 62 71 63 72 64 73 65 74
REMARK SMILES IDX 7 75 8 76 9 77 10 78 11 79 12 80 13 81 17 82 14 83 16 84
REMARK SMILES IDX 15 85 18 86 19 87 20 88 21 90 22 91 29 92 23 93 28 94 24 95
REMARK SMILES IDX 25 96 26 97 27 98
REMARK H PARENT 89 24 55 35 20 89
REMARK Flexibility Score: inf
ROOT
ATOM      1  O   UNL A   1      33.722  27.543  25.647  1.00  0.00    -0.374 OA
ENDROOT
BRANCH   1   2
ATOM      2  C   UNL A   1      33.392  28.209  26.871  1.00  0.00     0.202 C 
BRANCH   2   3
ATOM      3  C   UNL A   1      33.628  29.722  26.822  1.00  0.00     0.261 C 
BRANCH   3   4
ATOM      4  O   UNL A   1      33.781  30.275  28.141  1.00  0.00    -0.460 OA
BRANCH   4   5
ATOM      5  C   UNL A   1      34.877  30.921  28.620  1.00  0.00     0.338 C 
ATOM      6  O   UNL A   1      34.752  32.039  29.113  1.00  0.00    -0.246 OA
BRANCH   5   7
ATOM      7  C   UNL A   1      36.219  30.276  28.656  1.00  0.00     0.060 A 
ATOM      8  C   UNL A   1      36.808  29.740  29.804  1.00  0.00     0.016 A 
ATOM      9  C   UNL A   1      36.902  30.159  27.439  1.00  0.00     0.016 A 
ATOM     10  C   UNL A   1      38.095  29.228  29.785  1.00  0.00     0.010 A 
ATOM     11  C   UNL A   1      38.179  29.596  27.400  1.00  0.00     0.010 A 
ATOM     12  C   UNL A   1      38.796  29.175  28.586  1.00  0.00    -0.014 A 
BRANCH  12  13
ATOM     13  C   UNL A   1      40.233  28.853  28.633  1.00  0.00     0.031 A 
ATOM     14  C   UNL A   1      41.164  29.910  29.150  1.00  0.00     0.074 A 
ATOM     15  C   UNL A   1      40.665  27.617  28.329  1.00  0.00     0.049 A 
ATOM     16  N   UNL A   1      42.467  29.932  29.161  1.00  0.00    -0.248 NA
ATOM     17  C   UNL A   1      40.535  31.110  29.731  1.00  0.00     0.031 C 
ATOM     18  C   UNL A   1      39.811  26.491  27.941  1.00  0.00     0.029 A 
ATOM     19  N   UNL A   1      41.930  27.096  28.318  1.00  0.00    -0.354 N 
ATOM     20  C   UNL A   1      42.814  31.174  29.678  1.00  0.00     0.074 A 
ATOM     21  C   UNL A   1      41.586  31.870  29.987  1.00  0.00     0.031 C 
ATOM     22  C   UNL A   1      40.577  25.404  27.754  1.00  0.00     0.029 A 
ATOM     23  C   UNL A   1      41.977  25.777  27.932  1.00  0.00     0.049 A 
ATOM     24  H   UNL A   1      42.729  27.615  28.564  1.00  0.00     0.167 HD
ATOM     25  C   UNL A   1      44.053  31.685  29.857  1.00  0.00     0.037 A 
ATOM     26  C   UNL A   1      43.043  24.985  27.712  1.00  0.00     0.037 A 
ATOM     27  C   UNL A   1      45.250  30.943  29.574  1.00  0.00     0.049 A 
ATOM     28  C   UNL A   1      44.414  25.583  27.891  1.00  0.00     0.074 A 
ATOM     29  C   UNL A   1      46.567  31.350  29.664  1.00  0.00     0.029 A 
ATOM     30  N   UNL A   1      45.265  29.618  29.156  1.00  0.00    -0.354 N 
ATOM     31  N   UNL A   1      44.740  26.795  28.278  1.00  0.00    -0.248 NA
ATOM     32  C   UNL A   1      45.559  24.718  27.583  1.00  0.00     0.031 C 
ATOM     33  C   UNL A   1      47.379  30.276  29.277  1.00  0.00     0.029 A 
ATOM     34  C   UNL A   1      46.567  29.188  28.988  1.00  0.00     0.049 A 
ATOM     35  H   UNL A   1      44.465  29.065  29.004  1.00  0.00     0.167 HD
ATOM     36  C   UNL A   1      46.128  26.833  28.284  1.00  0.00     0.074 A 
ATOM     37  C   UNL A   1      46.578  25.518  27.870  1.00  0.00     0.031 C 
ATOM     38  C   UNL A   1      46.962  27.857  28.595  1.00  0.00     0.037 A 
BRANCH  25  39
ATOM     39  C   UNL A   1      44.146  33.117  30.299  1.00  0.00     0.058 A 
ATOM     40  C   UNL A   1      44.070  33.494  31.650  1.00  0.00     0.135 A 
ATOM     41  C   UNL A   1      44.258  34.138  29.341  1.00  0.00     0.135 A 
ATOM     42  F   UNL A   1      43.926  32.561  32.604  1.00  0.00    -0.206 F 
ATOM     43  C   UNL A   1      44.058  34.833  32.031  1.00  0.00     0.059 A 
ATOM     44  C   UNL A   1      44.275  35.483  29.702  1.00  0.00     0.059 A 
ATOM     45  F   UNL A   1      44.323  33.836  28.036  1.00  0.00    -0.206 F 
ATOM     46  C   UNL A   1      44.152  35.821  31.048  1.00  0.00     0.060 A 
BRANCH  46  47
ATOM     47  S   UNL A   1      44.095  37.554  31.550  1.00  0.00     0.124 S 
ATOM     48  O   UNL A   1      43.430  38.166  30.404  1.00  0.00    -0.237 OA
ATOM     49  O   UNL A   1      43.313  37.499  32.780  1.00  0.00    -0.237 OA
ATOM     50  O   UNL A   1      45.501  37.904  31.721  1.00  0.00    -0.744 OA
ENDBRANCH  46  47
ENDBRANCH  25  39
BRANCH  26  51
ATOM     51  C   UNL A   1      42.857  23.575  27.274  1.00  0.00     0.058 A 
ATOM     52  C   UNL A   1      42.568  22.562  28.201  1.00  0.00     0.135 A 
ATOM     53  C   UNL A   1      42.952  23.209  25.921  1.00  0.00     0.135 A 
ATOM     54  F   UNL A   1      42.473  22.857  29.507  1.00  0.00    -0.206 F 
ATOM     55  C   UNL A   1      42.394  21.239  27.807  1.00  0.00     0.059 A 
ATOM     56  C   UNL A   1      42.755  21.898  25.500  1.00  0.00     0.059 A 
ATOM     57  F   UNL A   1      43.216  24.139  24.991  1.00  0.00    -0.206 F 
ATOM     58  C   UNL A   1      42.487  20.917  26.452  1.00  0.00     0.060 A 
BRANCH  58  59
ATOM     59  S   UNL A   1      42.216  19.203  25.947  1.00  0.00     0.124 S 
ATOM     60  O   UNL A   1      40.771  19.179  25.754  1.00  0.00    -0.237 OA
ATOM     61  O   UNL A   1      43.024  19.109  24.735  1.00  0.00    -0.237 OA
ATOM     62  O   UNL A   1      42.714  18.435  27.085  1.00  0.00    -0.744 OA
ENDBRANCH  58  59
ENDBRANCH  26  51
BRANCH  38  63
ATOM     63  C   UNL A   1      48.434  27.569  28.556  1.00  0.00     0.058 A 
ATOM     64  C   UNL A   1      49.134  27.153  29.697  1.00  0.00     0.135 A 
ATOM     65  C   UNL A   1      49.133  27.661  27.343  1.00  0.00     0.135 A 
ATOM     66  F   UNL A   1      48.505  27.055  30.879  1.00  0.00    -0.206 F 
ATOM     67  C   UNL A   1      50.492  26.860  29.642  1.00  0.00     0.059 A 
ATOM     68  C   UNL A   1      50.484  27.349  27.260  1.00  0.00     0.059 A 
ATOM     69  F   UNL A   1      48.500  28.042  26.223  1.00  0.00    -0.206 F 
ATOM     70  C   UNL A   1      51.158  26.962  28.418  1.00  0.00     0.060 A 
BRANCH  70  71
ATOM     71  S   UNL A   1      52.913  26.550  28.349  1.00  0.00     0.124 S 
ATOM     72  O   UNL A   1      52.951  25.621  27.226  1.00  0.00    -0.237 OA
ATOM     73  O   UNL A   1      53.533  27.851  28.119  1.00  0.00    -0.237 OA
ATOM     74  O   UNL A   1      53.173  25.963  29.661  1.00  0.00    -0.744 OA
ENDBRANCH  70  71
ENDBRANCH  38  63
ENDBRANCH  12  13
ENDBRANCH   5   7
ENDBRANCH   4   5
ENDBRANCH   3   4
ENDBRANCH   2   3
ENDBRANCH   1   2
BRANCH   1  75
ATOM     75  C   UNL A   1      32.647  27.481  24.703  1.00  0.00     0.202 C 
BRANCH  75  76
ATOM     76  C   UNL A   1      32.660  26.110  24.060  1.00  0.00     0.261 C 
BRANCH  76  77
ATOM     77  O   UNL A   1      34.028  25.682  24.042  1.00  0.00    -0.460 OA
BRANCH  77  78
ATOM     78  C   UNL A   1      34.229  24.517  23.421  1.00  0.00     0.340 C 
ATOM     79  O   UNL A   1      33.754  24.159  22.345  1.00  0.00    -0.246 OA
BRANCH  78  80
ATOM     80  C   UNL A   1      34.913  23.607  24.319  1.00  0.00     0.091 A 
ATOM     81  C   UNL A   1      36.301  23.547  24.088  1.00  0.00     0.020 A 
ATOM     82  C   UNL A   1      34.353  22.791  25.294  1.00  0.00     0.142 A 
ATOM     83  C   UNL A   1      37.094  22.655  24.792  1.00  0.00     0.021 A 
ATOM     84  N   UNL A   1      35.164  21.950  26.023  1.00  0.00    -0.250 NA
ATOM     85  C   UNL A   1      36.481  21.879  25.749  1.00  0.00     0.112 A 
BRANCH  82  86
ATOM     86  C   UNL A   1      32.922  22.447  25.568  1.00  0.00     0.275 C 
ATOM     87  O   UNL A   1      32.265  23.329  26.154  1.00  0.00    -0.267 OA
ATOM     88  N   UNL A   1      32.174  21.337  25.275  1.00  0.00    -0.321 N 
ATOM     89  H   UNL A   1      31.221  21.511  25.455  1.00  0.00     0.170 HD
BRANCH  88  90
ATOM     90  C   UNL A   1      32.343  20.038  24.802  1.00  0.00     0.042 A 
ATOM     91  C   UNL A   1      32.603  19.066  25.789  1.00  0.00     0.033 A 
ATOM     92  C   UNL A   1      32.376  19.664  23.471  1.00  0.00     0.033 A 
ATOM     93  C   UNL A   1      33.099  17.807  25.451  1.00  0.00     0.088 A 
ATOM     94  C   UNL A   1      32.913  18.420  23.113  1.00  0.00     0.088 A 
ATOM     95  C   UNL A   1      33.322  17.521  24.106  1.00  0.00     0.269 A 
BRANCH  95  96
ATOM     96  N   UNL A   1      34.059  16.312  23.737  1.00  0.00     0.062 N 
ATOM     97  O   UNL A   1      34.345  15.514  24.639  1.00  0.00    -0.258 OA
ATOM     98  O   UNL A   1      34.389  16.188  22.548  1.00  0.00    -0.258 OA
ENDBRANCH  95  96
ENDBRANCH  88  90
ENDBRANCH  82  86
ENDBRANCH  78  80
ENDBRANCH  77  78
ENDBRANCH  76  77
ENDBRANCH  75  76
ENDBRANCH   1  75
TORSDOF 20
ENDMDL
