MODEL 1
REMARK VINA RESULT:     -11.0      0.000      0.000
REMARK SMILES COc1ccc(CCc2nnc(NC(=O)[C@@H]3[C@@H](C(=O)OCCOCCOC(=O)c4ccc(-c5c6nc(c(-c7c(F)cc(S(=O)(=O)[O-])cc7F)c7ccc([nH]7)c(-c7c(F)cc(S(=O)(=O)[O-])cc7F)c7nc(c(-c8c(F)cc(S(=O)(=O)[O-])cc8F)c8ccc5[nH]8)C=C7)C=C6)cc4)C3(C)C)s2)cc1
REMARK SMILES IDX 21 1 20 2 18 3 19 4 17 5 16 6 95 7 96 8 97 9 14 10 13 11
REMARK SMILES IDX 15 13 12 14 9 15 10 16 98 17 11 18 8 19 7 20 6 21 3 22 4 23
REMARK SMILES IDX 100 24 5 25 99 26 2 27 1 28 22 29 23 30 24 31 25 32 26 33
REMARK SMILES IDX 27 34 28 35 29 36 30 37 94 38 31 39 93 40 32 41 33 42 34 43
REMARK SMILES IDX 87 44 35 45 92 46 86 47 88 48 36 49 91 50 85 51 84 52 37 54
REMARK SMILES IDX 71 55 50 56 70 57 51 58 54 59 69 60 89 61 52 62 53 63 68 65
REMARK SMILES IDX 90 66 55 67 38 68 39 69 48 70 40 71 41 72 47 73 49 74 42 75
REMARK SMILES IDX 43 76 44 77 45 78 46 79 72 80 73 81 82 82 74 83 75 84 81 85
REMARK SMILES IDX 83 86 76 87 77 88 78 89 79 90 80 91 56 92 57 93 66 94 58 95
REMARK SMILES IDX 59 96 65 97 67 98 60 99 61 100 62 101 63 102 64 103
REMARK H PARENT 13 12 88 53 54 64
REMARK Flexibility Score: inf
ROOT
ATOM      1  C   UNL A   1      34.070  30.886  27.322  1.00  0.00     0.261 C 
ENDROOT
BRANCH   1   2
ATOM      2  O   UNL A   1      32.655  30.894  27.092  1.00  0.00    -0.463 OA
BRANCH   2   3
ATOM      3  C   UNL A   1      32.129  29.683  26.803  1.00  0.00     0.310 C 
ATOM      4  O   UNL A   1      31.432  28.998  27.542  1.00  0.00    -0.252 OA
BRANCH   3   5
ATOM      5  C   UNL A   1      32.352  29.226  25.415  1.00  0.00     0.118 C 
ATOM      6  C   UNL A   1      32.010  27.752  25.152  1.00  0.00     0.100 C 
ATOM      7  C   UNL A   1      33.339  28.327  24.721  1.00  0.00    -0.009 C 
ATOM      8  C   UNL A   1      34.561  27.805  25.442  1.00  0.00     0.013 C 
ATOM      9  C   UNL A   1      33.583  28.553  23.248  1.00  0.00     0.013 C 
BRANCH   6  10
ATOM     10  C   UNL A   1      30.698  27.644  24.465  1.00  0.00     0.230 C 
ATOM     11  N   UNL A   1      29.888  26.580  24.796  1.00  0.00    -0.300 N 
ATOM     12  H   UNL A   1      28.938  26.627  24.539  1.00  0.00     0.172 HD
ATOM     13  O   UNL A   1      30.300  28.536  23.722  1.00  0.00    -0.274 OA
BRANCH  11  14
ATOM     14  C   UNL A   1      30.316  25.460  25.458  1.00  0.00     0.212 A 
ATOM     15  C   UNL A   1      31.633  23.630  26.161  1.00  0.00     0.119 A 
ATOM     16  N   UNL A   1      30.750  23.984  27.071  1.00  0.00    -0.142 NA
ATOM     17  S   UNL A   1      31.457  24.477  24.659  1.00  0.00    -0.080 S 
ATOM     18  N   UNL A   1      30.002  25.055  26.664  1.00  0.00    -0.120 NA
BRANCH  15  19
ATOM     19  C   UNL A   1      32.717  22.636  26.416  1.00  0.00     0.074 C 
BRANCH  19  20
ATOM     20  C   UNL A   1      33.512  22.233  25.166  1.00  0.00     0.043 C 
BRANCH  20  21
ATOM     21  C   UNL A   1      33.453  20.780  24.737  1.00  0.00    -0.047 A 
ATOM     22  C   UNL A   1      33.390  18.144  23.738  1.00  0.00     0.118 A 
ATOM     23  C   UNL A   1      34.509  18.604  24.417  1.00  0.00     0.046 A 
ATOM     24  C   UNL A   1      32.276  18.971  23.602  1.00  0.00     0.046 A 
ATOM     25  C   UNL A   1      34.548  19.916  24.889  1.00  0.00     0.007 A 
ATOM     26  C   UNL A   1      32.309  20.280  24.100  1.00  0.00     0.007 A 
BRANCH  22  27
ATOM     27  O   UNL A   1      33.451  16.861  23.270  1.00  0.00    -0.497 OA
ATOM     28  C   UNL A   1      33.599  15.904  24.315  1.00  0.00     0.278 C 
ENDBRANCH  22  27
ENDBRANCH  20  21
ENDBRANCH  19  20
ENDBRANCH  15  19
ENDBRANCH  11  14
ENDBRANCH   6  10
ENDBRANCH   3   5
ENDBRANCH   2   3
ENDBRANCH   1   2
BRANCH   1  29
ATOM     29  C   UNL A   1      34.424  31.686  28.576  1.00  0.00     0.202 C 
BRANCH  29  30
ATOM     30  O   UNL A   1      34.518  33.104  28.432  1.00  0.00    -0.374 OA
BRANCH  30  31
ATOM     31  C   UNL A   1      35.342  33.820  29.352  1.00  0.00     0.202 C 
BRANCH  31  32
ATOM     32  C   UNL A   1      35.587  33.193  30.731  1.00  0.00     0.261 C 
BRANCH  32  33
ATOM     33  O   UNL A   1      36.930  32.711  30.905  1.00  0.00    -0.460 OA
BRANCH  33  34
ATOM     34  C   UNL A   1      37.008  31.425  31.330  1.00  0.00     0.338 C 
ATOM     35  O   UNL A   1      36.220  30.846  32.061  1.00  0.00    -0.246 OA
BRANCH  34  36
ATOM     36  C   UNL A   1      38.109  30.717  30.648  1.00  0.00     0.060 A 
ATOM     37  C   UNL A   1      39.118  30.182  31.457  1.00  0.00     0.016 A 
ATOM     38  C   UNL A   1      38.206  30.646  29.256  1.00  0.00     0.016 A 
ATOM     39  C   UNL A   1      40.253  29.621  30.878  1.00  0.00     0.010 A 
ATOM     40  C   UNL A   1      39.352  30.086  28.675  1.00  0.00     0.010 A 
ATOM     41  C   UNL A   1      40.396  29.604  29.485  1.00  0.00    -0.014 A 
BRANCH  41  42
ATOM     42  C   UNL A   1      41.695  29.176  28.907  1.00  0.00     0.031 A 
ATOM     43  C   UNL A   1      42.839  30.150  28.855  1.00  0.00     0.074 A 
ATOM     44  C   UNL A   1      41.875  27.905  28.509  1.00  0.00     0.049 A 
ATOM     45  N   UNL A   1      44.085  29.948  28.506  1.00  0.00    -0.248 NA
ATOM     46  C   UNL A   1      42.542  31.535  29.252  1.00  0.00     0.031 C 
ATOM     47  C   UNL A   1      40.847  26.864  28.526  1.00  0.00     0.029 A 
ATOM     48  N   UNL A   1      42.991  27.269  28.028  1.00  0.00    -0.354 N 
ATOM     49  C   UNL A   1      44.723  31.175  28.649  1.00  0.00     0.074 A 
ATOM     50  C   UNL A   1      43.716  32.124  29.078  1.00  0.00     0.031 C 
ATOM     51  C   UNL A   1      41.388  25.713  28.091  1.00  0.00     0.029 A 
ATOM     52  C   UNL A   1      42.792  25.939  27.753  1.00  0.00     0.049 A 
ATOM     53  H   UNL A   1      43.854  27.725  27.893  1.00  0.00     0.167 HD
ATOM     54  C   UNL A   1      46.029  31.480  28.456  1.00  0.00     0.037 A 
ATOM     55  C   UNL A   1      43.647  25.006  27.289  1.00  0.00     0.037 A 
ATOM     56  C   UNL A   1      47.027  30.538  28.016  1.00  0.00     0.049 A 
ATOM     57  C   UNL A   1      45.083  25.378  27.037  1.00  0.00     0.074 A 
ATOM     58  C   UNL A   1      48.381  30.744  27.815  1.00  0.00     0.029 A 
ATOM     59  N   UNL A   1      46.775  29.212  27.694  1.00  0.00    -0.354 N 
ATOM     60  N   UNL A   1      45.682  26.531  27.219  1.00  0.00    -0.248 NA
ATOM     61  C   UNL A   1      45.959  24.317  26.523  1.00  0.00     0.031 C 
ATOM     62  C   UNL A   1      48.938  29.554  27.330  1.00  0.00     0.029 A 
ATOM     63  C   UNL A   1      47.941  28.594  27.269  1.00  0.00     0.049 A 
ATOM     64  H   UNL A   1      45.895  28.774  27.757  1.00  0.00     0.167 HD
ATOM     65  C   UNL A   1      47.011  26.330  26.858  1.00  0.00     0.074 A 
ATOM     66  C   UNL A   1      47.128  24.941  26.463  1.00  0.00     0.031 C 
ATOM     67  C   UNL A   1      48.040  27.216  26.857  1.00  0.00     0.037 A 
BRANCH  54  68
ATOM     68  C   UNL A   1      46.440  32.907  28.699  1.00  0.00     0.058 A 
ATOM     69  C   UNL A   1      46.426  33.864  27.671  1.00  0.00     0.135 A 
ATOM     70  C   UNL A   1      46.869  33.319  29.970  1.00  0.00     0.135 A 
ATOM     71  F   UNL A   1      46.039  33.520  26.433  1.00  0.00    -0.206 F 
ATOM     72  C   UNL A   1      46.864  35.168  27.884  1.00  0.00     0.059 A 
ATOM     73  C   UNL A   1      47.288  34.624  30.212  1.00  0.00     0.059 A 
ATOM     74  F   UNL A   1      46.901  32.446  30.989  1.00  0.00    -0.206 F 
ATOM     75  C   UNL A   1      47.305  35.535  29.157  1.00  0.00     0.060 A 
BRANCH  75  76
ATOM     76  S   UNL A   1      47.909  37.217  29.413  1.00  0.00     0.124 S 
ATOM     77  O   UNL A   1      47.191  37.944  28.371  1.00  0.00    -0.237 OA
ATOM     78  O   UNL A   1      47.493  37.497  30.784  1.00  0.00    -0.237 OA
ATOM     79  O   UNL A   1      49.349  37.093  29.213  1.00  0.00    -0.744 OA
ENDBRANCH  75  76
ENDBRANCH  54  68
BRANCH  55  80
ATOM     80  C   UNL A   1      43.165  23.618  27.069  1.00  0.00     0.058 A 
ATOM     81  C   UNL A   1      42.822  23.168  25.786  1.00  0.00     0.135 A 
ATOM     82  C   UNL A   1      43.080  22.703  28.129  1.00  0.00     0.135 A 
ATOM     83  F   UNL A   1      42.877  24.010  24.743  1.00  0.00    -0.206 F 
ATOM     84  C   UNL A   1      42.417  21.857  25.559  1.00  0.00     0.059 A 
ATOM     85  C   UNL A   1      42.697  21.381  27.924  1.00  0.00     0.059 A 
ATOM     86  F   UNL A   1      43.403  23.085  29.374  1.00  0.00    -0.206 F 
ATOM     87  C   UNL A   1      42.367  20.967  26.634  1.00  0.00     0.060 A 
BRANCH  87  88
ATOM     88  S   UNL A   1      41.931  19.244  26.313  1.00  0.00     0.124 S 
ATOM     89  O   UNL A   1      42.099  18.646  27.633  1.00  0.00    -0.237 OA
ATOM     90  O   UNL A   1      40.557  19.358  25.834  1.00  0.00    -0.237 OA
ATOM     91  O   UNL A   1      42.903  18.831  25.304  1.00  0.00    -0.744 OA
ENDBRANCH  87  88
ENDBRANCH  55  80
BRANCH  67  92
ATOM     92  C   UNL A   1      49.382  26.699  26.417  1.00  0.00     0.058 A 
ATOM     93  C   UNL A   1      50.220  25.989  27.293  1.00  0.00     0.135 A 
ATOM     94  C   UNL A   1      49.837  26.912  25.106  1.00  0.00     0.135 A 
ATOM     95  F   UNL A   1      49.836  25.761  28.559  1.00  0.00    -0.206 F 
ATOM     96  C   UNL A   1      51.478  25.546  26.897  1.00  0.00     0.059 A 
ATOM     97  C   UNL A   1      51.081  26.455  24.681  1.00  0.00     0.059 A 
ATOM     98  F   UNL A   1      49.071  27.573  24.224  1.00  0.00    -0.206 F 
ATOM     99  C   UNL A   1      51.904  25.791  25.590  1.00  0.00     0.060 A 
BRANCH  99 100
ATOM    100  S   UNL A   1      53.542  25.223  25.086  1.00  0.00     0.124 S 
ATOM    101  O   UNL A   1      53.474  23.803  25.414  1.00  0.00    -0.237 OA
ATOM    102  O   UNL A   1      53.565  25.545  23.663  1.00  0.00    -0.237 OA
ATOM    103  O   UNL A   1      54.444  26.017  25.916  1.00  0.00    -0.744 OA
ENDBRANCH  99 100
ENDBRANCH  67  92
ENDBRANCH  41  42
ENDBRANCH  34  36
ENDBRANCH  33  34
ENDBRANCH  32  33
ENDBRANCH  31  32
ENDBRANCH  30  31
ENDBRANCH  29  30
ENDBRANCH   1  29
TORSDOF 23
ENDMDL
MODEL 2
REMARK VINA RESULT:     -10.7      6.013      9.155
REMARK SMILES COc1ccc(CCc2nnc(NC(=O)[C@@H]3[C@@H](C(=O)OCCOCCOC(=O)c4ccc(-c5c6nc(c(-c7c(F)cc(S(=O)(=O)[O-])cc7F)c7ccc([nH]7)c(-c7c(F)cc(S(=O)(=O)[O-])cc7F)c7nc(c(-c8c(F)cc(S(=O)(=O)[O-])cc8F)c8ccc5[nH]8)C=C7)C=C6)cc4)C3(C)C)s2)cc1
REMARK SMILES IDX 21 1 20 2 18 3 19 4 17 5 16 6 95 7 96 8 97 9 14 10 13 11
REMARK SMILES IDX 15 13 12 14 9 15 10 16 98 17 11 18 8 19 7 20 6 21 3 22 4 23
REMARK SMILES IDX 100 24 5 25 99 26 2 27 1 28 22 29 23 30 24 31 25 32 26 33
REMARK SMILES IDX 27 34 28 35 29 36 30 37 94 38 31 39 93 40 32 41 33 42 34 43
REMARK SMILES IDX 87 44 35 45 92 46 86 47 88 48 36 49 91 50 85 51 84 52 37 54
REMARK SMILES IDX 71 55 50 56 70 57 51 58 54 59 69 60 89 61 52 62 53 63 68 65
REMARK SMILES IDX 90 66 55 67 38 68 39 69 48 70 40 71 41 72 47 73 49 74 42 75
REMARK SMILES IDX 43 76 44 77 45 78 46 79 72 80 73 81 82 82 74 83 75 84 81 85
REMARK SMILES IDX 83 86 76 87 77 88 78 89 79 90 80 91 56 92 57 93 66 94 58 95
REMARK SMILES IDX 59 96 65 97 67 98 60 99 61 100 62 101 63 102 64 103
REMARK H PARENT 13 12 88 53 54 64
REMARK Flexibility Score: inf
ROOT
ATOM      1  C   UNL A   1      33.619  28.678  26.553  1.00  0.00     0.261 C 
ENDROOT
BRANCH   1   2
ATOM      2  O   UNL A   1      34.089  27.502  25.880  1.00  0.00    -0.463 OA
BRANCH   2   3
ATOM      3  C   UNL A   1      33.326  26.404  26.077  1.00  0.00     0.310 C 
ATOM      4  O   UNL A   1      32.137  26.388  26.373  1.00  0.00    -0.252 OA
BRANCH   3   5
ATOM      5  C   UNL A   1      34.003  25.120  25.795  1.00  0.00     0.118 C 
ATOM      6  C   UNL A   1      33.378  24.290  24.664  1.00  0.00     0.100 C 
ATOM      7  C   UNL A   1      33.685  23.664  26.004  1.00  0.00    -0.009 C 
ATOM      8  C   UNL A   1      32.496  23.236  26.833  1.00  0.00     0.013 C 
ATOM      9  C   UNL A   1      34.842  22.699  26.100  1.00  0.00     0.013 C 
BRANCH   6  10
ATOM     10  C   UNL A   1      34.177  24.433  23.420  1.00  0.00     0.230 C 
ATOM     11  N   UNL A   1      33.935  25.531  22.625  1.00  0.00    -0.300 N 
ATOM     12  H   UNL A   1      34.607  25.763  21.943  1.00  0.00     0.172 HD
ATOM     13  O   UNL A   1      35.102  23.664  23.175  1.00  0.00    -0.274 OA
BRANCH  11  14
ATOM     14  C   UNL A   1      32.820  26.322  22.719  1.00  0.00     0.212 A 
ATOM     15  C   UNL A   1      30.634  27.077  23.196  1.00  0.00     0.119 A 
ATOM     16  N   UNL A   1      31.483  28.073  23.053  1.00  0.00    -0.142 NA
ATOM     17  S   UNL A   1      31.315  25.528  22.821  1.00  0.00    -0.080 S 
ATOM     18  N   UNL A   1      32.751  27.627  22.793  1.00  0.00    -0.120 NA
BRANCH  15  19
ATOM     19  C   UNL A   1      29.237  27.257  23.690  1.00  0.00     0.074 C 
BRANCH  19  20
ATOM     20  C   UNL A   1      28.315  28.008  22.721  1.00  0.00     0.043 C 
BRANCH  20  21
ATOM     21  C   UNL A   1      28.436  29.518  22.666  1.00  0.00    -0.047 A 
ATOM     22  C   UNL A   1      28.450  32.337  22.608  1.00  0.00     0.118 A 
ATOM     23  C   UNL A   1      28.921  31.661  23.726  1.00  0.00     0.046 A 
ATOM     24  C   UNL A   1      28.025  31.618  21.494  1.00  0.00     0.046 A 
ATOM     25  C   UNL A   1      28.890  30.267  23.761  1.00  0.00     0.007 A 
ATOM     26  C   UNL A   1      28.020  30.217  21.523  1.00  0.00     0.007 A 
BRANCH  22  27
ATOM     27  O   UNL A   1      28.475  33.703  22.673  1.00  0.00    -0.497 OA
ATOM     28  C   UNL A   1      29.568  34.195  23.442  1.00  0.00     0.278 C 
ENDBRANCH  22  27
ENDBRANCH  20  21
ENDBRANCH  19  20
ENDBRANCH  15  19
ENDBRANCH  11  14
ENDBRANCH   6  10
ENDBRANCH   3   5
ENDBRANCH   2   3
ENDBRANCH   1   2
BRANCH   1  29
ATOM     29  C   UNL A   1      34.747  29.338  27.347  1.00  0.00     0.202 C 
BRANCH  29  30
ATOM     30  O   UNL A   1      34.665  30.753  27.530  1.00  0.00    -0.374 OA
BRANCH  30  31
ATOM     31  C   UNL A   1      33.370  31.351  27.578  1.00  0.00     0.202 C 
BRANCH  31  32
ATOM     32  C   UNL A   1      33.265  32.856  27.299  1.00  0.00     0.261 C 
BRANCH  32  33
ATOM     33  O   UNL A   1      32.516  33.568  28.299  1.00  0.00    -0.460 OA
BRANCH  33  34
ATOM     34  C   UNL A   1      33.144  34.668  28.784  1.00  0.00     0.338 C 
ATOM     35  O   UNL A   1      32.784  35.829  28.667  1.00  0.00    -0.246 OA
BRANCH  34  36
ATOM     36  C   UNL A   1      34.273  34.282  29.654  1.00  0.00     0.060 A 
ATOM     37  C   UNL A   1      35.562  34.550  29.177  1.00  0.00     0.016 A 
ATOM     38  C   UNL A   1      34.092  33.603  30.860  1.00  0.00     0.016 A 
ATOM     39  C   UNL A   1      36.674  34.093  29.879  1.00  0.00     0.010 A 
ATOM     40  C   UNL A   1      35.212  33.138  31.562  1.00  0.00     0.010 A 
ATOM     41  C   UNL A   1      36.507  33.351  31.055  1.00  0.00    -0.014 A 
BRANCH  41  42
ATOM     42  C   UNL A   1      37.699  32.717  31.673  1.00  0.00     0.031 A 
ATOM     43  C   UNL A   1      38.181  33.195  33.015  1.00  0.00     0.074 A 
ATOM     44  C   UNL A   1      38.295  31.670  31.078  1.00  0.00     0.049 A 
ATOM     45  N   UNL A   1      39.121  32.703  33.781  1.00  0.00    -0.248 NA
ATOM     46  C   UNL A   1      37.513  34.383  33.568  1.00  0.00     0.031 C 
ATOM     47  C   UNL A   1      37.910  31.104  29.785  1.00  0.00     0.029 A 
ATOM     48  N   UNL A   1      39.341  30.884  31.491  1.00  0.00    -0.354 N 
ATOM     49  C   UNL A   1      39.153  33.513  34.911  1.00  0.00     0.074 A 
ATOM     50  C   UNL A   1      38.165  34.553  34.709  1.00  0.00     0.031 C 
ATOM     51  C   UNL A   1      38.699  30.050  29.519  1.00  0.00     0.029 A 
ATOM     52  C   UNL A   1      39.652  29.875  30.613  1.00  0.00     0.049 A 
ATOM     53  H   UNL A   1      39.823  31.032  32.337  1.00  0.00     0.167 HD
ATOM     54  C   UNL A   1      39.923  33.393  36.020  1.00  0.00     0.037 A 
ATOM     55  C   UNL A   1      40.593  28.914  30.688  1.00  0.00     0.037 A 
ATOM     56  C   UNL A   1      40.915  32.366  36.212  1.00  0.00     0.049 A 
ATOM     57  C   UNL A   1      41.469  28.827  31.908  1.00  0.00     0.074 A 
ATOM     58  C   UNL A   1      41.728  32.146  37.311  1.00  0.00     0.029 A 
ATOM     59  N   UNL A   1      41.240  31.395  35.277  1.00  0.00    -0.354 N 
ATOM     60  N   UNL A   1      41.459  29.573  32.987  1.00  0.00    -0.248 NA
ATOM     61  C   UNL A   1      42.481  27.762  31.921  1.00  0.00     0.031 C 
ATOM     62  C   UNL A   1      42.574  31.068  37.021  1.00  0.00     0.029 A 
ATOM     63  C   UNL A   1      42.260  30.590  35.759  1.00  0.00     0.049 A 
ATOM     64  H   UNL A   1      40.809  31.293  34.397  1.00  0.00     0.167 HD
ATOM     65  C   UNL A   1      42.449  29.058  33.816  1.00  0.00     0.074 A 
ATOM     66  C   UNL A   1      43.027  27.927  33.118  1.00  0.00     0.031 C 
ATOM     67  C   UNL A   1      42.842  29.480  35.045  1.00  0.00     0.037 A 
BRANCH  54  68
ATOM     68  C   UNL A   1      39.731  34.425  37.098  1.00  0.00     0.058 A 
ATOM     69  C   UNL A   1      40.292  35.709  36.999  1.00  0.00     0.135 A 
ATOM     70  C   UNL A   1      38.992  34.122  38.252  1.00  0.00     0.135 A 
ATOM     71  F   UNL A   1      41.021  36.047  35.924  1.00  0.00    -0.206 F 
ATOM     72  C   UNL A   1      40.164  36.640  38.025  1.00  0.00     0.059 A 
ATOM     73  C   UNL A   1      38.831  35.046  39.280  1.00  0.00     0.059 A 
ATOM     74  F   UNL A   1      38.433  32.910  38.397  1.00  0.00    -0.206 F 
ATOM     75  C   UNL A   1      39.441  36.295  39.168  1.00  0.00     0.060 A 
BRANCH  75  76
ATOM     76  S   UNL A   1      39.314  37.495  40.510  1.00  0.00     0.124 S 
ATOM     77  O   UNL A   1      40.672  38.029  40.549  1.00  0.00    -0.237 OA
ATOM     78  O   UNL A   1      38.287  38.410  40.021  1.00  0.00    -0.237 OA
ATOM     79  O   UNL A   1      38.927  36.680  41.658  1.00  0.00    -0.744 OA
ENDBRANCH  75  76
ENDBRANCH  54  68
BRANCH  55  80
ATOM     80  C   UNL A   1      40.726  27.933  29.579  1.00  0.00     0.058 A 
ATOM     81  C   UNL A   1      41.726  28.073  28.607  1.00  0.00     0.135 A 
ATOM     82  C   UNL A   1      39.883  26.815  29.495  1.00  0.00     0.135 A 
ATOM     83  F   UNL A   1      42.549  29.133  28.639  1.00  0.00    -0.206 F 
ATOM     84  C   UNL A   1      41.892  27.136  27.593  1.00  0.00     0.059 A 
ATOM     85  C   UNL A   1      40.041  25.853  28.502  1.00  0.00     0.059 A 
ATOM     86  F   UNL A   1      38.914  26.634  30.406  1.00  0.00    -0.206 F 
ATOM     87  C   UNL A   1      41.051  26.023  27.555  1.00  0.00     0.060 A 
BRANCH  87  88
ATOM     88  S   UNL A   1      41.334  24.764  26.290  1.00  0.00     0.124 S 
ATOM     89  O   UNL A   1      41.593  25.582  25.111  1.00  0.00    -0.237 OA
ATOM     90  O   UNL A   1      42.482  24.040  26.829  1.00  0.00    -0.237 OA
ATOM     91  O   UNL A   1      40.083  24.011  26.276  1.00  0.00    -0.744 OA
ENDBRANCH  87  88
ENDBRANCH  55  80
BRANCH  67  92
ATOM     92  C   UNL A   1      43.949  28.708  35.710  1.00  0.00     0.058 A 
ATOM     93  C   UNL A   1      45.299  29.047  35.521  1.00  0.00     0.135 A 
ATOM     94  C   UNL A   1      43.658  27.617  36.545  1.00  0.00     0.135 A 
ATOM     95  F   UNL A   1      45.632  30.078  34.729  1.00  0.00    -0.206 F 
ATOM     96  C   UNL A   1      46.323  28.307  36.105  1.00  0.00     0.059 A 
ATOM     97  C   UNL A   1      44.666  26.879  37.160  1.00  0.00     0.059 A 
ATOM     98  F   UNL A   1      42.385  27.258  36.771  1.00  0.00    -0.206 F 
ATOM     99  C   UNL A   1      45.997  27.219  36.917  1.00  0.00     0.060 A 
BRANCH  99 100
ATOM    100  S   UNL A   1      47.331  26.257  37.661  1.00  0.00     0.124 S 
ATOM    101  O   UNL A   1      48.235  26.084  36.529  1.00  0.00    -0.237 OA
ATOM    102  O   UNL A   1      47.805  27.141  38.722  1.00  0.00    -0.237 OA
ATOM    103  O   UNL A   1      46.658  25.045  38.119  1.00  0.00    -0.744 OA
ENDBRANCH  99 100
ENDBRANCH  67  92
ENDBRANCH  41  42
ENDBRANCH  34  36
ENDBRANCH  33  34
ENDBRANCH  32  33
ENDBRANCH  31  32
ENDBRANCH  30  31
ENDBRANCH  29  30
ENDBRANCH   1  29
TORSDOF 23
ENDMDL
MODEL 3
REMARK VINA RESULT:     -10.5      1.613      8.181
REMARK SMILES COc1ccc(CCc2nnc(NC(=O)[C@@H]3[C@@H](C(=O)OCCOCCOC(=O)c4ccc(-c5c6nc(c(-c7c(F)cc(S(=O)(=O)[O-])cc7F)c7ccc([nH]7)c(-c7c(F)cc(S(=O)(=O)[O-])cc7F)c7nc(c(-c8c(F)cc(S(=O)(=O)[O-])cc8F)c8ccc5[nH]8)C=C7)C=C6)cc4)C3(C)C)s2)cc1
REMARK SMILES IDX 21 1 20 2 18 3 19 4 17 5 16 6 95 7 96 8 97 9 14 10 13 11
REMARK SMILES IDX 15 13 12 14 9 15 10 16 98 17 11 18 8 19 7 20 6 21 3 22 4 23
REMARK SMILES IDX 100 24 5 25 99 26 2 27 1 28 22 29 23 30 24 31 25 32 26 33
REMARK SMILES IDX 27 34 28 35 29 36 30 37 94 38 31 39 93 40 32 41 33 42 34 43
REMARK SMILES IDX 87 44 35 45 92 46 86 47 88 48 36 49 91 50 85 51 84 52 37 54
REMARK SMILES IDX 71 55 50 56 70 57 51 58 54 59 69 60 89 61 52 62 53 63 68 65
REMARK SMILES IDX 90 66 55 67 38 68 39 69 48 70 40 71 41 72 47 73 49 74 42 75
REMARK SMILES IDX 43 76 44 77 45 78 46 79 72 80 73 81 82 82 74 83 75 84 81 85
REMARK SMILES IDX 83 86 76 87 77 88 78 89 79 90 80 91 56 92 57 93 66 94 58 95
REMARK SMILES IDX 59 96 65 97 67 98 60 99 61 100 62 101 63 102 64 103
REMARK H PARENT 13 12 88 53 54 64
REMARK Flexibility Score: inf
ROOT
ATOM      1  C   UNL A   1      34.037  28.413  26.578  1.00  0.00     0.261 C 
ENDROOT
BRANCH   1   2
ATOM      2  O   UNL A   1      33.081  29.078  25.740  1.00  0.00    -0.463 OA
BRANCH   2   3
ATOM      3  C   UNL A   1      31.845  28.532  25.762  1.00  0.00     0.310 C 
ATOM      4  O   UNL A   1      31.303  27.997  26.722  1.00  0.00    -0.252 OA
BRANCH   3   5
ATOM      5  C   UNL A   1      31.065  28.714  24.519  1.00  0.00     0.118 C 
ATOM      6  C   UNL A   1      30.902  27.451  23.662  1.00  0.00     0.100 C 
ATOM      7  C   UNL A   1      31.374  28.747  23.047  1.00  0.00    -0.009 C 
ATOM      8  C   UNL A   1      32.801  28.774  22.549  1.00  0.00     0.013 C 
ATOM      9  C   UNL A   1      30.428  29.504  22.146  1.00  0.00     0.013 C 
BRANCH   6  10
ATOM     10  C   UNL A   1      29.549  26.870  23.855  1.00  0.00     0.230 C 
ATOM     11  N   UNL A   1      29.460  25.653  24.494  1.00  0.00    -0.300 N 
ATOM     12  H   UNL A   1      28.579  25.378  24.839  1.00  0.00     0.172 HD
ATOM     13  O   UNL A   1      28.542  27.508  23.564  1.00  0.00    -0.274 OA
BRANCH  11  14
ATOM     14  C   UNL A   1      30.515  24.799  24.681  1.00  0.00     0.212 A 
ATOM     15  C   UNL A   1      32.346  23.366  24.270  1.00  0.00     0.119 A 
ATOM     16  N   UNL A   1      32.365  23.858  25.490  1.00  0.00    -0.142 NA
ATOM     17  S   UNL A   1      30.908  23.760  23.387  1.00  0.00    -0.080 S 
ATOM     18  N   UNL A   1      31.311  24.700  25.716  1.00  0.00    -0.120 NA
BRANCH  15  19
ATOM     19  C   UNL A   1      33.478  22.591  23.681  1.00  0.00     0.074 C 
BRANCH  19  20
ATOM     20  C   UNL A   1      34.177  21.645  24.667  1.00  0.00     0.043 C 
BRANCH  20  21
ATOM     21  C   UNL A   1      35.564  22.028  25.144  1.00  0.00    -0.047 A 
ATOM     22  C   UNL A   1      38.198  22.768  25.825  1.00  0.00     0.118 A 
ATOM     23  C   UNL A   1      37.166  23.688  25.937  1.00  0.00     0.046 A 
ATOM     24  C   UNL A   1      37.919  21.461  25.430  1.00  0.00     0.046 A 
ATOM     25  C   UNL A   1      35.867  23.327  25.576  1.00  0.00     0.007 A 
ATOM     26  C   UNL A   1      36.609  21.094  25.094  1.00  0.00     0.007 A 
BRANCH  22  27
ATOM     27  O   UNL A   1      39.447  23.216  26.157  1.00  0.00    -0.497 OA
ATOM     28  C   UNL A   1      39.536  23.634  27.515  1.00  0.00     0.278 C 
ENDBRANCH  22  27
ENDBRANCH  20  21
ENDBRANCH  19  20
ENDBRANCH  15  19
ENDBRANCH  11  14
ENDBRANCH   6  10
ENDBRANCH   3   5
ENDBRANCH   2   3
ENDBRANCH   1   2
BRANCH   1  29
ATOM     29  C   UNL A   1      34.674  29.395  27.563  1.00  0.00     0.202 C 
BRANCH  29  30
ATOM     30  O   UNL A   1      34.943  30.713  27.078  1.00  0.00    -0.374 OA
BRANCH  30  31
ATOM     31  C   UNL A   1      35.352  31.704  28.019  1.00  0.00     0.202 C 
BRANCH  31  32
ATOM     32  C   UNL A   1      35.042  31.456  29.501  1.00  0.00     0.261 C 
BRANCH  32  33
ATOM     33  O   UNL A   1      36.110  30.799  30.204  1.00  0.00    -0.460 OA
BRANCH  33  34
ATOM     34  C   UNL A   1      37.207  31.575  30.398  1.00  0.00     0.338 C 
ATOM     35  O   UNL A   1      37.249  32.653  30.970  1.00  0.00    -0.246 OA
BRANCH  34  36
ATOM     36  C   UNL A   1      38.429  30.865  29.973  1.00  0.00     0.060 A 
ATOM     37  C   UNL A   1      39.417  30.664  30.943  1.00  0.00     0.016 A 
ATOM     38  C   UNL A   1      38.648  30.479  28.648  1.00  0.00     0.016 A 
ATOM     39  C   UNL A   1      40.649  30.125  30.584  1.00  0.00     0.010 A 
ATOM     40  C   UNL A   1      39.891  29.941  28.287  1.00  0.00     0.010 A 
ATOM     41  C   UNL A   1      40.909  29.795  29.247  1.00  0.00    -0.014 A 
BRANCH  41  42
ATOM     42  C   UNL A   1      42.289  29.405  28.865  1.00  0.00     0.031 A 
ATOM     43  C   UNL A   1      42.568  27.989  28.441  1.00  0.00     0.074 A 
ATOM     44  C   UNL A   1      43.266  30.326  28.819  1.00  0.00     0.049 A 
ATOM     45  N   UNL A   1      43.668  27.471  27.956  1.00  0.00    -0.248 NA
ATOM     46  C   UNL A   1      41.461  27.031  28.578  1.00  0.00     0.031 C 
ATOM     47  C   UNL A   1      43.116  31.733  29.190  1.00  0.00     0.029 A 
ATOM     48  N   UNL A   1      44.577  30.220  28.425  1.00  0.00    -0.354 N 
ATOM     49  C   UNL A   1      43.385  26.130  27.721  1.00  0.00     0.074 A 
ATOM     50  C   UNL A   1      42.021  25.908  28.155  1.00  0.00     0.031 C 
ATOM     51  C   UNL A   1      44.286  32.363  28.989  1.00  0.00     0.029 A 
ATOM     52  C   UNL A   1      45.269  31.404  28.490  1.00  0.00     0.049 A 
ATOM     53  H   UNL A   1      44.981  29.373  28.125  1.00  0.00     0.167 HD
ATOM     54  C   UNL A   1      44.181  25.177  27.179  1.00  0.00     0.037 A 
ATOM     55  C   UNL A   1      46.548  31.684  28.173  1.00  0.00     0.037 A 
ATOM     56  C   UNL A   1      45.541  25.397  26.760  1.00  0.00     0.049 A 
ATOM     57  C   UNL A   1      47.429  30.599  27.617  1.00  0.00     0.074 A 
ATOM     58  C   UNL A   1      46.421  24.501  26.177  1.00  0.00     0.029 A 
ATOM     59  N   UNL A   1      46.226  26.596  26.893  1.00  0.00    -0.354 N 
ATOM     60  N   UNL A   1      47.134  29.347  27.359  1.00  0.00    -0.248 NA
ATOM     61  C   UNL A   1      48.815  30.970  27.302  1.00  0.00     0.031 C 
ATOM     62  C   UNL A   1      47.651  25.147  25.998  1.00  0.00     0.029 A 
ATOM     63  C   UNL A   1      47.525  26.458  26.429  1.00  0.00     0.049 A 
ATOM     64  H   UNL A   1      45.844  27.425  27.263  1.00  0.00     0.167 HD
ATOM     65  C   UNL A   1      48.293  28.783  26.835  1.00  0.00     0.074 A 
ATOM     66  C   UNL A   1      49.288  29.837  26.799  1.00  0.00     0.031 C 
ATOM     67  C   UNL A   1      48.512  27.509  26.419  1.00  0.00     0.037 A 
BRANCH  54  68
ATOM     68  C   UNL A   1      43.594  23.798  27.038  1.00  0.00     0.058 A 
ATOM     69  C   UNL A   1      43.072  23.340  25.817  1.00  0.00     0.135 A 
ATOM     70  C   UNL A   1      43.538  22.930  28.140  1.00  0.00     0.135 A 
ATOM     71  F   UNL A   1      43.086  24.134  24.735  1.00  0.00    -0.206 F 
ATOM     72  C   UNL A   1      42.475  22.088  25.705  1.00  0.00     0.059 A 
ATOM     73  C   UNL A   1      42.968  21.665  28.044  1.00  0.00     0.059 A 
ATOM     74  F   UNL A   1      44.025  23.317  29.330  1.00  0.00    -0.206 F 
ATOM     75  C   UNL A   1      42.418  21.261  26.829  1.00  0.00     0.060 A 
BRANCH  75  76
ATOM     76  S   UNL A   1      41.606  19.655  26.683  1.00  0.00     0.124 S 
ATOM     77  O   UNL A   1      42.740  18.745  26.809  1.00  0.00    -0.237 OA
ATOM     78  O   UNL A   1      40.675  19.668  27.808  1.00  0.00    -0.237 OA
ATOM     79  O   UNL A   1      40.986  19.707  25.363  1.00  0.00    -0.744 OA
ENDBRANCH  75  76
ENDBRANCH  54  68
BRANCH  55  80
ATOM     80  C   UNL A   1      47.057  33.070  28.347  1.00  0.00     0.058 A 
ATOM     81  C   UNL A   1      46.940  34.016  27.319  1.00  0.00     0.135 A 
ATOM     82  C   UNL A   1      47.629  33.485  29.559  1.00  0.00     0.135 A 
ATOM     83  F   UNL A   1      46.410  33.662  26.139  1.00  0.00    -0.206 F 
ATOM     84  C   UNL A   1      47.367  35.329  27.487  1.00  0.00     0.059 A 
ATOM     85  C   UNL A   1      48.045  34.798  29.758  1.00  0.00     0.059 A 
ATOM     86  F   UNL A   1      47.757  32.617  30.574  1.00  0.00    -0.206 F 
ATOM     87  C   UNL A   1      47.909  35.714  28.714  1.00  0.00     0.060 A 
BRANCH  87  88
ATOM     88  S   UNL A   1      48.373  37.443  28.954  1.00  0.00     0.124 S 
ATOM     89  O   UNL A   1      49.654  37.505  28.260  1.00  0.00    -0.237 OA
ATOM     90  O   UNL A   1      47.267  38.150  28.315  1.00  0.00    -0.237 OA
ATOM     91  O   UNL A   1      48.434  37.579  30.406  1.00  0.00    -0.744 OA
ENDBRANCH  87  88
ENDBRANCH  55  80
BRANCH  67  92
ATOM     92  C   UNL A   1      49.883  27.194  25.886  1.00  0.00     0.058 A 
ATOM     93  C   UNL A   1      50.159  27.214  24.509  1.00  0.00     0.135 A 
ATOM     94  C   UNL A   1      50.934  26.869  26.759  1.00  0.00     0.135 A 
ATOM     95  F   UNL A   1      49.190  27.514  23.630  1.00  0.00    -0.206 F 
ATOM     96  C   UNL A   1      51.417  26.884  24.015  1.00  0.00     0.059 A 
ATOM     97  C   UNL A   1      52.206  26.561  26.288  1.00  0.00     0.059 A 
ATOM     98  F   UNL A   1      50.729  26.848  28.085  1.00  0.00    -0.206 F 
ATOM     99  C   UNL A   1      52.433  26.550  24.912  1.00  0.00     0.060 A 
BRANCH  99 100
ATOM    100  S   UNL A   1      54.060  26.111  24.262  1.00  0.00     0.124 S 
ATOM    101  O   UNL A   1      54.240  24.770  24.806  1.00  0.00    -0.237 OA
ATOM    102  O   UNL A   1      53.856  26.188  22.819  1.00  0.00    -0.237 OA
ATOM    103  O   UNL A   1      54.934  27.139  24.820  1.00  0.00    -0.744 OA
ENDBRANCH  99 100
ENDBRANCH  67  92
ENDBRANCH  41  42
ENDBRANCH  34  36
ENDBRANCH  33  34
ENDBRANCH  32  33
ENDBRANCH  31  32
ENDBRANCH  30  31
ENDBRANCH  29  30
ENDBRANCH   1  29
TORSDOF 23
ENDMDL
