MODEL 1
REMARK VINA RESULT:     -11.3      0.000      0.000
REMARK SMILES Cc1ccc(F)c(-c2ncccc2C(=O)OCCOCCOC(=O)c2ccc(-c3c4nc(c(-c5c(F)cc(S(=O)(=O)[O-])cc5F)c5ccc([nH]5)c(-c5c(F)cc(S(=O)(=O)[O-])cc5F)c5nc(c(-c6c(F)cc(S(=O)(=O)[O-])cc6F)c6ccc3[nH]6)C=C5)C=C4)cc2)c1
REMARK SMILES IDX 20 1 19 2 18 3 17 4 16 5 14 6 15 7 13 8 8 9 9 10 10 11 12 12
REMARK SMILES IDX 11 13 7 14 1 15 2 16 3 17 91 18 4 19 5 20 6 21 21 22 22 23
REMARK SMILES IDX 23 24 24 25 25 26 26 27 90 28 27 29 89 30 28 31 29 32 30 33
REMARK SMILES IDX 83 34 31 35 88 36 82 37 84 38 32 39 87 40 81 41 80 42 33 44
REMARK SMILES IDX 67 45 46 46 66 47 47 48 50 49 65 50 85 51 48 52 49 53 64 55
REMARK SMILES IDX 86 56 51 57 34 58 35 59 44 60 36 61 37 62 43 63 45 64 38 65
REMARK SMILES IDX 39 66 40 67 41 68 42 69 68 70 69 71 78 72 70 73 71 74 77 75
REMARK SMILES IDX 79 76 72 77 73 78 74 79 75 80 76 81 52 82 53 83 62 84 54 85
REMARK SMILES IDX 55 86 61 87 63 88 56 89 57 90 58 91 59 92 60 93
REMARK H PARENT 84 43 50 54
REMARK Flexibility Score: inf
ROOT
ATOM      1  C   UNL A   1      34.362  31.637  27.714  1.00  0.00     0.202 C 
ENDROOT
BRANCH   1   2
ATOM      2  O   UNL A   1      33.269  30.730  27.726  1.00  0.00    -0.374 OA
BRANCH   2   3
ATOM      3  C   UNL A   1      32.374  30.763  26.613  1.00  0.00     0.202 C 
BRANCH   3   4
ATOM      4  C   UNL A   1      32.611  29.746  25.492  1.00  0.00     0.261 C 
BRANCH   4   5
ATOM      5  O   UNL A   1      31.379  29.102  25.116  1.00  0.00    -0.460 OA
BRANCH   5   6
ATOM      6  C   UNL A   1      31.365  27.749  25.217  1.00  0.00     0.340 C 
ATOM      7  O   UNL A   1      30.998  27.100  26.182  1.00  0.00    -0.246 OA
BRANCH   6   8
ATOM      8  C   UNL A   1      31.768  27.159  23.920  1.00  0.00     0.086 A 
ATOM      9  C   UNL A   1      30.941  27.252  22.790  1.00  0.00     0.088 A 
ATOM     10  N   UNL A   1      31.291  26.702  21.592  1.00  0.00    -0.255 NA
ATOM     11  C   UNL A   1      32.469  26.042  21.525  1.00  0.00     0.112 A 
ATOM     12  C   UNL A   1      33.004  26.510  23.798  1.00  0.00     0.019 A 
ATOM     13  C   UNL A   1      33.356  25.937  22.582  1.00  0.00     0.021 A 
BRANCH   9  14
ATOM     14  C   UNL A   1      29.709  28.047  22.748  1.00  0.00     0.037 A 
ATOM     15  C   UNL A   1      28.684  31.645  21.928  1.00  0.00     0.044 C 
ATOM     16  C   UNL A   1      28.608  30.201  22.337  1.00  0.00    -0.050 A 
ATOM     17  C   UNL A   1      27.436  29.703  22.916  1.00  0.00     0.006 A 
ATOM     18  C   UNL A   1      29.721  29.354  22.223  1.00  0.00     0.016 A 
ATOM     19  C   UNL A   1      27.382  28.385  23.368  1.00  0.00     0.040 A 
ATOM     20  C   UNL A   1      28.512  27.572  23.287  1.00  0.00     0.132 A 
ATOM     21  F   UNL A   1      28.438  26.322  23.768  1.00  0.00    -0.206 F 
ENDBRANCH   9  14
ENDBRANCH   6   8
ENDBRANCH   5   6
ENDBRANCH   4   5
ENDBRANCH   3   4
ENDBRANCH   2   3
ENDBRANCH   1   2
BRANCH   1  22
ATOM     22  C   UNL A   1      34.838  32.243  29.039  1.00  0.00     0.261 C 
BRANCH  22  23
ATOM     23  O   UNL A   1      36.254  32.203  29.202  1.00  0.00    -0.460 OA
BRANCH  23  24
ATOM     24  C   UNL A   1      36.648  31.410  30.229  1.00  0.00     0.338 C 
ATOM     25  O   UNL A   1      36.054  31.199  31.274  1.00  0.00    -0.246 OA
BRANCH  24  26
ATOM     26  C   UNL A   1      37.851  30.675  29.819  1.00  0.00     0.060 A 
ATOM     27  C   UNL A   1      38.801  30.394  30.806  1.00  0.00     0.016 A 
ATOM     28  C   UNL A   1      38.049  30.289  28.492  1.00  0.00     0.016 A 
ATOM     29  C   UNL A   1      39.989  29.764  30.457  1.00  0.00     0.010 A 
ATOM     30  C   UNL A   1      39.243  29.663  28.143  1.00  0.00     0.010 A 
ATOM     31  C   UNL A   1      40.232  29.434  29.117  1.00  0.00    -0.014 A 
BRANCH  31  32
ATOM     32  C   UNL A   1      41.585  28.999  28.713  1.00  0.00     0.031 A 
ATOM     33  C   UNL A   1      42.686  30.022  28.676  1.00  0.00     0.074 A 
ATOM     34  C   UNL A   1      41.826  27.711  28.415  1.00  0.00     0.049 A 
ATOM     35  N   UNL A   1      43.934  29.882  28.320  1.00  0.00    -0.248 NA
ATOM     36  C   UNL A   1      42.328  31.389  29.092  1.00  0.00     0.031 C 
ATOM     37  C   UNL A   1      40.835  26.636  28.457  1.00  0.00     0.029 A 
ATOM     38  N   UNL A   1      42.981  27.091  28.014  1.00  0.00    -0.354 N 
ATOM     39  C   UNL A   1      44.510  31.138  28.461  1.00  0.00     0.074 A 
ATOM     40  C   UNL A   1      43.466  32.039  28.898  1.00  0.00     0.031 C 
ATOM     41  C   UNL A   1      41.426  25.486  28.089  1.00  0.00     0.029 A 
ATOM     42  C   UNL A   1      42.823  25.752  27.753  1.00  0.00     0.049 A 
ATOM     43  H   UNL A   1      43.842  27.561  27.924  1.00  0.00     0.167 HD
ATOM     44  C   UNL A   1      45.797  31.502  28.256  1.00  0.00     0.037 A 
ATOM     45  C   UNL A   1      43.703  24.853  27.274  1.00  0.00     0.037 A 
ATOM     46  C   UNL A   1      46.824  30.592  27.821  1.00  0.00     0.049 A 
ATOM     47  C   UNL A   1      45.116  25.297  26.990  1.00  0.00     0.074 A 
ATOM     48  C   UNL A   1      48.163  30.851  27.593  1.00  0.00     0.029 A 
ATOM     49  N   UNL A   1      46.623  29.247  27.543  1.00  0.00    -0.354 N 
ATOM     50  N   UNL A   1      45.655  26.484  27.145  1.00  0.00    -0.248 NA
ATOM     51  C   UNL A   1      46.042  24.281  26.473  1.00  0.00     0.031 C 
ATOM     52  C   UNL A   1      48.759  29.677  27.121  1.00  0.00     0.029 A 
ATOM     53  C   UNL A   1      47.808  28.668  27.121  1.00  0.00     0.049 A 
ATOM     54  H   UNL A   1      45.763  28.774  27.632  1.00  0.00     0.167 HD
ATOM     55  C   UNL A   1      46.990  26.348  26.781  1.00  0.00     0.074 A 
ATOM     56  C   UNL A   1      47.177  24.960  26.404  1.00  0.00     0.031 C 
ATOM     57  C   UNL A   1      47.975  27.280  26.764  1.00  0.00     0.037 A 
BRANCH  44  58
ATOM     58  C   UNL A   1      46.160  32.947  28.472  1.00  0.00     0.058 A 
ATOM     59  C   UNL A   1      46.617  33.421  29.712  1.00  0.00     0.135 A 
ATOM     60  C   UNL A   1      46.079  33.864  27.412  1.00  0.00     0.135 A 
ATOM     61  F   UNL A   1      46.694  32.592  30.767  1.00  0.00    -0.206 F 
ATOM     62  C   UNL A   1      46.960  34.756  29.900  1.00  0.00     0.059 A 
ATOM     63  C   UNL A   1      46.446  35.198  27.569  1.00  0.00     0.059 A 
ATOM     64  F   UNL A   1      45.641  33.469  26.207  1.00  0.00    -0.206 F 
ATOM     65  C   UNL A   1      46.874  35.636  28.821  1.00  0.00     0.060 A 
BRANCH  65  66
ATOM     66  S   UNL A   1      47.336  37.362  29.077  1.00  0.00     0.124 S 
ATOM     67  O   UNL A   1      48.633  37.418  28.409  1.00  0.00    -0.237 OA
ATOM     68  O   UNL A   1      46.250  38.077  28.415  1.00  0.00    -0.237 OA
ATOM     69  O   UNL A   1      47.375  37.493  30.530  1.00  0.00    -0.744 OA
ENDBRANCH  65  66
ENDBRANCH  44  58
BRANCH  45  70
ATOM     70  C   UNL A   1      43.277  23.449  27.029  1.00  0.00     0.058 A 
ATOM     71  C   UNL A   1      43.136  22.537  28.085  1.00  0.00     0.135 A 
ATOM     72  C   UNL A   1      43.000  22.991  25.730  1.00  0.00     0.135 A 
ATOM     73  F   UNL A   1      43.396  22.923  29.344  1.00  0.00    -0.206 F 
ATOM     74  C   UNL A   1      42.756  21.217  27.863  1.00  0.00     0.059 A 
ATOM     75  C   UNL A   1      42.589  21.685  25.486  1.00  0.00     0.059 A 
ATOM     76  F   UNL A   1      43.105  23.827  24.685  1.00  0.00    -0.206 F 
ATOM     77  C   UNL A   1      42.482  20.802  26.558  1.00  0.00     0.060 A 
BRANCH  77  78
ATOM     78  S   UNL A   1      41.951  19.098  26.287  1.00  0.00     0.124 S 
ATOM     79  O   UNL A   1      42.865  18.670  25.235  1.00  0.00    -0.237 OA
ATOM     80  O   UNL A   1      42.162  18.500  27.601  1.00  0.00    -0.237 OA
ATOM     81  O   UNL A   1      40.554  19.242  25.888  1.00  0.00    -0.744 OA
ENDBRANCH  77  78
ENDBRANCH  45  70
BRANCH  57  82
ATOM     82  C   UNL A   1      49.357  26.827  26.378  1.00  0.00     0.058 A 
ATOM     83  C   UNL A   1      50.234  26.241  27.303  1.00  0.00     0.135 A 
ATOM     84  C   UNL A   1      49.786  26.932  25.044  1.00  0.00     0.135 A 
ATOM     85  F   UNL A   1      49.877  26.121  28.592  1.00  0.00    -0.206 F 
ATOM     86  C   UNL A   1      51.497  25.798  26.926  1.00  0.00     0.059 A 
ATOM     87  C   UNL A   1      51.032  26.465  24.638  1.00  0.00     0.059 A 
ATOM     88  F   UNL A   1      48.982  27.473  24.115  1.00  0.00    -0.206 F 
ATOM     89  C   UNL A   1      51.886  25.912  25.590  1.00  0.00     0.060 A 
BRANCH  89  90
ATOM     90  S   UNL A   1      53.516  25.302  25.108  1.00  0.00     0.124 S 
ATOM     91  O   UNL A   1      54.378  25.974  26.075  1.00  0.00    -0.237 OA
ATOM     92  O   UNL A   1      53.372  23.860  25.281  1.00  0.00    -0.237 OA
ATOM     93  O   UNL A   1      53.653  25.752  23.726  1.00  0.00    -0.744 OA
ENDBRANCH  89  90
ENDBRANCH  57  82
ENDBRANCH  31  32
ENDBRANCH  24  26
ENDBRANCH  23  24
ENDBRANCH  22  23
ENDBRANCH   1  22
TORSDOF 18
ENDMDL
MODEL 2
REMARK VINA RESULT:     -11.2      7.057     12.542
REMARK SMILES Cc1ccc(F)c(-c2ncccc2C(=O)OCCOCCOC(=O)c2ccc(-c3c4nc(c(-c5c(F)cc(S(=O)(=O)[O-])cc5F)c5ccc([nH]5)c(-c5c(F)cc(S(=O)(=O)[O-])cc5F)c5nc(c(-c6c(F)cc(S(=O)(=O)[O-])cc6F)c6ccc3[nH]6)C=C5)C=C4)cc2)c1
REMARK SMILES IDX 20 1 19 2 18 3 17 4 16 5 14 6 15 7 13 8 8 9 9 10 10 11 12 12
REMARK SMILES IDX 11 13 7 14 1 15 2 16 3 17 91 18 4 19 5 20 6 21 21 22 22 23
REMARK SMILES IDX 23 24 24 25 25 26 26 27 90 28 27 29 89 30 28 31 29 32 30 33
REMARK SMILES IDX 83 34 31 35 88 36 82 37 84 38 32 39 87 40 81 41 80 42 33 44
REMARK SMILES IDX 67 45 46 46 66 47 47 48 50 49 65 50 85 51 48 52 49 53 64 55
REMARK SMILES IDX 86 56 51 57 34 58 35 59 44 60 36 61 37 62 43 63 45 64 38 65
REMARK SMILES IDX 39 66 40 67 41 68 42 69 68 70 69 71 78 72 70 73 71 74 77 75
REMARK SMILES IDX 79 76 72 77 73 78 74 79 75 80 76 81 52 82 53 83 62 84 54 85
REMARK SMILES IDX 55 86 61 87 63 88 56 89 57 90 58 91 59 92 60 93
REMARK H PARENT 84 43 50 54
REMARK Flexibility Score: inf
ROOT
ATOM      1  C   UNL A   1      38.929  21.805  25.818  1.00  0.00     0.202 C 
ENDROOT
BRANCH   1   2
ATOM      2  O   UNL A   1      37.719  22.496  26.094  1.00  0.00    -0.374 OA
BRANCH   2   3
ATOM      3  C   UNL A   1      37.131  23.247  25.030  1.00  0.00     0.202 C 
BRANCH   3   4
ATOM      4  C   UNL A   1      36.583  22.459  23.836  1.00  0.00     0.261 C 
BRANCH   4   5
ATOM      5  O   UNL A   1      35.277  21.927  24.131  1.00  0.00    -0.460 OA
BRANCH   5   6
ATOM      6  C   UNL A   1      34.230  22.605  23.596  1.00  0.00     0.340 C 
ATOM      7  O   UNL A   1      34.139  23.005  22.448  1.00  0.00    -0.246 OA
BRANCH   6   8
ATOM      8  C   UNL A   1      33.145  22.695  24.600  1.00  0.00     0.086 A 
ATOM      9  C   UNL A   1      32.247  21.635  24.798  1.00  0.00     0.088 A 
ATOM     10  N   UNL A   1      31.234  21.708  25.707  1.00  0.00    -0.255 NA
ATOM     11  C   UNL A   1      31.106  22.853  26.414  1.00  0.00     0.112 A 
ATOM     12  C   UNL A   1      33.010  23.847  25.386  1.00  0.00     0.019 A 
ATOM     13  C   UNL A   1      31.969  23.930  26.303  1.00  0.00     0.021 A 
BRANCH   9  14
ATOM     14  C   UNL A   1      32.387  20.321  24.160  1.00  0.00     0.037 A 
ATOM     15  C   UNL A   1      33.884  16.901  25.015  1.00  0.00     0.044 C 
ATOM     16  C   UNL A   1      33.199  18.008  24.263  1.00  0.00    -0.050 A 
ATOM     17  C   UNL A   1      32.941  17.865  22.897  1.00  0.00     0.006 A 
ATOM     18  C   UNL A   1      32.882  19.223  24.891  1.00  0.00     0.016 A 
ATOM     19  C   UNL A   1      32.375  18.916  22.175  1.00  0.00     0.040 A 
ATOM     20  C   UNL A   1      32.109  20.131  22.806  1.00  0.00     0.132 A 
ATOM     21  F   UNL A   1      31.603  21.135  22.074  1.00  0.00    -0.206 F 
ENDBRANCH   9  14
ENDBRANCH   6   8
ENDBRANCH   5   6
ENDBRANCH   4   5
ENDBRANCH   3   4
ENDBRANCH   2   3
ENDBRANCH   1   2
BRANCH   1  22
ATOM     22  C   UNL A   1      40.199  22.197  26.582  1.00  0.00     0.261 C 
BRANCH  22  23
ATOM     23  O   UNL A   1      40.037  23.367  27.380  1.00  0.00    -0.460 OA
BRANCH  23  24
ATOM     24  C   UNL A   1      40.950  24.330  27.101  1.00  0.00     0.338 C 
ATOM     25  O   UNL A   1      41.780  24.330  26.207  1.00  0.00    -0.246 OA
BRANCH  24  26
ATOM     26  C   UNL A   1      40.673  25.498  27.947  1.00  0.00     0.060 A 
ATOM     27  C   UNL A   1      41.669  26.475  28.043  1.00  0.00     0.016 A 
ATOM     28  C   UNL A   1      39.471  25.620  28.646  1.00  0.00     0.016 A 
ATOM     29  C   UNL A   1      41.487  27.563  28.886  1.00  0.00     0.010 A 
ATOM     30  C   UNL A   1      39.291  26.709  29.497  1.00  0.00     0.010 A 
ATOM     31  C   UNL A   1      40.314  27.662  29.648  1.00  0.00    -0.014 A 
BRANCH  31  32
ATOM     32  C   UNL A   1      40.231  28.675  30.721  1.00  0.00     0.031 A 
ATOM     33  C   UNL A   1      41.154  28.547  31.900  1.00  0.00     0.074 A 
ATOM     34  C   UNL A   1      39.369  29.701  30.624  1.00  0.00     0.049 A 
ATOM     35  N   UNL A   1      41.236  29.290  32.970  1.00  0.00    -0.248 NA
ATOM     36  C   UNL A   1      42.110  27.426  31.869  1.00  0.00     0.031 C 
ATOM     37  C   UNL A   1      38.459  29.935  29.503  1.00  0.00     0.029 A 
ATOM     38  N   UNL A   1      39.118  30.737  31.485  1.00  0.00    -0.354 N 
ATOM     39  C   UNL A   1      42.244  28.727  33.744  1.00  0.00     0.074 A 
ATOM     40  C   UNL A   1      42.718  27.556  33.039  1.00  0.00     0.031 C 
ATOM     41  C   UNL A   1      37.742  31.045  29.750  1.00  0.00     0.029 A 
ATOM     42  C   UNL A   1      38.117  31.575  31.058  1.00  0.00     0.049 A 
ATOM     43  H   UNL A   1      39.608  30.868  32.329  1.00  0.00     0.167 HD
ATOM     44  C   UNL A   1      42.736  29.157  34.929  1.00  0.00     0.037 A 
ATOM     45  C   UNL A   1      37.556  32.636  31.669  1.00  0.00     0.037 A 
ATOM     46  C   UNL A   1      42.251  30.325  35.617  1.00  0.00     0.049 A 
ATOM     47  C   UNL A   1      38.076  33.057  33.020  1.00  0.00     0.074 A 
ATOM     48  C   UNL A   1      42.685  30.858  36.817  1.00  0.00     0.029 A 
ATOM     49  N   UNL A   1      41.221  31.138  35.167  1.00  0.00    -0.354 N 
ATOM     50  N   UNL A   1      39.042  32.528  33.734  1.00  0.00    -0.248 NA
ATOM     51  C   UNL A   1      37.436  34.222  33.646  1.00  0.00     0.031 C 
ATOM     52  C   UNL A   1      41.878  31.958  37.121  1.00  0.00     0.029 A 
ATOM     53  C   UNL A   1      40.986  32.154  36.077  1.00  0.00     0.049 A 
ATOM     54  H   UNL A   1      40.727  31.010  34.323  1.00  0.00     0.167 HD
ATOM     55  C   UNL A   1      39.151  33.317  34.875  1.00  0.00     0.074 A 
ATOM     56  C   UNL A   1      38.155  34.364  34.751  1.00  0.00     0.031 C 
ATOM     57  C   UNL A   1      39.998  33.194  35.927  1.00  0.00     0.037 A 
BRANCH  44  58
ATOM     58  C   UNL A   1      43.832  28.347  35.568  1.00  0.00     0.058 A 
ATOM     59  C   UNL A   1      45.187  28.576  35.285  1.00  0.00     0.135 A 
ATOM     60  C   UNL A   1      43.521  27.347  36.504  1.00  0.00     0.135 A 
ATOM     61  F   UNL A   1      45.542  29.505  34.381  1.00  0.00    -0.206 F 
ATOM     62  C   UNL A   1      46.194  27.830  35.889  1.00  0.00     0.059 A 
ATOM     63  C   UNL A   1      44.513  26.609  37.144  1.00  0.00     0.059 A 
ATOM     64  F   UNL A   1      42.241  27.080  36.809  1.00  0.00    -0.206 F 
ATOM     65  C   UNL A   1      45.846  26.850  36.819  1.00  0.00     0.060 A 
BRANCH  65  66
ATOM     66  S   UNL A   1      47.165  25.900  37.604  1.00  0.00     0.124 S 
ATOM     67  O   UNL A   1      48.050  25.639  36.472  1.00  0.00    -0.237 OA
ATOM     68  O   UNL A   1      47.673  26.837  38.601  1.00  0.00    -0.237 OA
ATOM     69  O   UNL A   1      46.473  24.733  38.140  1.00  0.00    -0.744 OA
ENDBRANCH  65  66
ENDBRANCH  44  58
BRANCH  45  70
ATOM     70  C   UNL A   1      36.439  33.369  31.015  1.00  0.00     0.058 A 
ATOM     71  C   UNL A   1      36.664  34.199  29.908  1.00  0.00     0.135 A 
ATOM     72  C   UNL A   1      35.120  33.251  31.485  1.00  0.00     0.135 A 
ATOM     73  F   UNL A   1      37.907  34.351  29.425  1.00  0.00    -0.206 F 
ATOM     74  C   UNL A   1      35.629  34.903  29.301  1.00  0.00     0.059 A 
ATOM     75  C   UNL A   1      34.064  33.921  30.876  1.00  0.00     0.059 A 
ATOM     76  F   UNL A   1      34.847  32.458  32.532  1.00  0.00    -0.206 F 
ATOM     77  C   UNL A   1      34.331  34.755  29.793  1.00  0.00     0.060 A 
BRANCH  77  78
ATOM     78  S   UNL A   1      32.989  35.642  28.972  1.00  0.00     0.124 S 
ATOM     79  O   UNL A   1      33.713  36.717  28.305  1.00  0.00    -0.237 OA
ATOM     80  O   UNL A   1      32.429  34.611  28.104  1.00  0.00    -0.237 OA
ATOM     81  O   UNL A   1      32.131  36.051  30.081  1.00  0.00    -0.744 OA
ENDBRANCH  77  78
ENDBRANCH  45  70
BRANCH  57  82
ATOM     82  C   UNL A   1      39.929  34.244  37.003  1.00  0.00     0.058 A 
ATOM     83  C   UNL A   1      40.633  35.454  36.911  1.00  0.00     0.135 A 
ATOM     84  C   UNL A   1      39.097  34.054  38.119  1.00  0.00     0.135 A 
ATOM     85  F   UNL A   1      41.447  35.684  35.868  1.00  0.00    -0.206 F 
ATOM     86  C   UNL A   1      40.536  36.428  37.898  1.00  0.00     0.059 A 
ATOM     87  C   UNL A   1      38.959  35.028  39.103  1.00  0.00     0.059 A 
ATOM     88  F   UNL A   1      38.390  32.920  38.252  1.00  0.00    -0.206 F 
ATOM     89  C   UNL A   1      39.693  36.207  38.989  1.00  0.00     0.060 A 
BRANCH  89  90
ATOM     90  S   UNL A   1      39.551  37.494  40.247  1.00  0.00     0.124 S 
ATOM     91  O   UNL A   1      40.952  37.808  40.506  1.00  0.00    -0.237 OA
ATOM     92  O   UNL A   1      38.788  38.526  39.551  1.00  0.00    -0.237 OA
ATOM     93  O   UNL A   1      38.844  36.829  41.338  1.00  0.00    -0.744 OA
ENDBRANCH  89  90
ENDBRANCH  57  82
ENDBRANCH  31  32
ENDBRANCH  24  26
ENDBRANCH  23  24
ENDBRANCH  22  23
ENDBRANCH   1  22
TORSDOF 18
ENDMDL
MODEL 3
REMARK VINA RESULT:     -11.1      6.450     12.080
REMARK SMILES Cc1ccc(F)c(-c2ncccc2C(=O)OCCOCCOC(=O)c2ccc(-c3c4nc(c(-c5c(F)cc(S(=O)(=O)[O-])cc5F)c5ccc([nH]5)c(-c5c(F)cc(S(=O)(=O)[O-])cc5F)c5nc(c(-c6c(F)cc(S(=O)(=O)[O-])cc6F)c6ccc3[nH]6)C=C5)C=C4)cc2)c1
REMARK SMILES IDX 20 1 19 2 18 3 17 4 16 5 14 6 15 7 13 8 8 9 9 10 10 11 12 12
REMARK SMILES IDX 11 13 7 14 1 15 2 16 3 17 91 18 4 19 5 20 6 21 21 22 22 23
REMARK SMILES IDX 23 24 24 25 25 26 26 27 90 28 27 29 89 30 28 31 29 32 30 33
REMARK SMILES IDX 83 34 31 35 88 36 82 37 84 38 32 39 87 40 81 41 80 42 33 44
REMARK SMILES IDX 67 45 46 46 66 47 47 48 50 49 65 50 85 51 48 52 49 53 64 55
REMARK SMILES IDX 86 56 51 57 34 58 35 59 44 60 36 61 37 62 43 63 45 64 38 65
REMARK SMILES IDX 39 66 40 67 41 68 42 69 68 70 69 71 78 72 70 73 71 74 77 75
REMARK SMILES IDX 79 76 72 77 73 78 74 79 75 80 76 81 52 82 53 83 62 84 54 85
REMARK SMILES IDX 55 86 61 87 63 88 56 89 57 90 58 91 59 92 60 93
REMARK H PARENT 84 43 50 54
REMARK Flexibility Score: inf
ROOT
ATOM      1  C   UNL A   1      41.149  21.618  26.389  1.00  0.00     0.202 C 
ENDROOT
BRANCH   1   2
ATOM      2  O   UNL A   1      40.090  22.168  27.160  1.00  0.00    -0.374 OA
BRANCH   2   3
ATOM      3  C   UNL A   1      39.014  22.789  26.453  1.00  0.00     0.202 C 
BRANCH   3   4
ATOM      4  C   UNL A   1      38.021  21.868  25.738  1.00  0.00     0.261 C 
BRANCH   4   5
ATOM      5  O   UNL A   1      36.738  22.509  25.599  1.00  0.00    -0.460 OA
BRANCH   5   6
ATOM      6  C   UNL A   1      36.142  22.378  24.387  1.00  0.00     0.340 C 
ATOM      7  O   UNL A   1      36.660  22.580  23.302  1.00  0.00    -0.246 OA
BRANCH   6   8
ATOM      8  C   UNL A   1      34.775  21.840  24.572  1.00  0.00     0.086 A 
ATOM      9  C   UNL A   1      33.653  22.683  24.556  1.00  0.00     0.088 A 
ATOM     10  N   UNL A   1      32.389  22.205  24.739  1.00  0.00    -0.255 NA
ATOM     11  C   UNL A   1      32.245  20.878  24.954  1.00  0.00     0.112 A 
ATOM     12  C   UNL A   1      34.581  20.464  24.748  1.00  0.00     0.019 A 
ATOM     13  C   UNL A   1      33.295  19.976  24.949  1.00  0.00     0.021 A 
BRANCH   9  14
ATOM     14  C   UNL A   1      33.711  24.109  24.214  1.00  0.00     0.037 A 
ATOM     15  C   UNL A   1      33.705  27.467  26.053  1.00  0.00     0.044 C 
ATOM     16  C   UNL A   1      33.724  26.450  24.947  1.00  0.00    -0.050 A 
ATOM     17  C   UNL A   1      33.536  26.858  23.623  1.00  0.00     0.006 A 
ATOM     18  C   UNL A   1      33.851  25.080  25.225  1.00  0.00     0.016 A 
ATOM     19  C   UNL A   1      33.476  25.912  22.599  1.00  0.00     0.040 A 
ATOM     20  C   UNL A   1      33.558  24.553  22.899  1.00  0.00     0.132 A 
ATOM     21  F   UNL A   1      33.457  23.668  21.896  1.00  0.00    -0.206 F 
ENDBRANCH   9  14
ENDBRANCH   6   8
ENDBRANCH   5   6
ENDBRANCH   4   5
ENDBRANCH   3   4
ENDBRANCH   2   3
ENDBRANCH   1   2
BRANCH   1  22
ATOM     22  C   UNL A   1      42.379  22.485  26.094  1.00  0.00     0.261 C 
BRANCH  22  23
ATOM     23  O   UNL A   1      42.528  23.578  26.996  1.00  0.00    -0.460 OA
BRANCH  23  24
ATOM     24  C   UNL A   1      42.517  24.783  26.376  1.00  0.00     0.338 C 
ATOM     25  O   UNL A   1      42.732  25.014  25.197  1.00  0.00    -0.246 OA
BRANCH  24  26
ATOM     26  C   UNL A   1      42.018  25.792  27.319  1.00  0.00     0.060 A 
ATOM     27  C   UNL A   1      42.691  27.017  27.368  1.00  0.00     0.016 A 
ATOM     28  C   UNL A   1      40.927  25.532  28.150  1.00  0.00     0.016 A 
ATOM     29  C   UNL A   1      42.305  27.978  28.294  1.00  0.00     0.010 A 
ATOM     30  C   UNL A   1      40.544  26.494  29.082  1.00  0.00     0.010 A 
ATOM     31  C   UNL A   1      41.256  27.703  29.182  1.00  0.00    -0.014 A 
BRANCH  31  32
ATOM     32  C   UNL A   1      41.014  28.615  30.320  1.00  0.00     0.031 A 
ATOM     33  C   UNL A   1      41.870  28.473  31.547  1.00  0.00     0.074 A 
ATOM     34  C   UNL A   1      40.069  29.566  30.241  1.00  0.00     0.049 A 
ATOM     35  N   UNL A   1      41.817  29.131  32.673  1.00  0.00    -0.248 NA
ATOM     36  C   UNL A   1      42.925  27.446  31.498  1.00  0.00     0.031 C 
ATOM     37  C   UNL A   1      39.212  29.810  29.081  1.00  0.00     0.029 A 
ATOM     38  N   UNL A   1      39.670  30.503  31.158  1.00  0.00    -0.354 N 
ATOM     39  C   UNL A   1      42.823  28.597  33.470  1.00  0.00     0.074 A 
ATOM     40  C   UNL A   1      43.446  27.533  32.713  1.00  0.00     0.031 C 
ATOM     41  C   UNL A   1      38.381  30.829  29.360  1.00  0.00     0.029 A 
ATOM     42  C   UNL A   1      38.624  31.283  30.728  1.00  0.00     0.049 A 
ATOM     43  H   UNL A   1      40.093  30.608  32.041  1.00  0.00     0.167 HD
ATOM     44  C   UNL A   1      43.199  28.971  34.715  1.00  0.00     0.037 A 
ATOM     45  C   UNL A   1      37.931  32.238  31.376  1.00  0.00     0.037 A 
ATOM     46  C   UNL A   1      42.567  30.033  35.453  1.00  0.00     0.049 A 
ATOM     47  C   UNL A   1      38.326  32.592  32.788  1.00  0.00     0.074 A 
ATOM     48  C   UNL A   1      42.875  30.503  36.717  1.00  0.00     0.029 A 
ATOM     49  N   UNL A   1      41.495  30.786  34.995  1.00  0.00    -0.354 N 
ATOM     50  N   UNL A   1      39.290  32.093  33.525  1.00  0.00    -0.248 NA
ATOM     51  C   UNL A   1      37.543  33.642  33.454  1.00  0.00     0.031 C 
ATOM     52  C   UNL A   1      41.952  31.501  37.046  1.00  0.00     0.029 A 
ATOM     53  C   UNL A   1      41.113  31.702  35.961  1.00  0.00     0.049 A 
ATOM     54  H   UNL A   1      41.069  30.685  34.113  1.00  0.00     0.167 HD
ATOM     55  C   UNL A   1      39.255  32.794  34.726  1.00  0.00     0.074 A 
ATOM     56  C   UNL A   1      38.176  33.756  34.613  1.00  0.00     0.031 C 
ATOM     57  C   UNL A   1      40.044  32.661  35.822  1.00  0.00     0.037 A 
BRANCH  44  58
ATOM     58  C   UNL A   1      44.323  28.211  35.365  1.00  0.00     0.058 A 
ATOM     59  C   UNL A   1      44.091  27.082  36.167  1.00  0.00     0.135 A 
ATOM     60  C   UNL A   1      45.656  28.601  35.156  1.00  0.00     0.135 A 
ATOM     61  F   UNL A   1      42.835  26.677  36.418  1.00  0.00    -0.206 F 
ATOM     62  C   UNL A   1      45.138  26.379  36.755  1.00  0.00     0.059 A 
ATOM     63  C   UNL A   1      46.721  27.894  35.710  1.00  0.00     0.059 A 
ATOM     64  F   UNL A   1      45.937  29.676  34.405  1.00  0.00    -0.206 F 
ATOM     65  C   UNL A   1      46.449  26.792  36.519  1.00  0.00     0.060 A 
BRANCH  65  66
ATOM     66  S   UNL A   1      47.796  25.861  37.278  1.00  0.00     0.124 S 
ATOM     67  O   UNL A   1      48.607  25.519  36.113  1.00  0.00    -0.237 OA
ATOM     68  O   UNL A   1      48.378  26.842  38.189  1.00  0.00    -0.237 OA
ATOM     69  O   UNL A   1      47.117  24.740  37.919  1.00  0.00    -0.744 OA
ENDBRANCH  65  66
ENDBRANCH  44  58
BRANCH  45  70
ATOM     70  C   UNL A   1      36.794  32.921  30.704  1.00  0.00     0.058 A 
ATOM     71  C   UNL A   1      35.465  32.577  30.994  1.00  0.00     0.135 A 
ATOM     72  C   UNL A   1      37.014  33.934  29.757  1.00  0.00     0.135 A 
ATOM     73  F   UNL A   1      35.202  31.610  31.886  1.00  0.00    -0.206 F 
ATOM     74  C   UNL A   1      34.396  33.197  30.356  1.00  0.00     0.059 A 
ATOM     75  C   UNL A   1      35.961  34.589  29.128  1.00  0.00     0.059 A 
ATOM     76  F   UNL A   1      38.266  34.311  29.453  1.00  0.00    -0.206 F 
ATOM     77  C   UNL A   1      34.655  34.205  29.425  1.00  0.00     0.060 A 
BRANCH  77  78
ATOM     78  S   UNL A   1      33.258  35.031  28.633  1.00  0.00     0.124 S 
ATOM     79  O   UNL A   1      33.928  36.093  27.891  1.00  0.00    -0.237 OA
ATOM     80  O   UNL A   1      32.683  33.955  27.832  1.00  0.00    -0.237 OA
ATOM     81  O   UNL A   1      32.443  35.467  29.762  1.00  0.00    -0.744 OA
ENDBRANCH  77  78
ENDBRANCH  45  70
BRANCH  57  82
ATOM     82  C   UNL A   1      39.812  33.609  36.966  1.00  0.00     0.058 A 
ATOM     83  C   UNL A   1      38.912  33.319  38.003  1.00  0.00     0.135 A 
ATOM     84  C   UNL A   1      40.547  34.804  37.052  1.00  0.00     0.135 A 
ATOM     85  F   UNL A   1      38.180  32.194  37.969  1.00  0.00    -0.206 F 
ATOM     86  C   UNL A   1      38.730  34.191  39.071  1.00  0.00     0.059 A 
ATOM     87  C   UNL A   1      40.405  35.675  38.127  1.00  0.00     0.059 A 
ATOM     88  F   UNL A   1      41.431  35.124  36.093  1.00  0.00    -0.206 F 
ATOM     89  C   UNL A   1      39.483  35.365  39.126  1.00  0.00     0.060 A 
BRANCH  89  90
ATOM     90  S   UNL A   1      39.261  36.472  40.535  1.00  0.00     0.124 S 
ATOM     91  O   UNL A   1      38.727  37.667  39.888  1.00  0.00    -0.237 OA
ATOM     92  O   UNL A   1      38.321  35.728  41.369  1.00  0.00    -0.237 OA
ATOM     93  O   UNL A   1      40.608  36.603  41.082  1.00  0.00    -0.744 OA
ENDBRANCH  89  90
ENDBRANCH  57  82
ENDBRANCH  31  32
ENDBRANCH  24  26
ENDBRANCH  23  24
ENDBRANCH  22  23
ENDBRANCH   1  22
TORSDOF 18
ENDMDL
