MODEL 1
REMARK VINA RESULT:     -11.7      0.000      0.000
REMARK SMILES Cc1nn(-c2ccc(C(=O)OCCOCCOC(=O)c3ccc(-c4c5nc(c(-c6c(F)cc(S(=O)(=O)[O-])cc6F)c6ccc([nH]6)c(-c6c(F)cc(S(=O)(=O)[O-])cc6F)c6nc(c(-c7c(F)cc(S(=O)(=O)[O-])cc7F)c7ccc4[nH]7)C=C6)C=C5)cc3)cc2)c(=O)c2ccccc12
REMARK SMILES IDX 15 1 14 2 13 3 12 4 11 5 9 6 10 7 8 8 5 9 6 10 87 11 7 12
REMARK SMILES IDX 86 13 4 14 1 15 2 16 3 17 95 18 90 19 94 20 88 21 91 22
REMARK SMILES IDX 93 23 89 24 92 25 16 26 17 27 18 28 19 29 20 30 21 31 85 32
REMARK SMILES IDX 22 33 84 34 23 35 24 36 25 37 78 38 26 39 83 40 77 41 79 42
REMARK SMILES IDX 27 43 82 44 76 45 75 46 28 48 62 49 41 50 61 51 42 52 45 53
REMARK SMILES IDX 60 54 80 55 43 56 44 57 59 59 81 60 46 61 29 62 30 63 39 64
REMARK SMILES IDX 31 65 32 66 38 67 40 68 33 69 34 70 35 71 36 72 37 73 63 74
REMARK SMILES IDX 64 75 73 76 65 77 66 78 72 79 74 80 67 81 68 82 69 83 70 84
REMARK SMILES IDX 71 85 47 86 48 87 57 88 49 89 50 90 56 91 58 92 51 93 52 94
REMARK SMILES IDX 53 95 54 96 55 97
REMARK H PARENT 79 47 45 58
REMARK Flexibility Score: inf
ROOT
ATOM      1  C   UNL A   1      34.291  32.741  28.638  1.00  0.00     0.202 C 
ENDROOT
BRANCH   1   2
ATOM      2  O   UNL A   1      34.663  31.824  27.609  1.00  0.00    -0.374 OA
BRANCH   2   3
ATOM      3  C   UNL A   1      33.727  30.807  27.256  1.00  0.00     0.202 C 
BRANCH   3   4
ATOM      4  C   UNL A   1      34.285  29.445  26.824  1.00  0.00     0.261 C 
BRANCH   4   5
ATOM      5  O   UNL A   1      33.242  28.545  26.424  1.00  0.00    -0.460 OA
BRANCH   5   6
ATOM      6  C   UNL A   1      33.244  28.216  25.109  1.00  0.00     0.338 C 
ATOM      7  O   UNL A   1      33.309  28.980  24.159  1.00  0.00    -0.246 OA
BRANCH   6   8
ATOM      8  C   UNL A   1      33.374  26.749  24.966  1.00  0.00     0.060 A 
ATOM      9  C   UNL A   1      33.676  23.969  24.851  1.00  0.00     0.069 A 
ATOM     10  C   UNL A   1      33.251  24.577  26.037  1.00  0.00     0.029 A 
ATOM     11  C   UNL A   1      33.872  24.757  23.705  1.00  0.00     0.029 A 
ATOM     12  C   UNL A   1      33.138  25.966  26.104  1.00  0.00     0.018 A 
ATOM     13  C   UNL A   1      33.697  26.143  23.752  1.00  0.00     0.018 A 
BRANCH   9  14
ATOM     14  N   UNL A   1      33.998  22.585  24.851  1.00  0.00    -0.196 N 
ATOM     15  C   UNL A   1      37.213  20.823  25.079  1.00  0.00     0.069 C 
ATOM     16  C   UNL A   1      35.731  21.067  24.885  1.00  0.00     0.066 A 
ATOM     17  N   UNL A   1      35.343  22.305  24.903  1.00  0.00    -0.169 NA
ATOM     18  C   UNL A   1      34.803  19.927  24.714  1.00  0.00     0.010 A 
ATOM     19  C   UNL A   1      33.450  20.230  24.605  1.00  0.00     0.051 A 
ATOM     20  C   UNL A   1      35.213  18.593  24.603  1.00  0.00     0.011 A 
ATOM     21  C   UNL A   1      32.995  21.621  24.749  1.00  0.00     0.279 A 
ATOM     22  C   UNL A   1      32.512  19.223  24.333  1.00  0.00     0.014 A 
ATOM     23  C   UNL A   1      34.276  17.587  24.338  1.00  0.00     0.001 A 
ATOM     24  O   UNL A   1      31.786  21.838  24.709  1.00  0.00    -0.267 OA
ATOM     25  C   UNL A   1      32.928  17.903  24.190  1.00  0.00     0.001 A 
ENDBRANCH   9  14
ENDBRANCH   6   8
ENDBRANCH   5   6
ENDBRANCH   4   5
ENDBRANCH   3   4
ENDBRANCH   2   3
ENDBRANCH   1   2
BRANCH   1  26
ATOM     26  C   UNL A   1      34.916  32.556  30.026  1.00  0.00     0.261 C 
BRANCH  26  27
ATOM     27  O   UNL A   1      35.568  31.285  30.175  1.00  0.00    -0.460 OA
BRANCH  27  28
ATOM     28  C   UNL A   1      36.504  31.231  31.155  1.00  0.00     0.338 C 
ATOM     29  O   UNL A   1      36.337  31.441  32.347  1.00  0.00    -0.246 OA
BRANCH  28  30
ATOM     30  C   UNL A   1      37.754  30.675  30.600  1.00  0.00     0.060 A 
ATOM     31  C   UNL A   1      37.913  30.476  29.228  1.00  0.00     0.016 A 
ATOM     32  C   UNL A   1      38.794  30.372  31.489  1.00  0.00     0.016 A 
ATOM     33  C   UNL A   1      39.133  29.993  28.746  1.00  0.00     0.010 A 
ATOM     34  C   UNL A   1      40.010  29.892  31.004  1.00  0.00     0.010 A 
ATOM     35  C   UNL A   1      40.197  29.716  29.626  1.00  0.00    -0.014 A 
BRANCH  35  36
ATOM     36  C   UNL A   1      41.535  29.366  29.088  1.00  0.00     0.031 A 
ATOM     37  C   UNL A   1      42.643  30.376  29.020  1.00  0.00     0.074 A 
ATOM     38  C   UNL A   1      41.738  28.109  28.649  1.00  0.00     0.049 A 
ATOM     39  N   UNL A   1      43.886  30.204  28.647  1.00  0.00    -0.248 NA
ATOM     40  C   UNL A   1      42.317  31.754  29.415  1.00  0.00     0.031 C 
ATOM     41  C   UNL A   1      40.721  27.055  28.629  1.00  0.00     0.029 A 
ATOM     42  N   UNL A   1      42.860  27.498  28.149  1.00  0.00    -0.354 N 
ATOM     43  C   UNL A   1      44.500  31.443  28.782  1.00  0.00     0.074 A 
ATOM     44  C   UNL A   1      43.477  32.370  29.221  1.00  0.00     0.031 C 
ATOM     45  C   UNL A   1      41.276  25.919  28.180  1.00  0.00     0.029 A 
ATOM     46  C   UNL A   1      42.675  26.169  27.849  1.00  0.00     0.049 A 
ATOM     47  H   UNL A   1      43.715  27.967  28.018  1.00  0.00     0.167 HD
ATOM     48  C   UNL A   1      45.801  31.765  28.582  1.00  0.00     0.037 A 
ATOM     49  C   UNL A   1      43.535  25.251  27.364  1.00  0.00     0.037 A 
ATOM     50  C   UNL A   1      46.806  30.836  28.129  1.00  0.00     0.049 A 
ATOM     51  C   UNL A   1      44.962  25.650  27.103  1.00  0.00     0.074 A 
ATOM     52  C   UNL A   1      48.158  31.063  27.927  1.00  0.00     0.029 A 
ATOM     53  N   UNL A   1      46.575  29.508  27.796  1.00  0.00    -0.354 N 
ATOM     54  N   UNL A   1      45.544  26.808  27.308  1.00  0.00    -0.248 NA
ATOM     55  C   UNL A   1      45.850  24.619  26.549  1.00  0.00     0.031 C 
ATOM     56  C   UNL A   1      48.730  29.893  27.418  1.00  0.00     0.029 A 
ATOM     57  C   UNL A   1      47.750  28.916  27.359  1.00  0.00     0.049 A 
ATOM     58  H   UNL A   1      45.703  29.055  27.858  1.00  0.00     0.167 HD
ATOM     59  C   UNL A   1      46.870  26.638  26.927  1.00  0.00     0.074 A 
ATOM     60  C   UNL A   1      47.009  25.262  26.498  1.00  0.00     0.031 C 
ATOM     61  C   UNL A   1      47.880  27.544  26.931  1.00  0.00     0.037 A 
BRANCH  48  62
ATOM     62  C   UNL A   1      46.227  33.182  28.861  1.00  0.00     0.058 A 
ATOM     63  C   UNL A   1      46.712  33.564  30.122  1.00  0.00     0.135 A 
ATOM     64  C   UNL A   1      46.230  34.148  27.841  1.00  0.00     0.135 A 
ATOM     65  F   UNL A   1      46.724  32.685  31.137  1.00  0.00    -0.206 F 
ATOM     66  C   UNL A   1      47.167  34.855  30.368  1.00  0.00     0.059 A 
ATOM     67  C   UNL A   1      46.706  35.440  28.057  1.00  0.00     0.059 A 
ATOM     68  F   UNL A   1      45.780  33.839  26.615  1.00  0.00    -0.206 F 
ATOM     69  C   UNL A   1      47.165  35.785  29.327  1.00  0.00     0.060 A 
BRANCH  69  70
ATOM     70  S   UNL A   1      47.776  37.450  29.664  1.00  0.00     0.124 S 
ATOM     71  O   UNL A   1      46.675  38.271  29.170  1.00  0.00    -0.237 OA
ATOM     72  O   UNL A   1      47.950  37.429  31.113  1.00  0.00    -0.237 OA
ATOM     73  O   UNL A   1      49.010  37.527  28.887  1.00  0.00    -0.744 OA
ENDBRANCH  69  70
ENDBRANCH  48  62
BRANCH  49  74
ATOM     74  C   UNL A   1      43.071  23.858  27.130  1.00  0.00     0.058 A 
ATOM     75  C   UNL A   1      42.840  23.384  25.831  1.00  0.00     0.135 A 
ATOM     76  C   UNL A   1      42.879  22.965  28.196  1.00  0.00     0.135 A 
ATOM     77  F   UNL A   1      43.003  24.202  24.780  1.00  0.00    -0.206 F 
ATOM     78  C   UNL A   1      42.425  22.078  25.595  1.00  0.00     0.059 A 
ATOM     79  C   UNL A   1      42.491  21.645  27.984  1.00  0.00     0.059 A 
ATOM     80  F   UNL A   1      43.100  23.365  29.458  1.00  0.00    -0.206 F 
ATOM     81  C   UNL A   1      42.260  21.213  26.679  1.00  0.00     0.060 A 
BRANCH  81  82
ATOM     82  S   UNL A   1      41.774  19.505  26.353  1.00  0.00     0.124 S 
ATOM     83  O   UNL A   1      42.196  18.840  27.580  1.00  0.00    -0.237 OA
ATOM     84  O   UNL A   1      40.333  19.633  26.158  1.00  0.00    -0.237 OA
ATOM     85  O   UNL A   1      42.533  19.160  25.155  1.00  0.00    -0.744 OA
ENDBRANCH  81  82
ENDBRANCH  49  74
BRANCH  61  86
ATOM     86  C   UNL A   1      49.237  27.081  26.468  1.00  0.00     0.058 A 
ATOM     87  C   UNL A   1      50.158  26.501  27.353  1.00  0.00     0.135 A 
ATOM     88  C   UNL A   1      49.590  27.151  25.110  1.00  0.00     0.135 A 
ATOM     89  F   UNL A   1      49.876  26.417  28.664  1.00  0.00    -0.206 F 
ATOM     90  C   UNL A   1      51.387  26.019  26.913  1.00  0.00     0.059 A 
ATOM     91  C   UNL A   1      50.800  26.648  24.642  1.00  0.00     0.059 A 
ATOM     92  F   UNL A   1      48.743  27.689  24.218  1.00  0.00    -0.206 F 
ATOM     93  C   UNL A   1      51.696  26.090  25.552  1.00  0.00     0.060 A 
BRANCH  93  94
ATOM     94  S   UNL A   1      53.273  25.415  24.992  1.00  0.00     0.124 S 
ATOM     95  O   UNL A   1      54.226  26.233  25.736  1.00  0.00    -0.237 OA
ATOM     96  O   UNL A   1      53.178  24.018  25.408  1.00  0.00    -0.237 OA
ATOM     97  O   UNL A   1      53.248  25.638  23.550  1.00  0.00    -0.744 OA
ENDBRANCH  93  94
ENDBRANCH  61  86
ENDBRANCH  35  36
ENDBRANCH  28  30
ENDBRANCH  27  28
ENDBRANCH  26  27
ENDBRANCH   1  26
TORSDOF 18
ENDMDL
MODEL 2
REMARK VINA RESULT:     -11.6      6.264     12.097
REMARK SMILES Cc1nn(-c2ccc(C(=O)OCCOCCOC(=O)c3ccc(-c4c5nc(c(-c6c(F)cc(S(=O)(=O)[O-])cc6F)c6ccc([nH]6)c(-c6c(F)cc(S(=O)(=O)[O-])cc6F)c6nc(c(-c7c(F)cc(S(=O)(=O)[O-])cc7F)c7ccc4[nH]7)C=C6)C=C5)cc3)cc2)c(=O)c2ccccc12
REMARK SMILES IDX 15 1 14 2 13 3 12 4 11 5 9 6 10 7 8 8 5 9 6 10 87 11 7 12
REMARK SMILES IDX 86 13 4 14 1 15 2 16 3 17 95 18 90 19 94 20 88 21 91 22
REMARK SMILES IDX 93 23 89 24 92 25 16 26 17 27 18 28 19 29 20 30 21 31 85 32
REMARK SMILES IDX 22 33 84 34 23 35 24 36 25 37 78 38 26 39 83 40 77 41 79 42
REMARK SMILES IDX 27 43 82 44 76 45 75 46 28 48 62 49 41 50 61 51 42 52 45 53
REMARK SMILES IDX 60 54 80 55 43 56 44 57 59 59 81 60 46 61 29 62 30 63 39 64
REMARK SMILES IDX 31 65 32 66 38 67 40 68 33 69 34 70 35 71 36 72 37 73 63 74
REMARK SMILES IDX 64 75 73 76 65 77 66 78 72 79 74 80 67 81 68 82 69 83 70 84
REMARK SMILES IDX 71 85 47 86 48 87 57 88 49 89 50 90 56 91 58 92 51 93 52 94
REMARK SMILES IDX 53 95 54 96 55 97
REMARK H PARENT 79 47 45 58
REMARK Flexibility Score: inf
ROOT
ATOM      1  C   UNL A   1      40.035  21.755  26.649  1.00  0.00     0.202 C 
ENDROOT
BRANCH   1   2
ATOM      2  O   UNL A   1      38.913  21.640  25.774  1.00  0.00    -0.374 OA
BRANCH   2   3
ATOM      3  C   UNL A   1      37.995  22.731  25.724  1.00  0.00     0.202 C 
BRANCH   3   4
ATOM      4  C   UNL A   1      36.498  22.400  25.694  1.00  0.00     0.261 C 
BRANCH   4   5
ATOM      5  O   UNL A   1      35.700  23.569  25.460  1.00  0.00    -0.460 OA
BRANCH   5   6
ATOM      6  C   UNL A   1      34.904  23.508  24.364  1.00  0.00     0.338 C 
ATOM      7  O   UNL A   1      34.664  22.524  23.683  1.00  0.00    -0.246 OA
BRANCH   6   8
ATOM      8  C   UNL A   1      34.167  24.782  24.215  1.00  0.00     0.060 A 
ATOM      9  C   UNL A   1      32.678  27.147  24.058  1.00  0.00     0.069 A 
ATOM     10  C   UNL A   1      32.950  26.574  25.305  1.00  0.00     0.029 A 
ATOM     11  C   UNL A   1      33.224  26.568  22.901  1.00  0.00     0.029 A 
ATOM     12  C   UNL A   1      33.660  25.375  25.379  1.00  0.00     0.018 A 
ATOM     13  C   UNL A   1      33.990  25.402  22.977  1.00  0.00     0.018 A 
BRANCH   9  14
ATOM     14  N   UNL A   1      31.775  28.242  23.974  1.00  0.00    -0.196 N 
ATOM     15  C   UNL A   1      31.380  31.249  26.045  1.00  0.00     0.069 C 
ATOM     16  C   UNL A   1      31.103  30.195  24.994  1.00  0.00     0.066 A 
ATOM     17  N   UNL A   1      31.902  29.172  24.978  1.00  0.00    -0.169 NA
ATOM     18  C   UNL A   1      29.987  30.370  24.037  1.00  0.00     0.010 A 
ATOM     19  C   UNL A   1      29.836  29.389  23.063  1.00  0.00     0.051 A 
ATOM     20  C   UNL A   1      29.062  31.420  24.096  1.00  0.00     0.011 A 
ATOM     21  C   UNL A   1      30.814  28.295  22.965  1.00  0.00     0.279 A 
ATOM     22  C   UNL A   1      28.743  29.418  22.184  1.00  0.00     0.014 A 
ATOM     23  C   UNL A   1      27.976  31.451  23.214  1.00  0.00     0.001 A 
ATOM     24  O   UNL A   1      30.680  27.484  22.050  1.00  0.00    -0.267 OA
ATOM     25  C   UNL A   1      27.809  30.445  22.266  1.00  0.00     0.001 A 
ENDBRANCH   9  14
ENDBRANCH   6   8
ENDBRANCH   5   6
ENDBRANCH   4   5
ENDBRANCH   3   4
ENDBRANCH   2   3
ENDBRANCH   1   2
BRANCH   1  26
ATOM     26  C   UNL A   1      41.286  22.467  26.122  1.00  0.00     0.261 C 
BRANCH  26  27
ATOM     27  O   UNL A   1      41.778  23.467  27.029  1.00  0.00    -0.460 OA
BRANCH  27  28
ATOM     28  C   UNL A   1      41.904  24.710  26.501  1.00  0.00     0.338 C 
ATOM     29  O   UNL A   1      42.101  24.997  25.331  1.00  0.00    -0.246 OA
BRANCH  28  30
ATOM     30  C   UNL A   1      41.564  25.710  27.533  1.00  0.00     0.060 A 
ATOM     31  C   UNL A   1      40.420  25.581  28.320  1.00  0.00     0.016 A 
ATOM     32  C   UNL A   1      42.439  26.788  27.719  1.00  0.00     0.016 A 
ATOM     33  C   UNL A   1      40.167  26.527  29.317  1.00  0.00     0.010 A 
ATOM     34  C   UNL A   1      42.185  27.730  28.716  1.00  0.00     0.010 A 
ATOM     35  C   UNL A   1      41.056  27.597  29.536  1.00  0.00    -0.014 A 
BRANCH  35  36
ATOM     36  C   UNL A   1      40.865  28.495  30.703  1.00  0.00     0.031 A 
ATOM     37  C   UNL A   1      41.726  28.386  31.927  1.00  0.00     0.074 A 
ATOM     38  C   UNL A   1      39.887  29.419  30.644  1.00  0.00     0.049 A 
ATOM     39  N   UNL A   1      41.731  29.144  32.994  1.00  0.00    -0.248 NA
ATOM     40  C   UNL A   1      42.700  27.286  31.964  1.00  0.00     0.031 C 
ATOM     41  C   UNL A   1      38.962  29.588  29.520  1.00  0.00     0.029 A 
ATOM     42  N   UNL A   1      39.511  30.393  31.534  1.00  0.00    -0.354 N 
ATOM     43  C   UNL A   1      42.722  28.631  33.822  1.00  0.00     0.074 A 
ATOM     44  C   UNL A   1      43.259  27.462  33.155  1.00  0.00     0.031 C 
ATOM     45  C   UNL A   1      38.154  30.629  29.771  1.00  0.00     0.029 A 
ATOM     46  C   UNL A   1      38.477  31.180  31.084  1.00  0.00     0.049 A 
ATOM     47  H   UNL A   1      39.941  30.516  32.411  1.00  0.00     0.167 HD
ATOM     48  C   UNL A   1      43.156  29.109  35.013  1.00  0.00     0.037 A 
ATOM     49  C   UNL A   1      37.860  32.230  31.659  1.00  0.00     0.037 A 
ATOM     50  C   UNL A   1      42.601  30.264  35.675  1.00  0.00     0.049 A 
ATOM     51  C   UNL A   1      38.328  32.708  33.006  1.00  0.00     0.074 A 
ATOM     52  C   UNL A   1      42.997  30.842  36.870  1.00  0.00     0.029 A 
ATOM     53  N   UNL A   1      41.529  31.012  35.210  1.00  0.00    -0.354 N 
ATOM     54  N   UNL A   1      39.317  32.257  33.742  1.00  0.00    -0.248 NA
ATOM     55  C   UNL A   1      37.603  33.839  33.601  1.00  0.00     0.031 C 
ATOM     56  C   UNL A   1      42.129  31.901  37.156  1.00  0.00     0.029 A 
ATOM     57  C   UNL A   1      41.229  32.024  36.110  1.00  0.00     0.049 A 
ATOM     58  H   UNL A   1      41.050  30.847  34.366  1.00  0.00     0.167 HD
ATOM     59  C   UNL A   1      39.344  33.061  34.876  1.00  0.00     0.074 A 
ATOM     60  C   UNL A   1      38.287  34.038  34.720  1.00  0.00     0.031 C 
ATOM     61  C   UNL A   1      40.171  32.993  35.949  1.00  0.00     0.037 A 
BRANCH  48  62
ATOM     62  C   UNL A   1      44.298  28.394  35.686  1.00  0.00     0.058 A 
ATOM     63  C   UNL A   1      44.070  27.375  36.625  1.00  0.00     0.135 A 
ATOM     64  C   UNL A   1      45.630  28.670  35.333  1.00  0.00     0.135 A 
ATOM     65  F   UNL A   1      42.818  27.075  37.007  1.00  0.00    -0.206 F 
ATOM     66  C   UNL A   1      45.119  26.668  37.203  1.00  0.00     0.059 A 
ATOM     67  C   UNL A   1      46.694  27.956  35.879  1.00  0.00     0.059 A 
ATOM     68  F   UNL A   1      45.907  29.631  34.439  1.00  0.00    -0.206 F 
ATOM     69  C   UNL A   1      46.429  26.962  36.819  1.00  0.00     0.060 A 
BRANCH  69  70
ATOM     70  S   UNL A   1      47.774  26.020  37.568  1.00  0.00     0.124 S 
ATOM     71  O   UNL A   1      47.889  24.892  36.649  1.00  0.00    -0.237 OA
ATOM     72  O   UNL A   1      48.876  26.977  37.538  1.00  0.00    -0.237 OA
ATOM     73  O   UNL A   1      47.265  25.694  38.897  1.00  0.00    -0.744 OA
ENDBRANCH  69  70
ENDBRANCH  48  62
BRANCH  49  74
ATOM     74  C   UNL A   1      36.753  32.918  30.942  1.00  0.00     0.058 A 
ATOM     75  C   UNL A   1      35.417  32.718  31.317  1.00  0.00     0.135 A 
ATOM     76  C   UNL A   1      37.011  33.811  29.890  1.00  0.00     0.135 A 
ATOM     77  F   UNL A   1      35.120  31.870  32.313  1.00  0.00    -0.206 F 
ATOM     78  C   UNL A   1      34.373  33.370  30.669  1.00  0.00     0.059 A 
ATOM     79  C   UNL A   1      35.986  34.496  29.244  1.00  0.00     0.059 A 
ATOM     80  F   UNL A   1      38.274  34.048  29.502  1.00  0.00    -0.206 F 
ATOM     81  C   UNL A   1      34.669  34.263  29.638  1.00  0.00     0.060 A 
BRANCH  81  82
ATOM     82  S   UNL A   1      33.307  35.142  28.842  1.00  0.00     0.124 S 
ATOM     83  O   UNL A   1      32.511  35.554  29.992  1.00  0.00    -0.237 OA
ATOM     84  O   UNL A   1      34.008  36.210  28.134  1.00  0.00    -0.237 OA
ATOM     85  O   UNL A   1      32.702  34.125  27.988  1.00  0.00    -0.744 OA
ENDBRANCH  81  82
ENDBRANCH  49  74
BRANCH  61  86
ATOM     86  C   UNL A   1      39.980  34.008  37.045  1.00  0.00     0.058 A 
ATOM     87  C   UNL A   1      40.497  35.308  36.941  1.00  0.00     0.135 A 
ATOM     88  C   UNL A   1      39.208  33.699  38.178  1.00  0.00     0.135 A 
ATOM     89  F   UNL A   1      41.250  35.655  35.884  1.00  0.00    -0.206 F 
ATOM     90  C   UNL A   1      40.269  36.263  37.928  1.00  0.00     0.059 A 
ATOM     91  C   UNL A   1      38.941  34.647  39.161  1.00  0.00     0.059 A 
ATOM     92  F   UNL A   1      38.682  32.473  38.324  1.00  0.00    -0.206 F 
ATOM     93  C   UNL A   1      39.482  35.925  39.031  1.00  0.00     0.060 A 
BRANCH  93  94
ATOM     94  S   UNL A   1      39.155  37.191  40.275  1.00  0.00     0.124 S 
ATOM     95  O   UNL A   1      38.497  38.225  39.480  1.00  0.00    -0.237 OA
ATOM     96  O   UNL A   1      38.300  36.481  41.222  1.00  0.00    -0.237 OA
ATOM     97  O   UNL A   1      40.484  37.534  40.772  1.00  0.00    -0.744 OA
ENDBRANCH  93  94
ENDBRANCH  61  86
ENDBRANCH  35  36
ENDBRANCH  28  30
ENDBRANCH  27  28
ENDBRANCH  26  27
ENDBRANCH   1  26
TORSDOF 18
ENDMDL
MODEL 3
REMARK VINA RESULT:     -11.4      1.790      3.116
REMARK SMILES Cc1nn(-c2ccc(C(=O)OCCOCCOC(=O)c3ccc(-c4c5nc(c(-c6c(F)cc(S(=O)(=O)[O-])cc6F)c6ccc([nH]6)c(-c6c(F)cc(S(=O)(=O)[O-])cc6F)c6nc(c(-c7c(F)cc(S(=O)(=O)[O-])cc7F)c7ccc4[nH]7)C=C6)C=C5)cc3)cc2)c(=O)c2ccccc12
REMARK SMILES IDX 15 1 14 2 13 3 12 4 11 5 9 6 10 7 8 8 5 9 6 10 87 11 7 12
REMARK SMILES IDX 86 13 4 14 1 15 2 16 3 17 95 18 90 19 94 20 88 21 91 22
REMARK SMILES IDX 93 23 89 24 92 25 16 26 17 27 18 28 19 29 20 30 21 31 85 32
REMARK SMILES IDX 22 33 84 34 23 35 24 36 25 37 78 38 26 39 83 40 77 41 79 42
REMARK SMILES IDX 27 43 82 44 76 45 75 46 28 48 62 49 41 50 61 51 42 52 45 53
REMARK SMILES IDX 60 54 80 55 43 56 44 57 59 59 81 60 46 61 29 62 30 63 39 64
REMARK SMILES IDX 31 65 32 66 38 67 40 68 33 69 34 70 35 71 36 72 37 73 63 74
REMARK SMILES IDX 64 75 73 76 65 77 66 78 72 79 74 80 67 81 68 82 69 83 70 84
REMARK SMILES IDX 71 85 47 86 48 87 57 88 49 89 50 90 56 91 58 92 51 93 52 94
REMARK SMILES IDX 53 95 54 96 55 97
REMARK H PARENT 79 47 45 58
REMARK Flexibility Score: inf
ROOT
ATOM      1  C   UNL A   1      34.833  33.727  31.212  1.00  0.00     0.202 C 
ENDROOT
BRANCH   1   2
ATOM      2  O   UNL A   1      33.652  34.113  30.508  1.00  0.00    -0.374 OA
BRANCH   2   3
ATOM      3  C   UNL A   1      33.808  34.674  29.205  1.00  0.00     0.202 C 
BRANCH   3   4
ATOM      4  C   UNL A   1      33.287  33.860  28.014  1.00  0.00     0.261 C 
BRANCH   4   5
ATOM      5  O   UNL A   1      33.316  32.451  28.280  1.00  0.00    -0.460 OA
BRANCH   5   6
ATOM      6  C   UNL A   1      34.328  31.777  27.681  1.00  0.00     0.338 C 
ATOM      7  O   UNL A   1      35.510  32.085  27.665  1.00  0.00    -0.246 OA
BRANCH   6   8
ATOM      8  C   UNL A   1      33.839  30.462  27.212  1.00  0.00     0.060 A 
ATOM      9  C   UNL A   1      33.059  27.951  26.251  1.00  0.00     0.069 A 
ATOM     10  C   UNL A   1      34.378  28.160  26.670  1.00  0.00     0.029 A 
ATOM     11  C   UNL A   1      32.120  28.986  26.390  1.00  0.00     0.029 A 
ATOM     12  C   UNL A   1      34.774  29.423  27.113  1.00  0.00     0.018 A 
ATOM     13  C   UNL A   1      32.500  30.233  26.895  1.00  0.00     0.018 A 
BRANCH   9  14
ATOM     14  N   UNL A   1      32.717  26.735  25.600  1.00  0.00    -0.196 N 
ATOM     15  C   UNL A   1      30.548  23.948  26.610  1.00  0.00     0.069 C 
ATOM     16  C   UNL A   1      31.554  24.758  25.820  1.00  0.00     0.066 A 
ATOM     17  N   UNL A   1      31.900  25.902  26.326  1.00  0.00    -0.169 NA
ATOM     18  C   UNL A   1      32.074  24.251  24.530  1.00  0.00     0.010 A 
ATOM     19  C   UNL A   1      32.946  25.081  23.834  1.00  0.00     0.051 A 
ATOM     20  C   UNL A   1      31.782  22.983  24.012  1.00  0.00     0.011 A 
ATOM     21  C   UNL A   1      33.242  26.428  24.345  1.00  0.00     0.279 A 
ATOM     22  C   UNL A   1      33.570  24.637  22.658  1.00  0.00     0.014 A 
ATOM     23  C   UNL A   1      32.399  22.543  22.835  1.00  0.00     0.001 A 
ATOM     24  O   UNL A   1      33.968  27.153  23.668  1.00  0.00    -0.267 OA
ATOM     25  C   UNL A   1      33.302  23.364  22.165  1.00  0.00     0.001 A 
ENDBRANCH   9  14
ENDBRANCH   6   8
ENDBRANCH   5   6
ENDBRANCH   4   5
ENDBRANCH   3   4
ENDBRANCH   2   3
ENDBRANCH   1   2
BRANCH   1  26
ATOM     26  C   UNL A   1      35.135  32.230  31.341  1.00  0.00     0.261 C 
BRANCH  26  27
ATOM     27  O   UNL A   1      36.401  31.868  30.767  1.00  0.00    -0.460 OA
BRANCH  27  28
ATOM     28  C   UNL A   1      36.678  30.540  30.779  1.00  0.00     0.338 C 
ATOM     29  O   UNL A   1      35.894  29.625  30.978  1.00  0.00    -0.246 OA
BRANCH  28  30
ATOM     30  C   UNL A   1      38.063  30.332  30.313  1.00  0.00     0.060 A 
ATOM     31  C   UNL A   1      39.123  30.221  31.212  1.00  0.00     0.016 A 
ATOM     32  C   UNL A   1      38.285  30.224  28.934  1.00  0.00     0.016 A 
ATOM     33  C   UNL A   1      40.410  29.976  30.724  1.00  0.00     0.010 A 
ATOM     34  C   UNL A   1      39.570  29.978  28.450  1.00  0.00     0.010 A 
ATOM     35  C   UNL A   1      40.640  29.833  29.342  1.00  0.00    -0.014 A 
BRANCH  35  36
ATOM     36  C   UNL A   1      41.975  29.407  28.852  1.00  0.00     0.031 A 
ATOM     37  C   UNL A   1      43.130  30.362  28.788  1.00  0.00     0.074 A 
ATOM     38  C   UNL A   1      42.130  28.129  28.453  1.00  0.00     0.049 A 
ATOM     39  N   UNL A   1      44.373  30.122  28.454  1.00  0.00    -0.248 NA
ATOM     40  C   UNL A   1      42.859  31.764  29.136  1.00  0.00     0.031 C 
ATOM     41  C   UNL A   1      41.066  27.123  28.432  1.00  0.00     0.029 A 
ATOM     42  N   UNL A   1      43.236  27.454  28.001  1.00  0.00    -0.354 N 
ATOM     43  C   UNL A   1      45.040  31.335  28.574  1.00  0.00     0.074 A 
ATOM     44  C   UNL A   1      44.051  32.321  28.958  1.00  0.00     0.031 C 
ATOM     45  C   UNL A   1      41.579  25.951  28.030  1.00  0.00     0.029 A 
ATOM     46  C   UNL A   1      42.997  26.126  27.731  1.00  0.00     0.049 A 
ATOM     47  H   UNL A   1      44.115  27.879  27.881  1.00  0.00     0.167 HD
ATOM     48  C   UNL A   1      46.360  31.592  28.401  1.00  0.00     0.037 A 
ATOM     49  C   UNL A   1      43.826  25.157  27.296  1.00  0.00     0.037 A 
ATOM     50  C   UNL A   1      47.333  30.605  28.002  1.00  0.00     0.049 A 
ATOM     51  C   UNL A   1      45.276  25.482  27.064  1.00  0.00     0.074 A 
ATOM     52  C   UNL A   1      48.698  30.764  27.832  1.00  0.00     0.029 A 
ATOM     53  N   UNL A   1      47.049  29.281  27.698  1.00  0.00    -0.354 N 
ATOM     54  N   UNL A   1      45.906  26.618  27.254  1.00  0.00    -0.248 NA
ATOM     55  C   UNL A   1      46.130  24.396  26.563  1.00  0.00     0.031 C 
ATOM     56  C   UNL A   1      49.229  29.555  27.371  1.00  0.00     0.029 A 
ATOM     57  C   UNL A   1      48.206  28.623  27.311  1.00  0.00     0.049 A 
ATOM     58  H   UNL A   1      46.155  28.870  27.748  1.00  0.00     0.167 HD
ATOM     59  C   UNL A   1      47.233  26.376  26.915  1.00  0.00     0.074 A 
ATOM     60  C   UNL A   1      47.319  24.984  26.528  1.00  0.00     0.031 C 
ATOM     61  C   UNL A   1      48.284  27.235  26.923  1.00  0.00     0.037 A 
BRANCH  48  62
ATOM     62  C   UNL A   1      46.844  32.995  28.654  1.00  0.00     0.058 A 
ATOM     63  C   UNL A   1      46.877  33.952  27.626  1.00  0.00     0.135 A 
ATOM     64  C   UNL A   1      47.202  33.413  29.946  1.00  0.00     0.135 A 
ATOM     65  F   UNL A   1      46.556  33.607  26.369  1.00  0.00    -0.206 F 
ATOM     66  C   UNL A   1      47.264  35.267  27.867  1.00  0.00     0.059 A 
ATOM     67  C   UNL A   1      47.565  34.731  30.215  1.00  0.00     0.059 A 
ATOM     68  F   UNL A   1      47.186  32.542  30.968  1.00  0.00    -0.206 F 
ATOM     69  C   UNL A   1      47.601  35.648  29.167  1.00  0.00     0.060 A 
BRANCH  69  70
ATOM     70  S   UNL A   1      48.082  37.363  29.459  1.00  0.00     0.124 S 
ATOM     71  O   UNL A   1      46.823  38.064  29.226  1.00  0.00    -0.237 OA
ATOM     72  O   UNL A   1      48.539  37.325  30.845  1.00  0.00    -0.237 OA
ATOM     73  O   UNL A   1      49.123  37.601  28.464  1.00  0.00    -0.744 OA
ENDBRANCH  69  70
ENDBRANCH  48  62
BRANCH  49  74
ATOM     74  C   UNL A   1      43.304  23.780  27.086  1.00  0.00     0.058 A 
ATOM     75  C   UNL A   1      43.125  22.905  28.167  1.00  0.00     0.135 A 
ATOM     76  C   UNL A   1      42.945  23.324  25.809  1.00  0.00     0.135 A 
ATOM     77  F   UNL A   1      43.459  23.293  29.407  1.00  0.00    -0.206 F 
ATOM     78  C   UNL A   1      42.618  21.622  27.989  1.00  0.00     0.059 A 
ATOM     79  C   UNL A   1      42.410  22.055  25.608  1.00  0.00     0.059 A 
ATOM     80  F   UNL A   1      43.083  24.128  24.743  1.00  0.00    -0.206 F 
ATOM     81  C   UNL A   1      42.257  21.209  26.706  1.00  0.00     0.060 A 
BRANCH  81  82
ATOM     82  S   UNL A   1      41.550  19.560  26.498  1.00  0.00     0.124 S 
ATOM     83  O   UNL A   1      40.140  19.868  26.290  1.00  0.00    -0.237 OA
ATOM     84  O   UNL A   1      42.275  19.065  25.332  1.00  0.00    -0.237 OA
ATOM     85  O   UNL A   1      41.871  18.895  27.757  1.00  0.00    -0.744 OA
ENDBRANCH  81  82
ENDBRANCH  49  74
BRANCH  61  86
ATOM     86  C   UNL A   1      49.629  26.698  26.511  1.00  0.00     0.058 A 
ATOM     87  C   UNL A   1      50.081  26.786  25.186  1.00  0.00     0.135 A 
ATOM     88  C   UNL A   1      50.506  26.156  27.466  1.00  0.00     0.135 A 
ATOM     89  F   UNL A   1      49.282  27.287  24.230  1.00  0.00    -0.206 F 
ATOM     90  C   UNL A   1      51.349  26.344  24.818  1.00  0.00     0.059 A 
ATOM     91  C   UNL A   1      51.788  25.737  27.127  1.00  0.00     0.059 A 
ATOM     92  F   UNL A   1      50.127  26.055  28.750  1.00  0.00    -0.206 F 
ATOM     93  C   UNL A   1      52.199  25.828  25.799  1.00  0.00     0.060 A 
BRANCH  93  94
ATOM     94  S   UNL A   1      53.857  25.306  25.312  1.00  0.00     0.124 S 
ATOM     95  O   UNL A   1      53.578  24.061  24.601  1.00  0.00    -0.237 OA
ATOM     96  O   UNL A   1      54.302  26.422  24.484  1.00  0.00    -0.237 OA
ATOM     97  O   UNL A   1      54.556  25.156  26.585  1.00  0.00    -0.744 OA
ENDBRANCH  93  94
ENDBRANCH  61  86
ENDBRANCH  35  36
ENDBRANCH  28  30
ENDBRANCH  27  28
ENDBRANCH  26  27
ENDBRANCH   1  26
TORSDOF 18
ENDMDL
