MODEL 1
REMARK VINA RESULT:     -13.1      0.000      0.000
REMARK SMILES Cc1ccc(NC(=O)[C@H]2CC(Cl)=CC[C@@H]2C(=O)OCCOCCOC(=O)c2ccc(-c3c4nc(c(-c5c(F)cc(S(=O)(=O)[O-])cc5F)c5ccc([nH]5)c(-c5c(F)cc(S(=O)(=O)[O-])cc5F)c5nc(c(-c6c(F)cc(S(=O)(=O)[O-])cc6F)c6ccc3[nH]6)C=C5)C=C4)cc2)cc1[N+](=O)[O-]
REMARK SMILES IDX 21 1 20 2 19 3 18 4 16 5 17 6 15 7 9 8 10 9 11 10 14 11
REMARK SMILES IDX 12 12 13 13 7 14 6 15 8 17 5 18 1 19 2 20 3 21 94 22 4 23
REMARK SMILES IDX 93 24 95 25 96 26 97 27 22 28 23 29 24 30 25 31 26 32 27 33
REMARK SMILES IDX 28 34 92 35 29 36 91 37 30 38 31 39 32 40 85 41 33 42 90 43
REMARK SMILES IDX 84 44 86 45 34 46 89 47 83 48 82 49 35 51 69 52 48 53 68 54
REMARK SMILES IDX 49 55 52 56 67 57 87 58 50 59 51 60 66 62 88 63 53 64 36 65
REMARK SMILES IDX 37 66 46 67 38 68 39 69 45 70 47 71 40 72 41 73 42 74 43 75
REMARK SMILES IDX 44 76 70 77 71 78 80 79 72 80 73 81 79 82 81 83 74 84 75 85
REMARK SMILES IDX 76 86 77 87 78 88 54 89 55 90 64 91 56 92 57 93 63 94 65 95
REMARK SMILES IDX 58 96 59 97 60 98 61 99 62 100
REMARK H PARENT 6 16 86 50 52 61
REMARK Flexibility Score: inf
ROOT
ATOM      1  O   UNL A   1      36.064  21.656  24.976  1.00  0.00    -0.374 OA
ENDROOT
BRANCH   1   2
ATOM      2  C   UNL A   1      35.038  22.325  24.153  1.00  0.00     0.202 C 
BRANCH   2   3
ATOM      3  C   UNL A   1      35.033  23.716  23.399  1.00  0.00     0.261 C 
BRANCH   3   4
ATOM      4  O   UNL A   1      34.508  24.798  24.177  1.00  0.00    -0.463 OA
BRANCH   4   5
ATOM      5  C   UNL A   1      33.982  25.766  23.421  1.00  0.00     0.310 C 
ATOM      6  O   UNL A   1      33.893  25.701  22.205  1.00  0.00    -0.252 OA
BRANCH   5   7
ATOM      7  C   UNL A   1      33.331  26.819  24.270  1.00  0.00     0.116 C 
ATOM      8  C   UNL A   1      31.760  26.554  24.434  1.00  0.00     0.098 C 
ATOM      9  C   UNL A   1      31.046  27.942  24.439  1.00  0.00     0.062 C 
ATOM     10  C   UNL A   1      31.439  28.824  23.280  1.00  0.00     0.015 C 
ATOM     11  C   UNL A   1      33.770  28.082  23.424  1.00  0.00     0.044 C 
ATOM     12  Cl  UNL A   1      30.216  29.744  22.491  1.00  0.00    -0.089 Cl
ATOM     13  C   UNL A   1      32.692  28.903  22.837  1.00  0.00    -0.010 C 
BRANCH   8  14
ATOM     14  C   UNL A   1      31.216  25.641  25.656  1.00  0.00     0.228 C 
ATOM     15  N   UNL A   1      30.845  24.262  25.755  1.00  0.00    -0.326 N 
ATOM     16  H   UNL A   1      30.232  24.112  26.512  1.00  0.00     0.169 HD
ATOM     17  O   UNL A   1      31.036  26.272  26.718  1.00  0.00    -0.274 OA
BRANCH  15  18
ATOM     18  C   UNL A   1      31.147  22.900  24.981  1.00  0.00     0.048 A 
ATOM     19  C   UNL A   1      32.247  18.463  21.705  1.00  0.00     0.052 C 
ATOM     20  C   UNL A   1      32.064  19.622  22.683  1.00  0.00     0.027 A 
ATOM     21  C   UNL A   1      32.009  21.563  22.068  1.00  0.00     0.012 A 
ATOM     22  C   UNL A   1      32.493  19.602  24.656  1.00  0.00     0.274 A 
ATOM     23  C   UNL A   1      31.336  23.157  23.093  1.00  0.00     0.027 A 
ATOM     24  C   UNL A   1      31.890  21.194  25.662  1.00  0.00     0.112 A 
BRANCH  22  25
ATOM     25  N   UNL A   1      33.160  18.505  25.322  1.00  0.00     0.063 N 
ATOM     26  O   UNL A   1      34.302  18.243  24.918  1.00  0.00    -0.258 OA
ATOM     27  O   UNL A   1      32.502  17.815  26.108  1.00  0.00    -0.258 OA
ENDBRANCH  22  25
ENDBRANCH  15  18
ENDBRANCH   8  14
ENDBRANCH   5   7
ENDBRANCH   4   5
ENDBRANCH   3   4
ENDBRANCH   2   3
ENDBRANCH   1   2
BRANCH   1  28
ATOM     28  C   UNL A   1      37.207  20.595  24.977  1.00  0.00     0.202 C 
BRANCH  28  29
ATOM     29  C   UNL A   1      38.979  20.327  25.640  1.00  0.00     0.261 C 
BRANCH  29  30
ATOM     30  O   UNL A   1      40.437  21.447  26.112  1.00  0.00    -0.460 OA
BRANCH  30  31
ATOM     31  C   UNL A   1      40.620  22.962  27.132  1.00  0.00     0.338 C 
ATOM     32  O   UNL A   1      40.894  22.176  28.178  1.00  0.00    -0.246 OA
BRANCH  31  33
ATOM     33  C   UNL A   1      40.356  25.209  27.222  1.00  0.00     0.060 A 
ATOM     34  C   UNL A   1      39.999  26.467  26.539  1.00  0.00     0.016 A 
ATOM     35  C   UNL A   1      39.747  26.035  28.464  1.00  0.00     0.016 A 
ATOM     36  C   UNL A   1      40.428  27.874  27.171  1.00  0.00     0.010 A 
ATOM     37  C   UNL A   1      40.494  26.938  29.167  1.00  0.00     0.010 A 
ATOM     38  C   UNL A   1      41.034  27.924  28.455  1.00  0.00    -0.014 A 
BRANCH  38  39
ATOM     39  C   UNL A   1      42.150  28.566  29.264  1.00  0.00     0.031 A 
ATOM     40  C   UNL A   1      41.767  29.865  29.903  1.00  0.00     0.074 A 
ATOM     41  C   UNL A   1      43.229  27.861  29.755  1.00  0.00     0.049 A 
ATOM     42  N   UNL A   1      42.144  31.048  29.529  1.00  0.00    -0.248 NA
ATOM     43  C   UNL A   1      40.688  29.947  30.930  1.00  0.00     0.031 C 
ATOM     44  C   UNL A   1      44.454  28.093  30.541  1.00  0.00     0.029 A 
ATOM     45  N   UNL A   1      43.475  26.537  29.497  1.00  0.00    -0.354 N 
ATOM     46  C   UNL A   1      41.778  31.860  30.601  1.00  0.00     0.074 A 
ATOM     47  C   UNL A   1      40.572  31.262  31.083  1.00  0.00     0.031 C 
ATOM     48  C   UNL A   1      45.438  27.208  30.197  1.00  0.00     0.029 A 
ATOM     49  C   UNL A   1      44.842  26.280  29.275  1.00  0.00     0.049 A 
ATOM     50  H   UNL A   1      42.775  25.844  29.470  1.00  0.00     0.167 HD
ATOM     51  C   UNL A   1      42.739  32.336  31.466  1.00  0.00     0.037 A 
ATOM     52  C   UNL A   1      45.110  25.957  27.976  1.00  0.00     0.037 A 
ATOM     53  C   UNL A   1      44.070  31.750  31.166  1.00  0.00     0.049 A 
ATOM     54  C   UNL A   1      45.430  27.333  27.348  1.00  0.00     0.074 A 
ATOM     55  C   UNL A   1      45.060  31.075  31.859  1.00  0.00     0.029 A 
ATOM     56  N   UNL A   1      44.435  31.604  29.836  1.00  0.00    -0.354 N 
ATOM     57  N   UNL A   1      45.171  28.446  27.992  1.00  0.00    -0.248 NA
ATOM     58  C   UNL A   1      46.157  27.631  26.121  1.00  0.00     0.031 C 
ATOM     59  C   UNL A   1      46.031  30.590  30.894  1.00  0.00     0.029 A 
ATOM     60  C   UNL A   1      45.559  30.846  29.611  1.00  0.00     0.049 A 
ATOM     61  H   UNL A   1      43.923  32.016  29.104  1.00  0.00     0.167 HD
ATOM     62  C   UNL A   1      45.828  29.510  27.498  1.00  0.00     0.074 A 
ATOM     63  C   UNL A   1      46.272  28.979  26.206  1.00  0.00     0.031 C 
ATOM     64  C   UNL A   1      45.997  30.684  28.208  1.00  0.00     0.037 A 
BRANCH  51  65
ATOM     65  C   UNL A   1      42.422  33.206  32.698  1.00  0.00     0.058 A 
ATOM     66  C   UNL A   1      42.445  34.612  32.575  1.00  0.00     0.135 A 
ATOM     67  C   UNL A   1      41.972  32.762  33.973  1.00  0.00     0.135 A 
ATOM     68  F   UNL A   1      42.800  35.200  31.425  1.00  0.00    -0.206 F 
ATOM     69  C   UNL A   1      42.052  35.486  33.598  1.00  0.00     0.059 A 
ATOM     70  C   UNL A   1      41.602  33.618  35.022  1.00  0.00     0.059 A 
ATOM     71  F   UNL A   1      41.802  31.473  34.274  1.00  0.00    -0.206 F 
ATOM     72  C   UNL A   1      41.621  34.982  34.816  1.00  0.00     0.060 A 
BRANCH  72  73
ATOM     73  S   UNL A   1      41.017  36.122  36.076  1.00  0.00     0.124 S 
ATOM     74  O   UNL A   1      39.705  36.488  35.552  1.00  0.00    -0.237 OA
ATOM     75  O   UNL A   1      41.013  35.281  37.269  1.00  0.00    -0.237 OA
ATOM     76  O   UNL A   1      42.008  37.194  36.076  1.00  0.00    -0.744 OA
ENDBRANCH  72  73
ENDBRANCH  51  65
BRANCH  52  77
ATOM     77  C   UNL A   1      44.045  24.867  27.673  1.00  0.00     0.058 A 
ATOM     78  C   UNL A   1      43.793  24.649  26.338  1.00  0.00     0.135 A 
ATOM     79  C   UNL A   1      44.128  23.594  28.118  1.00  0.00     0.135 A 
ATOM     80  F   UNL A   1      43.243  25.634  25.600  1.00  0.00    -0.206 F 
ATOM     81  C   UNL A   1      44.092  23.235  25.555  1.00  0.00     0.059 A 
ATOM     82  C   UNL A   1      44.435  22.360  27.034  1.00  0.00     0.059 A 
ATOM     83  F   UNL A   1      44.446  23.407  29.407  1.00  0.00    -0.206 F 
ATOM     84  C   UNL A   1      44.519  21.506  25.610  1.00  0.00     0.060 A 
BRANCH  84  85
ATOM     85  S   UNL A   1      44.845  19.346  23.971  1.00  0.00     0.124 S 
ATOM     86  O   UNL A   1      44.626  19.263  22.493  1.00  0.00    -0.237 OA
ATOM     87  O   UNL A   1      46.069  18.615  24.307  1.00  0.00    -0.237 OA
ATOM     88  O   UNL A   1      43.882  18.222  24.287  1.00  0.00    -0.744 OA
ENDBRANCH  84  85
ENDBRANCH  52  77
BRANCH  64  89
ATOM     89  C   UNL A   1      46.549  31.904  27.541  1.00  0.00     0.058 A 
ATOM     90  C   UNL A   1      45.751  32.738  26.764  1.00  0.00     0.135 A 
ATOM     91  C   UNL A   1      47.904  32.297  27.685  1.00  0.00     0.135 A 
ATOM     92  F   UNL A   1      44.546  32.339  26.330  1.00  0.00    -0.206 F 
ATOM     93  C   UNL A   1      46.178  33.999  26.390  1.00  0.00     0.059 A 
ATOM     94  C   UNL A   1      48.382  33.508  27.235  1.00  0.00     0.059 A 
ATOM     95  F   UNL A   1      48.841  31.543  28.269  1.00  0.00    -0.206 F 
ATOM     96  C   UNL A   1      47.491  34.378  26.646  1.00  0.00     0.060 A 
BRANCH  96  97
ATOM     97  S   UNL A   1      48.047  35.986  26.103  1.00  0.00     0.124 S 
ATOM     98  O   UNL A   1      48.856  35.639  24.938  1.00  0.00    -0.237 OA
ATOM     99  O   UNL A   1      46.778  36.649  25.823  1.00  0.00    -0.237 OA
ATOM    100  O   UNL A   1      48.789  36.496  27.250  1.00  0.00    -0.744 OA
ENDBRANCH  96  97
ENDBRANCH  64  89
ENDBRANCH  38  39
ENDBRANCH  31  33
ENDBRANCH  30  31
ENDBRANCH  29  30
ENDBRANCH  28  29
ENDBRANCH   1  28
TORSDOF 20
ENDMDL
MODEL 2
REMARK VINA RESULT:     -12.7      3.025      5.485
REMARK SMILES Cc1ccc(NC(=O)[C@H]2CC(Cl)=CC[C@@H]2C(=O)OCCOCCOC(=O)c2ccc(-c3c4nc(c(-c5c(F)cc(S(=O)(=O)[O-])cc5F)c5ccc([nH]5)c(-c5c(F)cc(S(=O)(=O)[O-])cc5F)c5nc(c(-c6c(F)cc(S(=O)(=O)[O-])cc6F)c6ccc3[nH]6)C=C5)C=C4)cc2)cc1[N+](=O)[O-]
REMARK SMILES IDX 21 1 20 2 19 3 18 4 16 5 17 6 15 7 9 8 10 9 11 10 14 11
REMARK SMILES IDX 12 12 13 13 7 14 6 15 8 17 5 18 1 19 2 20 3 21 94 22 4 23
REMARK SMILES IDX 93 24 95 25 96 26 97 27 22 28 23 29 24 30 25 31 26 32 27 33
REMARK SMILES IDX 28 34 92 35 29 36 91 37 30 38 31 39 32 40 85 41 33 42 90 43
REMARK SMILES IDX 84 44 86 45 34 46 89 47 83 48 82 49 35 51 69 52 48 53 68 54
REMARK SMILES IDX 49 55 52 56 67 57 87 58 50 59 51 60 66 62 88 63 53 64 36 65
REMARK SMILES IDX 37 66 46 67 38 68 39 69 45 70 47 71 40 72 41 73 42 74 43 75
REMARK SMILES IDX 44 76 70 77 71 78 80 79 72 80 73 81 79 82 81 83 74 84 75 85
REMARK SMILES IDX 76 86 77 87 78 88 54 89 55 90 64 91 56 92 57 93 63 94 65 95
REMARK SMILES IDX 58 96 59 97 60 98 61 99 62 100
REMARK H PARENT 6 16 86 50 52 61
REMARK Flexibility Score: inf
ROOT
ATOM      1  O   UNL A   1      39.396  20.829  25.748  1.00  0.00    -0.374 OA
ENDROOT
BRANCH   1   2
ATOM      2  C   UNL A   1      38.090  21.438  25.429  1.00  0.00     0.202 C 
BRANCH   2   3
ATOM      3  C   UNL A   1      37.065  21.180  24.250  1.00  0.00     0.261 C 
BRANCH   3   4
ATOM      4  O   UNL A   1      35.695  21.373  24.619  1.00  0.00    -0.463 OA
BRANCH   4   5
ATOM      5  C   UNL A   1      35.158  22.457  24.051  1.00  0.00     0.310 C 
ATOM      6  O   UNL A   1      35.795  23.463  23.779  1.00  0.00    -0.252 OA
BRANCH   5   7
ATOM      7  C   UNL A   1      33.751  22.191  23.604  1.00  0.00     0.116 C 
ATOM      8  C   UNL A   1      32.860  23.521  23.640  1.00  0.00     0.098 C 
ATOM      9  C   UNL A   1      31.422  23.113  24.090  1.00  0.00     0.062 C 
ATOM     10  C   UNL A   1      31.400  22.281  25.349  1.00  0.00     0.015 C 
ATOM     11  C   UNL A   1      33.402  21.053  24.647  1.00  0.00     0.044 C 
ATOM     12  Cl  UNL A   1      30.187  22.599  26.528  1.00  0.00    -0.089 Cl
ATOM     13  C   UNL A   1      32.294  21.323  25.586  1.00  0.00    -0.010 C 
BRANCH   8  14
ATOM     14  C   UNL A   1      32.787  24.483  22.339  1.00  0.00     0.228 C 
ATOM     15  N   UNL A   1      32.223  25.780  22.113  1.00  0.00    -0.326 N 
ATOM     16  H   UNL A   1      32.032  25.922  21.158  1.00  0.00     0.169 HD
ATOM     17  O   UNL A   1      33.276  23.977  21.308  1.00  0.00    -0.274 OA
BRANCH  15  18
ATOM     18  C   UNL A   1      31.819  27.058  22.979  1.00  0.00     0.048 A 
ATOM     19  C   UNL A   1      31.025  31.588  26.215  1.00  0.00     0.052 C 
ATOM     20  C   UNL A   1      31.173  30.436  25.223  1.00  0.00     0.027 A 
ATOM     21  C   UNL A   1      32.965  29.536  24.865  1.00  0.00     0.012 A 
ATOM     22  C   UNL A   1      29.945  30.024  23.674  1.00  0.00     0.274 A 
ATOM     23  C   UNL A   1      33.292  27.760  23.980  1.00  0.00     0.027 A 
ATOM     24  C   UNL A   1      30.298  28.308  22.757  1.00  0.00     0.112 A 
BRANCH  22  25
ATOM     25  N   UNL A   1      28.857  30.882  23.262  1.00  0.00     0.063 N 
ATOM     26  O   UNL A   1      27.719  30.493  23.563  1.00  0.00    -0.258 OA
ATOM     27  O   UNL A   1      29.115  31.830  22.511  1.00  0.00    -0.258 OA
ENDBRANCH  22  25
ENDBRANCH  15  18
ENDBRANCH   8  14
ENDBRANCH   5   7
ENDBRANCH   4   5
ENDBRANCH   3   4
ENDBRANCH   2   3
ENDBRANCH   1   2
BRANCH   1  28
ATOM     28  C   UNL A   1      40.618  20.864  26.717  1.00  0.00     0.202 C 
BRANCH  28  29
ATOM     29  C   UNL A   1      41.453  21.999  28.008  1.00  0.00     0.261 C 
BRANCH  29  30
ATOM     30  O   UNL A   1      41.416  23.854  28.412  1.00  0.00    -0.460 OA
BRANCH  30  31
ATOM     31  C   UNL A   1      40.271  25.235  28.025  1.00  0.00     0.338 C 
ATOM     32  O   UNL A   1      40.124  24.716  26.801  1.00  0.00    -0.246 OA
BRANCH  31  33
ATOM     33  C   UNL A   1      39.412  27.213  28.716  1.00  0.00     0.060 A 
ATOM     34  C   UNL A   1      38.590  28.402  28.427  1.00  0.00     0.016 A 
ATOM     35  C   UNL A   1      38.855  27.529  30.194  1.00  0.00     0.016 A 
ATOM     36  C   UNL A   1      38.725  29.713  29.337  1.00  0.00     0.010 A 
ATOM     37  C   UNL A   1      39.442  28.459  31.005  1.00  0.00     0.010 A 
ATOM     38  C   UNL A   1      39.534  29.689  30.505  1.00  0.00    -0.014 A 
BRANCH  38  39
ATOM     39  C   UNL A   1      40.563  30.474  31.304  1.00  0.00     0.031 A 
ATOM     40  C   UNL A   1      39.966  31.466  32.253  1.00  0.00     0.074 A 
ATOM     41  C   UNL A   1      41.857  30.040  31.502  1.00  0.00     0.049 A 
ATOM     42  N   UNL A   1      39.948  32.755  32.110  1.00  0.00    -0.248 NA
ATOM     43  C   UNL A   1      39.096  31.043  33.389  1.00  0.00     0.031 C 
ATOM     44  C   UNL A   1      43.093  30.475  32.175  1.00  0.00     0.029 A 
ATOM     45  N   UNL A   1      42.395  28.914  30.932  1.00  0.00    -0.354 N 
ATOM     46  C   UNL A   1      39.570  33.218  33.369  1.00  0.00     0.074 A 
ATOM     47  C   UNL A   1      38.666  32.216  33.841  1.00  0.00     0.031 C 
ATOM     48  C   UNL A   1      44.202  29.993  31.535  1.00  0.00     0.029 A 
ATOM     49  C   UNL A   1      43.723  29.114  30.505  1.00  0.00     0.049 A 
ATOM     50  H   UNL A   1      41.909  28.063  30.832  1.00  0.00     0.167 HD
ATOM     51  C   UNL A   1      40.506  33.790  34.204  1.00  0.00     0.037 A 
ATOM     52  C   UNL A   1      43.840  29.122  29.145  1.00  0.00     0.037 A 
ATOM     53  C   UNL A   1      41.872  33.684  33.633  1.00  0.00     0.049 A 
ATOM     54  C   UNL A   1      43.674  30.622  28.804  1.00  0.00     0.074 A 
ATOM     55  C   UNL A   1      43.108  33.215  34.042  1.00  0.00     0.029 A 
ATOM     56  N   UNL A   1      42.030  33.893  32.271  1.00  0.00    -0.354 N 
ATOM     57  N   UNL A   1      43.244  31.475  29.704  1.00  0.00    -0.248 NA
ATOM     58  C   UNL A   1      44.076  31.335  27.599  1.00  0.00     0.031 C 
ATOM     59  C   UNL A   1      43.993  33.218  32.891  1.00  0.00     0.029 A 
ATOM     60  C   UNL A   1      43.258  33.551  31.758  1.00  0.00     0.049 A 
ATOM     61  H   UNL A   1      41.310  34.262  31.710  1.00  0.00     0.167 HD
ATOM     62  C   UNL A   1      43.504  32.756  29.385  1.00  0.00     0.074 A 
ATOM     63  C   UNL A   1      43.843  32.619  27.967  1.00  0.00     0.031 C 
ATOM     64  C   UNL A   1      43.476  33.779  30.314  1.00  0.00     0.037 A 
BRANCH  51  65
ATOM     65  C   UNL A   1      40.187  34.293  35.626  1.00  0.00     0.058 A 
ATOM     66  C   UNL A   1      40.198  33.380  36.700  1.00  0.00     0.135 A 
ATOM     67  C   UNL A   1      39.991  35.641  36.037  1.00  0.00     0.135 A 
ATOM     68  F   UNL A   1      40.415  32.073  36.497  1.00  0.00    -0.206 F 
ATOM     69  C   UNL A   1      40.045  33.758  38.041  1.00  0.00     0.059 A 
ATOM     70  C   UNL A   1      39.805  36.041  37.369  1.00  0.00     0.059 A 
ATOM     71  F   UNL A   1      40.024  36.672  35.189  1.00  0.00    -0.206 F 
ATOM     72  C   UNL A   1      39.860  35.093  38.371  1.00  0.00     0.060 A 
BRANCH  72  73
ATOM     73  S   UNL A   1      39.776  35.568  40.108  1.00  0.00     0.124 S 
ATOM     74  O   UNL A   1      38.778  36.633  40.085  1.00  0.00    -0.237 OA
ATOM     75  O   UNL A   1      39.361  34.321  40.743  1.00  0.00    -0.237 OA
ATOM     76  O   UNL A   1      41.137  35.997  40.415  1.00  0.00    -0.744 OA
ENDBRANCH  72  73
ENDBRANCH  51  65
BRANCH  52  77
ATOM     77  C   UNL A   1      43.064  27.842  28.732  1.00  0.00     0.058 A 
ATOM     78  C   UNL A   1      42.828  27.709  27.382  1.00  0.00     0.135 A 
ATOM     79  C   UNL A   1      43.470  26.590  29.034  1.00  0.00     0.135 A 
ATOM     80  F   UNL A   1      42.031  28.599  26.759  1.00  0.00    -0.206 F 
ATOM     81  C   UNL A   1      43.438  26.502  26.447  1.00  0.00     0.059 A 
ATOM     82  C   UNL A   1      44.033  25.589  27.819  1.00  0.00     0.059 A 
ATOM     83  F   UNL A   1      43.866  26.352  30.293  1.00  0.00    -0.206 F 
ATOM     84  C   UNL A   1      44.276  24.936  26.310  1.00  0.00     0.060 A 
BRANCH  84  85
ATOM     85  S   UNL A   1      45.066  23.106  24.443  1.00  0.00     0.124 S 
ATOM     86  O   UNL A   1      44.244  22.461  23.372  1.00  0.00    -0.237 OA
ATOM     87  O   UNL A   1      46.373  23.460  23.883  1.00  0.00    -0.237 OA
ATOM     88  O   UNL A   1      45.495  21.790  25.058  1.00  0.00    -0.744 OA
ENDBRANCH  84  85
ENDBRANCH  52  77
BRANCH  64  89
ATOM     89  C   UNL A   1      43.565  35.207  29.874  1.00  0.00     0.058 A 
ATOM     90  C   UNL A   1      44.705  35.972  30.100  1.00  0.00     0.135 A 
ATOM     91  C   UNL A   1      42.511  35.851  29.179  1.00  0.00     0.135 A 
ATOM     92  F   UNL A   1      45.645  35.578  30.973  1.00  0.00    -0.206 F 
ATOM     93  C   UNL A   1      44.902  37.179  29.453  1.00  0.00     0.059 A 
ATOM     94  C   UNL A   1      42.646  37.097  28.606  1.00  0.00     0.059 A 
ATOM     95  F   UNL A   1      41.297  35.319  29.006  1.00  0.00    -0.206 F 
ATOM     96  C   UNL A   1      43.870  37.723  28.696  1.00  0.00     0.060 A 
BRANCH  96  97
ATOM     97  S   UNL A   1      44.116  39.310  27.916  1.00  0.00     0.124 S 
ATOM     98  O   UNL A   1      44.163  38.939  26.505  1.00  0.00    -0.237 OA
ATOM     99  O   UNL A   1      42.922  40.030  28.345  1.00  0.00    -0.237 OA
ATOM    100  O   UNL A   1      45.376  39.778  28.482  1.00  0.00    -0.744 OA
ENDBRANCH  96  97
ENDBRANCH  64  89
ENDBRANCH  38  39
ENDBRANCH  31  33
ENDBRANCH  30  31
ENDBRANCH  29  30
ENDBRANCH  28  29
ENDBRANCH   1  28
TORSDOF 20
ENDMDL
MODEL 3
REMARK VINA RESULT:     -12.5      5.872     12.299
REMARK SMILES Cc1ccc(NC(=O)[C@H]2CC(Cl)=CC[C@@H]2C(=O)OCCOCCOC(=O)c2ccc(-c3c4nc(c(-c5c(F)cc(S(=O)(=O)[O-])cc5F)c5ccc([nH]5)c(-c5c(F)cc(S(=O)(=O)[O-])cc5F)c5nc(c(-c6c(F)cc(S(=O)(=O)[O-])cc6F)c6ccc3[nH]6)C=C5)C=C4)cc2)cc1[N+](=O)[O-]
REMARK SMILES IDX 21 1 20 2 19 3 18 4 16 5 17 6 15 7 9 8 10 9 11 10 14 11
REMARK SMILES IDX 12 12 13 13 7 14 6 15 8 17 5 18 1 19 2 20 3 21 94 22 4 23
REMARK SMILES IDX 93 24 95 25 96 26 97 27 22 28 23 29 24 30 25 31 26 32 27 33
REMARK SMILES IDX 28 34 92 35 29 36 91 37 30 38 31 39 32 40 85 41 33 42 90 43
REMARK SMILES IDX 84 44 86 45 34 46 89 47 83 48 82 49 35 51 69 52 48 53 68 54
REMARK SMILES IDX 49 55 52 56 67 57 87 58 50 59 51 60 66 62 88 63 53 64 36 65
REMARK SMILES IDX 37 66 46 67 38 68 39 69 45 70 47 71 40 72 41 73 42 74 43 75
REMARK SMILES IDX 44 76 70 77 71 78 80 79 72 80 73 81 79 82 81 83 74 84 75 85
REMARK SMILES IDX 76 86 77 87 78 88 54 89 55 90 64 91 56 92 57 93 63 94 65 95
REMARK SMILES IDX 58 96 59 97 60 98 61 99 62 100
REMARK H PARENT 6 16 86 50 52 61
REMARK Flexibility Score: inf
ROOT
ATOM      1  O   UNL A   1      44.436  28.136  31.904  1.00  0.00    -0.374 OA
ENDROOT
BRANCH   1   2
ATOM      2  C   UNL A   1      42.961  28.118  31.931  1.00  0.00     0.202 C 
BRANCH   2   3
ATOM      3  C   UNL A   1      41.887  27.928  30.783  1.00  0.00     0.261 C 
BRANCH   3   4
ATOM      4  O   UNL A   1      40.718  28.741  30.940  1.00  0.00    -0.463 OA
BRANCH   4   5
ATOM      5  C   UNL A   1      39.797  28.502  30.002  1.00  0.00     0.310 C 
ATOM      6  O   UNL A   1      39.701  27.442  29.403  1.00  0.00    -0.252 OA
BRANCH   5   7
ATOM      7  C   UNL A   1      38.785  29.609  29.946  1.00  0.00     0.116 C 
ATOM      8  C   UNL A   1      37.405  29.179  30.634  1.00  0.00     0.098 C 
ATOM      9  C   UNL A   1      36.247  29.823  29.808  1.00  0.00     0.062 C 
ATOM     10  C   UNL A   1      36.346  29.558  28.326  1.00  0.00     0.015 C 
ATOM     11  C   UNL A   1      38.782  29.822  28.378  1.00  0.00     0.044 C 
ATOM     12  Cl  UNL A   1      34.907  29.188  27.455  1.00  0.00    -0.089 Cl
ATOM     13  C   UNL A   1      37.505  29.584  27.673  1.00  0.00    -0.010 C 
BRANCH   8  14
ATOM     14  C   UNL A   1      37.173  29.435  32.216  1.00  0.00     0.228 C 
ATOM     15  N   UNL A   1      36.719  30.567  32.966  1.00  0.00    -0.326 N 
ATOM     16  H   UNL A   1      37.029  30.521  33.900  1.00  0.00     0.169 HD
ATOM     17  O   UNL A   1      37.498  28.470  32.938  1.00  0.00    -0.274 OA
BRANCH  15  18
ATOM     18  C   UNL A   1      35.854  31.883  32.710  1.00  0.00     0.048 A 
ATOM     19  C   UNL A   1      33.084  36.764  32.352  1.00  0.00     0.052 C 
ATOM     20  C   UNL A   1      33.879  35.461  32.304  1.00  0.00     0.027 A 
ATOM     21  C   UNL A   1      35.298  35.005  33.692  1.00  0.00     0.012 A 
ATOM     22  C   UNL A   1      34.209  34.319  30.672  1.00  0.00     0.274 A 
ATOM     23  C   UNL A   1      36.108  33.203  34.073  1.00  0.00     0.027 A 
ATOM     24  C   UNL A   1      35.062  32.572  31.029  1.00  0.00     0.112 A 
BRANCH  22  25
ATOM     25  N   UNL A   1      33.831  34.706  29.331  1.00  0.00     0.063 N 
ATOM     26  O   UNL A   1      34.766  34.968  28.561  1.00  0.00    -0.258 OA
ATOM     27  O   UNL A   1      32.633  34.908  29.099  1.00  0.00    -0.258 OA
ENDBRANCH  22  25
ENDBRANCH  15  18
ENDBRANCH   8  14
ENDBRANCH   5   7
ENDBRANCH   4   5
ENDBRANCH   3   4
ENDBRANCH   2   3
ENDBRANCH   1   2
BRANCH   1  28
ATOM     28  C   UNL A   1      45.716  28.782  32.519  1.00  0.00     0.202 C 
BRANCH  28  29
ATOM     29  C   UNL A   1      46.382  29.458  34.178  1.00  0.00     0.261 C 
BRANCH  29  30
ATOM     30  O   UNL A   1      45.828  30.772  35.431  1.00  0.00    -0.460 OA
BRANCH  30  31
ATOM     31  C   UNL A   1      45.007  32.409  35.305  1.00  0.00     0.338 C 
ATOM     32  O   UNL A   1      45.147  32.536  36.628  1.00  0.00    -0.246 OA
BRANCH  31  33
ATOM     33  C   UNL A   1      43.877  33.844  33.967  1.00  0.00     0.060 A 
ATOM     34  C   UNL A   1      42.667  34.649  33.715  1.00  0.00     0.016 A 
ATOM     35  C   UNL A   1      44.525  35.067  33.142  1.00  0.00     0.016 A 
ATOM     36  C   UNL A   1      42.358  35.197  32.243  1.00  0.00     0.010 A 
ATOM     37  C   UNL A   1      44.513  35.105  31.776  1.00  0.00     0.010 A 
ATOM     38  C   UNL A   1      43.314  35.027  31.204  1.00  0.00    -0.014 A 
BRANCH  38  39
ATOM     39  C   UNL A   1      43.485  34.649  29.741  1.00  0.00     0.031 A 
ATOM     40  C   UNL A   1      43.720  33.188  29.516  1.00  0.00     0.074 A 
ATOM     41  C   UNL A   1      43.029  35.431  28.701  1.00  0.00     0.049 A 
ATOM     42  N   UNL A   1      44.844  32.629  29.191  1.00  0.00    -0.248 NA
ATOM     43  C   UNL A   1      42.700  32.162  29.880  1.00  0.00     0.031 C 
ATOM     44  C   UNL A   1      42.994  35.425  27.227  1.00  0.00     0.029 A 
ATOM     45  N   UNL A   1      42.462  36.671  28.851  1.00  0.00    -0.354 N 
ATOM     46  C   UNL A   1      44.471  31.342  28.810  1.00  0.00     0.074 A 
ATOM     47  C   UNL A   1      43.376  31.036  29.677  1.00  0.00     0.031 C 
ATOM     48  C   UNL A   1      42.993  36.697  26.727  1.00  0.00     0.029 A 
ATOM     49  C   UNL A   1      42.888  37.576  27.858  1.00  0.00     0.049 A 
ATOM     50  H   UNL A   1      41.830  36.902  29.570  1.00  0.00     0.167 HD
ATOM     51  C   UNL A   1      44.448  30.995  27.477  1.00  0.00     0.037 A 
ATOM     52  C   UNL A   1      43.698  38.556  28.356  1.00  0.00     0.037 A 
ATOM     53  C   UNL A   1      44.712  32.172  26.610  1.00  0.00     0.049 A 
ATOM     54  C   UNL A   1      45.108  37.946  28.177  1.00  0.00     0.074 A 
ATOM     55  C   UNL A   1      44.104  32.797  25.536  1.00  0.00     0.029 A 
ATOM     56  N   UNL A   1      45.686  33.074  27.012  1.00  0.00    -0.354 N 
ATOM     57  N   UNL A   1      45.262  36.678  27.876  1.00  0.00    -0.248 NA
ATOM     58  C   UNL A   1      46.399  38.620  28.146  1.00  0.00     0.031 C 
ATOM     59  C   UNL A   1      44.794  34.053  25.297  1.00  0.00     0.029 A 
ATOM     60  C   UNL A   1      45.725  34.255  26.311  1.00  0.00     0.049 A 
ATOM     61  H   UNL A   1      46.309  32.880  27.750  1.00  0.00     0.167 HD
ATOM     62  C   UNL A   1      46.486  36.391  27.397  1.00  0.00     0.074 A 
ATOM     63  C   UNL A   1      47.216  37.603  27.779  1.00  0.00     0.031 C 
ATOM     64  C   UNL A   1      46.763  35.236  26.692  1.00  0.00     0.037 A 
BRANCH  51  65
ATOM     65  C   UNL A   1      44.012  29.609  26.962  1.00  0.00     0.058 A 
ATOM     66  C   UNL A   1      44.997  28.664  26.604  1.00  0.00     0.135 A 
ATOM     67  C   UNL A   1      42.689  29.088  26.910  1.00  0.00     0.135 A 
ATOM     68  F   UNL A   1      46.299  28.974  26.642  1.00  0.00    -0.206 F 
ATOM     69  C   UNL A   1      44.707  27.341  26.246  1.00  0.00     0.059 A 
ATOM     70  C   UNL A   1      42.372  27.776  26.526  1.00  0.00     0.059 A 
ATOM     71  F   UNL A   1      41.617  29.790  27.283  1.00  0.00    -0.206 F 
ATOM     72  C   UNL A   1      43.392  26.899  26.219  1.00  0.00     0.060 A 
BRANCH  72  73
ATOM     73  S   UNL A   1      43.053  25.164  25.862  1.00  0.00     0.124 S 
ATOM     74  O   UNL A   1      41.809  25.247  25.102  1.00  0.00    -0.237 OA
ATOM     75  O   UNL A   1      44.237  24.773  25.104  1.00  0.00    -0.237 OA
ATOM     76  O   UNL A   1      42.934  24.556  27.184  1.00  0.00    -0.744 OA
ENDBRANCH  72  73
ENDBRANCH  51  65
BRANCH  52  77
ATOM     77  C   UNL A   1      42.902  39.058  29.591  1.00  0.00     0.058 A 
ATOM     78  C   UNL A   1      43.654  39.284  30.722  1.00  0.00     0.135 A 
ATOM     79  C   UNL A   1      42.130  40.166  29.585  1.00  0.00     0.135 A 
ATOM     80  F   UNL A   1      44.268  38.248  31.326  1.00  0.00    -0.206 F 
ATOM     81  C   UNL A   1      43.848  40.755  31.430  1.00  0.00     0.059 A 
ATOM     82  C   UNL A   1      42.618  41.517  30.441  1.00  0.00     0.059 A 
ATOM     83  F   UNL A   1      41.291  40.333  28.552  1.00  0.00    -0.206 F 
ATOM     84  C   UNL A   1      43.377  42.467  31.573  1.00  0.00     0.060 A 
BRANCH  84  85
ATOM     85  S   UNL A   1      43.925  44.704  33.042  1.00  0.00     0.124 S 
ATOM     86  O   UNL A   1      45.238  45.140  33.612  1.00  0.00    -0.237 OA
ATOM     87  O   UNL A   1      43.241  45.874  32.488  1.00  0.00    -0.237 OA
ATOM     88  O   UNL A   1      43.217  44.711  34.381  1.00  0.00    -0.744 OA
ENDBRANCH  84  85
ENDBRANCH  52  77
BRANCH  64  89
ATOM     89  C   UNL A   1      48.176  34.866  26.364  1.00  0.00     0.058 A 
ATOM     90  C   UNL A   1      48.841  33.849  27.040  1.00  0.00     0.135 A 
ATOM     91  C   UNL A   1      48.905  35.507  25.330  1.00  0.00     0.135 A 
ATOM     92  F   UNL A   1      48.372  33.362  28.200  1.00  0.00    -0.206 F 
ATOM     93  C   UNL A   1      50.024  33.316  26.558  1.00  0.00     0.059 A 
ATOM     94  C   UNL A   1      50.131  35.057  24.893  1.00  0.00     0.059 A 
ATOM     95  F   UNL A   1      48.478  36.593  24.680  1.00  0.00    -0.206 F 
ATOM     96  C   UNL A   1      50.650  33.921  25.473  1.00  0.00     0.060 A 
BRANCH  96  97
ATOM     97  S   UNL A   1      52.206  33.260  24.899  1.00  0.00     0.124 S 
ATOM     98  O   UNL A   1      51.768  32.354  23.841  1.00  0.00    -0.237 OA
ATOM     99  O   UNL A   1      52.887  34.472  24.457  1.00  0.00    -0.237 OA
ATOM    100  O   UNL A   1      52.763  32.616  26.083  1.00  0.00    -0.744 OA
ENDBRANCH  96  97
ENDBRANCH  64  89
ENDBRANCH  38  39
ENDBRANCH  31  33
ENDBRANCH  30  31
ENDBRANCH  29  30
ENDBRANCH  28  29
ENDBRANCH   1  28
TORSDOF 20
ENDMDL
