MODEL 1
REMARK VINA RESULT:     -11.4      0.000      0.000
REMARK SMILES COc1cc(CNc2ccc(N3CCOCC3)c(C(=O)OCCOCCOC(=O)c3ccc(-c4c5nc(c(-c6c(F)cc(S(=O)(=O)[O-])cc6F)c6ccc([nH]6)c(-c6c(F)cc(S(=O)(=O)[O-])cc6F)c6nc(c(-c7c(F)cc(S(=O)(=O)[O-])cc7F)c7ccc4[nH]7)C=C6)C=C5)cc3)c2)cc(Br)c1OC
REMARK SMILES IDX 23 1 22 2 21 3 19 4 20 5 18 6 8 7 9 8 96 9 10 10 11 11 7 12
REMARK SMILES IDX 6 14 5 15 3 16 4 17 100 18 98 19 97 20 99 21 2 22 1 23
REMARK SMILES IDX 101 24 102 25 12 26 13 27 17 28 14 29 16 30 15 31 24 32
REMARK SMILES IDX 25 33 26 34 27 35 28 36 29 37 30 38 31 39 95 40 32 41 94 42
REMARK SMILES IDX 33 43 34 44 35 45 88 46 36 47 93 48 87 49 89 50 37 51 92 52
REMARK SMILES IDX 86 53 85 54 38 56 72 57 51 58 71 59 52 60 55 61 70 62 90 63
REMARK SMILES IDX 53 64 54 65 69 67 91 68 56 69 39 70 40 71 49 72 41 73 42 74
REMARK SMILES IDX 48 75 50 76 43 77 44 78 45 79 46 80 47 81 73 82 74 83 83 84
REMARK SMILES IDX 75 85 76 86 82 87 84 88 77 89 78 90 79 91 80 92 81 93 57 94
REMARK SMILES IDX 58 95 67 96 59 97 60 98 66 99 68 100 61 101 62 102 63 103
REMARK SMILES IDX 64 104 65 105
REMARK H PARENT 7 13 89 55 55 66
REMARK Flexibility Score: inf
ROOT
ATOM      1  C   UNL A   1      33.362  30.351  26.265  1.00  0.00     0.202 C 
ENDROOT
BRANCH   1   2
ATOM      2  C   UNL A   1      32.245  29.744  25.413  1.00  0.00     0.261 C 
BRANCH   2   3
ATOM      3  O   UNL A   1      32.791  28.800  24.479  1.00  0.00    -0.460 OA
BRANCH   3   4
ATOM      4  C   UNL A   1      32.174  28.739  23.273  1.00  0.00     0.340 C 
ATOM      5  O   UNL A   1      32.574  29.225  22.225  1.00  0.00    -0.246 OA
BRANCH   4   6
ATOM      6  C   UNL A   1      30.934  27.945  23.415  1.00  0.00     0.085 A 
ATOM      7  C   UNL A   1      29.983  25.788  24.052  1.00  0.00     0.035 A 
ATOM      8  C   UNL A   1      28.716  26.359  23.899  1.00  0.00     0.028 A 
ATOM      9  C   UNL A   1      31.085  26.595  23.781  1.00  0.00     0.043 A 
ATOM     10  C   UNL A   1      28.557  27.694  23.502  1.00  0.00     0.029 A 
ATOM     11  C   UNL A   1      29.659  28.520  23.256  1.00  0.00     0.052 A 
BRANCH   7  12
ATOM     12  N   UNL A   1      30.093  24.504  24.540  1.00  0.00    -0.381 N 
ATOM     13  H   UNL A   1      29.688  23.777  24.013  1.00  0.00     0.160 HD
BRANCH  12  14
ATOM     14  C   UNL A   1      30.765  24.153  25.778  1.00  0.00     0.149 C 
BRANCH  14  15
ATOM     15  C   UNL A   1      31.951  23.272  25.469  1.00  0.00    -0.024 A 
ATOM     16  C   UNL A   1      32.877  21.079  24.984  1.00  0.00     0.162 A 
ATOM     17  C   UNL A   1      31.777  21.903  25.247  1.00  0.00     0.056 A 
ATOM     18  C   UNL A   1      34.197  21.598  24.972  1.00  0.00     0.174 A 
ATOM     19  C   UNL A   1      34.367  22.971  25.216  1.00  0.00     0.064 A 
ATOM     20  C   UNL A   1      33.248  23.791  25.459  1.00  0.00     0.025 A 
ATOM     21  Br  UNL A   1      36.015  23.924  25.265  1.00  0.00    -0.047 Br
BRANCH  16  22
ATOM     22  O   UNL A   1      32.737  19.720  24.803  1.00  0.00    -0.493 OA
ATOM     23  C   UNL A   1      32.409  19.307  23.481  1.00  0.00     0.278 C 
ENDBRANCH  16  22
BRANCH  18  24
ATOM     24  O   UNL A   1      35.124  20.630  24.695  1.00  0.00    -0.492 OA
ATOM     25  C   UNL A   1      36.395  20.604  25.309  1.00  0.00     0.278 C 
ENDBRANCH  18  24
ENDBRANCH  14  15
ENDBRANCH  12  14
ENDBRANCH   7  12
BRANCH  11  26
ATOM     26  N   UNL A   1      29.443  29.822  22.873  1.00  0.00    -0.366 N 
ATOM     27  C   UNL A   1      29.233  30.906  23.829  1.00  0.00     0.145 C 
ATOM     28  C   UNL A   1      29.441  30.214  21.465  1.00  0.00     0.145 C 
ATOM     29  C   UNL A   1      27.953  31.663  23.441  1.00  0.00     0.181 C 
ATOM     30  C   UNL A   1      28.211  31.093  21.161  1.00  0.00     0.181 C 
ATOM     31  O   UNL A   1      28.067  32.179  22.100  1.00  0.00    -0.378 OA
ENDBRANCH  11  26
ENDBRANCH   4   6
ENDBRANCH   3   4
ENDBRANCH   2   3
ENDBRANCH   1   2
BRANCH   1  32
ATOM     32  O   UNL A   1      33.034  30.749  27.599  1.00  0.00    -0.374 OA
BRANCH  32  33
ATOM     33  C   UNL A   1      33.965  31.566  28.298  1.00  0.00     0.202 C 
BRANCH  33  34
ATOM     34  C   UNL A   1      35.448  31.174  28.338  1.00  0.00     0.261 C 
BRANCH  34  35
ATOM     35  O   UNL A   1      35.687  29.848  28.804  1.00  0.00    -0.460 OA
BRANCH  35  36
ATOM     36  C   UNL A   1      36.425  29.812  29.939  1.00  0.00     0.338 C 
ATOM     37  O   UNL A   1      36.019  29.703  31.085  1.00  0.00    -0.246 OA
BRANCH  36  38
ATOM     38  C   UNL A   1      37.849  29.752  29.582  1.00  0.00     0.060 A 
ATOM     39  C   UNL A   1      38.167  29.728  28.220  1.00  0.00     0.016 A 
ATOM     40  C   UNL A   1      38.844  29.677  30.559  1.00  0.00     0.016 A 
ATOM     41  C   UNL A   1      39.488  29.562  27.826  1.00  0.00     0.010 A 
ATOM     42  C   UNL A   1      40.170  29.503  30.161  1.00  0.00     0.010 A 
ATOM     43  C   UNL A   1      40.487  29.400  28.795  1.00  0.00    -0.014 A 
BRANCH  43  44
ATOM     44  C   UNL A   1      41.824  28.938  28.364  1.00  0.00     0.031 A 
ATOM     45  C   UNL A   1      42.951  29.934  28.334  1.00  0.00     0.074 A 
ATOM     46  C   UNL A   1      42.038  27.641  28.083  1.00  0.00     0.049 A 
ATOM     47  N   UNL A   1      44.206  29.756  28.016  1.00  0.00    -0.248 NA
ATOM     48  C   UNL A   1      42.619  31.318  28.717  1.00  0.00     0.031 C 
ATOM     49  C   UNL A   1      41.023  26.589  28.126  1.00  0.00     0.029 A 
ATOM     50  N   UNL A   1      43.186  26.987  27.717  1.00  0.00    -0.354 N 
ATOM     51  C   UNL A   1      44.814  30.997  28.169  1.00  0.00     0.074 A 
ATOM     52  C   UNL A   1      43.782  31.932  28.556  1.00  0.00     0.031 C 
ATOM     53  C   UNL A   1      41.595  25.418  27.799  1.00  0.00     0.029 A 
ATOM     54  C   UNL A   1      43.007  25.643  27.498  1.00  0.00     0.049 A 
ATOM     55  H   UNL A   1      44.055  27.438  27.620  1.00  0.00     0.167 HD
ATOM     56  C   UNL A   1      46.120  31.320  28.022  1.00  0.00     0.037 A 
ATOM     57  C   UNL A   1      43.885  24.708  27.087  1.00  0.00     0.037 A 
ATOM     58  C   UNL A   1      47.136  30.378  27.633  1.00  0.00     0.049 A 
ATOM     59  C   UNL A   1      45.317  25.113  26.845  1.00  0.00     0.074 A 
ATOM     60  C   UNL A   1      48.488  30.600  27.442  1.00  0.00     0.029 A 
ATOM     61  N   UNL A   1      46.909  29.034  27.374  1.00  0.00    -0.354 N 
ATOM     62  N   UNL A   1      45.882  26.288  27.005  1.00  0.00    -0.248 NA
ATOM     63  C   UNL A   1      46.233  24.067  26.372  1.00  0.00     0.031 C 
ATOM     64  C   UNL A   1      49.070  29.399  27.021  1.00  0.00     0.029 A 
ATOM     65  C   UNL A   1      48.093  28.417  27.007  1.00  0.00     0.049 A 
ATOM     66  H   UNL A   1      46.037  28.585  27.443  1.00  0.00     0.167 HD
ATOM     67  C   UNL A   1      47.225  26.111  26.685  1.00  0.00     0.074 A 
ATOM     68  C   UNL A   1      47.388  24.715  26.337  1.00  0.00     0.031 C 
ATOM     69  C   UNL A   1      48.233  27.020  26.677  1.00  0.00     0.037 A 
BRANCH  56  70
ATOM     70  C   UNL A   1      46.518  32.748  28.274  1.00  0.00     0.058 A 
ATOM     71  C   UNL A   1      46.958  33.179  29.536  1.00  0.00     0.135 A 
ATOM     72  C   UNL A   1      46.494  33.691  27.234  1.00  0.00     0.135 A 
ATOM     73  F   UNL A   1      46.979  32.326  30.572  1.00  0.00    -0.206 F 
ATOM     74  C   UNL A   1      47.338  34.497  29.764  1.00  0.00     0.059 A 
ATOM     75  C   UNL A   1      46.898  35.009  27.431  1.00  0.00     0.059 A 
ATOM     76  F   UNL A   1      46.076  33.336  26.009  1.00  0.00    -0.206 F 
ATOM     77  C   UNL A   1      47.308  35.405  28.703  1.00  0.00     0.060 A 
BRANCH  77  78
ATOM     78  S   UNL A   1      47.822  37.107  29.013  1.00  0.00     0.124 S 
ATOM     79  O   UNL A   1      46.568  37.830  28.826  1.00  0.00    -0.237 OA
ATOM     80  O   UNL A   1      48.315  37.039  30.385  1.00  0.00    -0.237 OA
ATOM     81  O   UNL A   1      48.841  37.347  27.995  1.00  0.00    -0.744 OA
ENDBRANCH  77  78
ENDBRANCH  56  70
BRANCH  57  82
ATOM     82  C   UNL A   1      43.443  23.304  26.865  1.00  0.00     0.058 A 
ATOM     83  C   UNL A   1      43.216  22.434  27.941  1.00  0.00     0.135 A 
ATOM     84  C   UNL A   1      43.270  22.796  25.568  1.00  0.00     0.135 A 
ATOM     85  F   UNL A   1      43.374  22.869  29.201  1.00  0.00    -0.206 F 
ATOM     86  C   UNL A   1      42.868  21.102  27.741  1.00  0.00     0.059 A 
ATOM     87  C   UNL A   1      42.891  21.477  25.343  1.00  0.00     0.059 A 
ATOM     88  F   UNL A   1      43.458  23.590  24.502  1.00  0.00    -0.206 F 
ATOM     89  C   UNL A   1      42.710  20.631  26.437  1.00  0.00     0.060 A 
BRANCH  89  90
ATOM     90  S   UNL A   1      42.249  18.904  26.186  1.00  0.00     0.124 S 
ATOM     91  O   UNL A   1      42.453  18.350  27.520  1.00  0.00    -0.237 OA
ATOM     92  O   UNL A   1      40.862  19.019  25.746  1.00  0.00    -0.237 OA
ATOM     93  O   UNL A   1      43.188  18.451  25.165  1.00  0.00    -0.744 OA
ENDBRANCH  89  90
ENDBRANCH  57  82
BRANCH  69  94
ATOM     94  C   UNL A   1      49.608  26.523  26.321  1.00  0.00     0.058 A 
ATOM     95  C   UNL A   1      50.153  26.709  25.042  1.00  0.00     0.135 A 
ATOM     96  C   UNL A   1      50.408  25.894  27.290  1.00  0.00     0.135 A 
ATOM     97  F   UNL A   1      49.431  27.300  24.077  1.00  0.00    -0.206 F 
ATOM     98  C   UNL A   1      51.432  26.261  24.726  1.00  0.00     0.059 A 
ATOM     99  C   UNL A   1      51.701  25.468  27.007  1.00  0.00     0.059 A 
ATOM    100  F   UNL A   1      49.939  25.703  28.535  1.00  0.00    -0.206 F 
ATOM    101  C   UNL A   1      52.199  25.644  25.717  1.00  0.00     0.060 A 
BRANCH 101 102
ATOM    102  S   UNL A   1      53.867  25.095  25.300  1.00  0.00     0.124 S 
ATOM    103  O   UNL A   1      53.976  25.517  23.907  1.00  0.00    -0.237 OA
ATOM    104  O   UNL A   1      54.686  25.837  26.253  1.00  0.00    -0.237 OA
ATOM    105  O   UNL A   1      53.815  23.653  25.516  1.00  0.00    -0.744 OA
ENDBRANCH 101 102
ENDBRANCH  69  94
ENDBRANCH  43  44
ENDBRANCH  36  38
ENDBRANCH  35  36
ENDBRANCH  34  35
ENDBRANCH  33  34
ENDBRANCH  32  33
ENDBRANCH   1  32
TORSDOF 23
ENDMDL
MODEL 2
REMARK VINA RESULT:     -11.0      4.659      5.947
REMARK SMILES COc1cc(CNc2ccc(N3CCOCC3)c(C(=O)OCCOCCOC(=O)c3ccc(-c4c5nc(c(-c6c(F)cc(S(=O)(=O)[O-])cc6F)c6ccc([nH]6)c(-c6c(F)cc(S(=O)(=O)[O-])cc6F)c6nc(c(-c7c(F)cc(S(=O)(=O)[O-])cc7F)c7ccc4[nH]7)C=C6)C=C5)cc3)c2)cc(Br)c1OC
REMARK SMILES IDX 23 1 22 2 21 3 19 4 20 5 18 6 8 7 9 8 96 9 10 10 11 11 7 12
REMARK SMILES IDX 6 14 5 15 3 16 4 17 100 18 98 19 97 20 99 21 2 22 1 23
REMARK SMILES IDX 101 24 102 25 12 26 13 27 17 28 14 29 16 30 15 31 24 32
REMARK SMILES IDX 25 33 26 34 27 35 28 36 29 37 30 38 31 39 95 40 32 41 94 42
REMARK SMILES IDX 33 43 34 44 35 45 88 46 36 47 93 48 87 49 89 50 37 51 92 52
REMARK SMILES IDX 86 53 85 54 38 56 72 57 51 58 71 59 52 60 55 61 70 62 90 63
REMARK SMILES IDX 53 64 54 65 69 67 91 68 56 69 39 70 40 71 49 72 41 73 42 74
REMARK SMILES IDX 48 75 50 76 43 77 44 78 45 79 46 80 47 81 73 82 74 83 83 84
REMARK SMILES IDX 75 85 76 86 82 87 84 88 77 89 78 90 79 91 80 92 81 93 57 94
REMARK SMILES IDX 58 95 67 96 59 97 60 98 66 99 68 100 61 101 62 102 63 103
REMARK SMILES IDX 64 104 65 105
REMARK H PARENT 7 13 89 55 55 66
REMARK Flexibility Score: inf
ROOT
ATOM      1  C   UNL A   1      33.593  28.989  23.962  1.00  0.00     0.202 C 
ENDROOT
BRANCH   1   2
ATOM      2  C   UNL A   1      32.716  28.584  22.775  1.00  0.00     0.261 C 
BRANCH   2   3
ATOM      3  O   UNL A   1      31.603  29.483  22.649  1.00  0.00    -0.460 OA
BRANCH   3   4
ATOM      4  C   UNL A   1      30.820  29.608  23.749  1.00  0.00     0.340 C 
ATOM      5  O   UNL A   1      30.886  30.491  24.592  1.00  0.00    -0.246 OA
BRANCH   4   6
ATOM      6  C   UNL A   1      29.828  28.512  23.752  1.00  0.00     0.085 A 
ATOM      7  C   UNL A   1      29.373  26.206  24.413  1.00  0.00     0.035 A 
ATOM      8  C   UNL A   1      28.053  26.401  23.997  1.00  0.00     0.028 A 
ATOM      9  C   UNL A   1      30.256  27.272  24.259  1.00  0.00     0.043 A 
ATOM     10  C   UNL A   1      27.626  27.623  23.459  1.00  0.00     0.029 A 
ATOM     11  C   UNL A   1      28.500  28.708  23.327  1.00  0.00     0.052 A 
BRANCH   7  12
ATOM     12  N   UNL A   1      29.722  25.023  25.027  1.00  0.00    -0.381 N 
ATOM     13  H   UNL A   1      29.161  24.232  24.853  1.00  0.00     0.160 HD
BRANCH  12  14
ATOM     14  C   UNL A   1      30.862  24.866  25.913  1.00  0.00     0.149 C 
BRANCH  14  15
ATOM     15  C   UNL A   1      32.033  24.328  25.127  1.00  0.00    -0.024 A 
ATOM     16  C   UNL A   1      33.546  24.480  23.233  1.00  0.00     0.162 A 
ATOM     17  C   UNL A   1      32.476  24.988  23.977  1.00  0.00     0.056 A 
ATOM     18  C   UNL A   1      34.185  23.268  23.599  1.00  0.00     0.174 A 
ATOM     19  C   UNL A   1      33.722  22.599  24.744  1.00  0.00     0.064 A 
ATOM     20  C   UNL A   1      32.657  23.134  25.495  1.00  0.00     0.025 A 
ATOM     21  Br  UNL A   1      34.387  20.961  25.455  1.00  0.00    -0.047 Br
BRANCH  16  22
ATOM     22  O   UNL A   1      33.975  25.088  22.073  1.00  0.00    -0.493 OA
ATOM     23  C   UNL A   1      33.002  25.196  21.040  1.00  0.00     0.278 C 
ENDBRANCH  16  22
BRANCH  18  24
ATOM     24  O   UNL A   1      35.204  22.948  22.743  1.00  0.00    -0.492 OA
ATOM     25  C   UNL A   1      36.558  22.972  23.138  1.00  0.00     0.278 C 
ENDBRANCH  18  24
ENDBRANCH  14  15
ENDBRANCH  12  14
ENDBRANCH   7  12
BRANCH  11  26
ATOM     26  N   UNL A   1      28.025  29.883  22.797  1.00  0.00    -0.366 N 
ATOM     27  C   UNL A   1      27.951  30.134  21.361  1.00  0.00     0.145 C 
ATOM     28  C   UNL A   1      27.527  30.960  23.651  1.00  0.00     0.145 C 
ATOM     29  C   UNL A   1      28.637  31.476  21.059  1.00  0.00     0.181 C 
ATOM     30  C   UNL A   1      28.135  32.308  23.214  1.00  0.00     0.181 C 
ATOM     31  O   UNL A   1      27.999  32.537  21.797  1.00  0.00    -0.378 OA
ENDBRANCH  11  26
ENDBRANCH   4   6
ENDBRANCH   3   4
ENDBRANCH   2   3
ENDBRANCH   1   2
BRANCH   1  32
ATOM     32  O   UNL A   1      33.914  27.980  24.923  1.00  0.00    -0.374 OA
BRANCH  32  33
ATOM     33  C   UNL A   1      33.203  27.984  26.155  1.00  0.00     0.202 C 
BRANCH  33  34
ATOM     34  C   UNL A   1      33.003  29.299  26.919  1.00  0.00     0.261 C 
BRANCH  34  35
ATOM     35  O   UNL A   1      33.962  30.306  26.604  1.00  0.00    -0.460 OA
BRANCH  35  36
ATOM     36  C   UNL A   1      34.451  30.932  27.702  1.00  0.00     0.338 C 
ATOM     37  O   UNL A   1      33.905  31.796  28.368  1.00  0.00    -0.246 OA
BRANCH  36  38
ATOM     38  C   UNL A   1      35.711  30.287  28.099  1.00  0.00     0.060 A 
ATOM     39  C   UNL A   1      35.754  29.692  29.364  1.00  0.00     0.016 A 
ATOM     40  C   UNL A   1      36.833  30.306  27.269  1.00  0.00     0.016 A 
ATOM     41  C   UNL A   1      36.949  29.165  29.834  1.00  0.00     0.010 A 
ATOM     42  C   UNL A   1      38.035  29.782  27.746  1.00  0.00     0.010 A 
ATOM     43  C   UNL A   1      38.105  29.252  29.047  1.00  0.00    -0.014 A 
BRANCH  43  44
ATOM     44  C   UNL A   1      39.412  28.955  29.672  1.00  0.00     0.031 A 
ATOM     45  C   UNL A   1      39.816  29.735  30.893  1.00  0.00     0.074 A 
ATOM     46  C   UNL A   1      40.180  27.957  29.202  1.00  0.00     0.049 A 
ATOM     47  N   UNL A   1      40.897  29.634  31.620  1.00  0.00    -0.248 NA
ATOM     48  C   UNL A   1      38.872  30.768  31.358  1.00  0.00     0.031 C 
ATOM     49  C   UNL A   1      39.857  27.113  28.051  1.00  0.00     0.029 A 
ATOM     50  N   UNL A   1      41.386  27.478  29.643  1.00  0.00    -0.354 N 
ATOM     51  C   UNL A   1      40.760  30.578  32.632  1.00  0.00     0.074 A 
ATOM     52  C   UNL A   1      39.518  31.279  32.395  1.00  0.00     0.031 C 
ATOM     53  C   UNL A   1      40.844  26.216  27.879  1.00  0.00     0.029 A 
ATOM     54  C   UNL A   1      41.877  26.442  28.887  1.00  0.00     0.049 A 
ATOM     55  H   UNL A   1      41.855  27.843  30.428  1.00  0.00     0.167 HD
ATOM     56  C   UNL A   1      41.585  30.821  33.677  1.00  0.00     0.037 A 
ATOM     57  C   UNL A   1      43.037  25.765  28.994  1.00  0.00     0.037 A 
ATOM     58  C   UNL A   1      42.820  30.116  33.898  1.00  0.00     0.049 A 
ATOM     59  C   UNL A   1      43.981  26.116  30.116  1.00  0.00     0.074 A 
ATOM     60  C   UNL A   1      43.740  30.289  34.916  1.00  0.00     0.029 A 
ATOM     61  N   UNL A   1      43.308  29.103  33.084  1.00  0.00    -0.354 N 
ATOM     62  N   UNL A   1      43.834  27.003  31.074  1.00  0.00    -0.248 NA
ATOM     63  C   UNL A   1      45.245  25.371  30.178  1.00  0.00     0.031 C 
ATOM     64  C   UNL A   1      44.807  29.412  34.692  1.00  0.00     0.029 A 
ATOM     65  C   UNL A   1      44.525  28.654  33.566  1.00  0.00     0.049 A 
ATOM     66  H   UNL A   1      42.855  28.754  32.283  1.00  0.00     0.167 HD
ATOM     67  C   UNL A   1      44.972  26.897  31.868  1.00  0.00     0.074 A 
ATOM     68  C   UNL A   1      45.787  25.851  31.287  1.00  0.00     0.031 C 
ATOM     69  C   UNL A   1      45.314  27.600  32.977  1.00  0.00     0.037 A 
BRANCH  56  70
ATOM     70  C   UNL A   1      41.183  31.895  34.649  1.00  0.00     0.058 A 
ATOM     71  C   UNL A   1      40.371  31.617  35.761  1.00  0.00     0.135 A 
ATOM     72  C   UNL A   1      41.642  33.212  34.490  1.00  0.00     0.135 A 
ATOM     73  F   UNL A   1      39.885  30.380  35.949  1.00  0.00    -0.206 F 
ATOM     74  C   UNL A   1      40.011  32.609  36.667  1.00  0.00     0.059 A 
ATOM     75  C   UNL A   1      41.319  34.216  35.400  1.00  0.00     0.059 A 
ATOM     76  F   UNL A   1      42.416  33.536  33.442  1.00  0.00    -0.206 F 
ATOM     77  C   UNL A   1      40.493  33.905  36.479  1.00  0.00     0.060 A 
BRANCH  77  78
ATOM     78  S   UNL A   1      40.030  35.176  37.675  1.00  0.00     0.124 S 
ATOM     79  O   UNL A   1      39.923  36.356  36.822  1.00  0.00    -0.237 OA
ATOM     80  O   UNL A   1      38.773  34.661  38.204  1.00  0.00    -0.237 OA
ATOM     81  O   UNL A   1      41.147  35.183  38.615  1.00  0.00    -0.744 OA
ENDBRANCH  77  78
ENDBRANCH  56  70
BRANCH  57  82
ATOM     82  C   UNL A   1      43.382  24.701  28.012  1.00  0.00     0.058 A 
ATOM     83  C   UNL A   1      43.014  23.365  28.229  1.00  0.00     0.135 A 
ATOM     84  C   UNL A   1      44.114  24.996  26.852  1.00  0.00     0.135 A 
ATOM     85  F   UNL A   1      42.319  23.030  29.326  1.00  0.00    -0.206 F 
ATOM     86  C   UNL A   1      43.391  22.354  27.350  1.00  0.00     0.059 A 
ATOM     87  C   UNL A   1      44.475  24.008  25.942  1.00  0.00     0.059 A 
ATOM     88  F   UNL A   1      44.478  26.261  26.587  1.00  0.00    -0.206 F 
ATOM     89  C   UNL A   1      44.124  22.685  26.210  1.00  0.00     0.060 A 
BRANCH  89  90
ATOM     90  S   UNL A   1      44.600  21.368  25.071  1.00  0.00     0.124 S 
ATOM     91  O   UNL A   1      44.491  22.041  23.782  1.00  0.00    -0.237 OA
ATOM     92  O   UNL A   1      45.955  21.055  25.516  1.00  0.00    -0.237 OA
ATOM     93  O   UNL A   1      43.608  20.329  25.327  1.00  0.00    -0.744 OA
ENDBRANCH  89  90
ENDBRANCH  57  82
BRANCH  69  94
ATOM     94  C   UNL A   1      46.605  27.232  33.657  1.00  0.00     0.058 A 
ATOM     95  C   UNL A   1      46.664  26.233  34.640  1.00  0.00     0.135 A 
ATOM     96  C   UNL A   1      47.807  27.857  33.285  1.00  0.00     0.135 A 
ATOM     97  F   UNL A   1      45.545  25.607  35.037  1.00  0.00    -0.206 F 
ATOM     98  C   UNL A   1      47.865  25.887  35.252  1.00  0.00     0.059 A 
ATOM     99  C   UNL A   1      49.023  27.505  33.859  1.00  0.00     0.059 A 
ATOM    100  F   UNL A   1      47.808  28.812  32.339  1.00  0.00    -0.206 F 
ATOM    101  C   UNL A   1      49.039  26.528  34.852  1.00  0.00     0.060 A 
BRANCH 101 102
ATOM    102  S   UNL A   1      50.593  26.047  35.635  1.00  0.00     0.124 S 
ATOM    103  O   UNL A   1      50.170  24.921  36.462  1.00  0.00    -0.237 OA
ATOM    104  O   UNL A   1      51.429  25.712  34.486  1.00  0.00    -0.237 OA
ATOM    105  O   UNL A   1      50.993  27.246  36.364  1.00  0.00    -0.744 OA
ENDBRANCH 101 102
ENDBRANCH  69  94
ENDBRANCH  43  44
ENDBRANCH  36  38
ENDBRANCH  35  36
ENDBRANCH  34  35
ENDBRANCH  33  34
ENDBRANCH  32  33
ENDBRANCH   1  32
TORSDOF 23
ENDMDL
MODEL 3
REMARK VINA RESULT:     -10.4      2.133      8.162
REMARK SMILES COc1cc(CNc2ccc(N3CCOCC3)c(C(=O)OCCOCCOC(=O)c3ccc(-c4c5nc(c(-c6c(F)cc(S(=O)(=O)[O-])cc6F)c6ccc([nH]6)c(-c6c(F)cc(S(=O)(=O)[O-])cc6F)c6nc(c(-c7c(F)cc(S(=O)(=O)[O-])cc7F)c7ccc4[nH]7)C=C6)C=C5)cc3)c2)cc(Br)c1OC
REMARK SMILES IDX 23 1 22 2 21 3 19 4 20 5 18 6 8 7 9 8 96 9 10 10 11 11 7 12
REMARK SMILES IDX 6 14 5 15 3 16 4 17 100 18 98 19 97 20 99 21 2 22 1 23
REMARK SMILES IDX 101 24 102 25 12 26 13 27 17 28 14 29 16 30 15 31 24 32
REMARK SMILES IDX 25 33 26 34 27 35 28 36 29 37 30 38 31 39 95 40 32 41 94 42
REMARK SMILES IDX 33 43 34 44 35 45 88 46 36 47 93 48 87 49 89 50 37 51 92 52
REMARK SMILES IDX 86 53 85 54 38 56 72 57 51 58 71 59 52 60 55 61 70 62 90 63
REMARK SMILES IDX 53 64 54 65 69 67 91 68 56 69 39 70 40 71 49 72 41 73 42 74
REMARK SMILES IDX 48 75 50 76 43 77 44 78 45 79 46 80 47 81 73 82 74 83 83 84
REMARK SMILES IDX 75 85 76 86 82 87 84 88 77 89 78 90 79 91 80 92 81 93 57 94
REMARK SMILES IDX 58 95 67 96 59 97 60 98 66 99 68 100 61 101 62 102 63 103
REMARK SMILES IDX 64 104 65 105
REMARK H PARENT 7 13 89 55 55 66
REMARK Flexibility Score: inf
ROOT
ATOM      1  C   UNL A   1      33.285  29.421  24.548  1.00  0.00     0.202 C 
ENDROOT
BRANCH   1   2
ATOM      2  C   UNL A   1      32.912  28.770  23.214  1.00  0.00     0.261 C 
BRANCH   2   3
ATOM      3  O   UNL A   1      31.720  29.372  22.684  1.00  0.00    -0.460 OA
BRANCH   3   4
ATOM      4  C   UNL A   1      30.770  29.699  23.595  1.00  0.00     0.340 C 
ATOM      5  O   UNL A   1      30.745  30.704  24.290  1.00  0.00    -0.246 OA
BRANCH   4   6
ATOM      6  C   UNL A   1      29.728  28.650  23.591  1.00  0.00     0.085 A 
ATOM      7  C   UNL A   1      29.171  26.358  24.222  1.00  0.00     0.035 A 
ATOM      8  C   UNL A   1      27.858  26.621  23.820  1.00  0.00     0.028 A 
ATOM      9  C   UNL A   1      30.102  27.384  24.075  1.00  0.00     0.043 A 
ATOM     10  C   UNL A   1      27.485  27.870  23.305  1.00  0.00     0.029 A 
ATOM     11  C   UNL A   1      28.407  28.915  23.182  1.00  0.00     0.052 A 
BRANCH   7  12
ATOM     12  N   UNL A   1      29.470  25.150  24.814  1.00  0.00    -0.381 N 
ATOM     13  H   UNL A   1      29.044  24.341  24.448  1.00  0.00     0.160 HD
BRANCH  12  14
ATOM     14  C   UNL A   1      30.370  24.993  25.943  1.00  0.00     0.149 C 
BRANCH  14  15
ATOM     15  C   UNL A   1      31.462  24.018  25.576  1.00  0.00    -0.024 A 
ATOM     16  C   UNL A   1      32.627  22.688  23.910  1.00  0.00     0.162 A 
ATOM     17  C   UNL A   1      31.632  23.610  24.250  1.00  0.00     0.056 A 
ATOM     18  C   UNL A   1      33.465  22.114  24.900  1.00  0.00     0.174 A 
ATOM     19  C   UNL A   1      33.276  22.512  26.234  1.00  0.00     0.064 A 
ATOM     20  C   UNL A   1      32.283  23.457  26.558  1.00  0.00     0.025 A 
ATOM     21  Br  UNL A   1      34.247  21.900  27.754  1.00  0.00    -0.047 Br
BRANCH  16  22
ATOM     22  O   UNL A   1      32.787  22.239  22.617  1.00  0.00    -0.493 OA
ATOM     23  C   UNL A   1      31.899  21.203  22.212  1.00  0.00     0.278 C 
ENDBRANCH  16  22
BRANCH  18  24
ATOM     24  O   UNL A   1      34.369  21.239  24.360  1.00  0.00    -0.492 OA
ATOM     25  C   UNL A   1      34.391  19.870  24.700  1.00  0.00     0.278 C 
ENDBRANCH  18  24
ENDBRANCH  14  15
ENDBRANCH  12  14
ENDBRANCH   7  12
BRANCH  11  26
ATOM     26  N   UNL A   1      27.983  30.119  22.674  1.00  0.00    -0.366 N 
ATOM     27  C   UNL A   1      27.974  30.420  21.245  1.00  0.00     0.145 C 
ATOM     28  C   UNL A   1      27.477  31.179  23.544  1.00  0.00     0.145 C 
ATOM     29  C   UNL A   1      28.705  31.753  21.018  1.00  0.00     0.181 C 
ATOM     30  C   UNL A   1      28.136  32.525  23.179  1.00  0.00     0.181 C 
ATOM     31  O   UNL A   1      28.064  32.805  21.766  1.00  0.00    -0.378 OA
ENDBRANCH  11  26
ENDBRANCH   4   6
ENDBRANCH   3   4
ENDBRANCH   2   3
ENDBRANCH   1   2
BRANCH   1  32
ATOM     32  O   UNL A   1      33.149  28.629  25.732  1.00  0.00    -0.374 OA
BRANCH  32  33
ATOM     33  C   UNL A   1      32.654  29.264  26.904  1.00  0.00     0.202 C 
BRANCH  33  34
ATOM     34  C   UNL A   1      33.393  30.475  27.488  1.00  0.00     0.261 C 
BRANCH  34  35
ATOM     35  O   UNL A   1      34.813  30.390  27.395  1.00  0.00    -0.460 OA
BRANCH  35  36
ATOM     36  C   UNL A   1      35.443  30.811  28.518  1.00  0.00     0.338 C 
ATOM     37  O   UNL A   1      34.976  31.485  29.422  1.00  0.00    -0.246 OA
BRANCH  36  38
ATOM     38  C   UNL A   1      36.770  30.184  28.586  1.00  0.00     0.060 A 
ATOM     39  C   UNL A   1      37.247  29.833  29.854  1.00  0.00     0.016 A 
ATOM     40  C   UNL A   1      37.544  29.987  27.441  1.00  0.00     0.016 A 
ATOM     41  C   UNL A   1      38.537  29.337  29.988  1.00  0.00     0.010 A 
ATOM     42  C   UNL A   1      38.842  29.495  27.579  1.00  0.00     0.010 A 
ATOM     43  C   UNL A   1      39.356  29.213  28.858  1.00  0.00    -0.014 A 
BRANCH  43  44
ATOM     44  C   UNL A   1      40.801  28.967  29.053  1.00  0.00     0.031 A 
ATOM     45  C   UNL A   1      41.348  27.608  28.710  1.00  0.00     0.074 A 
ATOM     46  C   UNL A   1      41.613  29.960  29.453  1.00  0.00     0.049 A 
ATOM     47  N   UNL A   1      42.578  27.170  28.775  1.00  0.00    -0.248 NA
ATOM     48  C   UNL A   1      40.379  26.609  28.225  1.00  0.00     0.031 C 
ATOM     49  C   UNL A   1      41.187  31.324  29.768  1.00  0.00     0.029 A 
ATOM     50  N   UNL A   1      42.969  29.976  29.651  1.00  0.00    -0.354 N 
ATOM     51  C   UNL A   1      42.532  25.852  28.332  1.00  0.00     0.074 A 
ATOM     52  C   UNL A   1      41.148  25.545  28.051  1.00  0.00     0.031 C 
ATOM     53  C   UNL A   1      42.265  32.046  30.119  1.00  0.00     0.029 A 
ATOM     54  C   UNL A   1      43.448  31.190  30.081  1.00  0.00     0.049 A 
ATOM     55  H   UNL A   1      43.545  29.192  29.500  1.00  0.00     0.167 HD
ATOM     56  C   UNL A   1      43.558  24.987  28.153  1.00  0.00     0.037 A 
ATOM     57  C   UNL A   1      44.700  31.557  30.417  1.00  0.00     0.037 A 
ATOM     58  C   UNL A   1      44.931  25.307  28.440  1.00  0.00     0.049 A 
ATOM     59  C   UNL A   1      45.811  30.546  30.293  1.00  0.00     0.074 A 
ATOM     60  C   UNL A   1      46.048  24.502  28.309  1.00  0.00     0.029 A 
ATOM     61  N   UNL A   1      45.373  26.533  28.919  1.00  0.00    -0.354 N 
ATOM     62  N   UNL A   1      45.757  29.306  29.861  1.00  0.00    -0.248 NA
ATOM     63  C   UNL A   1      47.155  30.982  30.696  1.00  0.00     0.031 C 
ATOM     64  C   UNL A   1      47.160  25.226  28.753  1.00  0.00     0.029 A 
ATOM     65  C   UNL A   1      46.744  26.500  29.106  1.00  0.00     0.049 A 
ATOM     66  H   UNL A   1      44.797  27.310  29.097  1.00  0.00     0.167 HD
ATOM     67  C   UNL A   1      47.064  28.829  29.909  1.00  0.00     0.074 A 
ATOM     68  C   UNL A   1      47.885  29.917  30.398  1.00  0.00     0.031 C 
ATOM     69  C   UNL A   1      47.543  27.603  29.582  1.00  0.00     0.037 A 
BRANCH  56  70
ATOM     70  C   UNL A   1      43.229  23.614  27.635  1.00  0.00     0.058 A 
ATOM     71  C   UNL A   1      42.708  22.615  28.474  1.00  0.00     0.135 A 
ATOM     72  C   UNL A   1      43.403  23.302  26.277  1.00  0.00     0.135 A 
ATOM     73  F   UNL A   1      42.544  22.851  29.785  1.00  0.00    -0.206 F 
ATOM     74  C   UNL A   1      42.392  21.350  27.990  1.00  0.00     0.059 A 
ATOM     75  C   UNL A   1      43.066  22.052  25.765  1.00  0.00     0.059 A 
ATOM     76  F   UNL A   1      43.903  24.216  25.432  1.00  0.00    -0.206 F 
ATOM     77  C   UNL A   1      42.571  21.079  26.632  1.00  0.00     0.060 A 
BRANCH  77  78
ATOM     78  S   UNL A   1      42.139  19.437  26.019  1.00  0.00     0.124 S 
ATOM     79  O   UNL A   1      42.615  18.585  27.104  1.00  0.00    -0.237 OA
ATOM     80  O   UNL A   1      40.690  19.530  25.876  1.00  0.00    -0.237 OA
ATOM     81  O   UNL A   1      42.884  19.333  24.767  1.00  0.00    -0.744 OA
ENDBRANCH  77  78
ENDBRANCH  56  70
BRANCH  57  82
ATOM     82  C   UNL A   1      44.974  32.933  30.913  1.00  0.00     0.058 A 
ATOM     83  C   UNL A   1      44.857  33.252  32.274  1.00  0.00     0.135 A 
ATOM     84  C   UNL A   1      45.328  33.964  30.030  1.00  0.00     0.135 A 
ATOM     85  F   UNL A   1      44.514  32.303  33.159  1.00  0.00    -0.206 F 
ATOM     86  C   UNL A   1      45.046  34.551  32.738  1.00  0.00     0.059 A 
ATOM     87  C   UNL A   1      45.554  35.263  30.473  1.00  0.00     0.059 A 
ATOM     88  F   UNL A   1      45.470  33.711  28.720  1.00  0.00    -0.206 F 
ATOM     89  C   UNL A   1      45.392  35.551  31.828  1.00  0.00     0.060 A 
BRANCH  89  90
ATOM     90  S   UNL A   1      45.644  37.231  32.439  1.00  0.00     0.124 S 
ATOM     91  O   UNL A   1      44.326  37.548  32.976  1.00  0.00    -0.237 OA
ATOM     92  O   UNL A   1      46.706  37.041  33.422  1.00  0.00    -0.237 OA
ATOM     93  O   UNL A   1      46.033  37.968  31.241  1.00  0.00    -0.744 OA
ENDBRANCH  89  90
ENDBRANCH  57  82
BRANCH  69  94
ATOM     94  C   UNL A   1      49.028  27.387  29.701  1.00  0.00     0.058 A 
ATOM     95  C   UNL A   1      49.611  26.894  30.877  1.00  0.00     0.135 A 
ATOM     96  C   UNL A   1      49.870  27.632  28.604  1.00  0.00     0.135 A 
ATOM     97  F   UNL A   1      48.852  26.647  31.957  1.00  0.00    -0.206 F 
ATOM     98  C   UNL A   1      50.983  26.682  30.973  1.00  0.00     0.059 A 
ATOM     99  C   UNL A   1      51.239  27.395  28.666  1.00  0.00     0.059 A 
ATOM    100  F   UNL A   1      49.361  28.092  27.448  1.00  0.00    -0.206 F 
ATOM    101  C   UNL A   1      51.788  26.933  29.861  1.00  0.00     0.060 A 
BRANCH 101 102
ATOM    102  S   UNL A   1      53.561  26.624  29.991  1.00  0.00     0.124 S 
ATOM    103  O   UNL A   1      53.614  25.681  31.104  1.00  0.00    -0.237 OA
ATOM    104  O   UNL A   1      53.879  26.074  28.677  1.00  0.00    -0.237 OA
ATOM    105  O   UNL A   1      54.118  27.945  30.262  1.00  0.00    -0.744 OA
ENDBRANCH 101 102
ENDBRANCH  69  94
ENDBRANCH  43  44
ENDBRANCH  36  38
ENDBRANCH  35  36
ENDBRANCH  34  35
ENDBRANCH  33  34
ENDBRANCH  32  33
ENDBRANCH   1  32
TORSDOF 23
ENDMDL
