MODEL 1
REMARK VINA RESULT:     -10.1      0.000      0.000
REMARK SMILES CC(=O)Oc1ccccc1C(=O)OCCOCCOC(=O)c1ccc(-c2c3nc(c(-c4c(F)cc(S(=O)(=O)[O-])cc4F)c4ccc([nH]4)c(-c4c(F)cc(S(=O)(=O)[O-])cc4F)c4nc(c(-c5c(F)cc(S(=O)(=O)[O-])cc5F)c5ccc2[nH]5)C=C4)C=C3)cc1
REMARK SMILES IDX 17 1 16 2 15 3 14 4 13 5 11 6 12 7 10 8 5 9 6 10 7 11 9 12
REMARK SMILES IDX 8 13 4 14 2 15 1 16 3 17 18 18 19 19 20 20 21 21 22 22 23 23
REMARK SMILES IDX 87 24 24 25 86 26 25 27 26 28 27 29 80 30 28 31 85 32 79 33
REMARK SMILES IDX 81 34 29 35 84 36 78 37 77 38 30 40 64 41 43 42 63 43 44 44
REMARK SMILES IDX 47 45 62 46 82 47 45 48 46 49 61 51 83 52 48 53 31 54 32 55
REMARK SMILES IDX 41 56 33 57 34 58 40 59 42 60 35 61 36 62 37 63 38 64 39 65
REMARK SMILES IDX 65 66 66 67 75 68 67 69 68 70 74 71 76 72 69 73 70 74 71 75
REMARK SMILES IDX 72 76 73 77 49 78 50 79 59 80 51 81 52 82 58 83 60 84 53 85
REMARK SMILES IDX 54 86 55 87 56 88 57 89
REMARK H PARENT 81 39 47 50
REMARK Flexibility Score: inf
ROOT
ATOM      1  C   UNL A   1      38.953  22.413  26.353  1.00  0.00     0.202 C 
ENDROOT
BRANCH   1   2
ATOM      2  O   UNL A   1      38.223  21.625  25.413  1.00  0.00    -0.374 OA
BRANCH   2   3
ATOM      3  C   UNL A   1      36.801  21.587  25.543  1.00  0.00     0.202 C 
BRANCH   3   4
ATOM      4  C   UNL A   1      36.143  22.817  26.174  1.00  0.00     0.261 C 
BRANCH   4   5
ATOM      5  O   UNL A   1      34.754  22.899  25.816  1.00  0.00    -0.460 OA
BRANCH   5   6
ATOM      6  C   UNL A   1      34.045  21.753  25.961  1.00  0.00     0.342 C 
ATOM      7  O   UNL A   1      33.886  21.131  27.001  1.00  0.00    -0.246 OA
BRANCH   6   8
ATOM      8  C   UNL A   1      33.299  21.419  24.721  1.00  0.00     0.102 A 
ATOM      9  C   UNL A   1      33.203  20.149  24.138  1.00  0.00     0.145 A 
ATOM     10  C   UNL A   1      32.483  19.966  22.950  1.00  0.00     0.048 A 
ATOM     11  C   UNL A   1      31.863  21.052  22.328  1.00  0.00     0.004 A 
ATOM     12  C   UNL A   1      32.678  22.504  24.075  1.00  0.00     0.019 A 
ATOM     13  C   UNL A   1      31.974  22.324  22.883  1.00  0.00     0.001 A 
BRANCH   9  14
ATOM     14  O   UNL A   1      33.903  19.020  24.591  1.00  0.00    -0.426 OA
BRANCH  14  15
ATOM     15  C   UNL A   1      33.152  17.870  24.812  1.00  0.00     0.308 C 
ATOM     16  C   UNL A   1      33.713  16.751  23.981  1.00  0.00     0.139 C 
ATOM     17  O   UNL A   1      32.181  17.778  25.549  1.00  0.00    -0.252 OA
ENDBRANCH  14  15
ENDBRANCH   9  14
ENDBRANCH   6   8
ENDBRANCH   5   6
ENDBRANCH   4   5
ENDBRANCH   3   4
ENDBRANCH   2   3
ENDBRANCH   1   2
BRANCH   1  18
ATOM     18  C   UNL A   1      40.479  22.435  26.208  1.00  0.00     0.261 C 
BRANCH  18  19
ATOM     19  O   UNL A   1      41.134  23.198  27.236  1.00  0.00    -0.460 OA
BRANCH  19  20
ATOM     20  C   UNL A   1      41.771  24.311  26.796  1.00  0.00     0.338 C 
ATOM     21  O   UNL A   1      42.425  24.431  25.770  1.00  0.00    -0.246 OA
BRANCH  20  22
ATOM     22  C   UNL A   1      41.446  25.456  27.662  1.00  0.00     0.060 A 
ATOM     23  C   UNL A   1      42.373  26.504  27.737  1.00  0.00     0.016 A 
ATOM     24  C   UNL A   1      40.301  25.462  28.460  1.00  0.00     0.016 A 
ATOM     25  C   UNL A   1      42.172  27.548  28.637  1.00  0.00     0.010 A 
ATOM     26  C   UNL A   1      40.106  26.508  29.370  1.00  0.00     0.010 A 
ATOM     27  C   UNL A   1      41.054  27.541  29.481  1.00  0.00    -0.014 A 
BRANCH  27  28
ATOM     28  C   UNL A   1      40.925  28.568  30.543  1.00  0.00     0.031 A 
ATOM     29  C   UNL A   1      41.823  28.511  31.746  1.00  0.00     0.074 A 
ATOM     30  C   UNL A   1      40.008  29.546  30.430  1.00  0.00     0.049 A 
ATOM     31  N   UNL A   1      41.852  29.292  32.794  1.00  0.00    -0.248 NA
ATOM     32  C   UNL A   1      42.817  27.427  31.772  1.00  0.00     0.031 C 
ATOM     33  C   UNL A   1      39.091  29.712  29.304  1.00  0.00     0.029 A 
ATOM     34  N   UNL A   1      39.688  30.570  31.283  1.00  0.00    -0.354 N 
ATOM     35  C   UNL A   1      42.857  28.790  33.613  1.00  0.00     0.074 A 
ATOM     36  C   UNL A   1      43.397  27.622  32.947  1.00  0.00     0.031 C 
ATOM     37  C   UNL A   1      38.292  30.763  29.548  1.00  0.00     0.029 A 
ATOM     38  C   UNL A   1      38.626  31.327  30.856  1.00  0.00     0.049 A 
ATOM     39  H   UNL A   1      40.173  30.745  32.123  1.00  0.00     0.167 HD
ATOM     40  C   UNL A   1      43.293  29.262  34.806  1.00  0.00     0.037 A 
ATOM     41  C   UNL A   1      37.978  32.342  31.459  1.00  0.00     0.037 A 
ATOM     42  C   UNL A   1      42.751  30.423  35.463  1.00  0.00     0.049 A 
ATOM     43  C   UNL A   1      38.448  32.828  32.803  1.00  0.00     0.074 A 
ATOM     44  C   UNL A   1      43.164  31.018  36.642  1.00  0.00     0.029 A 
ATOM     45  N   UNL A   1      41.664  31.157  35.007  1.00  0.00    -0.354 N 
ATOM     46  N   UNL A   1      39.439  32.383  33.538  1.00  0.00    -0.248 NA
ATOM     47  C   UNL A   1      37.716  33.954  33.398  1.00  0.00     0.031 C 
ATOM     48  C   UNL A   1      42.294  32.077  36.927  1.00  0.00     0.029 A 
ATOM     49  C   UNL A   1      41.367  32.173  35.902  1.00  0.00     0.049 A 
ATOM     50  H   UNL A   1      41.176  30.980  34.171  1.00  0.00     0.167 HD
ATOM     51  C   UNL A   1      39.456  33.178  34.679  1.00  0.00     0.074 A 
ATOM     52  C   UNL A   1      38.386  34.143  34.528  1.00  0.00     0.031 C 
ATOM     53  C   UNL A   1      40.284  33.116  35.752  1.00  0.00     0.037 A 
BRANCH  40  54
ATOM     54  C   UNL A   1      44.387  28.492  35.493  1.00  0.00     0.058 A 
ATOM     55  C   UNL A   1      45.744  28.730  35.224  1.00  0.00     0.135 A 
ATOM     56  C   UNL A   1      44.070  27.495  36.429  1.00  0.00     0.135 A 
ATOM     57  F   UNL A   1      46.102  29.664  34.328  1.00  0.00    -0.206 F 
ATOM     58  C   UNL A   1      46.747  27.976  35.826  1.00  0.00     0.059 A 
ATOM     59  C   UNL A   1      45.058  26.746  37.062  1.00  0.00     0.059 A 
ATOM     60  F   UNL A   1      42.789  27.227  36.726  1.00  0.00    -0.206 F 
ATOM     61  C   UNL A   1      46.394  26.979  36.735  1.00  0.00     0.060 A 
BRANCH  61  62
ATOM     62  S   UNL A   1      47.700  25.979  37.478  1.00  0.00     0.124 S 
ATOM     63  O   UNL A   1      47.079  24.658  37.494  1.00  0.00    -0.237 OA
ATOM     64  O   UNL A   1      48.802  26.149  36.535  1.00  0.00    -0.237 OA
ATOM     65  O   UNL A   1      47.899  26.596  38.786  1.00  0.00    -0.744 OA
ENDBRANCH  61  62
ENDBRANCH  40  54
BRANCH  41  66
ATOM     66  C   UNL A   1      36.799  32.946  30.788  1.00  0.00     0.058 A 
ATOM     67  C   UNL A   1      35.496  32.666  31.218  1.00  0.00     0.135 A 
ATOM     68  C   UNL A   1      36.963  33.871  29.744  1.00  0.00     0.135 A 
ATOM     69  F   UNL A   1      35.290  31.781  32.205  1.00  0.00    -0.206 F 
ATOM     70  C   UNL A   1      34.393  33.293  30.647  1.00  0.00     0.059 A 
ATOM     71  C   UNL A   1      35.879  34.525  29.171  1.00  0.00     0.059 A 
ATOM     72  F   UNL A   1      38.195  34.179  29.306  1.00  0.00    -0.206 F 
ATOM     73  C   UNL A   1      34.596  34.230  29.631  1.00  0.00     0.060 A 
BRANCH  73  74
ATOM     74  S   UNL A   1      33.167  35.116  28.971  1.00  0.00     0.124 S 
ATOM     75  O   UNL A   1      33.787  36.333  28.460  1.00  0.00    -0.237 OA
ATOM     76  O   UNL A   1      32.667  34.184  27.965  1.00  0.00    -0.237 OA
ATOM     77  O   UNL A   1      32.309  35.286  30.140  1.00  0.00    -0.744 OA
ENDBRANCH  73  74
ENDBRANCH  41  66
BRANCH  53  78
ATOM     78  C   UNL A   1      40.065  34.114  36.855  1.00  0.00     0.058 A 
ATOM     79  C   UNL A   1      40.673  35.378  36.830  1.00  0.00     0.135 A 
ATOM     80  C   UNL A   1      39.199  33.824  37.922  1.00  0.00     0.135 A 
ATOM     81  F   UNL A   1      41.516  35.704  35.837  1.00  0.00    -0.206 F 
ATOM     82  C   UNL A   1      40.445  36.316  37.834  1.00  0.00     0.059 A 
ATOM     83  C   UNL A   1      38.938  34.754  38.924  1.00  0.00     0.059 A 
ATOM     84  F   UNL A   1      38.585  32.632  37.989  1.00  0.00    -0.206 F 
ATOM     85  C   UNL A   1      39.574  35.993  38.877  1.00  0.00     0.060 A 
BRANCH  85  86
ATOM     86  S   UNL A   1      39.258  37.229  40.155  1.00  0.00     0.124 S 
ATOM     87  O   UNL A   1      38.466  38.213  39.422  1.00  0.00    -0.237 OA
ATOM     88  O   UNL A   1      38.537  36.461  41.165  1.00  0.00    -0.237 OA
ATOM     89  O   UNL A   1      40.596  37.665  40.544  1.00  0.00    -0.744 OA
ENDBRANCH  85  86
ENDBRANCH  53  78
ENDBRANCH  27  28
ENDBRANCH  20  22
ENDBRANCH  19  20
ENDBRANCH  18  19
ENDBRANCH   1  18
TORSDOF 19
ENDMDL
MODEL 2
REMARK VINA RESULT:     -10.1      2.778      5.265
REMARK SMILES CC(=O)Oc1ccccc1C(=O)OCCOCCOC(=O)c1ccc(-c2c3nc(c(-c4c(F)cc(S(=O)(=O)[O-])cc4F)c4ccc([nH]4)c(-c4c(F)cc(S(=O)(=O)[O-])cc4F)c4nc(c(-c5c(F)cc(S(=O)(=O)[O-])cc5F)c5ccc2[nH]5)C=C4)C=C3)cc1
REMARK SMILES IDX 17 1 16 2 15 3 14 4 13 5 11 6 12 7 10 8 5 9 6 10 7 11 9 12
REMARK SMILES IDX 8 13 4 14 2 15 1 16 3 17 18 18 19 19 20 20 21 21 22 22 23 23
REMARK SMILES IDX 87 24 24 25 86 26 25 27 26 28 27 29 80 30 28 31 85 32 79 33
REMARK SMILES IDX 81 34 29 35 84 36 78 37 77 38 30 40 64 41 43 42 63 43 44 44
REMARK SMILES IDX 47 45 62 46 82 47 45 48 46 49 61 51 83 52 48 53 31 54 32 55
REMARK SMILES IDX 41 56 33 57 34 58 40 59 42 60 35 61 36 62 37 63 38 64 39 65
REMARK SMILES IDX 65 66 66 67 75 68 67 69 68 70 74 71 76 72 69 73 70 74 71 75
REMARK SMILES IDX 72 76 73 77 49 78 50 79 59 80 51 81 52 82 58 83 60 84 53 85
REMARK SMILES IDX 54 86 55 87 56 88 57 89
REMARK H PARENT 81 39 47 50
REMARK Flexibility Score: inf
ROOT
ATOM      1  C   UNL A   1      39.183  21.841  26.088  1.00  0.00     0.202 C 
ENDROOT
BRANCH   1   2
ATOM      2  O   UNL A   1      39.814  20.561  26.111  1.00  0.00    -0.374 OA
BRANCH   2   3
ATOM      3  C   UNL A   1      41.018  20.430  26.867  1.00  0.00     0.202 C 
BRANCH   3   4
ATOM      4  C   UNL A   1      42.302  20.197  26.067  1.00  0.00     0.261 C 
BRANCH   4   5
ATOM      5  O   UNL A   1      43.353  21.071  26.510  1.00  0.00    -0.460 OA
BRANCH   5   6
ATOM      6  C   UNL A   1      43.284  22.345  26.052  1.00  0.00     0.342 C 
ATOM      7  O   UNL A   1      42.874  22.695  24.954  1.00  0.00    -0.246 OA
BRANCH   6   8
ATOM      8  C   UNL A   1      43.591  23.323  27.127  1.00  0.00     0.102 A 
ATOM      9  C   UNL A   1      44.419  24.446  27.002  1.00  0.00     0.145 A 
ATOM     10  C   UNL A   1      44.647  25.285  28.101  1.00  0.00     0.048 A 
ATOM     11  C   UNL A   1      44.060  25.002  29.336  1.00  0.00     0.004 A 
ATOM     12  C   UNL A   1      43.017  23.046  28.381  1.00  0.00     0.019 A 
ATOM     13  C   UNL A   1      43.257  23.873  29.480  1.00  0.00     0.001 A 
BRANCH   9  14
ATOM     14  O   UNL A   1      45.173  24.744  25.857  1.00  0.00    -0.426 OA
BRANCH  14  15
ATOM     15  C   UNL A   1      46.495  24.310  25.851  1.00  0.00     0.308 C 
ATOM     16  C   UNL A   1      47.134  24.703  24.550  1.00  0.00     0.139 C 
ATOM     17  O   UNL A   1      47.051  23.691  26.747  1.00  0.00    -0.252 OA
ENDBRANCH  14  15
ENDBRANCH   9  14
ENDBRANCH   6   8
ENDBRANCH   5   6
ENDBRANCH   4   5
ENDBRANCH   3   4
ENDBRANCH   2   3
ENDBRANCH   1   2
BRANCH   1  18
ATOM     18  C   UNL A   1      39.860  22.966  26.880  1.00  0.00     0.261 C 
BRANCH  18  19
ATOM     19  O   UNL A   1      39.411  24.277  26.496  1.00  0.00    -0.460 OA
BRANCH  19  20
ATOM     20  C   UNL A   1      40.402  25.183  26.310  1.00  0.00     0.338 C 
ATOM     21  O   UNL A   1      41.014  25.406  25.275  1.00  0.00    -0.246 OA
BRANCH  20  22
ATOM     22  C   UNL A   1      40.563  26.014  27.515  1.00  0.00     0.060 A 
ATOM     23  C   UNL A   1      39.609  25.882  28.532  1.00  0.00     0.016 A 
ATOM     24  C   UNL A   1      41.573  26.973  27.607  1.00  0.00     0.016 A 
ATOM     25  C   UNL A   1      39.645  26.734  29.635  1.00  0.00     0.010 A 
ATOM     26  C   UNL A   1      41.601  27.833  28.711  1.00  0.00     0.010 A 
ATOM     27  C   UNL A   1      40.621  27.735  29.715  1.00  0.00    -0.014 A 
BRANCH  27  28
ATOM     28  C   UNL A   1      40.561  28.736  30.807  1.00  0.00     0.031 A 
ATOM     29  C   UNL A   1      41.467  28.595  31.997  1.00  0.00     0.074 A 
ATOM     30  C   UNL A   1      39.700  29.766  30.734  1.00  0.00     0.049 A 
ATOM     31  N   UNL A   1      41.551  29.342  33.067  1.00  0.00    -0.248 NA
ATOM     32  C   UNL A   1      42.399  27.456  31.980  1.00  0.00     0.031 C 
ATOM     33  C   UNL A   1      38.781  30.016  29.624  1.00  0.00     0.029 A 
ATOM     34  N   UNL A   1      39.446  30.781  31.619  1.00  0.00    -0.354 N 
ATOM     35  C   UNL A   1      42.535  28.762  33.858  1.00  0.00     0.074 A 
ATOM     36  C   UNL A   1      43.001  27.585  33.154  1.00  0.00     0.031 C 
ATOM     37  C   UNL A   1      38.045  31.103  29.907  1.00  0.00     0.029 A 
ATOM     38  C   UNL A   1      38.424  31.609  31.226  1.00  0.00     0.049 A 
ATOM     39  H   UNL A   1      39.949  30.905  32.457  1.00  0.00     0.167 HD
ATOM     40  C   UNL A   1      43.009  29.174  35.059  1.00  0.00     0.037 A 
ATOM     41  C   UNL A   1      37.840  32.641  31.866  1.00  0.00     0.037 A 
ATOM     42  C   UNL A   1      42.540  30.344  35.755  1.00  0.00     0.049 A 
ATOM     43  C   UNL A   1      38.350  33.061  33.217  1.00  0.00     0.074 A 
ATOM     44  C   UNL A   1      42.998  30.881  36.946  1.00  0.00     0.029 A 
ATOM     45  N   UNL A   1      41.491  31.150  35.334  1.00  0.00    -0.354 N 
ATOM     46  N   UNL A   1      39.323  32.540  33.926  1.00  0.00    -0.248 NA
ATOM     47  C   UNL A   1      37.689  34.209  33.852  1.00  0.00     0.031 C 
ATOM     48  C   UNL A   1      42.192  31.978  37.271  1.00  0.00     0.029 A 
ATOM     49  C   UNL A   1      41.261  32.155  36.260  1.00  0.00     0.049 A 
ATOM     50  H   UNL A   1      40.985  31.025  34.499  1.00  0.00     0.167 HD
ATOM     51  C   UNL A   1      39.396  33.300  35.089  1.00  0.00     0.074 A 
ATOM     52  C   UNL A   1      38.380  34.327  34.978  1.00  0.00     0.031 C 
ATOM     53  C   UNL A   1      40.231  33.160  36.150  1.00  0.00     0.037 A 
BRANCH  40  54
ATOM     54  C   UNL A   1      44.065  28.324  35.711  1.00  0.00     0.058 A 
ATOM     55  C   UNL A   1      43.740  27.303  36.618  1.00  0.00     0.135 A 
ATOM     56  C   UNL A   1      45.422  28.542  35.429  1.00  0.00     0.135 A 
ATOM     57  F   UNL A   1      42.457  27.061  36.933  1.00  0.00    -0.206 F 
ATOM     58  C   UNL A   1      44.727  26.557  37.257  1.00  0.00     0.059 A 
ATOM     59  C   UNL A   1      46.425  27.791  36.036  1.00  0.00     0.059 A 
ATOM     60  F   UNL A   1      45.789  29.504  34.567  1.00  0.00    -0.206 F 
ATOM     61  C   UNL A   1      46.066  26.816  36.967  1.00  0.00     0.060 A 
BRANCH  61  62
ATOM     62  S   UNL A   1      47.339  25.872  37.831  1.00  0.00     0.124 S 
ATOM     63  O   UNL A   1      46.601  24.671  38.211  1.00  0.00    -0.237 OA
ATOM     64  O   UNL A   1      48.354  25.690  36.797  1.00  0.00    -0.237 OA
ATOM     65  O   UNL A   1      47.724  26.748  38.933  1.00  0.00    -0.744 OA
ENDBRANCH  61  62
ENDBRANCH  40  54
BRANCH  41  66
ATOM     66  C   UNL A   1      36.690  33.329  31.225  1.00  0.00     0.058 A 
ATOM     67  C   UNL A   1      36.869  34.156  30.110  1.00  0.00     0.135 A 
ATOM     68  C   UNL A   1      35.380  33.113  31.681  1.00  0.00     0.135 A 
ATOM     69  F   UNL A   1      38.104  34.401  29.646  1.00  0.00    -0.206 F 
ATOM     70  C   UNL A   1      35.786  34.736  29.455  1.00  0.00     0.059 A 
ATOM     71  C   UNL A   1      34.281  33.665  31.033  1.00  0.00     0.059 A 
ATOM     72  F   UNL A   1      35.159  32.318  32.740  1.00  0.00    -0.206 F 
ATOM     73  C   UNL A   1      34.495  34.475  29.919  1.00  0.00     0.060 A 
BRANCH  73  74
ATOM     74  S   UNL A   1      33.092  35.145  28.999  1.00  0.00     0.124 S 
ATOM     75  O   UNL A   1      32.801  34.056  28.073  1.00  0.00    -0.237 OA
ATOM     76  O   UNL A   1      32.110  35.364  30.056  1.00  0.00    -0.237 OA
ATOM     77  O   UNL A   1      33.636  36.359  28.397  1.00  0.00    -0.744 OA
ENDBRANCH  73  74
ENDBRANCH  41  66
BRANCH  53  78
ATOM     78  C   UNL A   1      40.080  34.137  37.283  1.00  0.00     0.058 A 
ATOM     79  C   UNL A   1      40.728  35.382  37.269  1.00  0.00     0.135 A 
ATOM     80  C   UNL A   1      39.239  33.848  38.370  1.00  0.00     0.135 A 
ATOM     81  F   UNL A   1      41.549  35.705  36.257  1.00  0.00    -0.206 F 
ATOM     82  C   UNL A   1      40.563  36.300  38.302  1.00  0.00     0.059 A 
ATOM     83  C   UNL A   1      39.041  34.761  39.402  1.00  0.00     0.059 A 
ATOM     84  F   UNL A   1      38.588  32.675  38.429  1.00  0.00    -0.206 F 
ATOM     85  C   UNL A   1      39.715  35.980  39.365  1.00  0.00     0.060 A 
BRANCH  85  86
ATOM     86  S   UNL A   1      39.480  37.193  40.681  1.00  0.00     0.124 S 
ATOM     87  O   UNL A   1      38.597  36.471  41.592  1.00  0.00    -0.237 OA
ATOM     88  O   UNL A   1      40.843  37.408  41.159  1.00  0.00    -0.237 OA
ATOM     89  O   UNL A   1      38.878  38.330  39.993  1.00  0.00    -0.744 OA
ENDBRANCH  85  86
ENDBRANCH  53  78
ENDBRANCH  27  28
ENDBRANCH  20  22
ENDBRANCH  19  20
ENDBRANCH  18  19
ENDBRANCH   1  18
TORSDOF 19
ENDMDL
MODEL 3
REMARK VINA RESULT:     -10.0      1.540      2.777
REMARK SMILES CC(=O)Oc1ccccc1C(=O)OCCOCCOC(=O)c1ccc(-c2c3nc(c(-c4c(F)cc(S(=O)(=O)[O-])cc4F)c4ccc([nH]4)c(-c4c(F)cc(S(=O)(=O)[O-])cc4F)c4nc(c(-c5c(F)cc(S(=O)(=O)[O-])cc5F)c5ccc2[nH]5)C=C4)C=C3)cc1
REMARK SMILES IDX 17 1 16 2 15 3 14 4 13 5 11 6 12 7 10 8 5 9 6 10 7 11 9 12
REMARK SMILES IDX 8 13 4 14 2 15 1 16 3 17 18 18 19 19 20 20 21 21 22 22 23 23
REMARK SMILES IDX 87 24 24 25 86 26 25 27 26 28 27 29 80 30 28 31 85 32 79 33
REMARK SMILES IDX 81 34 29 35 84 36 78 37 77 38 30 40 64 41 43 42 63 43 44 44
REMARK SMILES IDX 47 45 62 46 82 47 45 48 46 49 61 51 83 52 48 53 31 54 32 55
REMARK SMILES IDX 41 56 33 57 34 58 40 59 42 60 35 61 36 62 37 63 38 64 39 65
REMARK SMILES IDX 65 66 66 67 75 68 67 69 68 70 74 71 76 72 69 73 70 74 71 75
REMARK SMILES IDX 72 76 73 77 49 78 50 79 59 80 51 81 52 82 58 83 60 84 53 85
REMARK SMILES IDX 54 86 55 87 56 88 57 89
REMARK H PARENT 81 39 47 50
REMARK Flexibility Score: inf
ROOT
ATOM      1  C   UNL A   1      38.494  21.663  25.846  1.00  0.00     0.202 C 
ENDROOT
BRANCH   1   2
ATOM      2  O   UNL A   1      37.386  22.560  25.785  1.00  0.00    -0.374 OA
BRANCH   2   3
ATOM      3  C   UNL A   1      36.713  22.695  24.533  1.00  0.00     0.202 C 
BRANCH   3   4
ATOM      4  C   UNL A   1      35.232  22.309  24.511  1.00  0.00     0.261 C 
BRANCH   4   5
ATOM      5  O   UNL A   1      34.614  22.704  23.276  1.00  0.00    -0.460 OA
BRANCH   5   6
ATOM      6  C   UNL A   1      34.020  23.922  23.283  1.00  0.00     0.342 C 
ATOM      7  O   UNL A   1      34.156  24.794  22.436  1.00  0.00    -0.246 OA
BRANCH   6   8
ATOM      8  C   UNL A   1      33.006  24.023  24.363  1.00  0.00     0.102 A 
ATOM      9  C   UNL A   1      32.979  24.991  25.375  1.00  0.00     0.145 A 
ATOM     10  C   UNL A   1      31.977  24.967  26.354  1.00  0.00     0.048 A 
ATOM     11  C   UNL A   1      31.001  23.969  26.337  1.00  0.00     0.004 A 
ATOM     12  C   UNL A   1      32.022  23.017  24.368  1.00  0.00     0.019 A 
ATOM     13  C   UNL A   1      31.033  22.984  25.353  1.00  0.00     0.001 A 
BRANCH   9  14
ATOM     14  O   UNL A   1      33.986  25.949  25.576  1.00  0.00    -0.426 OA
BRANCH  14  15
ATOM     15  C   UNL A   1      33.667  27.265  25.256  1.00  0.00     0.308 C 
ATOM     16  C   UNL A   1      33.984  28.145  26.431  1.00  0.00     0.139 C 
ATOM     17  O   UNL A   1      33.188  27.650  24.199  1.00  0.00    -0.252 OA
ENDBRANCH  14  15
ENDBRANCH   9  14
ENDBRANCH   6   8
ENDBRANCH   5   6
ENDBRANCH   4   5
ENDBRANCH   3   4
ENDBRANCH   2   3
ENDBRANCH   1   2
BRANCH   1  18
ATOM     18  C   UNL A   1      39.871  22.274  26.135  1.00  0.00     0.261 C 
BRANCH  18  19
ATOM     19  O   UNL A   1      39.816  23.391  27.038  1.00  0.00    -0.460 OA
BRANCH  19  20
ATOM     20  C   UNL A   1      40.809  24.300  26.877  1.00  0.00     0.338 C 
ATOM     21  O   UNL A   1      41.721  24.261  26.064  1.00  0.00    -0.246 OA
BRANCH  20  22
ATOM     22  C   UNL A   1      40.569  25.471  27.735  1.00  0.00     0.060 A 
ATOM     23  C   UNL A   1      41.559  26.461  27.784  1.00  0.00     0.016 A 
ATOM     24  C   UNL A   1      39.439  25.555  28.551  1.00  0.00     0.016 A 
ATOM     25  C   UNL A   1      41.436  27.525  28.675  1.00  0.00     0.010 A 
ATOM     26  C   UNL A   1      39.323  26.620  29.452  1.00  0.00     0.010 A 
ATOM     27  C   UNL A   1      40.334  27.594  29.537  1.00  0.00    -0.014 A 
BRANCH  27  28
ATOM     28  C   UNL A   1      40.285  28.638  30.589  1.00  0.00     0.031 A 
ATOM     29  C   UNL A   1      41.186  28.530  31.786  1.00  0.00     0.074 A 
ATOM     30  C   UNL A   1      39.438  29.676  30.473  1.00  0.00     0.049 A 
ATOM     31  N   UNL A   1      41.277  29.316  32.827  1.00  0.00    -0.248 NA
ATOM     32  C   UNL A   1      42.102  27.379  31.817  1.00  0.00     0.031 C 
ATOM     33  C   UNL A   1      38.526  29.896  29.351  1.00  0.00     0.029 A 
ATOM     34  N   UNL A   1      39.197  30.728  31.318  1.00  0.00    -0.354 N 
ATOM     35  C   UNL A   1      42.251  28.753  33.643  1.00  0.00     0.074 A 
ATOM     36  C   UNL A   1      42.703  27.545  32.986  1.00  0.00     0.031 C 
ATOM     37  C   UNL A   1      37.804  31.003  29.590  1.00  0.00     0.029 A 
ATOM     38  C   UNL A   1      38.187  31.554  30.890  1.00  0.00     0.049 A 
ATOM     39  H   UNL A   1      39.699  30.877  32.152  1.00  0.00     0.167 HD
ATOM     40  C   UNL A   1      42.728  29.205  34.829  1.00  0.00     0.037 A 
ATOM     41  C   UNL A   1      37.616  32.618  31.488  1.00  0.00     0.037 A 
ATOM     42  C   UNL A   1      42.273  30.408  35.477  1.00  0.00     0.049 A 
ATOM     43  C   UNL A   1      38.129  33.082  32.823  1.00  0.00     0.074 A 
ATOM     44  C   UNL A   1      42.736  30.983  36.648  1.00  0.00     0.029 A 
ATOM     45  N   UNL A   1      41.237  31.211  35.022  1.00  0.00    -0.354 N 
ATOM     46  N   UNL A   1      39.092  32.576  33.556  1.00  0.00    -0.248 NA
ATOM     47  C   UNL A   1      37.482  34.263  33.411  1.00  0.00     0.031 C 
ATOM     48  C   UNL A   1      41.944  32.103  36.928  1.00  0.00     0.029 A 
ATOM     49  C   UNL A   1      41.018  32.254  35.909  1.00  0.00     0.049 A 
ATOM     50  H   UNL A   1      40.731  31.061  34.191  1.00  0.00     0.167 HD
ATOM     51  C   UNL A   1      39.173  33.379  34.688  1.00  0.00     0.074 A 
ATOM     52  C   UNL A   1      38.172  34.415  34.535  1.00  0.00     0.031 C 
ATOM     53  C   UNL A   1      40.003  33.269  35.756  1.00  0.00     0.037 A 
BRANCH  40  54
ATOM     54  C   UNL A   1      43.770  28.367  35.516  1.00  0.00     0.058 A 
ATOM     55  C   UNL A   1      43.427  27.376  36.451  1.00  0.00     0.135 A 
ATOM     56  C   UNL A   1      45.132  28.563  35.240  1.00  0.00     0.135 A 
ATOM     57  F   UNL A   1      42.140  27.156  36.761  1.00  0.00    -0.206 F 
ATOM     58  C   UNL A   1      44.402  26.642  37.121  1.00  0.00     0.059 A 
ATOM     59  C   UNL A   1      46.122  27.823  35.880  1.00  0.00     0.059 A 
ATOM     60  F   UNL A   1      45.515  29.495  34.353  1.00  0.00    -0.206 F 
ATOM     61  C   UNL A   1      45.746  26.880  36.836  1.00  0.00     0.060 A 
BRANCH  61  62
ATOM     62  S   UNL A   1      47.002  25.952  37.741  1.00  0.00     0.124 S 
ATOM     63  O   UNL A   1      47.494  25.046  36.707  1.00  0.00    -0.237 OA
ATOM     64  O   UNL A   1      47.930  27.000  38.157  1.00  0.00    -0.237 OA
ATOM     65  O   UNL A   1      46.249  25.322  38.821  1.00  0.00    -0.744 OA
ENDBRANCH  61  62
ENDBRANCH  40  54
BRANCH  41  66
ATOM     66  C   UNL A   1      36.477  33.296  30.818  1.00  0.00     0.058 A 
ATOM     67  C   UNL A   1      35.171  33.180  31.311  1.00  0.00     0.135 A 
ATOM     68  C   UNL A   1      36.690  34.132  29.710  1.00  0.00     0.135 A 
ATOM     69  F   UNL A   1      34.918  32.385  32.361  1.00  0.00    -0.206 F 
ATOM     70  C   UNL A   1      34.114  33.880  30.737  1.00  0.00     0.059 A 
ATOM     71  C   UNL A   1      35.655  34.856  29.132  1.00  0.00     0.059 A 
ATOM     72  F   UNL A   1      37.928  34.283  29.210  1.00  0.00    -0.206 F 
ATOM     73  C   UNL A   1      34.369  34.724  29.654  1.00  0.00     0.060 A 
BRANCH  73  74
ATOM     74  S   UNL A   1      33.011  35.710  28.986  1.00  0.00     0.124 S 
ATOM     75  O   UNL A   1      32.271  36.049  30.196  1.00  0.00    -0.237 OA
ATOM     76  O   UNL A   1      33.720  36.810  28.341  1.00  0.00    -0.237 OA
ATOM     77  O   UNL A   1      32.343  34.784  28.075  1.00  0.00    -0.744 OA
ENDBRANCH  73  74
ENDBRANCH  41  66
BRANCH  53  78
ATOM     78  C   UNL A   1      39.862  34.291  36.851  1.00  0.00     0.058 A 
ATOM     79  C   UNL A   1      40.453  35.559  36.748  1.00  0.00     0.135 A 
ATOM     80  C   UNL A   1      39.088  34.017  37.990  1.00  0.00     0.135 A 
ATOM     81  F   UNL A   1      41.209  35.869  35.684  1.00  0.00    -0.206 F 
ATOM     82  C   UNL A   1      40.296  36.518  37.746  1.00  0.00     0.059 A 
ATOM     83  C   UNL A   1      38.899  34.969  38.989  1.00  0.00     0.059 A 
ATOM     84  F   UNL A   1      38.494  32.822  38.134  1.00  0.00    -0.206 F 
ATOM     85  C   UNL A   1      39.515  36.212  38.863  1.00  0.00     0.060 A 
BRANCH  85  86
ATOM     86  S   UNL A   1      39.290  37.474  40.134  1.00  0.00     0.124 S 
ATOM     87  O   UNL A   1      40.623  38.065  40.201  1.00  0.00    -0.237 OA
ATOM     88  O   UNL A   1      38.250  38.321  39.557  1.00  0.00    -0.237 OA
ATOM     89  O   UNL A   1      38.884  36.706  41.308  1.00  0.00    -0.744 OA
ENDBRANCH  85  86
ENDBRANCH  53  78
ENDBRANCH  27  28
ENDBRANCH  20  22
ENDBRANCH  19  20
ENDBRANCH  18  19
ENDBRANCH   1  18
TORSDOF 19
ENDMDL
