MODEL 1
REMARK VINA RESULT:     -11.6      0.000      0.000
REMARK SMILES COC(=O)c1ccc(C)c(NC(=O)[C@H]2CC=CC[C@H]2C(=O)OCCOCCOC(=O)c2ccc(-c3c4nc(c(-c5c(F)cc(S(=O)(=O)[O-])cc5F)c5ccc([nH]5)c(-c5c(F)cc(S(=O)(=O)[O-])cc5F)c5nc(c(-c6c(F)cc(S(=O)(=O)[O-])cc6F)c6ccc3[nH]6)C=C5)C=C4)cc2)c1
REMARK SMILES IDX 24 1 23 2 22 3 20 4 21 5 19 6 14 7 15 8 16 9 18 10 17 11
REMARK SMILES IDX 12 12 11 13 13 15 10 16 5 17 6 18 97 19 7 20 8 21 9 22 3 23
REMARK SMILES IDX 4 24 2 25 1 26 25 27 26 28 27 29 28 30 29 31 30 32 31 33
REMARK SMILES IDX 32 34 96 35 33 36 95 37 34 38 35 39 36 40 89 41 37 42 94 43
REMARK SMILES IDX 88 44 90 45 38 46 93 47 87 48 86 49 39 51 73 52 52 53 72 54
REMARK SMILES IDX 53 55 56 56 71 57 91 58 54 59 55 60 70 62 92 63 57 64 40 65
REMARK SMILES IDX 41 66 50 67 42 68 43 69 49 70 51 71 44 72 45 73 46 74 47 75
REMARK SMILES IDX 48 76 74 77 75 78 84 79 76 80 77 81 83 82 85 83 78 84 79 85
REMARK SMILES IDX 80 86 81 87 82 88 58 89 59 90 68 91 60 92 61 93 67 94 69 95
REMARK SMILES IDX 62 96 63 97 64 98 65 99 66 100
REMARK H PARENT 11 14 90 50 56 61
REMARK Flexibility Score: inf
ROOT
ATOM      1  C   UNL A   1      37.624  20.185  24.989  1.00  0.00     0.202 C 
ENDROOT
BRANCH   1   2
ATOM      2  C   UNL A   1      36.892  21.454  25.290  1.00  0.00     0.261 C 
BRANCH   2   3
ATOM      3  O   UNL A   1      35.690  21.239  26.054  1.00  0.00    -0.463 OA
BRANCH   3   4
ATOM      4  C   UNL A   1      34.845  22.223  26.452  1.00  0.00     0.310 C 
ATOM      5  O   UNL A   1      34.288  22.327  27.524  1.00  0.00    -0.252 OA
BRANCH   4   6
ATOM      6  C   UNL A   1      34.724  23.253  25.341  1.00  0.00     0.116 C 
ATOM      7  C   UNL A   1      33.888  22.722  24.163  1.00  0.00     0.097 C 
ATOM      8  C   UNL A   1      33.823  23.742  23.019  1.00  0.00     0.041 C 
ATOM      9  C   UNL A   1      33.750  25.171  23.460  1.00  0.00    -0.030 C 
ATOM     10  C   UNL A   1      34.273  24.619  25.842  1.00  0.00     0.043 C 
ATOM     11  C   UNL A   1      33.937  25.565  24.725  1.00  0.00    -0.030 C 
BRANCH   7  12
ATOM     12  C   UNL A   1      32.474  22.230  24.501  1.00  0.00     0.228 C 
ATOM     13  N   UNL A   1      32.318  20.909  24.906  1.00  0.00    -0.326 N 
ATOM     14  H   UNL A   1      31.932  20.701  25.787  1.00  0.00     0.169 HD
ATOM     15  O   UNL A   1      31.472  22.941  24.420  1.00  0.00    -0.274 OA
BRANCH  13  16
ATOM     16  C   UNL A   1      32.719  19.868  24.038  1.00  0.00     0.044 A 
ATOM     17  C   UNL A   1      33.530  17.589  24.041  1.00  0.00     0.062 A 
ATOM     18  C   UNL A   1      32.896  17.374  22.816  1.00  0.00     0.016 A 
ATOM     19  C   UNL A   1      33.445  18.844  24.646  1.00  0.00     0.042 A 
ATOM     20  C   UNL A   1      32.301  18.445  22.144  1.00  0.00     0.006 A 
ATOM     21  C   UNL A   1      32.265  19.723  22.721  1.00  0.00    -0.027 A 
ATOM     22  C   UNL A   1      31.777  20.870  21.886  1.00  0.00     0.046 C 
BRANCH  17  23
ATOM     23  C   UNL A   1      34.176  16.447  24.738  1.00  0.00     0.337 C 
ATOM     24  O   UNL A   1      35.243  16.507  25.322  1.00  0.00    -0.246 OA
BRANCH  23  25
ATOM     25  O   UNL A   1      33.406  15.338  24.628  1.00  0.00    -0.465 OA
ATOM     26  C   UNL A   1      32.561  15.123  25.759  1.00  0.00     0.282 C 
ENDBRANCH  23  25
ENDBRANCH  17  23
ENDBRANCH  13  16
ENDBRANCH   7  12
ENDBRANCH   4   6
ENDBRANCH   3   4
ENDBRANCH   2   3
ENDBRANCH   1   2
BRANCH   1  27
ATOM     27  O   UNL A   1      38.882  20.309  25.635  1.00  0.00    -0.374 OA
BRANCH  27  28
ATOM     28  C   UNL A   1      39.359  21.617  25.841  1.00  0.00     0.202 C 
BRANCH  28  29
ATOM     29  C   UNL A   1      39.962  21.844  27.230  1.00  0.00     0.261 C 
BRANCH  29  30
ATOM     30  O   UNL A   1      41.406  21.857  27.170  1.00  0.00    -0.460 OA
BRANCH  30  31
ATOM     31  C   UNL A   1      41.974  22.793  26.353  1.00  0.00     0.338 C 
ATOM     32  O   UNL A   1      42.536  22.522  25.304  1.00  0.00    -0.246 OA
BRANCH  31  33
ATOM     33  C   UNL A   1      41.779  24.166  26.907  1.00  0.00     0.060 A 
ATOM     34  C   UNL A   1      41.212  25.202  26.144  1.00  0.00     0.016 A 
ATOM     35  C   UNL A   1      42.350  24.459  28.140  1.00  0.00     0.016 A 
ATOM     36  C   UNL A   1      41.354  26.547  26.544  1.00  0.00     0.010 A 
ATOM     37  C   UNL A   1      42.576  25.776  28.477  1.00  0.00     0.010 A 
ATOM     38  C   UNL A   1      42.108  26.835  27.676  1.00  0.00    -0.014 A 
BRANCH  38  39
ATOM     39  C   UNL A   1      42.559  28.151  28.154  1.00  0.00     0.031 A 
ATOM     40  C   UNL A   1      41.494  29.138  28.472  1.00  0.00     0.074 A 
ATOM     41  C   UNL A   1      43.795  28.308  28.698  1.00  0.00     0.049 A 
ATOM     42  N   UNL A   1      41.710  30.276  29.027  1.00  0.00    -0.248 NA
ATOM     43  C   UNL A   1      40.072  28.923  28.188  1.00  0.00     0.031 C 
ATOM     44  C   UNL A   1      44.177  29.183  29.809  1.00  0.00     0.029 A 
ATOM     45  N   UNL A   1      45.018  27.726  28.345  1.00  0.00    -0.354 N 
ATOM     46  C   UNL A   1      40.512  30.734  29.513  1.00  0.00     0.074 A 
ATOM     47  C   UNL A   1      39.511  29.945  28.845  1.00  0.00     0.031 C 
ATOM     48  C   UNL A   1      45.514  29.306  29.847  1.00  0.00     0.029 A 
ATOM     49  C   UNL A   1      46.042  28.633  28.675  1.00  0.00     0.049 A 
ATOM     50  H   UNL A   1      45.141  26.838  27.937  1.00  0.00     0.167 HD
ATOM     51  C   UNL A   1      40.543  31.645  30.526  1.00  0.00     0.037 A 
ATOM     52  C   UNL A   1      46.826  29.154  27.691  1.00  0.00     0.037 A 
ATOM     53  C   UNL A   1      41.908  32.159  30.714  1.00  0.00     0.049 A 
ATOM     54  C   UNL A   1      46.537  30.627  27.557  1.00  0.00     0.074 A 
ATOM     55  C   UNL A   1      42.894  32.035  31.676  1.00  0.00     0.029 A 
ATOM     56  N   UNL A   1      42.530  32.735  29.615  1.00  0.00    -0.354 N 
ATOM     57  N   UNL A   1      45.628  31.218  28.284  1.00  0.00    -0.248 NA
ATOM     58  C   UNL A   1      47.184  31.558  26.645  1.00  0.00     0.031 C 
ATOM     59  C   UNL A   1      44.137  32.442  31.079  1.00  0.00     0.029 A 
ATOM     60  C   UNL A   1      43.894  32.854  29.777  1.00  0.00     0.049 A 
ATOM     61  H   UNL A   1      42.049  33.026  28.807  1.00  0.00     0.167 HD
ATOM     62  C   UNL A   1      45.544  32.529  27.989  1.00  0.00     0.074 A 
ATOM     63  C   UNL A   1      46.513  32.698  26.915  1.00  0.00     0.031 C 
ATOM     64  C   UNL A   1      44.692  33.358  28.657  1.00  0.00     0.037 A 
BRANCH  51  65
ATOM     65  C   UNL A   1      39.379  32.009  31.420  1.00  0.00     0.058 A 
ATOM     66  C   UNL A   1      38.443  32.970  30.984  1.00  0.00     0.135 A 
ATOM     67  C   UNL A   1      39.171  31.538  32.737  1.00  0.00     0.135 A 
ATOM     68  F   UNL A   1      38.531  33.515  29.760  1.00  0.00    -0.206 F 
ATOM     69  C   UNL A   1      37.391  33.427  31.783  1.00  0.00     0.059 A 
ATOM     70  C   UNL A   1      38.097  31.943  33.536  1.00  0.00     0.059 A 
ATOM     71  F   UNL A   1      40.029  30.706  33.340  1.00  0.00    -0.206 F 
ATOM     72  C   UNL A   1      37.220  32.905  33.058  1.00  0.00     0.060 A 
BRANCH  72  73
ATOM     73  S   UNL A   1      35.868  33.515  34.081  1.00  0.00     0.124 S 
ATOM     74  O   UNL A   1      36.275  33.075  35.412  1.00  0.00    -0.237 OA
ATOM     75  O   UNL A   1      35.922  34.952  33.842  1.00  0.00    -0.237 OA
ATOM     76  O   UNL A   1      34.693  32.840  33.535  1.00  0.00    -0.744 OA
ENDBRANCH  72  73
ENDBRANCH  51  65
BRANCH  52  77
ATOM     77  C   UNL A   1      47.114  28.120  26.643  1.00  0.00     0.058 A 
ATOM     78  C   UNL A   1      46.271  28.123  25.505  1.00  0.00     0.135 A 
ATOM     79  C   UNL A   1      48.417  27.633  26.460  1.00  0.00     0.135 A 
ATOM     80  F   UNL A   1      45.006  28.562  25.612  1.00  0.00    -0.206 F 
ATOM     81  C   UNL A   1      46.750  27.846  24.222  1.00  0.00     0.059 A 
ATOM     82  C   UNL A   1      48.917  27.351  25.181  1.00  0.00     0.059 A 
ATOM     83  F   UNL A   1      49.271  27.601  27.494  1.00  0.00    -0.206 F 
ATOM     84  C   UNL A   1      48.095  27.524  24.063  1.00  0.00     0.060 A 
BRANCH  84  85
ATOM     85  S   UNL A   1      48.800  27.552  22.387  1.00  0.00     0.124 S 
ATOM     86  O   UNL A   1      50.171  27.974  22.641  1.00  0.00    -0.237 OA
ATOM     87  O   UNL A   1      48.641  26.167  21.945  1.00  0.00    -0.237 OA
ATOM     88  O   UNL A   1      47.957  28.516  21.691  1.00  0.00    -0.744 OA
ENDBRANCH  84  85
ENDBRANCH  52  77
BRANCH  64  89
ATOM     89  C   UNL A   1      44.551  34.770  28.226  1.00  0.00     0.058 A 
ATOM     90  C   UNL A   1      43.722  35.125  27.156  1.00  0.00     0.135 A 
ATOM     91  C   UNL A   1      45.263  35.800  28.868  1.00  0.00     0.135 A 
ATOM     92  F   UNL A   1      43.064  34.186  26.456  1.00  0.00    -0.206 F 
ATOM     93  C   UNL A   1      43.526  36.451  26.806  1.00  0.00     0.059 A 
ATOM     94  C   UNL A   1      45.143  37.124  28.484  1.00  0.00     0.059 A 
ATOM     95  F   UNL A   1      46.054  35.559  29.924  1.00  0.00    -0.206 F 
ATOM     96  C   UNL A   1      44.233  37.442  27.486  1.00  0.00     0.060 A 
BRANCH  96  97
ATOM     97  S   UNL A   1      43.932  39.164  27.078  1.00  0.00     0.124 S 
ATOM     98  O   UNL A   1      44.037  39.820  28.378  1.00  0.00    -0.237 OA
ATOM     99  O   UNL A   1      45.023  39.430  26.145  1.00  0.00    -0.237 OA
ATOM    100  O   UNL A   1      42.594  39.144  26.497  1.00  0.00    -0.744 OA
ENDBRANCH  96  97
ENDBRANCH  64  89
ENDBRANCH  38  39
ENDBRANCH  31  33
ENDBRANCH  30  31
ENDBRANCH  29  30
ENDBRANCH  28  29
ENDBRANCH  27  28
ENDBRANCH   1  27
TORSDOF 21
ENDMDL
MODEL 2
REMARK VINA RESULT:     -11.5      4.520     10.665
REMARK SMILES COC(=O)c1ccc(C)c(NC(=O)[C@H]2CC=CC[C@H]2C(=O)OCCOCCOC(=O)c2ccc(-c3c4nc(c(-c5c(F)cc(S(=O)(=O)[O-])cc5F)c5ccc([nH]5)c(-c5c(F)cc(S(=O)(=O)[O-])cc5F)c5nc(c(-c6c(F)cc(S(=O)(=O)[O-])cc6F)c6ccc3[nH]6)C=C5)C=C4)cc2)c1
REMARK SMILES IDX 24 1 23 2 22 3 20 4 21 5 19 6 14 7 15 8 16 9 18 10 17 11
REMARK SMILES IDX 12 12 11 13 13 15 10 16 5 17 6 18 97 19 7 20 8 21 9 22 3 23
REMARK SMILES IDX 4 24 2 25 1 26 25 27 26 28 27 29 28 30 29 31 30 32 31 33
REMARK SMILES IDX 32 34 96 35 33 36 95 37 34 38 35 39 36 40 89 41 37 42 94 43
REMARK SMILES IDX 88 44 90 45 38 46 93 47 87 48 86 49 39 51 73 52 52 53 72 54
REMARK SMILES IDX 53 55 56 56 71 57 91 58 54 59 55 60 70 62 92 63 57 64 40 65
REMARK SMILES IDX 41 66 50 67 42 68 43 69 49 70 51 71 44 72 45 73 46 74 47 75
REMARK SMILES IDX 48 76 74 77 75 78 84 79 76 80 77 81 83 82 85 83 78 84 79 85
REMARK SMILES IDX 80 86 81 87 82 88 58 89 59 90 68 91 60 92 61 93 67 94 69 95
REMARK SMILES IDX 62 96 63 97 64 98 65 99 66 100
REMARK H PARENT 11 14 90 50 56 61
REMARK Flexibility Score: inf
ROOT
ATOM      1  C   UNL A   1      31.411  29.350  25.370  1.00  0.00     0.202 C 
ENDROOT
BRANCH   1   2
ATOM      2  C   UNL A   1      31.707  28.376  26.467  1.00  0.00     0.261 C 
BRANCH   2   3
ATOM      3  O   UNL A   1      32.470  27.241  26.016  1.00  0.00    -0.463 OA
BRANCH   3   4
ATOM      4  C   UNL A   1      31.933  26.126  25.461  1.00  0.00     0.310 C 
ATOM      5  O   UNL A   1      31.199  25.319  25.991  1.00  0.00    -0.252 OA
BRANCH   4   6
ATOM      6  C   UNL A   1      32.351  26.047  24.001  1.00  0.00     0.116 C 
ATOM      7  C   UNL A   1      32.873  24.646  23.636  1.00  0.00     0.097 C 
ATOM      8  C   UNL A   1      33.352  24.591  22.181  1.00  0.00     0.041 C 
ATOM      9  C   UNL A   1      32.538  25.406  21.223  1.00  0.00    -0.030 C 
ATOM     10  C   UNL A   1      31.284  26.568  23.048  1.00  0.00     0.043 C 
ATOM     11  C   UNL A   1      31.602  26.281  21.608  1.00  0.00    -0.030 C 
BRANCH   7  12
ATOM     12  C   UNL A   1      31.923  23.473  23.916  1.00  0.00     0.228 C 
ATOM     13  N   UNL A   1      32.311  22.524  24.854  1.00  0.00    -0.326 N 
ATOM     14  H   UNL A   1      31.756  22.356  25.650  1.00  0.00     0.169 HD
ATOM     15  O   UNL A   1      30.844  23.324  23.342  1.00  0.00    -0.274 OA
BRANCH  13  16
ATOM     16  C   UNL A   1      33.510  21.803  24.655  1.00  0.00     0.044 A 
ATOM     17  C   UNL A   1      35.868  21.835  25.195  1.00  0.00     0.062 A 
ATOM     18  C   UNL A   1      35.883  20.440  25.159  1.00  0.00     0.016 A 
ATOM     19  C   UNL A   1      34.677  22.515  24.933  1.00  0.00     0.042 A 
ATOM     20  C   UNL A   1      34.750  19.742  24.731  1.00  0.00     0.006 A 
ATOM     21  C   UNL A   1      33.568  20.425  24.410  1.00  0.00    -0.027 A 
ATOM     22  C   UNL A   1      32.443  19.650  23.787  1.00  0.00     0.046 C 
BRANCH  17  23
ATOM     23  C   UNL A   1      37.085  22.567  25.633  1.00  0.00     0.337 C 
ATOM     24  O   UNL A   1      37.078  23.658  26.172  1.00  0.00    -0.246 OA
BRANCH  23  25
ATOM     25  O   UNL A   1      38.193  21.843  25.344  1.00  0.00    -0.465 OA
ATOM     26  C   UNL A   1      39.251  22.032  26.284  1.00  0.00     0.282 C 
ENDBRANCH  23  25
ENDBRANCH  17  23
ENDBRANCH  13  16
ENDBRANCH   7  12
ENDBRANCH   4   6
ENDBRANCH   3   4
ENDBRANCH   2   3
ENDBRANCH   1   2
BRANCH   1  27
ATOM     27  O   UNL A   1      32.130  30.528  25.703  1.00  0.00    -0.374 OA
BRANCH  27  28
ATOM     28  C   UNL A   1      32.398  30.740  27.068  1.00  0.00     0.202 C 
BRANCH  28  29
ATOM     29  C   UNL A   1      33.794  31.304  27.344  1.00  0.00     0.261 C 
BRANCH  29  30
ATOM     30  O   UNL A   1      34.462  30.545  28.378  1.00  0.00    -0.460 OA
BRANCH  30  31
ATOM     31  C   UNL A   1      35.328  29.576  27.959  1.00  0.00     0.338 C 
ATOM     32  O   UNL A   1      35.029  28.703  27.159  1.00  0.00    -0.246 OA
BRANCH  31  33
ATOM     33  C   UNL A   1      36.670  29.759  28.585  1.00  0.00     0.060 A 
ATOM     34  C   UNL A   1      37.789  30.173  27.839  1.00  0.00     0.016 A 
ATOM     35  C   UNL A   1      36.845  29.326  29.894  1.00  0.00     0.016 A 
ATOM     36  C   UNL A   1      39.092  30.005  28.350  1.00  0.00     0.010 A 
ATOM     37  C   UNL A   1      38.120  29.069  30.350  1.00  0.00     0.010 A 
ATOM     38  C   UNL A   1      39.257  29.378  29.580  1.00  0.00    -0.014 A 
BRANCH  38  39
ATOM     39  C   UNL A   1      40.507  28.916  30.202  1.00  0.00     0.031 A 
ATOM     40  C   UNL A   1      41.014  27.592  29.757  1.00  0.00     0.074 A 
ATOM     41  C   UNL A   1      41.367  29.798  30.777  1.00  0.00     0.049 A 
ATOM     42  N   UNL A   1      42.155  27.107  30.094  1.00  0.00    -0.248 NA
ATOM     43  C   UNL A   1      40.268  26.685  28.878  1.00  0.00     0.031 C 
ATOM     44  C   UNL A   1      42.831  29.746  30.778  1.00  0.00     0.029 A 
ATOM     45  N   UNL A   1      41.110  30.948  31.533  1.00  0.00    -0.354 N 
ATOM     46  C   UNL A   1      42.450  26.092  29.220  1.00  0.00     0.074 A 
ATOM     47  C   UNL A   1      41.199  25.770  28.585  1.00  0.00     0.031 C 
ATOM     48  C   UNL A   1      43.311  30.594  31.703  1.00  0.00     0.029 A 
ATOM     49  C   UNL A   1      42.175  31.120  32.436  1.00  0.00     0.049 A 
ATOM     50  H   UNL A   1      40.323  31.533  31.449  1.00  0.00     0.167 HD
ATOM     51  C   UNL A   1      43.759  25.750  29.061  1.00  0.00     0.037 A 
ATOM     52  C   UNL A   1      41.942  31.059  33.777  1.00  0.00     0.037 A 
ATOM     53  C   UNL A   1      44.587  26.389  30.095  1.00  0.00     0.049 A 
ATOM     54  C   UNL A   1      42.601  29.825  34.336  1.00  0.00     0.074 A 
ATOM     55  C   UNL A   1      45.536  27.395  30.129  1.00  0.00     0.029 A 
ATOM     56  N   UNL A   1      44.251  26.150  31.420  1.00  0.00    -0.354 N 
ATOM     57  N   UNL A   1      43.240  28.980  33.574  1.00  0.00    -0.248 NA
ATOM     58  C   UNL A   1      42.619  29.409  35.731  1.00  0.00     0.031 C 
ATOM     59  C   UNL A   1      45.665  27.825  31.495  1.00  0.00     0.029 A 
ATOM     60  C   UNL A   1      44.832  27.050  32.288  1.00  0.00     0.049 A 
ATOM     61  H   UNL A   1      43.660  25.417  31.709  1.00  0.00     0.167 HD
ATOM     62  C   UNL A   1      43.742  27.957  34.291  1.00  0.00     0.074 A 
ATOM     63  C   UNL A   1      43.289  28.240  35.647  1.00  0.00     0.031 C 
ATOM     64  C   UNL A   1      44.487  26.975  33.710  1.00  0.00     0.037 A 
BRANCH  51  65
ATOM     65  C   UNL A   1      44.323  24.925  27.926  1.00  0.00     0.058 A 
ATOM     66  C   UNL A   1      44.957  25.572  26.845  1.00  0.00     0.135 A 
ATOM     67  C   UNL A   1      44.196  23.523  27.783  1.00  0.00     0.135 A 
ATOM     68  F   UNL A   1      45.130  26.903  26.841  1.00  0.00    -0.206 F 
ATOM     69  C   UNL A   1      45.425  24.891  25.717  1.00  0.00     0.059 A 
ATOM     70  C   UNL A   1      44.701  22.815  26.688  1.00  0.00     0.059 A 
ATOM     71  F   UNL A   1      43.524  22.775  28.667  1.00  0.00    -0.206 F 
ATOM     72  C   UNL A   1      45.298  23.510  25.648  1.00  0.00     0.060 A 
BRANCH  72  73
ATOM     73  S   UNL A   1      45.894  22.648  24.181  1.00  0.00     0.124 S 
ATOM     74  O   UNL A   1      44.655  22.417  23.444  1.00  0.00    -0.237 OA
ATOM     75  O   UNL A   1      46.808  23.623  23.598  1.00  0.00    -0.237 OA
ATOM     76  O   UNL A   1      46.529  21.449  24.722  1.00  0.00    -0.744 OA
ENDBRANCH  72  73
ENDBRANCH  51  65
BRANCH  52  77
ATOM     77  C   UNL A   1      40.626  31.696  34.112  1.00  0.00     0.058 A 
ATOM     78  C   UNL A   1      39.549  30.816  34.379  1.00  0.00     0.135 A 
ATOM     79  C   UNL A   1      40.579  32.954  34.731  1.00  0.00     0.135 A 
ATOM     80  F   UNL A   1      39.521  29.601  33.806  1.00  0.00    -0.206 F 
ATOM     81  C   UNL A   1      38.586  31.090  35.353  1.00  0.00     0.059 A 
ATOM     82  C   UNL A   1      39.623  33.248  35.714  1.00  0.00     0.059 A 
ATOM     83  F   UNL A   1      41.566  33.839  34.525  1.00  0.00    -0.206 F 
ATOM     84  C   UNL A   1      38.671  32.285  36.063  1.00  0.00     0.060 A 
BRANCH  84  85
ATOM     85  S   UNL A   1      37.679  32.467  37.575  1.00  0.00     0.124 S 
ATOM     86  O   UNL A   1      37.394  31.081  37.921  1.00  0.00    -0.237 OA
ATOM     87  O   UNL A   1      38.592  33.165  38.480  1.00  0.00    -0.237 OA
ATOM     88  O   UNL A   1      36.538  33.258  37.129  1.00  0.00    -0.744 OA
ENDBRANCH  84  85
ENDBRANCH  52  77
BRANCH  64  89
ATOM     89  C   UNL A   1      44.926  25.810  34.516  1.00  0.00     0.058 A 
ATOM     90  C   UNL A   1      46.214  25.744  35.059  1.00  0.00     0.135 A 
ATOM     91  C   UNL A   1      44.066  24.720  34.746  1.00  0.00     0.135 A 
ATOM     92  F   UNL A   1      47.109  26.718  34.824  1.00  0.00    -0.206 F 
ATOM     93  C   UNL A   1      46.597  24.696  35.880  1.00  0.00     0.059 A 
ATOM     94  C   UNL A   1      44.454  23.626  35.499  1.00  0.00     0.059 A 
ATOM     95  F   UNL A   1      42.802  24.712  34.295  1.00  0.00    -0.206 F 
ATOM     96  C   UNL A   1      45.703  23.649  36.102  1.00  0.00     0.060 A 
BRANCH  96  97
ATOM     97  S   UNL A   1      46.173  22.323  37.217  1.00  0.00     0.124 S 
ATOM     98  O   UNL A   1      45.635  22.780  38.495  1.00  0.00    -0.237 OA
ATOM     99  O   UNL A   1      45.486  21.186  36.611  1.00  0.00    -0.237 OA
ATOM    100  O   UNL A   1      47.629  22.304  37.124  1.00  0.00    -0.744 OA
ENDBRANCH  96  97
ENDBRANCH  64  89
ENDBRANCH  38  39
ENDBRANCH  31  33
ENDBRANCH  30  31
ENDBRANCH  29  30
ENDBRANCH  28  29
ENDBRANCH  27  28
ENDBRANCH   1  27
TORSDOF 21
ENDMDL
MODEL 3
REMARK VINA RESULT:     -11.5      2.244      4.408
REMARK SMILES COC(=O)c1ccc(C)c(NC(=O)[C@H]2CC=CC[C@H]2C(=O)OCCOCCOC(=O)c2ccc(-c3c4nc(c(-c5c(F)cc(S(=O)(=O)[O-])cc5F)c5ccc([nH]5)c(-c5c(F)cc(S(=O)(=O)[O-])cc5F)c5nc(c(-c6c(F)cc(S(=O)(=O)[O-])cc6F)c6ccc3[nH]6)C=C5)C=C4)cc2)c1
REMARK SMILES IDX 24 1 23 2 22 3 20 4 21 5 19 6 14 7 15 8 16 9 18 10 17 11
REMARK SMILES IDX 12 12 11 13 13 15 10 16 5 17 6 18 97 19 7 20 8 21 9 22 3 23
REMARK SMILES IDX 4 24 2 25 1 26 25 27 26 28 27 29 28 30 29 31 30 32 31 33
REMARK SMILES IDX 32 34 96 35 33 36 95 37 34 38 35 39 36 40 89 41 37 42 94 43
REMARK SMILES IDX 88 44 90 45 38 46 93 47 87 48 86 49 39 51 73 52 52 53 72 54
REMARK SMILES IDX 53 55 56 56 71 57 91 58 54 59 55 60 70 62 92 63 57 64 40 65
REMARK SMILES IDX 41 66 50 67 42 68 43 69 49 70 51 71 44 72 45 73 46 74 47 75
REMARK SMILES IDX 48 76 74 77 75 78 84 79 76 80 77 81 83 82 85 83 78 84 79 85
REMARK SMILES IDX 80 86 81 87 82 88 58 89 59 90 68 91 60 92 61 93 67 94 69 95
REMARK SMILES IDX 62 96 63 97 64 98 65 99 66 100
REMARK H PARENT 11 14 90 50 56 61
REMARK Flexibility Score: inf
ROOT
ATOM      1  C   UNL A   1      36.316  20.360  25.002  1.00  0.00     0.202 C 
ENDROOT
BRANCH   1   2
ATOM      2  C   UNL A   1      35.428  21.462  25.488  1.00  0.00     0.261 C 
BRANCH   2   3
ATOM      3  O   UNL A   1      34.209  21.573  24.730  1.00  0.00    -0.463 OA
BRANCH   3   4
ATOM      4  C   UNL A   1      33.695  22.740  24.267  1.00  0.00     0.310 C 
ATOM      5  O   UNL A   1      33.960  23.300  23.224  1.00  0.00    -0.252 OA
BRANCH   4   6
ATOM      6  C   UNL A   1      32.654  23.249  25.251  1.00  0.00     0.116 C 
ATOM      7  C   UNL A   1      32.040  24.583  24.788  1.00  0.00     0.097 C 
ATOM      8  C   UNL A   1      31.038  25.123  25.815  1.00  0.00     0.041 C 
ATOM      9  C   UNL A   1      30.221  24.073  26.503  1.00  0.00    -0.030 C 
ATOM     10  C   UNL A   1      31.617  22.196  25.619  1.00  0.00     0.043 C 
ATOM     11  C   UNL A   1      30.469  22.761  26.405  1.00  0.00    -0.030 C 
BRANCH   7  12
ATOM     12  C   UNL A   1      31.407  24.590  23.390  1.00  0.00     0.228 C 
ATOM     13  N   UNL A   1      31.816  25.566  22.489  1.00  0.00    -0.326 N 
ATOM     14  H   UNL A   1      32.219  25.311  21.628  1.00  0.00     0.169 HD
ATOM     15  O   UNL A   1      30.546  23.785  23.032  1.00  0.00    -0.274 OA
BRANCH  13  16
ATOM     16  C   UNL A   1      31.647  26.929  22.822  1.00  0.00     0.044 A 
ATOM     17  C   UNL A   1      29.964  28.661  22.978  1.00  0.00     0.062 A 
ATOM     18  C   UNL A   1      30.687  29.254  24.013  1.00  0.00     0.016 A 
ATOM     19  C   UNL A   1      30.454  27.499  22.378  1.00  0.00     0.042 A 
ATOM     20  C   UNL A   1      31.953  28.764  24.348  1.00  0.00     0.006 A 
ATOM     21  C   UNL A   1      32.475  27.632  23.706  1.00  0.00    -0.027 A 
ATOM     22  C   UNL A   1      33.904  27.256  23.973  1.00  0.00     0.046 C 
BRANCH  17  23
ATOM     23  C   UNL A   1      28.627  29.201  22.618  1.00  0.00     0.337 C 
ATOM     24  O   UNL A   1      27.662  29.208  23.358  1.00  0.00    -0.246 OA
BRANCH  23  25
ATOM     25  O   UNL A   1      28.645  29.680  21.350  1.00  0.00    -0.465 OA
ATOM     26  C   UNL A   1      28.195  31.031  21.251  1.00  0.00     0.282 C 
ENDBRANCH  23  25
ENDBRANCH  17  23
ENDBRANCH  13  16
ENDBRANCH   7  12
ENDBRANCH   4   6
ENDBRANCH   3   4
ENDBRANCH   2   3
ENDBRANCH   1   2
BRANCH   1  27
ATOM     27  O   UNL A   1      37.587  20.958  24.797  1.00  0.00    -0.374 OA
BRANCH  27  28
ATOM     28  C   UNL A   1      38.618  20.564  25.670  1.00  0.00     0.202 C 
BRANCH  28  29
ATOM     29  C   UNL A   1      39.759  21.579  25.777  1.00  0.00     0.261 C 
BRANCH  29  30
ATOM     30  O   UNL A   1      39.528  22.503  26.865  1.00  0.00    -0.460 OA
BRANCH  30  31
ATOM     31  C   UNL A   1      39.175  23.776  26.518  1.00  0.00     0.338 C 
ATOM     32  O   UNL A   1      38.144  24.052  25.925  1.00  0.00    -0.246 OA
BRANCH  31  33
ATOM     33  C   UNL A   1      40.197  24.756  26.989  1.00  0.00     0.060 A 
ATOM     34  C   UNL A   1      40.763  24.679  28.275  1.00  0.00     0.016 A 
ATOM     35  C   UNL A   1      40.445  25.873  26.200  1.00  0.00     0.016 A 
ATOM     36  C   UNL A   1      41.444  25.785  28.825  1.00  0.00     0.010 A 
ATOM     37  C   UNL A   1      41.022  26.984  26.774  1.00  0.00     0.010 A 
ATOM     38  C   UNL A   1      41.504  26.968  28.097  1.00  0.00    -0.014 A 
BRANCH  38  39
ATOM     39  C   UNL A   1      41.970  28.288  28.548  1.00  0.00     0.031 A 
ATOM     40  C   UNL A   1      40.918  29.306  28.803  1.00  0.00     0.074 A 
ATOM     41  C   UNL A   1      43.191  28.435  29.125  1.00  0.00     0.049 A 
ATOM     42  N   UNL A   1      41.143  30.456  29.330  1.00  0.00    -0.248 NA
ATOM     43  C   UNL A   1      39.500  29.114  28.481  1.00  0.00     0.031 C 
ATOM     44  C   UNL A   1      43.559  29.336  30.221  1.00  0.00     0.029 A 
ATOM     45  N   UNL A   1      44.412  27.816  28.828  1.00  0.00    -0.354 N 
ATOM     46  C   UNL A   1      39.941  30.955  29.765  1.00  0.00     0.074 A 
ATOM     47  C   UNL A   1      38.943  30.167  29.089  1.00  0.00     0.031 C 
ATOM     48  C   UNL A   1      44.897  29.431  30.297  1.00  0.00     0.029 A 
ATOM     49  C   UNL A   1      45.445  28.711  29.162  1.00  0.00     0.049 A 
ATOM     50  H   UNL A   1      44.527  26.913  28.452  1.00  0.00     0.167 HD
ATOM     51  C   UNL A   1      39.961  31.895  30.750  1.00  0.00     0.037 A 
ATOM     52  C   UNL A   1      46.271  29.184  28.189  1.00  0.00     0.037 A 
ATOM     53  C   UNL A   1      41.331  32.385  30.965  1.00  0.00     0.049 A 
ATOM     54  C   UNL A   1      46.018  30.658  28.002  1.00  0.00     0.074 A 
ATOM     55  C   UNL A   1      42.284  32.270  31.960  1.00  0.00     0.029 A 
ATOM     56  N   UNL A   1      41.999  32.914  29.869  1.00  0.00    -0.354 N 
ATOM     57  N   UNL A   1      45.101  31.291  28.681  1.00  0.00    -0.248 NA
ATOM     58  C   UNL A   1      46.714  31.547  27.082  1.00  0.00     0.031 C 
ATOM     59  C   UNL A   1      43.553  32.632  31.391  1.00  0.00     0.029 A 
ATOM     60  C   UNL A   1      43.360  33.009  30.070  1.00  0.00     0.049 A 
ATOM     61  H   UNL A   1      41.549  33.190  29.038  1.00  0.00     0.167 HD
ATOM     62  C   UNL A   1      45.056  32.594  28.345  1.00  0.00     0.074 A 
ATOM     63  C   UNL A   1      46.061  32.708  27.296  1.00  0.00     0.031 C 
ATOM     64  C   UNL A   1      44.203  33.460  28.960  1.00  0.00     0.037 A 
BRANCH  51  65
ATOM     65  C   UNL A   1      38.779  32.312  31.595  1.00  0.00     0.058 A 
ATOM     66  C   UNL A   1      38.070  33.487  31.268  1.00  0.00     0.135 A 
ATOM     67  C   UNL A   1      38.346  31.673  32.781  1.00  0.00     0.135 A 
ATOM     68  F   UNL A   1      38.386  34.203  30.178  1.00  0.00    -0.206 F 
ATOM     69  C   UNL A   1      37.024  33.988  32.047  1.00  0.00     0.059 A 
ATOM     70  C   UNL A   1      37.270  32.129  33.549  1.00  0.00     0.059 A 
ATOM     71  F   UNL A   1      38.981  30.610  33.290  1.00  0.00    -0.206 F 
ATOM     72  C   UNL A   1      36.625  33.300  33.185  1.00  0.00     0.060 A 
BRANCH  72  73
ATOM     73  S   UNL A   1      35.283  33.968  34.187  1.00  0.00     0.124 S 
ATOM     74  O   UNL A   1      35.647  33.506  35.523  1.00  0.00    -0.237 OA
ATOM     75  O   UNL A   1      35.406  35.402  33.955  1.00  0.00    -0.237 OA
ATOM     76  O   UNL A   1      34.089  33.348  33.618  1.00  0.00    -0.744 OA
ENDBRANCH  72  73
ENDBRANCH  51  65
BRANCH  52  77
ATOM     77  C   UNL A   1      46.567  28.112  27.182  1.00  0.00     0.058 A 
ATOM     78  C   UNL A   1      45.795  28.131  25.994  1.00  0.00     0.135 A 
ATOM     79  C   UNL A   1      47.851  27.556  27.089  1.00  0.00     0.135 A 
ATOM     80  F   UNL A   1      44.550  28.635  26.015  1.00  0.00    -0.206 F 
ATOM     81  C   UNL A   1      46.335  27.800  24.749  1.00  0.00     0.059 A 
ATOM     82  C   UNL A   1      48.413  27.220  25.848  1.00  0.00     0.059 A 
ATOM     83  F   UNL A   1      48.640  27.506  28.173  1.00  0.00    -0.206 F 
ATOM     84  C   UNL A   1      47.669  27.407  24.680  1.00  0.00     0.060 A 
BRANCH  84  85
ATOM     85  S   UNL A   1      48.474  27.360  23.050  1.00  0.00     0.124 S 
ATOM     86  O   UNL A   1      47.514  28.069  22.216  1.00  0.00    -0.237 OA
ATOM     87  O   UNL A   1      49.735  28.060  23.291  1.00  0.00    -0.237 OA
ATOM     88  O   UNL A   1      48.609  25.932  22.789  1.00  0.00    -0.744 OA
ENDBRANCH  84  85
ENDBRANCH  52  77
BRANCH  64  89
ATOM     89  C   UNL A   1      44.107  34.862  28.483  1.00  0.00     0.058 A 
ATOM     90  C   UNL A   1      43.539  35.170  27.242  1.00  0.00     0.135 A 
ATOM     91  C   UNL A   1      44.602  35.928  29.256  1.00  0.00     0.135 A 
ATOM     92  F   UNL A   1      43.106  34.197  26.424  1.00  0.00    -0.206 F 
ATOM     93  C   UNL A   1      43.374  36.483  26.831  1.00  0.00     0.059 A 
ATOM     94  C   UNL A   1      44.519  37.242  28.831  1.00  0.00     0.059 A 
ATOM     95  F   UNL A   1      45.131  35.731  30.473  1.00  0.00    -0.206 F 
ATOM     96  C   UNL A   1      43.857  37.511  27.640  1.00  0.00     0.060 A 
BRANCH  96  97
ATOM     97  S   UNL A   1      43.587  39.214  27.142  1.00  0.00     0.124 S 
ATOM     98  O   UNL A   1      43.797  39.945  28.388  1.00  0.00    -0.237 OA
ATOM     99  O   UNL A   1      44.623  39.380  26.127  1.00  0.00    -0.237 OA
ATOM    100  O   UNL A   1      42.214  39.207  26.648  1.00  0.00    -0.744 OA
ENDBRANCH  96  97
ENDBRANCH  64  89
ENDBRANCH  38  39
ENDBRANCH  31  33
ENDBRANCH  30  31
ENDBRANCH  29  30
ENDBRANCH  28  29
ENDBRANCH  27  28
ENDBRANCH   1  27
TORSDOF 21
ENDMDL
