MODEL 1
REMARK VINA RESULT:     -10.8      0.000      0.000
REMARK SMILES CC[C@@H](C(=O)OCCOCCOC(=O)c1ccc(-c2c3nc(c(-c4c(F)cc(S(=O)(=O)[O-])cc4F)c4ccc([nH]4)c(-c4c(F)cc(S(=O)(=O)[O-])cc4F)c4nc(c(-c5c(F)cc(S(=O)(=O)[O-])cc5F)c5ccc2[nH]5)C=C4)C=C3)cc1)N1C(=O)/C(=C/C(C)=C/c2ccccc2)SC1=S
REMARK SMILES IDX 9 1 8 2 7 3 6 4 4 5 5 6 3 7 2 8 1 9 81 10 82 11 96 12 83 13
REMARK SMILES IDX 84 14 95 15 97 16 85 17 86 18 87 19 88 20 89 21 90 22 94 23
REMARK SMILES IDX 91 24 93 25 92 26 10 27 11 28 12 29 13 30 14 31 15 32 16 33
REMARK SMILES IDX 80 34 17 35 79 36 18 37 19 38 20 39 73 40 21 41 78 42 72 43
REMARK SMILES IDX 74 44 22 45 77 46 71 47 70 48 23 50 57 51 36 52 56 53 37 54
REMARK SMILES IDX 40 55 55 56 75 57 38 58 39 59 54 61 76 62 41 63 24 64 25 65
REMARK SMILES IDX 34 66 26 67 27 68 33 69 35 70 28 71 29 72 30 73 31 74 32 75
REMARK SMILES IDX 58 76 59 77 68 78 60 79 61 80 67 81 69 82 62 83 63 84 64 85
REMARK SMILES IDX 65 86 66 87 42 88 43 89 52 90 44 91 45 92 51 93 53 94 46 95
REMARK SMILES IDX 47 96 48 97 49 98 50 99
REMARK H PARENT 74 49 40 60
REMARK Flexibility Score: inf
ROOT
ATOM      1  O   UNL A   1      39.178  23.390  26.089  1.00  0.00    -0.374 OA
ENDROOT
BRANCH   1   2
ATOM      2  C   UNL A   1      37.987  24.088  26.459  1.00  0.00     0.202 C 
BRANCH   2   3
ATOM      3  C   UNL A   1      36.654  23.553  25.914  1.00  0.00     0.261 C 
BRANCH   3   4
ATOM      4  O   UNL A   1      36.430  24.072  24.599  1.00  0.00    -0.462 OA
BRANCH   4   5
ATOM      5  C   UNL A   1      35.779  23.281  23.708  1.00  0.00     0.329 C 
ATOM      6  O   UNL A   1      36.264  22.837  22.677  1.00  0.00    -0.250 OA
BRANCH   5   7
ATOM      7  C   UNL A   1      34.397  22.875  24.256  1.00  0.00     0.201 C 
BRANCH   7   8
ATOM      8  C   UNL A   1      33.782  21.651  23.502  1.00  0.00     0.034 C 
ATOM      9  C   UNL A   1      32.297  21.378  23.711  1.00  0.00     0.007 C 
ENDBRANCH   7   8
BRANCH   7  10
ATOM     10  N   UNL A   1      33.372  23.971  24.422  1.00  0.00    -0.278 N 
ATOM     11  C   UNL A   1      33.096  24.766  23.311  1.00  0.00     0.266 C 
ATOM     12  C   UNL A   1      32.598  24.278  25.526  1.00  0.00     0.149 C 
ATOM     13  O   UNL A   1      33.530  24.605  22.178  1.00  0.00    -0.268 OA
ATOM     14  C   UNL A   1      32.121  25.846  23.644  1.00  0.00     0.080 C 
ATOM     15  S   UNL A   1      31.912  25.889  25.335  1.00  0.00    -0.054 SA
ATOM     16  S   UNL A   1      32.182  23.403  26.877  1.00  0.00    -0.052 S 
ATOM     17  C   UNL A   1      31.499  26.556  22.690  1.00  0.00     0.024 C 
BRANCH  17  18
ATOM     18  C   UNL A   1      30.435  27.562  22.784  1.00  0.00    -0.049 C 
ATOM     19  C   UNL A   1      29.189  27.089  23.496  1.00  0.00     0.044 C 
ATOM     20  C   UNL A   1      30.591  28.838  22.376  1.00  0.00     0.011 C 
BRANCH  20  21
ATOM     21  C   UNL A   1      29.644  29.951  22.512  1.00  0.00    -0.025 A 
ATOM     22  C   UNL A   1      29.546  30.618  23.740  1.00  0.00     0.008 A 
ATOM     23  C   UNL A   1      28.746  30.267  21.487  1.00  0.00     0.008 A 
ATOM     24  C   UNL A   1      28.565  31.594  23.935  1.00  0.00     0.001 A 
ATOM     25  C   UNL A   1      27.768  31.243  21.684  1.00  0.00     0.001 A 
ATOM     26  C   UNL A   1      27.675  31.904  22.908  1.00  0.00     0.000 A 
ENDBRANCH  20  21
ENDBRANCH  17  18
ENDBRANCH   7  10
ENDBRANCH   5   7
ENDBRANCH   4   5
ENDBRANCH   3   4
ENDBRANCH   2   3
ENDBRANCH   1   2
BRANCH   1  27
ATOM     27  C   UNL A   1      39.583  22.267  26.870  1.00  0.00     0.202 C 
BRANCH  27  28
ATOM     28  C   UNL A   1      39.734  20.908  26.176  1.00  0.00     0.261 C 
BRANCH  28  29
ATOM     29  O   UNL A   1      40.575  19.992  26.895  1.00  0.00    -0.460 OA
BRANCH  29  30
ATOM     30  C   UNL A   1      41.792  19.794  26.333  1.00  0.00     0.338 C 
ATOM     31  O   UNL A   1      42.143  18.838  25.653  1.00  0.00    -0.246 OA
BRANCH  30  32
ATOM     32  C   UNL A   1      42.630  20.994  26.485  1.00  0.00     0.060 A 
ATOM     33  C   UNL A   1      42.865  21.462  27.785  1.00  0.00     0.016 A 
ATOM     34  C   UNL A   1      43.088  21.711  25.378  1.00  0.00     0.016 A 
ATOM     35  C   UNL A   1      43.522  22.672  27.983  1.00  0.00     0.010 A 
ATOM     36  C   UNL A   1      43.741  22.933  25.581  1.00  0.00     0.010 A 
ATOM     37  C   UNL A   1      43.930  23.435  26.882  1.00  0.00    -0.014 A 
BRANCH  37  38
ATOM     38  C   UNL A   1      44.423  24.818  27.092  1.00  0.00     0.031 A 
ATOM     39  C   UNL A   1      43.450  25.887  27.510  1.00  0.00     0.074 A 
ATOM     40  C   UNL A   1      45.728  25.111  26.942  1.00  0.00     0.049 A 
ATOM     41  N   UNL A   1      43.652  27.164  27.700  1.00  0.00    -0.248 NA
ATOM     42  C   UNL A   1      42.061  25.457  27.743  1.00  0.00     0.031 C 
ATOM     43  C   UNL A   1      46.773  24.152  26.585  1.00  0.00     0.029 A 
ATOM     44  N   UNL A   1      46.395  26.305  27.064  1.00  0.00    -0.354 N 
ATOM     45  C   UNL A   1      42.419  27.694  28.062  1.00  0.00     0.074 A 
ATOM     46  C   UNL A   1      41.468  26.604  28.037  1.00  0.00     0.031 C 
ATOM     47  C   UNL A   1      47.948  24.798  26.503  1.00  0.00     0.029 A 
ATOM     48  C   UNL A   1      47.734  26.220  26.765  1.00  0.00     0.049 A 
ATOM     49  H   UNL A   1      45.957  27.142  27.340  1.00  0.00     0.167 HD
ATOM     50  C   UNL A   1      42.111  28.971  28.392  1.00  0.00     0.037 A 
ATOM     51  C   UNL A   1      48.672  27.185  26.683  1.00  0.00     0.037 A 
ATOM     52  C   UNL A   1      43.066  30.049  28.419  1.00  0.00     0.049 A 
ATOM     53  C   UNL A   1      48.292  28.611  26.987  1.00  0.00     0.074 A 
ATOM     54  C   UNL A   1      42.858  31.374  28.762  1.00  0.00     0.029 A 
ATOM     55  N   UNL A   1      44.407  29.930  28.084  1.00  0.00    -0.354 N 
ATOM     56  N   UNL A   1      47.126  29.095  27.349  1.00  0.00    -0.248 NA
ATOM     57  C   UNL A   1      49.351  29.622  26.876  1.00  0.00     0.031 C 
ATOM     58  C   UNL A   1      44.058  32.067  28.576  1.00  0.00     0.029 A 
ATOM     59  C   UNL A   1      45.032  31.162  28.181  1.00  0.00     0.049 A 
ATOM     60  H   UNL A   1      44.850  29.093  27.815  1.00  0.00     0.167 HD
ATOM     61  C   UNL A   1      47.322  30.460  27.538  1.00  0.00     0.074 A 
ATOM     62  C   UNL A   1      48.719  30.723  27.260  1.00  0.00     0.031 C 
ATOM     63  C   UNL A   1      46.427  31.410  27.911  1.00  0.00     0.037 A 
BRANCH  50  64
ATOM     64  C   UNL A   1      40.676  29.284  28.724  1.00  0.00     0.058 A 
ATOM     65  C   UNL A   1      39.685  29.369  27.734  1.00  0.00     0.135 A 
ATOM     66  C   UNL A   1      40.281  29.459  30.062  1.00  0.00     0.135 A 
ATOM     67  F   UNL A   1      40.008  29.228  26.439  1.00  0.00    -0.206 F 
ATOM     68  C   UNL A   1      38.358  29.641  28.055  1.00  0.00     0.059 A 
ATOM     69  C   UNL A   1      38.955  29.702  30.407  1.00  0.00     0.059 A 
ATOM     70  F   UNL A   1      41.187  29.390  31.049  1.00  0.00    -0.206 F 
ATOM     71  C   UNL A   1      38.002  29.804  29.395  1.00  0.00     0.060 A 
BRANCH  71  72
ATOM     72  S   UNL A   1      36.275  30.146  29.794  1.00  0.00     0.124 S 
ATOM     73  O   UNL A   1      35.600  29.684  28.585  1.00  0.00    -0.237 OA
ATOM     74  O   UNL A   1      36.064  29.332  30.987  1.00  0.00    -0.237 OA
ATOM     75  O   UNL A   1      36.254  31.589  30.009  1.00  0.00    -0.744 OA
ENDBRANCH  71  72
ENDBRANCH  50  64
BRANCH  51  76
ATOM     76  C   UNL A   1      50.062  26.838  26.278  1.00  0.00     0.058 A 
ATOM     77  C   UNL A   1      50.421  26.724  24.928  1.00  0.00     0.135 A 
ATOM     78  C   UNL A   1      51.061  26.609  27.240  1.00  0.00     0.135 A 
ATOM     79  F   UNL A   1      49.500  26.921  23.971  1.00  0.00    -0.206 F 
ATOM     80  C   UNL A   1      51.714  26.382  24.542  1.00  0.00     0.059 A 
ATOM     81  C   UNL A   1      52.366  26.296  26.879  1.00  0.00     0.059 A 
ATOM     82  F   UNL A   1      50.773  26.715  28.547  1.00  0.00    -0.206 F 
ATOM     83  C   UNL A   1      52.681  26.173  25.527  1.00  0.00     0.060 A 
BRANCH  83  84
ATOM     84  S   UNL A   1      54.366  25.774  25.014  1.00  0.00     0.124 S 
ATOM     85  O   UNL A   1      54.393  26.303  23.655  1.00  0.00    -0.237 OA
ATOM     86  O   UNL A   1      55.164  26.498  25.998  1.00  0.00    -0.237 OA
ATOM     87  O   UNL A   1      54.414  24.319  25.125  1.00  0.00    -0.744 OA
ENDBRANCH  83  84
ENDBRANCH  51  76
BRANCH  63  88
ATOM     88  C   UNL A   1      46.933  32.817  28.085  1.00  0.00     0.058 A 
ATOM     89  C   UNL A   1      46.815  33.779  27.070  1.00  0.00     0.135 A 
ATOM     90  C   UNL A   1      47.488  33.223  29.310  1.00  0.00     0.135 A 
ATOM     91  F   UNL A   1      46.297  33.444  25.877  1.00  0.00    -0.206 F 
ATOM     92  C   UNL A   1      47.249  35.088  27.255  1.00  0.00     0.059 A 
ATOM     93  C   UNL A   1      47.899  34.535  29.528  1.00  0.00     0.059 A 
ATOM     94  F   UNL A   1      47.613  32.348  30.319  1.00  0.00    -0.206 F 
ATOM     95  C   UNL A   1      47.786  35.457  28.490  1.00  0.00     0.060 A 
BRANCH  95  96
ATOM     96  S   UNL A   1      48.309  37.169  28.729  1.00  0.00     0.124 S 
ATOM     97  O   UNL A   1      47.539  37.552  29.907  1.00  0.00    -0.237 OA
ATOM     98  O   UNL A   1      49.748  37.028  28.931  1.00  0.00    -0.237 OA
ATOM     99  O   UNL A   1      47.918  37.823  27.483  1.00  0.00    -0.744 OA
ENDBRANCH  95  96
ENDBRANCH  63  88
ENDBRANCH  37  38
ENDBRANCH  30  32
ENDBRANCH  29  30
ENDBRANCH  28  29
ENDBRANCH  27  28
ENDBRANCH   1  27
TORSDOF 21
ENDMDL
MODEL 2
REMARK VINA RESULT:     -10.8      5.901     10.391
REMARK SMILES CC[C@@H](C(=O)OCCOCCOC(=O)c1ccc(-c2c3nc(c(-c4c(F)cc(S(=O)(=O)[O-])cc4F)c4ccc([nH]4)c(-c4c(F)cc(S(=O)(=O)[O-])cc4F)c4nc(c(-c5c(F)cc(S(=O)(=O)[O-])cc5F)c5ccc2[nH]5)C=C4)C=C3)cc1)N1C(=O)/C(=C/C(C)=C/c2ccccc2)SC1=S
REMARK SMILES IDX 9 1 8 2 7 3 6 4 4 5 5 6 3 7 2 8 1 9 81 10 82 11 96 12 83 13
REMARK SMILES IDX 84 14 95 15 97 16 85 17 86 18 87 19 88 20 89 21 90 22 94 23
REMARK SMILES IDX 91 24 93 25 92 26 10 27 11 28 12 29 13 30 14 31 15 32 16 33
REMARK SMILES IDX 80 34 17 35 79 36 18 37 19 38 20 39 73 40 21 41 78 42 72 43
REMARK SMILES IDX 74 44 22 45 77 46 71 47 70 48 23 50 57 51 36 52 56 53 37 54
REMARK SMILES IDX 40 55 55 56 75 57 38 58 39 59 54 61 76 62 41 63 24 64 25 65
REMARK SMILES IDX 34 66 26 67 27 68 33 69 35 70 28 71 29 72 30 73 31 74 32 75
REMARK SMILES IDX 58 76 59 77 68 78 60 79 61 80 67 81 69 82 62 83 63 84 64 85
REMARK SMILES IDX 65 86 66 87 42 88 43 89 52 90 44 91 45 92 51 93 53 94 46 95
REMARK SMILES IDX 47 96 48 97 49 98 50 99
REMARK H PARENT 74 49 40 60
REMARK Flexibility Score: inf
ROOT
ATOM      1  O   UNL A   1      38.991  21.886  25.720  1.00  0.00    -0.374 OA
ENDROOT
BRANCH   1   2
ATOM      2  C   UNL A   1      38.200  22.886  26.367  1.00  0.00     0.202 C 
BRANCH   2   3
ATOM      3  C   UNL A   1      37.571  23.973  25.483  1.00  0.00     0.261 C 
BRANCH   3   4
ATOM      4  O   UNL A   1      36.153  23.785  25.426  1.00  0.00    -0.462 OA
BRANCH   4   5
ATOM      5  C   UNL A   1      35.633  23.214  24.309  1.00  0.00     0.329 C 
ATOM      6  O   UNL A   1      36.268  22.942  23.300  1.00  0.00    -0.250 OA
BRANCH   5   7
ATOM      7  C   UNL A   1      34.169  22.796  24.547  1.00  0.00     0.201 C 
BRANCH   7   8
ATOM      8  C   UNL A   1      33.687  21.688  23.556  1.00  0.00     0.034 C 
ATOM      9  C   UNL A   1      32.513  20.820  23.996  1.00  0.00     0.007 C 
ENDBRANCH   7   8
BRANCH   7  10
ATOM     10  N   UNL A   1      33.146  23.901  24.653  1.00  0.00    -0.278 N 
ATOM     11  C   UNL A   1      32.958  24.712  23.535  1.00  0.00     0.266 C 
ATOM     12  C   UNL A   1      32.297  24.203  25.702  1.00  0.00     0.149 C 
ATOM     13  O   UNL A   1      33.471  24.561  22.434  1.00  0.00    -0.268 OA
ATOM     14  C   UNL A   1      31.972  25.799  23.812  1.00  0.00     0.080 C 
ATOM     15  S   UNL A   1      31.643  25.823  25.484  1.00  0.00    -0.054 SA
ATOM     16  S   UNL A   1      31.777  23.316  27.009  1.00  0.00    -0.052 S 
ATOM     17  C   UNL A   1      31.427  26.526  22.824  1.00  0.00     0.024 C 
BRANCH  17  18
ATOM     18  C   UNL A   1      30.368  27.542  22.855  1.00  0.00    -0.049 C 
ATOM     19  C   UNL A   1      29.078  27.081  23.490  1.00  0.00     0.044 C 
ATOM     20  C   UNL A   1      30.560  28.817  22.457  1.00  0.00     0.011 C 
BRANCH  20  21
ATOM     21  C   UNL A   1      29.617  29.938  22.537  1.00  0.00    -0.025 A 
ATOM     22  C   UNL A   1      28.916  30.325  21.388  1.00  0.00     0.008 A 
ATOM     23  C   UNL A   1      29.506  30.709  23.699  1.00  0.00     0.008 A 
ATOM     24  C   UNL A   1      28.111  31.466  21.404  1.00  0.00     0.001 A 
ATOM     25  C   UNL A   1      28.699  31.849  23.713  1.00  0.00     0.001 A 
ATOM     26  C   UNL A   1      28.005  32.229  22.566  1.00  0.00     0.000 A 
ENDBRANCH  20  21
ENDBRANCH  17  18
ENDBRANCH   7  10
ENDBRANCH   5   7
ENDBRANCH   4   5
ENDBRANCH   3   4
ENDBRANCH   2   3
ENDBRANCH   1   2
BRANCH   1  27
ATOM     27  C   UNL A   1      40.141  21.381  26.397  1.00  0.00     0.202 C 
BRANCH  27  28
ATOM     28  C   UNL A   1      41.468  22.136  26.249  1.00  0.00     0.261 C 
BRANCH  28  29
ATOM     29  O   UNL A   1      41.577  23.270  27.124  1.00  0.00    -0.460 OA
BRANCH  29  30
ATOM     30  C   UNL A   1      41.829  24.441  26.489  1.00  0.00     0.338 C 
ATOM     31  O   UNL A   1      42.184  24.588  25.327  1.00  0.00    -0.246 OA
BRANCH  30  32
ATOM     32  C   UNL A   1      41.438  25.580  27.336  1.00  0.00     0.060 A 
ATOM     33  C   UNL A   1      42.239  26.728  27.290  1.00  0.00     0.016 A 
ATOM     34  C   UNL A   1      40.375  25.489  28.236  1.00  0.00     0.016 A 
ATOM     35  C   UNL A   1      42.007  27.777  28.175  1.00  0.00     0.010 A 
ATOM     36  C   UNL A   1      40.150  26.542  29.131  1.00  0.00     0.010 A 
ATOM     37  C   UNL A   1      40.986  27.674  29.128  1.00  0.00    -0.014 A 
BRANCH  37  38
ATOM     38  C   UNL A   1      40.887  28.687  30.208  1.00  0.00     0.031 A 
ATOM     39  C   UNL A   1      41.849  28.621  31.364  1.00  0.00     0.074 A 
ATOM     40  C   UNL A   1      39.972  29.672  30.143  1.00  0.00     0.049 A 
ATOM     41  N   UNL A   1      41.911  29.368  32.434  1.00  0.00    -0.248 NA
ATOM     42  C   UNL A   1      42.877  27.569  31.304  1.00  0.00     0.031 C 
ATOM     43  C   UNL A   1      39.018  29.866  29.052  1.00  0.00     0.029 A 
ATOM     44  N   UNL A   1      39.692  30.689  31.021  1.00  0.00    -0.354 N 
ATOM     45  C   UNL A   1      42.974  28.873  33.182  1.00  0.00     0.074 A 
ATOM     46  C   UNL A   1      43.509  27.742  32.455  1.00  0.00     0.031 C 
ATOM     47  C   UNL A   1      38.246  30.931  29.333  1.00  0.00     0.029 A 
ATOM     48  C   UNL A   1      38.627  31.469  30.637  1.00  0.00     0.049 A 
ATOM     49  H   UNL A   1      40.204  30.846  31.846  1.00  0.00     0.167 HD
ATOM     50  C   UNL A   1      43.461  29.325  34.361  1.00  0.00     0.037 A 
ATOM     51  C   UNL A   1      38.012  32.483  31.279  1.00  0.00     0.037 A 
ATOM     52  C   UNL A   1      42.924  30.456  35.075  1.00  0.00     0.049 A 
ATOM     53  C   UNL A   1      38.528  32.925  32.625  1.00  0.00     0.074 A 
ATOM     54  C   UNL A   1      43.362  31.007  36.267  1.00  0.00     0.029 A 
ATOM     55  N   UNL A   1      41.829  31.203  34.668  1.00  0.00    -0.354 N 
ATOM     56  N   UNL A   1      39.547  32.461  33.311  1.00  0.00    -0.248 NA
ATOM     57  C   UNL A   1      37.817  34.029  33.282  1.00  0.00     0.031 C 
ATOM     58  C   UNL A   1      42.495  32.049  36.611  1.00  0.00     0.029 A 
ATOM     59  C   UNL A   1      41.556  32.191  35.600  1.00  0.00     0.049 A 
ATOM     60  H   UNL A   1      41.320  31.054  33.839  1.00  0.00     0.167 HD
ATOM     61  C   UNL A   1      39.615  33.236  34.464  1.00  0.00     0.074 A 
ATOM     62  C   UNL A   1      38.542  34.206  34.378  1.00  0.00     0.031 C 
ATOM     63  C   UNL A   1      40.489  33.157  35.498  1.00  0.00     0.037 A 
BRANCH  50  64
ATOM     64  C   UNL A   1      44.618  28.582  34.974  1.00  0.00     0.058 A 
ATOM     65  C   UNL A   1      44.427  27.503  35.852  1.00  0.00     0.135 A 
ATOM     66  C   UNL A   1      45.939  28.929  34.643  1.00  0.00     0.135 A 
ATOM     67  F   UNL A   1      43.188  27.139  36.217  1.00  0.00    -0.206 F 
ATOM     68  C   UNL A   1      45.504  26.811  36.399  1.00  0.00     0.059 A 
ATOM     69  C   UNL A   1      47.029  28.232  35.154  1.00  0.00     0.059 A 
ATOM     70  F   UNL A   1      46.179  29.954  33.810  1.00  0.00    -0.206 F 
ATOM     71  C   UNL A   1      46.802  27.182  36.042  1.00  0.00     0.060 A 
BRANCH  71  72
ATOM     72  S   UNL A   1      48.187  26.267  36.752  1.00  0.00     0.124 S 
ATOM     73  O   UNL A   1      48.861  25.782  35.553  1.00  0.00    -0.237 OA
ATOM     74  O   UNL A   1      48.893  27.303  37.501  1.00  0.00    -0.237 OA
ATOM     75  O   UNL A   1      47.538  25.242  37.564  1.00  0.00    -0.744 OA
ENDBRANCH  71  72
ENDBRANCH  50  64
BRANCH  51  76
ATOM     76  C   UNL A   1      36.825  33.139  30.666  1.00  0.00     0.058 A 
ATOM     77  C   UNL A   1      36.956  34.007  29.573  1.00  0.00     0.135 A 
ATOM     78  C   UNL A   1      35.532  32.912  31.167  1.00  0.00     0.135 A 
ATOM     79  F   UNL A   1      38.171  34.267  29.066  1.00  0.00    -0.206 F 
ATOM     80  C   UNL A   1      35.853  34.639  29.006  1.00  0.00     0.059 A 
ATOM     81  C   UNL A   1      34.412  33.508  30.599  1.00  0.00     0.059 A 
ATOM     82  F   UNL A   1      35.349  32.082  32.206  1.00  0.00    -0.206 F 
ATOM     83  C   UNL A   1      34.583  34.379  29.526  1.00  0.00     0.060 A 
BRANCH  83  84
ATOM     84  S   UNL A   1      33.155  35.169  28.753  1.00  0.00     0.124 S 
ATOM     85  O   UNL A   1      32.415  35.643  29.917  1.00  0.00    -0.237 OA
ATOM     86  O   UNL A   1      33.783  36.199  27.932  1.00  0.00    -0.237 OA
ATOM     87  O   UNL A   1      32.530  34.079  28.010  1.00  0.00    -0.744 OA
ENDBRANCH  83  84
ENDBRANCH  51  76
BRANCH  63  88
ATOM     88  C   UNL A   1      40.356  34.168  36.606  1.00  0.00     0.058 A 
ATOM     89  C   UNL A   1      41.067  35.377  36.597  1.00  0.00     0.135 A 
ATOM     90  C   UNL A   1      39.454  33.947  37.661  1.00  0.00     0.135 A 
ATOM     91  F   UNL A   1      41.946  35.638  35.616  1.00  0.00    -0.206 F 
ATOM     92  C   UNL A   1      40.907  36.323  37.606  1.00  0.00     0.059 A 
ATOM     93  C   UNL A   1      39.254  34.893  38.663  1.00  0.00     0.059 A 
ATOM     94  F   UNL A   1      38.739  32.813  37.713  1.00  0.00    -0.206 F 
ATOM     95  C   UNL A   1      39.994  36.073  38.632  1.00  0.00     0.060 A 
BRANCH  95  96
ATOM     96  S   UNL A   1      39.767  37.325  39.913  1.00  0.00     0.124 S 
ATOM     97  O   UNL A   1      38.570  38.014  39.445  1.00  0.00    -0.237 OA
ATOM     98  O   UNL A   1      39.601  36.513  41.115  1.00  0.00    -0.237 OA
ATOM     99  O   UNL A   1      41.003  38.101  39.854  1.00  0.00    -0.744 OA
ENDBRANCH  95  96
ENDBRANCH  63  88
ENDBRANCH  37  38
ENDBRANCH  30  32
ENDBRANCH  29  30
ENDBRANCH  28  29
ENDBRANCH  27  28
ENDBRANCH   1  27
TORSDOF 21
ENDMDL
MODEL 3
REMARK VINA RESULT:     -10.5      4.797     10.269
REMARK SMILES CC[C@@H](C(=O)OCCOCCOC(=O)c1ccc(-c2c3nc(c(-c4c(F)cc(S(=O)(=O)[O-])cc4F)c4ccc([nH]4)c(-c4c(F)cc(S(=O)(=O)[O-])cc4F)c4nc(c(-c5c(F)cc(S(=O)(=O)[O-])cc5F)c5ccc2[nH]5)C=C4)C=C3)cc1)N1C(=O)/C(=C/C(C)=C/c2ccccc2)SC1=S
REMARK SMILES IDX 9 1 8 2 7 3 6 4 4 5 5 6 3 7 2 8 1 9 81 10 82 11 96 12 83 13
REMARK SMILES IDX 84 14 95 15 97 16 85 17 86 18 87 19 88 20 89 21 90 22 94 23
REMARK SMILES IDX 91 24 93 25 92 26 10 27 11 28 12 29 13 30 14 31 15 32 16 33
REMARK SMILES IDX 80 34 17 35 79 36 18 37 19 38 20 39 73 40 21 41 78 42 72 43
REMARK SMILES IDX 74 44 22 45 77 46 71 47 70 48 23 50 57 51 36 52 56 53 37 54
REMARK SMILES IDX 40 55 55 56 75 57 38 58 39 59 54 61 76 62 41 63 24 64 25 65
REMARK SMILES IDX 34 66 26 67 27 68 33 69 35 70 28 71 29 72 30 73 31 74 32 75
REMARK SMILES IDX 58 76 59 77 68 78 60 79 61 80 67 81 69 82 62 83 63 84 64 85
REMARK SMILES IDX 65 86 66 87 42 88 43 89 52 90 44 91 45 92 51 93 53 94 46 95
REMARK SMILES IDX 47 96 48 97 49 98 50 99
REMARK H PARENT 74 49 40 60
REMARK Flexibility Score: inf
ROOT
ATOM      1  O   UNL A   1      34.789  25.080  25.346  1.00  0.00    -0.374 OA
ENDROOT
BRANCH   1   2
ATOM      2  C   UNL A   1      33.907  25.876  26.141  1.00  0.00     0.202 C 
BRANCH   2   3
ATOM      3  C   UNL A   1      33.898  27.391  25.889  1.00  0.00     0.261 C 
BRANCH   3   4
ATOM      4  O   UNL A   1      33.705  27.645  24.494  1.00  0.00    -0.462 OA
BRANCH   4   5
ATOM      5  C   UNL A   1      32.618  28.373  24.127  1.00  0.00     0.329 C 
ATOM      6  O   UNL A   1      32.459  29.563  24.360  1.00  0.00    -0.250 OA
BRANCH   5   7
ATOM      7  C   UNL A   1      31.688  27.538  23.226  1.00  0.00     0.201 C 
BRANCH   7   8
ATOM      8  C   UNL A   1      30.284  28.195  23.031  1.00  0.00     0.034 C 
ATOM      9  C   UNL A   1      30.178  29.325  22.012  1.00  0.00     0.007 C 
ENDBRANCH   7   8
BRANCH   7  10
ATOM     10  N   UNL A   1      31.551  26.070  23.550  1.00  0.00    -0.278 N 
ATOM     11  C   UNL A   1      32.297  25.171  22.790  1.00  0.00     0.266 C 
ATOM     12  C   UNL A   1      30.819  25.466  24.557  1.00  0.00     0.149 C 
ATOM     13  O   UNL A   1      33.133  25.456  21.943  1.00  0.00    -0.268 OA
ATOM     14  C   UNL A   1      32.004  23.759  23.176  1.00  0.00     0.080 C 
ATOM     15  S   UNL A   1      30.653  23.746  24.216  1.00  0.00    -0.054 SA
ATOM     16  S   UNL A   1      30.177  26.050  25.976  1.00  0.00    -0.052 S 
ATOM     17  C   UNL A   1      32.789  22.742  22.785  1.00  0.00     0.024 C 
BRANCH  17  18
ATOM     18  C   UNL A   1      32.760  21.318  23.140  1.00  0.00    -0.049 C 
ATOM     19  C   UNL A   1      32.137  20.426  22.092  1.00  0.00     0.044 C 
ATOM     20  C   UNL A   1      33.342  20.826  24.252  1.00  0.00     0.011 C 
BRANCH  20  21
ATOM     21  C   UNL A   1      33.468  19.421  24.658  1.00  0.00    -0.025 A 
ATOM     22  C   UNL A   1      34.471  18.631  24.082  1.00  0.00     0.008 A 
ATOM     23  C   UNL A   1      32.526  18.824  25.501  1.00  0.00     0.008 A 
ATOM     24  C   UNL A   1      34.533  17.262  24.353  1.00  0.00     0.001 A 
ATOM     25  C   UNL A   1      32.590  17.456  25.772  1.00  0.00     0.001 A 
ATOM     26  C   UNL A   1      33.591  16.675  25.196  1.00  0.00     0.000 A 
ENDBRANCH  20  21
ENDBRANCH  17  18
ENDBRANCH   7  10
ENDBRANCH   5   7
ENDBRANCH   4   5
ENDBRANCH   3   4
ENDBRANCH   2   3
ENDBRANCH   1   2
BRANCH   1  27
ATOM     27  C   UNL A   1      34.845  23.675  25.587  1.00  0.00     0.202 C 
BRANCH  27  28
ATOM     28  C   UNL A   1      36.171  22.943  25.343  1.00  0.00     0.261 C 
BRANCH  28  29
ATOM     29  O   UNL A   1      37.303  23.825  25.277  1.00  0.00    -0.460 OA
BRANCH  29  30
ATOM     30  C   UNL A   1      38.454  23.292  25.755  1.00  0.00     0.338 C 
ATOM     31  O   UNL A   1      38.958  22.222  25.438  1.00  0.00    -0.246 OA
BRANCH  30  32
ATOM     32  C   UNL A   1      39.157  24.266  26.606  1.00  0.00     0.060 A 
ATOM     33  C   UNL A   1      38.838  24.286  27.969  1.00  0.00     0.016 A 
ATOM     34  C   UNL A   1      40.031  25.211  26.065  1.00  0.00     0.016 A 
ATOM     35  C   UNL A   1      39.357  25.280  28.793  1.00  0.00     0.010 A 
ATOM     36  C   UNL A   1      40.544  26.215  26.894  1.00  0.00     0.010 A 
ATOM     37  C   UNL A   1      40.183  26.275  28.253  1.00  0.00    -0.014 A 
BRANCH  37  38
ATOM     38  C   UNL A   1      40.548  27.451  29.080  1.00  0.00     0.031 A 
ATOM     39  C   UNL A   1      41.848  27.436  29.840  1.00  0.00     0.074 A 
ATOM     40  C   UNL A   1      39.747  28.531  29.129  1.00  0.00     0.049 A 
ATOM     41  N   UNL A   1      42.339  28.328  30.659  1.00  0.00    -0.248 NA
ATOM     42  C   UNL A   1      42.705  26.254  29.653  1.00  0.00     0.031 C 
ATOM     43  C   UNL A   1      38.488  28.681  28.401  1.00  0.00     0.029 A 
ATOM     44  N   UNL A   1      39.872  29.704  29.830  1.00  0.00    -0.354 N 
ATOM     45  C   UNL A   1      43.555  27.814  31.094  1.00  0.00     0.074 A 
ATOM     46  C   UNL A   1      43.713  26.518  30.471  1.00  0.00     0.031 C 
ATOM     47  C   UNL A   1      37.949  29.874  28.704  1.00  0.00     0.029 A 
ATOM     48  C   UNL A   1      38.804  30.555  29.674  1.00  0.00     0.049 A 
ATOM     49  H   UNL A   1      40.653  29.918  30.390  1.00  0.00     0.167 HD
ATOM     50  C   UNL A   1      44.460  28.376  31.931  1.00  0.00     0.037 A 
ATOM     51  C   UNL A   1      38.533  31.734  30.270  1.00  0.00     0.037 A 
ATOM     52  C   UNL A   1      44.297  29.670  32.543  1.00  0.00     0.049 A 
ATOM     53  C   UNL A   1      39.522  32.308  31.251  1.00  0.00     0.074 A 
ATOM     54  C   UNL A   1      45.166  30.337  33.388  1.00  0.00     0.029 A 
ATOM     55  N   UNL A   1      43.189  30.489  32.383  1.00  0.00    -0.354 N 
ATOM     56  N   UNL A   1      40.678  31.822  31.638  1.00  0.00    -0.248 NA
ATOM     57  C   UNL A   1      39.174  33.592  31.875  1.00  0.00     0.031 C 
ATOM     58  C   UNL A   1      44.558  31.532  33.786  1.00  0.00     0.029 A 
ATOM     59  C   UNL A   1      43.338  31.641  33.137  1.00  0.00     0.049 A 
ATOM     60  H   UNL A   1      42.411  30.283  31.817  1.00  0.00     0.167 HD
ATOM     61  C   UNL A   1      41.207  32.754  32.525  1.00  0.00     0.074 A 
ATOM     62  C   UNL A   1      40.250  33.838  32.610  1.00  0.00     0.031 C 
ATOM     63  C   UNL A   1      42.381  32.719  33.206  1.00  0.00     0.037 A 
BRANCH  50  64
ATOM     64  C   UNL A   1      45.698  27.585  32.260  1.00  0.00     0.058 A 
ATOM     65  C   UNL A   1      46.888  27.728  31.530  1.00  0.00     0.135 A 
ATOM     66  C   UNL A   1      45.703  26.700  33.353  1.00  0.00     0.135 A 
ATOM     67  F   UNL A   1      46.935  28.545  30.467  1.00  0.00    -0.206 F 
ATOM     68  C   UNL A   1      48.032  27.004  31.855  1.00  0.00     0.059 A 
ATOM     69  C   UNL A   1      46.844  25.990  33.713  1.00  0.00     0.059 A 
ATOM     70  F   UNL A   1      44.592  26.523  34.084  1.00  0.00    -0.206 F 
ATOM     71  C   UNL A   1      48.001  26.139  32.950  1.00  0.00     0.060 A 
BRANCH  71  72
ATOM     72  S   UNL A   1      49.497  25.216  33.363  1.00  0.00     0.124 S 
ATOM     73  O   UNL A   1      49.971  24.823  32.040  1.00  0.00    -0.237 OA
ATOM     74  O   UNL A   1      50.301  26.220  34.053  1.00  0.00    -0.237 OA
ATOM     75  O   UNL A   1      49.005  24.127  34.201  1.00  0.00    -0.744 OA
ENDBRANCH  71  72
ENDBRANCH  50  64
BRANCH  51  76
ATOM     76  C   UNL A   1      37.261  32.445  29.968  1.00  0.00     0.058 A 
ATOM     77  C   UNL A   1      37.212  33.487  29.031  1.00  0.00     0.135 A 
ATOM     78  C   UNL A   1      36.064  32.095  30.615  1.00  0.00     0.135 A 
ATOM     79  F   UNL A   1      38.331  33.868  28.394  1.00  0.00    -0.206 F 
ATOM     80  C   UNL A   1      36.030  34.168  28.757  1.00  0.00     0.059 A 
ATOM     81  C   UNL A   1      34.865  32.740  30.337  1.00  0.00     0.059 A 
ATOM     82  F   UNL A   1      36.053  31.097  31.514  1.00  0.00    -0.206 F 
ATOM     83  C   UNL A   1      34.859  33.784  29.414  1.00  0.00     0.060 A 
BRANCH  83  84
ATOM     84  S   UNL A   1      33.323  34.644  29.016  1.00  0.00     0.124 S 
ATOM     85  O   UNL A   1      32.720  34.795  30.335  1.00  0.00    -0.237 OA
ATOM     86  O   UNL A   1      33.811  35.870  28.392  1.00  0.00    -0.237 OA
ATOM     87  O   UNL A   1      32.643  33.718  28.115  1.00  0.00    -0.744 OA
ENDBRANCH  83  84
ENDBRANCH  51  76
BRANCH  63  88
ATOM     88  C   UNL A   1      42.724  33.903  34.071  1.00  0.00     0.058 A 
ATOM     89  C   UNL A   1      42.506  33.896  35.457  1.00  0.00     0.135 A 
ATOM     90  C   UNL A   1      43.337  35.036  33.511  1.00  0.00     0.135 A 
ATOM     91  F   UNL A   1      41.918  32.841  36.045  1.00  0.00    -0.206 F 
ATOM     92  C   UNL A   1      42.862  34.980  36.255  1.00  0.00     0.059 A 
ATOM     93  C   UNL A   1      43.731  36.117  34.293  1.00  0.00     0.059 A 
ATOM     94  F   UNL A   1      43.580  35.090  32.192  1.00  0.00    -0.206 F 
ATOM     95  C   UNL A   1      43.479  36.084  35.663  1.00  0.00     0.060 A 
BRANCH  95  96
ATOM     96  S   UNL A   1      43.972  37.466  36.716  1.00  0.00     0.124 S 
ATOM     97  O   UNL A   1      45.271  37.017  37.204  1.00  0.00    -0.237 OA
ATOM     98  O   UNL A   1      44.000  38.580  35.772  1.00  0.00    -0.237 OA
ATOM     99  O   UNL A   1      42.911  37.528  37.717  1.00  0.00    -0.744 OA
ENDBRANCH  95  96
ENDBRANCH  63  88
ENDBRANCH  37  38
ENDBRANCH  30  32
ENDBRANCH  29  30
ENDBRANCH  28  29
ENDBRANCH  27  28
ENDBRANCH   1  27
TORSDOF 21
ENDMDL
