MODEL 1
REMARK VINA RESULT:     -12.4      0.000      0.000
REMARK SMILES Cc1nn(-c2ccccc2)c(C)c1CNC(=O)[C@@H]1[C@@H](C(=O)OCCOCCOC(=O)c2ccc(-c3c4nc(c(-c5c(F)cc(S(=O)(=O)[O-])cc5F)c5ccc([nH]5)c(-c5c(F)cc(S(=O)(=O)[O-])cc5F)c5nc(c(-c6c(F)cc(S(=O)(=O)[O-])cc6F)c6ccc3[nH]6)C=C5)C=C4)cc2)[C@@H]2C=C[C@H]1C2
REMARK SMILES IDX 24 1 23 2 22 3 20 4 21 5 19 6 18 7 100 8 97 9 99 10 101 11
REMARK SMILES IDX 98 12 16 13 15 14 17 16 14 17 13 18 1 19 2 20 3 21 4 22
REMARK SMILES IDX 11 23 12 24 5 25 6 26 10 27 7 28 9 29 8 30 25 31 26 32 27 33
REMARK SMILES IDX 28 34 29 35 30 36 31 37 32 38 96 39 33 40 95 41 34 42 35 43
REMARK SMILES IDX 36 44 89 45 37 46 94 47 88 48 90 49 38 50 93 51 87 52 86 53
REMARK SMILES IDX 39 55 73 56 52 57 72 58 53 59 56 60 71 61 91 62 54 63 55 64
REMARK SMILES IDX 70 66 92 67 57 68 40 69 41 70 50 71 42 72 43 73 49 74 51 75
REMARK SMILES IDX 44 76 45 77 46 78 47 79 48 80 74 81 75 82 84 83 76 84 77 85
REMARK SMILES IDX 83 86 85 87 78 88 79 89 80 90 81 91 82 92 58 93 59 94 68 95
REMARK SMILES IDX 60 96 61 97 67 98 69 99 62 100 63 101 64 102 65 103 66 104
REMARK H PARENT 15 15 90 54 56 65
REMARK Flexibility Score: inf
ROOT
ATOM      1  C   UNL A   1      35.859  22.927  23.391  1.00  0.00     0.202 C 
ENDROOT
BRANCH   1   2
ATOM      2  C   UNL A   1      35.112  24.266  23.545  1.00  0.00     0.261 C 
BRANCH   2   3
ATOM      3  O   UNL A   1      33.945  24.426  22.703  1.00  0.00    -0.463 OA
BRANCH   3   4
ATOM      4  C   UNL A   1      33.665  25.712  22.370  1.00  0.00     0.310 C 
ATOM      5  O   UNL A   1      33.638  26.137  21.217  1.00  0.00    -0.252 OA
BRANCH   4   6
ATOM      6  C   UNL A   1      33.409  26.635  23.542  1.00  0.00     0.119 C 
ATOM      7  C   UNL A   1      32.310  26.293  24.617  1.00  0.00     0.100 C 
ATOM      8  C   UNL A   1      31.572  27.658  24.748  1.00  0.00     0.025 C 
ATOM      9  C   UNL A   1      33.006  28.060  23.080  1.00  0.00     0.027 C 
ATOM     10  C   UNL A   1      32.522  28.731  25.228  1.00  0.00    -0.027 C 
ATOM     11  C   UNL A   1      31.492  28.087  23.285  1.00  0.00     0.017 C 
ATOM     12  C   UNL A   1      33.371  28.988  24.221  1.00  0.00    -0.027 C 
BRANCH   7  13
ATOM     13  C   UNL A   1      32.970  25.789  25.898  1.00  0.00     0.224 C 
ATOM     14  N   UNL A   1      32.377  24.864  26.694  1.00  0.00    -0.352 N 
ATOM     15  H   UNL A   1      32.813  24.736  27.568  1.00  0.00     0.163 HD
ATOM     16  O   UNL A   1      34.105  26.150  26.218  1.00  0.00    -0.275 OA
BRANCH  14  17
ATOM     17  C   UNL A   1      31.212  24.033  26.475  1.00  0.00     0.155 C 
BRANCH  17  18
ATOM     18  C   UNL A   1      31.598  22.939  25.544  1.00  0.00     0.016 A 
ATOM     19  C   UNL A   1      30.587  23.746  23.264  1.00  0.00     0.069 C 
ATOM     20  C   UNL A   1      31.349  22.827  24.150  1.00  0.00     0.065 A 
ATOM     21  N   UNL A   1      31.953  21.758  23.624  1.00  0.00    -0.173 NA
ATOM     22  N   UNL A   1      32.501  21.110  24.674  1.00  0.00    -0.237 N 
ATOM     23  C   UNL A   1      32.377  21.832  25.845  1.00  0.00     0.046 A 
ATOM     24  C   UNL A   1      33.082  21.481  27.108  1.00  0.00     0.067 C 
BRANCH  22  25
ATOM     25  C   UNL A   1      33.167  19.876  24.510  1.00  0.00     0.065 A 
ATOM     26  C   UNL A   1      34.557  19.828  24.637  1.00  0.00     0.028 A 
ATOM     27  C   UNL A   1      32.425  18.703  24.315  1.00  0.00     0.028 A 
ATOM     28  C   UNL A   1      35.194  18.587  24.653  1.00  0.00     0.002 A 
ATOM     29  C   UNL A   1      33.075  17.471  24.293  1.00  0.00     0.002 A 
ATOM     30  C   UNL A   1      34.455  17.413  24.485  1.00  0.00     0.000 A 
ENDBRANCH  22  25
ENDBRANCH  17  18
ENDBRANCH  14  17
ENDBRANCH   7  13
ENDBRANCH   4   6
ENDBRANCH   3   4
ENDBRANCH   2   3
ENDBRANCH   1   2
BRANCH   1  31
ATOM     31  O   UNL A   1      37.056  22.873  24.151  1.00  0.00    -0.374 OA
BRANCH  31  32
ATOM     32  C   UNL A   1      37.408  21.645  24.787  1.00  0.00     0.202 C 
BRANCH  32  33
ATOM     33  C   UNL A   1      38.679  21.574  25.622  1.00  0.00     0.261 C 
BRANCH  33  34
ATOM     34  O   UNL A   1      38.857  22.671  26.505  1.00  0.00    -0.460 OA
BRANCH  34  35
ATOM     35  C   UNL A   1      40.035  22.683  27.145  1.00  0.00     0.338 C 
ATOM     36  O   UNL A   1      40.606  21.718  27.634  1.00  0.00    -0.246 OA
BRANCH  35  37
ATOM     37  C   UNL A   1      40.364  24.096  27.365  1.00  0.00     0.060 A 
ATOM     38  C   UNL A   1      41.410  24.375  28.240  1.00  0.00     0.016 A 
ATOM     39  C   UNL A   1      39.494  25.107  26.901  1.00  0.00     0.016 A 
ATOM     40  C   UNL A   1      41.507  25.652  28.749  1.00  0.00     0.010 A 
ATOM     41  C   UNL A   1      39.579  26.374  27.428  1.00  0.00     0.010 A 
ATOM     42  C   UNL A   1      40.557  26.615  28.381  1.00  0.00    -0.014 A 
BRANCH  42  43
ATOM     43  C   UNL A   1      40.683  27.920  28.983  1.00  0.00     0.031 A 
ATOM     44  C   UNL A   1      41.827  28.707  28.490  1.00  0.00     0.074 A 
ATOM     45  C   UNL A   1      39.808  28.411  29.874  1.00  0.00     0.049 A 
ATOM     46  N   UNL A   1      42.928  28.977  29.107  1.00  0.00    -0.248 NA
ATOM     47  C   UNL A   1      41.788  29.136  27.085  1.00  0.00     0.031 C 
ATOM     48  C   UNL A   1      38.470  27.915  30.196  1.00  0.00     0.029 A 
ATOM     49  N   UNL A   1      39.933  29.532  30.631  1.00  0.00    -0.354 N 
ATOM     50  C   UNL A   1      43.634  29.801  28.243  1.00  0.00     0.074 A 
ATOM     51  C   UNL A   1      42.976  29.728  26.963  1.00  0.00     0.031 C 
ATOM     52  C   UNL A   1      37.835  28.836  30.954  1.00  0.00     0.029 A 
ATOM     53  C   UNL A   1      38.769  29.905  31.275  1.00  0.00     0.049 A 
ATOM     54  H   UNL A   1      40.776  30.034  30.715  1.00  0.00     0.167 HD
ATOM     55  C   UNL A   1      44.554  30.689  28.700  1.00  0.00     0.037 A 
ATOM     56  C   UNL A   1      38.577  31.051  31.964  1.00  0.00     0.037 A 
ATOM     57  C   UNL A   1      44.963  30.406  30.050  1.00  0.00     0.049 A 
ATOM     58  C   UNL A   1      39.906  31.555  32.400  1.00  0.00     0.074 A 
ATOM     59  C   UNL A   1      45.656  29.389  30.674  1.00  0.00     0.029 A 
ATOM     60  N   UNL A   1      44.328  31.118  31.037  1.00  0.00    -0.354 N 
ATOM     61  N   UNL A   1      40.690  30.925  33.235  1.00  0.00    -0.248 NA
ATOM     62  C   UNL A   1      40.543  32.639  31.661  1.00  0.00     0.031 C 
ATOM     63  C   UNL A   1      45.151  29.333  32.007  1.00  0.00     0.029 A 
ATOM     64  C   UNL A   1      44.162  30.311  32.137  1.00  0.00     0.049 A 
ATOM     65  H   UNL A   1      44.039  32.056  30.969  1.00  0.00     0.167 HD
ATOM     66  C   UNL A   1      41.975  31.265  32.849  1.00  0.00     0.074 A 
ATOM     67  C   UNL A   1      41.819  32.433  31.998  1.00  0.00     0.031 C 
ATOM     68  C   UNL A   1      43.017  30.401  33.022  1.00  0.00     0.037 A 
BRANCH  55  69
ATOM     69  C   UNL A   1      44.769  32.033  28.062  1.00  0.00     0.058 A 
ATOM     70  C   UNL A   1      46.004  32.334  27.462  1.00  0.00     0.135 A 
ATOM     71  C   UNL A   1      43.897  33.128  28.270  1.00  0.00     0.135 A 
ATOM     72  F   UNL A   1      46.911  31.366  27.250  1.00  0.00    -0.206 F 
ATOM     73  C   UNL A   1      46.369  33.639  27.133  1.00  0.00     0.059 A 
ATOM     74  C   UNL A   1      44.215  34.425  27.896  1.00  0.00     0.059 A 
ATOM     75  F   UNL A   1      42.745  33.000  28.941  1.00  0.00    -0.206 F 
ATOM     76  C   UNL A   1      45.472  34.679  27.373  1.00  0.00     0.060 A 
BRANCH  76  77
ATOM     77  S   UNL A   1      45.979  36.382  27.081  1.00  0.00     0.124 S 
ATOM     78  O   UNL A   1      46.704  36.250  25.822  1.00  0.00    -0.237 OA
ATOM     79  O   UNL A   1      44.698  37.078  27.013  1.00  0.00    -0.237 OA
ATOM     80  O   UNL A   1      46.793  36.692  28.252  1.00  0.00    -0.744 OA
ENDBRANCH  76  77
ENDBRANCH  55  69
BRANCH  56  81
ATOM     81  C   UNL A   1      37.339  31.865  31.986  1.00  0.00     0.058 A 
ATOM     82  C   UNL A   1      36.702  32.196  33.192  1.00  0.00     0.135 A 
ATOM     83  C   UNL A   1      36.894  32.545  30.833  1.00  0.00     0.135 A 
ATOM     84  F   UNL A   1      37.087  31.618  34.339  1.00  0.00    -0.206 F 
ATOM     85  C   UNL A   1      35.704  33.172  33.256  1.00  0.00     0.059 A 
ATOM     86  C   UNL A   1      35.891  33.507  30.869  1.00  0.00     0.059 A 
ATOM     87  F   UNL A   1      37.486  32.356  29.643  1.00  0.00    -0.206 F 
ATOM     88  C   UNL A   1      35.315  33.833  32.090  1.00  0.00     0.060 A 
BRANCH  88  89
ATOM     89  S   UNL A   1      34.141  35.200  32.193  1.00  0.00     0.124 S 
ATOM     90  O   UNL A   1      34.851  36.139  33.054  1.00  0.00    -0.237 OA
ATOM     91  O   UNL A   1      34.004  35.592  30.794  1.00  0.00    -0.237 OA
ATOM     92  O   UNL A   1      32.955  34.585  32.785  1.00  0.00    -0.744 OA
ENDBRANCH  88  89
ENDBRANCH  56  81
BRANCH  68  93
ATOM     93  C   UNL A   1      42.844  29.306  34.040  1.00  0.00     0.058 A 
ATOM     94  C   UNL A   1      43.096  29.470  35.411  1.00  0.00     0.135 A 
ATOM     95  C   UNL A   1      42.289  28.085  33.628  1.00  0.00     0.135 A 
ATOM     96  F   UNL A   1      43.537  30.641  35.892  1.00  0.00    -0.206 F 
ATOM     97  C   UNL A   1      42.845  28.450  36.330  1.00  0.00     0.059 A 
ATOM     98  C   UNL A   1      42.004  27.063  34.530  1.00  0.00     0.059 A 
ATOM     99  F   UNL A   1      41.970  27.893  32.337  1.00  0.00    -0.206 F 
ATOM    100  C   UNL A   1      42.297  27.249  35.880  1.00  0.00     0.060 A 
BRANCH 100 101
ATOM    101  S   UNL A   1      41.879  25.969  37.085  1.00  0.00     0.124 S 
ATOM    102  O   UNL A   1      42.066  24.747  36.311  1.00  0.00    -0.237 OA
ATOM    103  O   UNL A   1      42.853  26.200  38.148  1.00  0.00    -0.237 OA
ATOM    104  O   UNL A   1      40.497  26.277  37.444  1.00  0.00    -0.744 OA
ENDBRANCH 100 101
ENDBRANCH  68  93
ENDBRANCH  42  43
ENDBRANCH  35  37
ENDBRANCH  34  35
ENDBRANCH  33  34
ENDBRANCH  32  33
ENDBRANCH  31  32
ENDBRANCH   1  31
TORSDOF 21
ENDMDL
MODEL 2
REMARK VINA RESULT:     -12.2      1.498      3.977
REMARK SMILES Cc1nn(-c2ccccc2)c(C)c1CNC(=O)[C@@H]1[C@@H](C(=O)OCCOCCOC(=O)c2ccc(-c3c4nc(c(-c5c(F)cc(S(=O)(=O)[O-])cc5F)c5ccc([nH]5)c(-c5c(F)cc(S(=O)(=O)[O-])cc5F)c5nc(c(-c6c(F)cc(S(=O)(=O)[O-])cc6F)c6ccc3[nH]6)C=C5)C=C4)cc2)[C@@H]2C=C[C@H]1C2
REMARK SMILES IDX 24 1 23 2 22 3 20 4 21 5 19 6 18 7 100 8 97 9 99 10 101 11
REMARK SMILES IDX 98 12 16 13 15 14 17 16 14 17 13 18 1 19 2 20 3 21 4 22
REMARK SMILES IDX 11 23 12 24 5 25 6 26 10 27 7 28 9 29 8 30 25 31 26 32 27 33
REMARK SMILES IDX 28 34 29 35 30 36 31 37 32 38 96 39 33 40 95 41 34 42 35 43
REMARK SMILES IDX 36 44 89 45 37 46 94 47 88 48 90 49 38 50 93 51 87 52 86 53
REMARK SMILES IDX 39 55 73 56 52 57 72 58 53 59 56 60 71 61 91 62 54 63 55 64
REMARK SMILES IDX 70 66 92 67 57 68 40 69 41 70 50 71 42 72 43 73 49 74 51 75
REMARK SMILES IDX 44 76 45 77 46 78 47 79 48 80 74 81 75 82 84 83 76 84 77 85
REMARK SMILES IDX 83 86 85 87 78 88 79 89 80 90 81 91 82 92 58 93 59 94 68 95
REMARK SMILES IDX 60 96 61 97 67 98 69 99 62 100 63 101 64 102 65 103 66 104
REMARK H PARENT 15 15 90 54 56 65
REMARK Flexibility Score: inf
ROOT
ATOM      1  C   UNL A   1      36.383  23.696  24.847  1.00  0.00     0.202 C 
ENDROOT
BRANCH   1   2
ATOM      2  C   UNL A   1      35.977  22.914  23.583  1.00  0.00     0.261 C 
BRANCH   2   3
ATOM      3  O   UNL A   1      34.574  22.979  23.237  1.00  0.00    -0.463 OA
BRANCH   3   4
ATOM      4  C   UNL A   1      33.771  22.186  23.993  1.00  0.00     0.310 C 
ATOM      5  O   UNL A   1      33.962  20.986  24.178  1.00  0.00    -0.252 OA
BRANCH   4   6
ATOM      6  C   UNL A   1      32.567  22.882  24.590  1.00  0.00     0.119 C 
ATOM      7  C   UNL A   1      32.291  24.407  24.311  1.00  0.00     0.100 C 
ATOM      8  C   UNL A   1      31.973  24.929  25.743  1.00  0.00     0.025 C 
ATOM      9  C   UNL A   1      32.567  22.811  26.140  1.00  0.00     0.027 C 
ATOM     10  C   UNL A   1      30.760  24.227  26.308  1.00  0.00    -0.027 C 
ATOM     11  C   UNL A   1      33.038  24.202  26.561  1.00  0.00     0.017 C 
ATOM     12  C   UNL A   1      31.120  22.960  26.565  1.00  0.00    -0.027 C 
BRANCH   7  13
ATOM     13  C   UNL A   1      31.156  24.556  23.301  1.00  0.00     0.224 C 
ATOM     14  N   UNL A   1      31.060  25.637  22.486  1.00  0.00    -0.352 N 
ATOM     15  H   UNL A   1      30.208  25.706  21.997  1.00  0.00     0.163 HD
ATOM     16  O   UNL A   1      30.323  23.662  23.137  1.00  0.00    -0.275 OA
BRANCH  14  17
ATOM     17  C   UNL A   1      31.998  26.705  22.214  1.00  0.00     0.155 C 
BRANCH  17  18
ATOM     18  C   UNL A   1      31.898  27.695  23.321  1.00  0.00     0.016 A 
ATOM     19  C   UNL A   1      29.403  28.481  23.161  1.00  0.00     0.069 C 
ATOM     20  C   UNL A   1      30.769  28.445  23.745  1.00  0.00     0.065 A 
ATOM     21  N   UNL A   1      31.028  29.146  24.853  1.00  0.00    -0.173 NA
ATOM     22  N   UNL A   1      32.342  28.952  25.093  1.00  0.00    -0.237 N 
ATOM     23  C   UNL A   1      32.890  28.017  24.235  1.00  0.00     0.046 A 
ATOM     24  C   UNL A   1      34.248  27.434  24.411  1.00  0.00     0.067 C 
BRANCH  22  25
ATOM     25  C   UNL A   1      33.000  29.608  26.156  1.00  0.00     0.065 A 
ATOM     26  C   UNL A   1      34.154  29.039  26.701  1.00  0.00     0.028 A 
ATOM     27  C   UNL A   1      32.547  30.861  26.591  1.00  0.00     0.028 A 
ATOM     28  C   UNL A   1      34.900  29.771  27.624  1.00  0.00     0.002 A 
ATOM     29  C   UNL A   1      33.278  31.567  27.543  1.00  0.00     0.002 A 
ATOM     30  C   UNL A   1      34.466  31.032  28.041  1.00  0.00     0.000 A 
ENDBRANCH  22  25
ENDBRANCH  17  18
ENDBRANCH  14  17
ENDBRANCH   7  13
ENDBRANCH   4   6
ENDBRANCH   3   4
ENDBRANCH   2   3
ENDBRANCH   1   2
BRANCH   1  31
ATOM     31  O   UNL A   1      36.770  22.849  25.919  1.00  0.00    -0.374 OA
BRANCH  31  32
ATOM     32  C   UNL A   1      37.333  21.574  25.615  1.00  0.00     0.202 C 
BRANCH  32  33
ATOM     33  C   UNL A   1      38.820  21.340  25.844  1.00  0.00     0.261 C 
BRANCH  33  34
ATOM     34  O   UNL A   1      39.581  22.530  25.979  1.00  0.00    -0.460 OA
BRANCH  34  35
ATOM     35  C   UNL A   1      40.240  22.639  27.143  1.00  0.00     0.338 C 
ATOM     36  O   UNL A   1      40.400  21.754  27.972  1.00  0.00    -0.246 OA
BRANCH  35  37
ATOM     37  C   UNL A   1      40.497  24.071  27.333  1.00  0.00     0.060 A 
ATOM     38  C   UNL A   1      41.566  24.421  28.151  1.00  0.00     0.016 A 
ATOM     39  C   UNL A   1      39.547  25.025  26.903  1.00  0.00     0.016 A 
ATOM     40  C   UNL A   1      41.614  25.707  28.643  1.00  0.00     0.010 A 
ATOM     41  C   UNL A   1      39.584  26.301  27.413  1.00  0.00     0.010 A 
ATOM     42  C   UNL A   1      40.593  26.610  28.314  1.00  0.00    -0.014 A 
BRANCH  42  43
ATOM     43  C   UNL A   1      40.672  27.927  28.896  1.00  0.00     0.031 A 
ATOM     44  C   UNL A   1      41.827  28.722  28.443  1.00  0.00     0.074 A 
ATOM     45  C   UNL A   1      39.750  28.421  29.736  1.00  0.00     0.049 A 
ATOM     46  N   UNL A   1      42.894  29.019  29.106  1.00  0.00    -0.248 NA
ATOM     47  C   UNL A   1      41.848  29.125  27.030  1.00  0.00     0.031 C 
ATOM     48  C   UNL A   1      38.405  27.911  30.004  1.00  0.00     0.029 A 
ATOM     49  N   UNL A   1      39.823  29.557  30.477  1.00  0.00    -0.354 N 
ATOM     50  C   UNL A   1      43.629  29.837  28.260  1.00  0.00     0.074 A 
ATOM     51  C   UNL A   1      43.032  29.732  26.953  1.00  0.00     0.031 C 
ATOM     52  C   UNL A   1      37.722  28.837  30.714  1.00  0.00     0.029 A 
ATOM     53  C   UNL A   1      38.625  29.925  31.059  1.00  0.00     0.049 A 
ATOM     54  H   UNL A   1      40.654  30.073  30.591  1.00  0.00     0.167 HD
ATOM     55  C   UNL A   1      44.513  30.747  28.744  1.00  0.00     0.037 A 
ATOM     56  C   UNL A   1      38.385  31.080  31.717  1.00  0.00     0.037 A 
ATOM     57  C   UNL A   1      44.862  30.494  30.116  1.00  0.00     0.049 A 
ATOM     58  C   UNL A   1      39.684  31.611  32.204  1.00  0.00     0.074 A 
ATOM     59  C   UNL A   1      45.539  29.500  30.790  1.00  0.00     0.029 A 
ATOM     60  N   UNL A   1      44.172  31.215  31.059  1.00  0.00    -0.354 N 
ATOM     61  N   UNL A   1      40.436  31.008  33.087  1.00  0.00    -0.248 NA
ATOM     62  C   UNL A   1      40.341  32.691  31.477  1.00  0.00     0.031 C 
ATOM     63  C   UNL A   1      44.973  29.460  32.099  1.00  0.00     0.029 A 
ATOM     64  C   UNL A   1      43.965  30.425  32.164  1.00  0.00     0.049 A 
ATOM     65  H   UNL A   1      43.873  32.147  30.960  1.00  0.00     0.167 HD
ATOM     66  C   UNL A   1      41.734  31.360  32.756  1.00  0.00     0.074 A 
ATOM     67  C   UNL A   1      41.602  32.510  31.877  1.00  0.00     0.031 C 
ATOM     68  C   UNL A   1      42.778  30.514  32.993  1.00  0.00     0.037 A 
BRANCH  55  69
ATOM     69  C   UNL A   1      44.740  32.083  28.091  1.00  0.00     0.058 A 
ATOM     70  C   UNL A   1      45.991  32.383  27.528  1.00  0.00     0.135 A 
ATOM     71  C   UNL A   1      43.853  33.173  28.252  1.00  0.00     0.135 A 
ATOM     72  F   UNL A   1      46.912  31.420  27.363  1.00  0.00    -0.206 F 
ATOM     73  C   UNL A   1      46.357  33.687  27.191  1.00  0.00     0.059 A 
ATOM     74  C   UNL A   1      44.173  34.467  27.868  1.00  0.00     0.059 A 
ATOM     75  F   UNL A   1      42.680  33.047  28.886  1.00  0.00    -0.206 F 
ATOM     76  C   UNL A   1      45.445  34.723  27.383  1.00  0.00     0.060 A 
BRANCH  76  77
ATOM     77  S   UNL A   1      45.949  36.425  27.080  1.00  0.00     0.124 S 
ATOM     78  O   UNL A   1      44.656  37.094  27.006  1.00  0.00    -0.237 OA
ATOM     79  O   UNL A   1      46.758  36.720  28.257  1.00  0.00    -0.237 OA
ATOM     80  O   UNL A   1      46.689  36.334  25.825  1.00  0.00    -0.744 OA
ENDBRANCH  76  77
ENDBRANCH  55  69
BRANCH  56  81
ATOM     81  C   UNL A   1      37.135  31.875  31.665  1.00  0.00     0.058 A 
ATOM     82  C   UNL A   1      36.417  32.185  32.830  1.00  0.00     0.135 A 
ATOM     83  C   UNL A   1      36.757  32.561  30.491  1.00  0.00     0.135 A 
ATOM     84  F   UNL A   1      36.735  31.600  33.995  1.00  0.00    -0.206 F 
ATOM     85  C   UNL A   1      35.402  33.146  32.837  1.00  0.00     0.059 A 
ATOM     86  C   UNL A   1      35.740  33.509  30.472  1.00  0.00     0.059 A 
ATOM     87  F   UNL A   1      37.428  32.394  29.342  1.00  0.00    -0.206 F 
ATOM     88  C   UNL A   1      35.081  33.813  31.655  1.00  0.00     0.060 A 
BRANCH  88  89
ATOM     89  S   UNL A   1      33.881  35.162  31.694  1.00  0.00     0.124 S 
ATOM     90  O   UNL A   1      33.625  35.375  30.273  1.00  0.00    -0.237 OA
ATOM     91  O   UNL A   1      32.787  34.577  32.460  1.00  0.00    -0.237 OA
ATOM     92  O   UNL A   1      34.604  36.240  32.365  1.00  0.00    -0.744 OA
ENDBRANCH  88  89
ENDBRANCH  56  81
BRANCH  68  93
ATOM     93  C   UNL A   1      42.573  29.436  34.022  1.00  0.00     0.058 A 
ATOM     94  C   UNL A   1      42.124  28.142  33.717  1.00  0.00     0.135 A 
ATOM     95  C   UNL A   1      42.958  29.688  35.347  1.00  0.00     0.135 A 
ATOM     96  F   UNL A   1      41.828  27.799  32.455  1.00  0.00    -0.206 F 
ATOM     97  C   UNL A   1      42.025  27.150  34.693  1.00  0.00     0.059 A 
ATOM     98  C   UNL A   1      42.895  28.707  36.334  1.00  0.00     0.059 A 
ATOM     99  F   UNL A   1      43.454  30.890  35.686  1.00  0.00    -0.206 F 
ATOM    100  C   UNL A   1      42.414  27.441  36.001  1.00  0.00     0.060 A 
BRANCH 100 101
ATOM    101  S   UNL A   1      42.380  26.127  37.240  1.00  0.00     0.124 S 
ATOM    102  O   UNL A   1      42.732  24.952  36.451  1.00  0.00    -0.237 OA
ATOM    103  O   UNL A   1      43.385  26.568  38.203  1.00  0.00    -0.237 OA
ATOM    104  O   UNL A   1      41.005  26.160  37.733  1.00  0.00    -0.744 OA
ENDBRANCH 100 101
ENDBRANCH  68  93
ENDBRANCH  42  43
ENDBRANCH  35  37
ENDBRANCH  34  35
ENDBRANCH  33  34
ENDBRANCH  32  33
ENDBRANCH  31  32
ENDBRANCH   1  31
TORSDOF 21
ENDMDL
MODEL 3
REMARK VINA RESULT:     -12.2      2.813      8.943
REMARK SMILES Cc1nn(-c2ccccc2)c(C)c1CNC(=O)[C@@H]1[C@@H](C(=O)OCCOCCOC(=O)c2ccc(-c3c4nc(c(-c5c(F)cc(S(=O)(=O)[O-])cc5F)c5ccc([nH]5)c(-c5c(F)cc(S(=O)(=O)[O-])cc5F)c5nc(c(-c6c(F)cc(S(=O)(=O)[O-])cc6F)c6ccc3[nH]6)C=C5)C=C4)cc2)[C@@H]2C=C[C@H]1C2
REMARK SMILES IDX 24 1 23 2 22 3 20 4 21 5 19 6 18 7 100 8 97 9 99 10 101 11
REMARK SMILES IDX 98 12 16 13 15 14 17 16 14 17 13 18 1 19 2 20 3 21 4 22
REMARK SMILES IDX 11 23 12 24 5 25 6 26 10 27 7 28 9 29 8 30 25 31 26 32 27 33
REMARK SMILES IDX 28 34 29 35 30 36 31 37 32 38 96 39 33 40 95 41 34 42 35 43
REMARK SMILES IDX 36 44 89 45 37 46 94 47 88 48 90 49 38 50 93 51 87 52 86 53
REMARK SMILES IDX 39 55 73 56 52 57 72 58 53 59 56 60 71 61 91 62 54 63 55 64
REMARK SMILES IDX 70 66 92 67 57 68 40 69 41 70 50 71 42 72 43 73 49 74 51 75
REMARK SMILES IDX 44 76 45 77 46 78 47 79 48 80 74 81 75 82 84 83 76 84 77 85
REMARK SMILES IDX 83 86 85 87 78 88 79 89 80 90 81 91 82 92 58 93 59 94 68 95
REMARK SMILES IDX 60 96 61 97 67 98 69 99 62 100 63 101 64 102 65 103 66 104
REMARK H PARENT 15 15 90 54 56 65
REMARK Flexibility Score: inf
ROOT
ATOM      1  C   UNL A   1      33.484  29.106  24.730  1.00  0.00     0.202 C 
ENDROOT
BRANCH   1   2
ATOM      2  C   UNL A   1      33.271  29.003  23.207  1.00  0.00     0.261 C 
BRANCH   2   3
ATOM      3  O   UNL A   1      31.977  28.506  22.793  1.00  0.00    -0.463 OA
BRANCH   3   4
ATOM      4  C   UNL A   1      31.913  27.157  22.647  1.00  0.00     0.310 C 
ATOM      5  O   UNL A   1      32.023  26.573  21.571  1.00  0.00    -0.252 OA
BRANCH   4   6
ATOM      6  C   UNL A   1      31.658  26.388  23.925  1.00  0.00     0.119 C 
ATOM      7  C   UNL A   1      32.319  24.980  24.169  1.00  0.00     0.100 C 
ATOM      8  C   UNL A   1      31.103  24.153  24.681  1.00  0.00     0.025 C 
ATOM      9  C   UNL A   1      30.148  26.100  24.135  1.00  0.00     0.027 C 
ATOM     10  C   UNL A   1      30.553  24.751  25.956  1.00  0.00    -0.027 C 
ATOM     11  C   UNL A   1      30.006  24.632  23.734  1.00  0.00     0.017 C 
ATOM     12  C   UNL A   1      29.962  25.910  25.627  1.00  0.00    -0.027 C 
BRANCH   7  13
ATOM     13  C   UNL A   1      33.475  25.109  25.157  1.00  0.00     0.224 C 
ATOM     14  N   UNL A   1      34.643  24.439  24.985  1.00  0.00    -0.352 N 
ATOM     15  H   UNL A   1      35.250  24.468  25.760  1.00  0.00     0.163 HD
ATOM     16  O   UNL A   1      33.418  25.888  26.112  1.00  0.00    -0.275 OA
BRANCH  14  17
ATOM     17  C   UNL A   1      35.147  23.688  23.854  1.00  0.00     0.155 C 
BRANCH  17  18
ATOM     18  C   UNL A   1      35.291  22.268  24.275  1.00  0.00     0.016 A 
ATOM     19  C   UNL A   1      37.700  22.219  25.307  1.00  0.00     0.069 C 
ATOM     20  C   UNL A   1      36.386  21.639  24.925  1.00  0.00     0.065 A 
ATOM     21  N   UNL A   1      36.105  20.374  25.254  1.00  0.00    -0.173 NA
ATOM     22  N   UNL A   1      34.885  20.135  24.729  1.00  0.00    -0.237 N 
ATOM     23  C   UNL A   1      34.322  21.279  24.195  1.00  0.00     0.046 A 
ATOM     24  C   UNL A   1      32.902  21.372  23.760  1.00  0.00     0.067 C 
BRANCH  22  25
ATOM     25  C   UNL A   1      34.286  18.860  24.810  1.00  0.00     0.065 A 
ATOM     26  C   UNL A   1      33.005  18.740  25.356  1.00  0.00     0.028 A 
ATOM     27  C   UNL A   1      34.938  17.746  24.265  1.00  0.00     0.028 A 
ATOM     28  C   UNL A   1      32.345  17.514  25.273  1.00  0.00     0.002 A 
ATOM     29  C   UNL A   1      34.286  16.516  24.224  1.00  0.00     0.002 A 
ATOM     30  C   UNL A   1      32.982  16.407  24.706  1.00  0.00     0.000 A 
ENDBRANCH  22  25
ENDBRANCH  17  18
ENDBRANCH  14  17
ENDBRANCH   7  13
ENDBRANCH   4   6
ENDBRANCH   3   4
ENDBRANCH   2   3
ENDBRANCH   1   2
BRANCH   1  31
ATOM     31  O   UNL A   1      32.460  29.840  25.383  1.00  0.00    -0.374 OA
BRANCH  31  32
ATOM     32  C   UNL A   1      32.575  30.078  26.784  1.00  0.00     0.202 C 
BRANCH  32  33
ATOM     33  C   UNL A   1      33.227  31.364  27.272  1.00  0.00     0.261 C 
BRANCH  33  34
ATOM     34  O   UNL A   1      34.154  31.180  28.332  1.00  0.00    -0.460 OA
BRANCH  34  35
ATOM     35  C   UNL A   1      35.257  31.938  28.243  1.00  0.00     0.338 C 
ATOM     36  O   UNL A   1      35.371  32.985  27.621  1.00  0.00    -0.246 OA
BRANCH  35  37
ATOM     37  C   UNL A   1      36.347  31.139  28.814  1.00  0.00     0.060 A 
ATOM     38  C   UNL A   1      37.468  31.826  29.267  1.00  0.00     0.016 A 
ATOM     39  C   UNL A   1      36.344  29.733  28.672  1.00  0.00     0.016 A 
ATOM     40  C   UNL A   1      38.632  31.115  29.460  1.00  0.00     0.010 A 
ATOM     41  C   UNL A   1      37.513  29.029  28.843  1.00  0.00     0.010 A 
ATOM     42  C   UNL A   1      38.653  29.739  29.190  1.00  0.00    -0.014 A 
BRANCH  42  43
ATOM     43  C   UNL A   1      39.911  29.057  29.366  1.00  0.00     0.031 A 
ATOM     44  C   UNL A   1      40.330  28.908  30.771  1.00  0.00     0.074 A 
ATOM     45  C   UNL A   1      40.624  28.546  28.350  1.00  0.00     0.049 A 
ATOM     46  N   UNL A   1      41.270  29.540  31.389  1.00  0.00    -0.248 NA
ATOM     47  C   UNL A   1      39.508  28.038  31.625  1.00  0.00     0.031 C 
ATOM     48  C   UNL A   1      40.192  28.307  26.973  1.00  0.00     0.029 A 
ATOM     49  N   UNL A   1      41.892  28.059  28.385  1.00  0.00    -0.354 N 
ATOM     50  C   UNL A   1      41.303  28.985  32.661  1.00  0.00     0.074 A 
ATOM     51  C   UNL A   1      40.104  28.199  32.806  1.00  0.00     0.031 C 
ATOM     52  C   UNL A   1      41.126  27.555  26.349  1.00  0.00     0.029 A 
ATOM     53  C   UNL A   1      42.265  27.386  27.238  1.00  0.00     0.049 A 
ATOM     54  H   UNL A   1      42.491  28.176  29.158  1.00  0.00     0.167 HD
ATOM     55  C   UNL A   1      42.435  28.994  33.411  1.00  0.00     0.037 A 
ATOM     56  C   UNL A   1      43.406  26.682  27.069  1.00  0.00     0.037 A 
ATOM     57  C   UNL A   1      43.406  29.937  32.922  1.00  0.00     0.049 A 
ATOM     58  C   UNL A   1      44.412  27.195  28.035  1.00  0.00     0.074 A 
ATOM     59  C   UNL A   1      43.478  31.310  32.823  1.00  0.00     0.029 A 
ATOM     60  N   UNL A   1      44.390  29.427  32.112  1.00  0.00    -0.354 N 
ATOM     61  N   UNL A   1      44.897  28.408  28.012  1.00  0.00    -0.248 NA
ATOM     62  C   UNL A   1      44.673  26.455  29.264  1.00  0.00     0.031 C 
ATOM     63  C   UNL A   1      44.309  31.577  31.694  1.00  0.00     0.029 A 
ATOM     64  C   UNL A   1      44.699  30.354  31.145  1.00  0.00     0.049 A 
ATOM     65  H   UNL A   1      44.807  28.542  32.207  1.00  0.00     0.167 HD
ATOM     66  C   UNL A   1      45.173  28.712  29.334  1.00  0.00     0.074 A 
ATOM     67  C   UNL A   1      45.172  27.432  30.024  1.00  0.00     0.031 C 
ATOM     68  C   UNL A   1      45.093  29.993  29.797  1.00  0.00     0.037 A 
BRANCH  55  69
ATOM     69  C   UNL A   1      42.805  27.866  34.333  1.00  0.00     0.058 A 
ATOM     70  C   UNL A   1      42.866  28.086  35.720  1.00  0.00     0.135 A 
ATOM     71  C   UNL A   1      43.371  26.654  33.871  1.00  0.00     0.135 A 
ATOM     72  F   UNL A   1      42.382  29.221  36.250  1.00  0.00    -0.206 F 
ATOM     73  C   UNL A   1      43.489  27.188  36.585  1.00  0.00     0.059 A 
ATOM     74  C   UNL A   1      43.942  25.718  34.721  1.00  0.00     0.059 A 
ATOM     75  F   UNL A   1      43.488  26.377  32.566  1.00  0.00    -0.206 F 
ATOM     76  C   UNL A   1      44.039  26.015  36.071  1.00  0.00     0.060 A 
BRANCH  76  77
ATOM     77  S   UNL A   1      44.964  24.912  37.153  1.00  0.00     0.124 S 
ATOM     78  O   UNL A   1      44.638  23.612  36.578  1.00  0.00    -0.237 OA
ATOM     79  O   UNL A   1      46.335  25.373  36.963  1.00  0.00    -0.237 OA
ATOM     80  O   UNL A   1      44.395  25.184  38.469  1.00  0.00    -0.744 OA
ENDBRANCH  76  77
ENDBRANCH  55  69
BRANCH  56  81
ATOM     81  C   UNL A   1      43.546  25.405  26.331  1.00  0.00     0.058 A 
ATOM     82  C   UNL A   1      44.512  25.242  25.326  1.00  0.00     0.135 A 
ATOM     83  C   UNL A   1      42.897  24.233  26.774  1.00  0.00     0.135 A 
ATOM     84  F   UNL A   1      45.198  26.302  24.872  1.00  0.00    -0.206 F 
ATOM     85  C   UNL A   1      44.839  23.984  24.814  1.00  0.00     0.059 A 
ATOM     86  C   UNL A   1      43.194  22.973  26.267  1.00  0.00     0.059 A 
ATOM     87  F   UNL A   1      42.011  24.268  27.782  1.00  0.00    -0.206 F 
ATOM     88  C   UNL A   1      44.184  22.853  25.302  1.00  0.00     0.060 A 
BRANCH  88  89
ATOM     89  S   UNL A   1      44.713  21.215  24.756  1.00  0.00     0.124 S 
ATOM     90  O   UNL A   1      46.055  21.131  25.322  1.00  0.00    -0.237 OA
ATOM     91  O   UNL A   1      43.707  20.351  25.363  1.00  0.00    -0.237 OA
ATOM     92  O   UNL A   1      44.656  21.308  23.299  1.00  0.00    -0.744 OA
ENDBRANCH  88  89
ENDBRANCH  56  81
BRANCH  68  93
ATOM     93  C   UNL A   1      45.170  31.100  28.781  1.00  0.00     0.058 A 
ATOM     94  C   UNL A   1      46.372  31.574  28.234  1.00  0.00     0.135 A 
ATOM     95  C   UNL A   1      43.975  31.614  28.255  1.00  0.00     0.135 A 
ATOM     96  F   UNL A   1      47.549  31.062  28.618  1.00  0.00    -0.206 F 
ATOM     97  C   UNL A   1      46.389  32.548  27.234  1.00  0.00     0.059 A 
ATOM     98  C   UNL A   1      43.966  32.566  27.238  1.00  0.00     0.059 A 
ATOM     99  F   UNL A   1      42.793  31.154  28.697  1.00  0.00    -0.206 F 
ATOM    100  C   UNL A   1      45.180  33.038  26.741  1.00  0.00     0.060 A 
BRANCH 100 101
ATOM    101  S   UNL A   1      45.204  34.223  25.378  1.00  0.00     0.124 S 
ATOM    102  O   UNL A   1      44.625  33.448  24.287  1.00  0.00    -0.237 OA
ATOM    103  O   UNL A   1      44.378  35.314  25.888  1.00  0.00    -0.237 OA
ATOM    104  O   UNL A   1      46.621  34.546  25.233  1.00  0.00    -0.744 OA
ENDBRANCH 100 101
ENDBRANCH  68  93
ENDBRANCH  42  43
ENDBRANCH  35  37
ENDBRANCH  34  35
ENDBRANCH  33  34
ENDBRANCH  32  33
ENDBRANCH  31  32
ENDBRANCH   1  31
TORSDOF 21
ENDMDL
