MODEL 1
REMARK VINA RESULT:     -11.5      0.000      0.000
REMARK SMILES CCC(=O)N1c2ccc(S(=O)(=O)N3CCC(C)CC3)cc2C[C@H]1C(=O)OCCOCCOC(=O)c1ccc(-c2c3nc(c(-c4c(F)cc(S(=O)(=O)[O-])cc4F)c4ccc([nH]4)c(-c4c(F)cc(S(=O)(=O)[O-])cc4F)c4nc(c(-c5c(F)cc(S(=O)(=O)[O-])cc5F)c5ccc2[nH]5)C=C4)C=C3)cc1
REMARK SMILES IDX 30 1 29 2 28 3 27 4 26 5 24 6 25 7 23 8 5 9 6 10 7 11 21 12
REMARK SMILES IDX 22 13 8 14 20 15 9 16 3 17 4 18 2 19 1 20 10 21 11 22 12 23
REMARK SMILES IDX 13 24 14 25 19 26 15 27 18 28 16 29 17 30 31 31 32 32 33 33
REMARK SMILES IDX 34 34 35 35 36 36 100 37 37 38 99 39 38 40 39 41 40 42 93 43
REMARK SMILES IDX 41 44 98 45 92 46 94 47 42 48 97 49 91 50 90 51 43 53 77 54
REMARK SMILES IDX 56 55 76 56 57 57 60 58 75 59 95 60 58 61 59 62 74 64 96 65
REMARK SMILES IDX 61 66 44 67 45 68 54 69 46 70 47 71 53 72 55 73 48 74 49 75
REMARK SMILES IDX 50 76 51 77 52 78 78 79 79 80 88 81 80 82 81 83 87 84 89 85
REMARK SMILES IDX 82 86 83 87 84 88 85 89 86 90 62 91 63 92 72 93 64 94 65 95
REMARK SMILES IDX 71 96 73 97 66 98 67 99 68 100 69 101 70 102
REMARK H PARENT 94 52 60 63
REMARK Flexibility Score: inf
ROOT
ATOM      1  C   UNL A   1      41.033  21.849  26.580  1.00  0.00     0.202 C 
ENDROOT
BRANCH   1   2
ATOM      2  O   UNL A   1      39.640  21.912  26.898  1.00  0.00    -0.374 OA
BRANCH   2   3
ATOM      3  C   UNL A   1      38.712  21.617  25.855  1.00  0.00     0.202 C 
BRANCH   3   4
ATOM      4  C   UNL A   1      37.768  22.752  25.445  1.00  0.00     0.261 C 
BRANCH   4   5
ATOM      5  O   UNL A   1      36.398  22.470  25.759  1.00  0.00    -0.462 OA
BRANCH   5   6
ATOM      6  C   UNL A   1      35.757  21.601  24.935  1.00  0.00     0.329 C 
ATOM      7  O   UNL A   1      35.840  20.379  24.994  1.00  0.00    -0.250 OA
BRANCH   6   8
ATOM      8  C   UNL A   1      34.863  22.300  23.907  1.00  0.00     0.204 C 
ATOM      9  N   UNL A   1      33.408  22.148  24.128  1.00  0.00    -0.298 N 
ATOM     10  C   UNL A   1      32.838  23.417  24.182  1.00  0.00     0.048 A 
ATOM     11  C   UNL A   1      31.497  23.681  24.270  1.00  0.00     0.028 A 
ATOM     12  C   UNL A   1      33.788  24.423  24.018  1.00  0.00    -0.020 A 
ATOM     13  C   UNL A   1      35.160  23.825  23.981  1.00  0.00     0.075 C 
ATOM     14  C   UNL A   1      31.112  24.999  24.163  1.00  0.00     0.024 A 
ATOM     15  C   UNL A   1      33.396  25.755  23.904  1.00  0.00     0.027 A 
ATOM     16  C   UNL A   1      32.022  26.033  23.960  1.00  0.00     0.083 A 
BRANCH   9  17
ATOM     17  C   UNL A   1      32.606  21.053  23.896  1.00  0.00     0.227 C 
ATOM     18  O   UNL A   1      32.247  20.723  22.765  1.00  0.00    -0.275 OA
BRANCH  17  19
ATOM     19  C   UNL A   1      32.433  20.094  25.061  1.00  0.00     0.097 C 
ATOM     20  C   UNL A   1      32.578  18.651  24.579  1.00  0.00     0.014 C 
ENDBRANCH  17  19
ENDBRANCH   9  17
BRANCH  16  21
ATOM     21  S   UNL A   1      31.397  27.692  23.740  1.00  0.00     0.243 S 
ATOM     22  O   UNL A   1      32.334  28.360  22.858  1.00  0.00    -0.207 OA
ATOM     23  O   UNL A   1      30.002  27.551  23.392  1.00  0.00    -0.207 OA
BRANCH  21  24
ATOM     24  N   UNL A   1      31.479  28.439  25.261  1.00  0.00    -0.198 NA
ATOM     25  C   UNL A   1      31.621  29.896  25.435  1.00  0.00     0.103 C 
ATOM     26  C   UNL A   1      31.610  27.664  26.494  1.00  0.00     0.103 C 
ATOM     27  C   UNL A   1      32.870  30.294  26.247  1.00  0.00     0.020 C 
ATOM     28  C   UNL A   1      33.024  27.798  27.019  1.00  0.00     0.020 C 
ATOM     29  C   UNL A   1      33.450  29.259  27.239  1.00  0.00    -0.012 C 
ATOM     30  C   UNL A   1      34.987  29.323  27.280  1.00  0.00     0.008 C 
ENDBRANCH  21  24
ENDBRANCH  16  21
ENDBRANCH   6   8
ENDBRANCH   5   6
ENDBRANCH   4   5
ENDBRANCH   3   4
ENDBRANCH   2   3
ENDBRANCH   1   2
BRANCH   1  31
ATOM     31  C   UNL A   1      41.708  23.165  26.181  1.00  0.00     0.261 C 
BRANCH  31  32
ATOM     32  O   UNL A   1      40.788  24.266  26.270  1.00  0.00    -0.460 OA
BRANCH  32  33
ATOM     33  C   UNL A   1      41.354  25.489  26.169  1.00  0.00     0.338 C 
ATOM     34  O   UNL A   1      41.620  26.087  25.139  1.00  0.00    -0.246 OA
BRANCH  33  35
ATOM     35  C   UNL A   1      41.447  26.136  27.493  1.00  0.00     0.060 A 
ATOM     36  C   UNL A   1      40.411  25.881  28.397  1.00  0.00     0.016 A 
ATOM     37  C   UNL A   1      42.430  27.083  27.789  1.00  0.00     0.016 A 
ATOM     38  C   UNL A   1      40.303  26.634  29.563  1.00  0.00     0.010 A 
ATOM     39  C   UNL A   1      42.317  27.842  28.964  1.00  0.00     0.010 A 
ATOM     40  C   UNL A   1      41.224  27.657  29.831  1.00  0.00    -0.014 A 
BRANCH  40  41
ATOM     41  C   UNL A   1      40.935  28.601  30.944  1.00  0.00     0.031 A 
ATOM     42  C   UNL A   1      41.798  28.576  32.182  1.00  0.00     0.074 A 
ATOM     43  C   UNL A   1      39.976  29.536  30.817  1.00  0.00     0.049 A 
ATOM     44  N   UNL A   1      41.772  29.363  33.227  1.00  0.00    -0.248 NA
ATOM     45  C   UNL A   1      42.829  27.529  32.247  1.00  0.00     0.031 C 
ATOM     46  C   UNL A   1      39.095  29.687  29.660  1.00  0.00     0.029 A 
ATOM     47  N   UNL A   1      39.593  30.546  31.665  1.00  0.00    -0.354 N 
ATOM     48  C   UNL A   1      42.779  28.911  34.072  1.00  0.00     0.074 A 
ATOM     49  C   UNL A   1      43.374  27.756  33.434  1.00  0.00     0.031 C 
ATOM     50  C   UNL A   1      38.278  30.733  29.868  1.00  0.00     0.029 A 
ATOM     51  C   UNL A   1      38.559  31.312  31.181  1.00  0.00     0.049 A 
ATOM     52  H   UNL A   1      40.018  30.705  32.540  1.00  0.00     0.167 HD
ATOM     53  C   UNL A   1      43.183  29.417  35.263  1.00  0.00     0.037 A 
ATOM     54  C   UNL A   1      37.910  32.357  31.732  1.00  0.00     0.037 A 
ATOM     55  C   UNL A   1      42.592  30.569  35.896  1.00  0.00     0.049 A 
ATOM     56  C   UNL A   1      38.345  32.873  33.080  1.00  0.00     0.074 A 
ATOM     57  C   UNL A   1      42.943  31.166  37.096  1.00  0.00     0.029 A 
ATOM     58  N   UNL A   1      41.525  31.296  35.390  1.00  0.00    -0.354 N 
ATOM     59  N   UNL A   1      39.318  32.450  33.852  1.00  0.00    -0.248 NA
ATOM     60  C   UNL A   1      37.602  34.019  33.623  1.00  0.00     0.031 C 
ATOM     61  C   UNL A   1      42.056  32.222  37.338  1.00  0.00     0.029 A 
ATOM     62  C   UNL A   1      41.190  32.321  36.260  1.00  0.00     0.049 A 
ATOM     63  H   UNL A   1      41.071  31.111  34.535  1.00  0.00     0.167 HD
ATOM     64  C   UNL A   1      39.324  33.299  34.956  1.00  0.00     0.074 A 
ATOM     65  C   UNL A   1      38.265  34.264  34.745  1.00  0.00     0.031 C 
ATOM     66  C   UNL A   1      40.138  33.282  36.041  1.00  0.00     0.037 A 
BRANCH  53  67
ATOM     67  C   UNL A   1      44.308  28.715  35.977  1.00  0.00     0.058 A 
ATOM     68  C   UNL A   1      44.078  27.625  36.831  1.00  0.00     0.135 A 
ATOM     69  C   UNL A   1      45.639  29.113  35.771  1.00  0.00     0.135 A 
ATOM     70  F   UNL A   1      42.825  27.211  37.077  1.00  0.00    -0.206 F 
ATOM     71  C   UNL A   1      45.125  26.970  37.474  1.00  0.00     0.059 A 
ATOM     72  C   UNL A   1      46.703  28.455  36.380  1.00  0.00     0.059 A 
ATOM     73  F   UNL A   1      45.917  30.149  34.963  1.00  0.00    -0.206 F 
ATOM     74  C   UNL A   1      46.434  27.393  37.242  1.00  0.00     0.060 A 
BRANCH  74  75
ATOM     75  S   UNL A   1      47.782  26.531  38.080  1.00  0.00     0.124 S 
ATOM     76  O   UNL A   1      48.178  25.556  37.068  1.00  0.00    -0.237 OA
ATOM     77  O   UNL A   1      48.734  27.608  38.329  1.00  0.00    -0.237 OA
ATOM     78  O   UNL A   1      47.144  25.974  39.269  1.00  0.00    -0.744 OA
ENDBRANCH  74  75
ENDBRANCH  53  67
BRANCH  54  79
ATOM     79  C   UNL A   1      36.776  32.990  31.007  1.00  0.00     0.058 A 
ATOM     80  C   UNL A   1      35.446  32.734  31.370  1.00  0.00     0.135 A 
ATOM     81  C   UNL A   1      37.004  33.865  29.934  1.00  0.00     0.135 A 
ATOM     82  F   UNL A   1      35.174  31.896  32.381  1.00  0.00    -0.206 F 
ATOM     83  C   UNL A   1      34.380  33.311  30.684  1.00  0.00     0.059 A 
ATOM     84  C   UNL A   1      35.957  34.475  29.252  1.00  0.00     0.059 A 
ATOM     85  F   UNL A   1      38.259  34.150  29.554  1.00  0.00    -0.206 F 
ATOM     86  C   UNL A   1      34.648  34.184  29.627  1.00  0.00     0.060 A 
BRANCH  86  87
ATOM     87  S   UNL A   1      33.259  34.965  28.776  1.00  0.00     0.124 S 
ATOM     88  O   UNL A   1      32.378  35.291  29.891  1.00  0.00    -0.237 OA
ATOM     89  O   UNL A   1      33.902  36.097  28.117  1.00  0.00    -0.237 OA
ATOM     90  O   UNL A   1      32.784  33.916  27.879  1.00  0.00    -0.744 OA
ENDBRANCH  86  87
ENDBRANCH  54  79
BRANCH  66  91
ATOM     91  C   UNL A   1      39.950  34.369  37.067  1.00  0.00     0.058 A 
ATOM     92  C   UNL A   1      40.588  35.615  36.958  1.00  0.00     0.135 A 
ATOM     93  C   UNL A   1      39.092  34.170  38.162  1.00  0.00     0.135 A 
ATOM     94  F   UNL A   1      41.419  35.861  35.932  1.00  0.00    -0.206 F 
ATOM     95  C   UNL A   1      40.413  36.610  37.916  1.00  0.00     0.059 A 
ATOM     96  C   UNL A   1      38.878  35.161  39.116  1.00  0.00     0.059 A 
ATOM     97  F   UNL A   1      38.445  33.003  38.311  1.00  0.00    -0.206 F 
ATOM     98  C   UNL A   1      39.558  36.371  38.993  1.00  0.00     0.060 A 
BRANCH  98  99
ATOM     99  S   UNL A   1      39.331  37.672  40.226  1.00  0.00     0.124 S 
ATOM    100  O   UNL A   1      40.650  38.298  40.238  1.00  0.00    -0.237 OA
ATOM    101  O   UNL A   1      38.256  38.471  39.647  1.00  0.00    -0.237 OA
ATOM    102  O   UNL A   1      38.976  36.936  41.436  1.00  0.00    -0.744 OA
ENDBRANCH  98  99
ENDBRANCH  66  91
ENDBRANCH  40  41
ENDBRANCH  33  35
ENDBRANCH  32  33
ENDBRANCH  31  32
ENDBRANCH   1  31
TORSDOF 21
ENDMDL
MODEL 2
REMARK VINA RESULT:     -11.5      1.318      2.209
REMARK SMILES CCC(=O)N1c2ccc(S(=O)(=O)N3CCC(C)CC3)cc2C[C@H]1C(=O)OCCOCCOC(=O)c1ccc(-c2c3nc(c(-c4c(F)cc(S(=O)(=O)[O-])cc4F)c4ccc([nH]4)c(-c4c(F)cc(S(=O)(=O)[O-])cc4F)c4nc(c(-c5c(F)cc(S(=O)(=O)[O-])cc5F)c5ccc2[nH]5)C=C4)C=C3)cc1
REMARK SMILES IDX 30 1 29 2 28 3 27 4 26 5 24 6 25 7 23 8 5 9 6 10 7 11 21 12
REMARK SMILES IDX 22 13 8 14 20 15 9 16 3 17 4 18 2 19 1 20 10 21 11 22 12 23
REMARK SMILES IDX 13 24 14 25 19 26 15 27 18 28 16 29 17 30 31 31 32 32 33 33
REMARK SMILES IDX 34 34 35 35 36 36 100 37 37 38 99 39 38 40 39 41 40 42 93 43
REMARK SMILES IDX 41 44 98 45 92 46 94 47 42 48 97 49 91 50 90 51 43 53 77 54
REMARK SMILES IDX 56 55 76 56 57 57 60 58 75 59 95 60 58 61 59 62 74 64 96 65
REMARK SMILES IDX 61 66 44 67 45 68 54 69 46 70 47 71 53 72 55 73 48 74 49 75
REMARK SMILES IDX 50 76 51 77 52 78 78 79 79 80 88 81 80 82 81 83 87 84 89 85
REMARK SMILES IDX 82 86 83 87 84 88 85 89 86 90 62 91 63 92 72 93 64 94 65 95
REMARK SMILES IDX 71 96 73 97 66 98 67 99 68 100 69 101 70 102
REMARK H PARENT 94 52 60 63
REMARK Flexibility Score: inf
ROOT
ATOM      1  C   UNL A   1      41.298  21.650  27.515  1.00  0.00     0.202 C 
ENDROOT
BRANCH   1   2
ATOM      2  O   UNL A   1      40.017  22.174  27.156  1.00  0.00    -0.374 OA
BRANCH   2   3
ATOM      3  C   UNL A   1      39.238  21.427  26.222  1.00  0.00     0.202 C 
BRANCH   3   4
ATOM      4  C   UNL A   1      38.158  22.205  25.462  1.00  0.00     0.261 C 
BRANCH   4   5
ATOM      5  O   UNL A   1      36.834  21.895  25.916  1.00  0.00    -0.462 OA
BRANCH   5   6
ATOM      6  C   UNL A   1      36.112  21.050  25.134  1.00  0.00     0.329 C 
ATOM      7  O   UNL A   1      36.361  19.862  24.960  1.00  0.00    -0.250 OA
BRANCH   6   8
ATOM      8  C   UNL A   1      34.897  21.723  24.489  1.00  0.00     0.204 C 
ATOM      9  N   UNL A   1      33.583  21.184  24.902  1.00  0.00    -0.298 N 
ATOM     10  C   UNL A   1      32.808  22.238  25.381  1.00  0.00     0.048 A 
ATOM     11  C   UNL A   1      31.495  22.149  25.757  1.00  0.00     0.028 A 
ATOM     12  C   UNL A   1      33.490  23.451  25.328  1.00  0.00    -0.020 A 
ATOM     13  C   UNL A   1      34.908  23.220  24.908  1.00  0.00     0.075 C 
ATOM     14  C   UNL A   1      30.852  23.327  26.065  1.00  0.00     0.024 A 
ATOM     15  C   UNL A   1      32.836  24.644  25.634  1.00  0.00     0.027 A 
ATOM     16  C   UNL A   1      31.482  24.568  25.990  1.00  0.00     0.083 A 
BRANCH   9  17
ATOM     17  C   UNL A   1      32.972  20.007  24.531  1.00  0.00     0.227 C 
ATOM     18  O   UNL A   1      32.600  19.790  23.376  1.00  0.00    -0.275 OA
BRANCH  17  19
ATOM     19  C   UNL A   1      33.052  18.869  25.533  1.00  0.00     0.097 C 
ATOM     20  C   UNL A   1      32.397  17.614  24.955  1.00  0.00     0.014 C 
ENDBRANCH  17  19
ENDBRANCH   9  17
BRANCH  16  21
ATOM     21  S   UNL A   1      30.520  26.037  26.317  1.00  0.00     0.243 S 
ATOM     22  O   UNL A   1      29.165  25.584  26.560  1.00  0.00    -0.207 OA
ATOM     23  O   UNL A   1      31.256  26.784  27.312  1.00  0.00    -0.207 OA
BRANCH  21  24
ATOM     24  N   UNL A   1      30.527  26.941  24.882  1.00  0.00    -0.198 NA
ATOM     25  C   UNL A   1      30.014  26.420  23.601  1.00  0.00     0.103 C 
ATOM     26  C   UNL A   1      31.220  28.224  24.782  1.00  0.00     0.103 C 
ATOM     27  C   UNL A   1      31.066  26.431  22.474  1.00  0.00     0.020 C 
ATOM     28  C   UNL A   1      32.484  28.045  23.969  1.00  0.00     0.020 C 
ATOM     29  C   UNL A   1      32.227  27.450  22.575  1.00  0.00    -0.012 C 
ATOM     30  C   UNL A   1      33.541  26.856  22.041  1.00  0.00     0.008 C 
ENDBRANCH  21  24
ENDBRANCH  16  21
ENDBRANCH   6   8
ENDBRANCH   5   6
ENDBRANCH   4   5
ENDBRANCH   3   4
ENDBRANCH   2   3
ENDBRANCH   1   2
BRANCH   1  31
ATOM     31  C   UNL A   1      42.520  22.334  26.894  1.00  0.00     0.261 C 
BRANCH  31  32
ATOM     32  O   UNL A   1      42.195  23.659  26.439  1.00  0.00    -0.460 OA
BRANCH  32  33
ATOM     33  C   UNL A   1      43.071  24.618  26.812  1.00  0.00     0.338 C 
ATOM     34  O   UNL A   1      44.229  24.731  26.444  1.00  0.00    -0.246 OA
BRANCH  33  35
ATOM     35  C   UNL A   1      42.396  25.670  27.598  1.00  0.00     0.060 A 
ATOM     36  C   UNL A   1      43.104  26.858  27.807  1.00  0.00     0.016 A 
ATOM     37  C   UNL A   1      41.177  25.447  28.242  1.00  0.00     0.016 A 
ATOM     38  C   UNL A   1      42.639  27.793  28.728  1.00  0.00     0.010 A 
ATOM     39  C   UNL A   1      40.713  26.390  29.172  1.00  0.00     0.010 A 
ATOM     40  C   UNL A   1      41.468  27.543  29.458  1.00  0.00    -0.014 A 
BRANCH  40  41
ATOM     41  C   UNL A   1      41.141  28.432  30.605  1.00  0.00     0.031 A 
ATOM     42  C   UNL A   1      41.981  28.367  31.858  1.00  0.00     0.074 A 
ATOM     43  C   UNL A   1      40.168  29.355  30.501  1.00  0.00     0.049 A 
ATOM     44  N   UNL A   1      41.921  29.106  32.936  1.00  0.00    -0.248 NA
ATOM     45  C   UNL A   1      43.028  27.335  31.897  1.00  0.00     0.031 C 
ATOM     46  C   UNL A   1      39.307  29.542  29.335  1.00  0.00     0.029 A 
ATOM     47  N   UNL A   1      39.752  30.320  31.385  1.00  0.00    -0.354 N 
ATOM     48  C   UNL A   1      42.919  28.633  33.780  1.00  0.00     0.074 A 
ATOM     49  C   UNL A   1      43.546  27.518  33.104  1.00  0.00     0.031 C 
ATOM     50  C   UNL A   1      38.468  30.565  29.572  1.00  0.00     0.029 A 
ATOM     51  C   UNL A   1      38.714  31.089  30.914  1.00  0.00     0.049 A 
ATOM     52  H   UNL A   1      40.156  30.447  32.274  1.00  0.00     0.167 HD
ATOM     53  C   UNL A   1      43.291  29.093  35.000  1.00  0.00     0.037 A 
ATOM     54  C   UNL A   1      38.036  32.098  31.498  1.00  0.00     0.037 A 
ATOM     55  C   UNL A   1      42.668  30.206  35.672  1.00  0.00     0.049 A 
ATOM     56  C   UNL A   1      38.436  32.561  32.875  1.00  0.00     0.074 A 
ATOM     57  C   UNL A   1      42.985  30.754  36.903  1.00  0.00     0.029 A 
ATOM     58  N   UNL A   1      41.598  30.936  35.177  1.00  0.00    -0.354 N 
ATOM     59  N   UNL A   1      39.401  32.120  33.647  1.00  0.00    -0.248 NA
ATOM     60  C   UNL A   1      37.662  33.668  33.454  1.00  0.00     0.031 C 
ATOM     61  C   UNL A   1      42.075  31.783  37.174  1.00  0.00     0.029 A 
ATOM     62  C   UNL A   1      41.229  31.916  36.085  1.00  0.00     0.049 A 
ATOM     63  H   UNL A   1      41.164  30.781  34.306  1.00  0.00     0.167 HD
ATOM     64  C   UNL A   1      39.371  32.919  34.788  1.00  0.00     0.074 A 
ATOM     65  C   UNL A   1      38.300  33.874  34.599  1.00  0.00     0.031 C 
ATOM     66  C   UNL A   1      40.164  32.868  35.887  1.00  0.00     0.037 A 
BRANCH  53  67
ATOM     67  C   UNL A   1      44.415  28.379  35.704  1.00  0.00     0.058 A 
ATOM     68  C   UNL A   1      45.756  28.757  35.532  1.00  0.00     0.135 A 
ATOM     69  C   UNL A   1      44.142  27.329  36.596  1.00  0.00     0.135 A 
ATOM     70  F   UNL A   1      46.077  29.744  34.681  1.00  0.00    -0.206 F 
ATOM     71  C   UNL A   1      46.788  28.103  36.200  1.00  0.00     0.059 A 
ATOM     72  C   UNL A   1      45.155  26.680  37.296  1.00  0.00     0.059 A 
ATOM     73  F   UNL A   1      42.877  26.928  36.800  1.00  0.00    -0.206 F 
ATOM     74  C   UNL A   1      46.477  27.065  37.079  1.00  0.00     0.060 A 
BRANCH  74  75
ATOM     75  S   UNL A   1      47.825  26.230  37.942  1.00  0.00     0.124 S 
ATOM     76  O   UNL A   1      48.040  27.119  39.080  1.00  0.00    -0.237 OA
ATOM     77  O   UNL A   1      47.239  24.931  38.255  1.00  0.00    -0.237 OA
ATOM     78  O   UNL A   1      48.900  26.207  36.954  1.00  0.00    -0.744 OA
ENDBRANCH  74  75
ENDBRANCH  53  67
BRANCH  54  79
ATOM     79  C   UNL A   1      36.905  32.743  30.779  1.00  0.00     0.058 A 
ATOM     80  C   UNL A   1      37.127  33.731  29.809  1.00  0.00     0.135 A 
ATOM     81  C   UNL A   1      35.576  32.380  31.050  1.00  0.00     0.135 A 
ATOM     82  F   UNL A   1      38.377  34.121  29.521  1.00  0.00    -0.206 F 
ATOM     83  C   UNL A   1      36.072  34.349  29.145  1.00  0.00     0.059 A 
ATOM     84  C   UNL A   1      34.507  32.964  30.380  1.00  0.00     0.059 A 
ATOM     85  F   UNL A   1      35.311  31.433  31.963  1.00  0.00    -0.206 F 
ATOM     86  C   UNL A   1      34.764  33.955  29.436  1.00  0.00     0.060 A 
BRANCH  86  87
ATOM     87  S   UNL A   1      33.404  34.729  28.533  1.00  0.00     0.124 S 
ATOM     88  O   UNL A   1      33.048  33.681  27.584  1.00  0.00    -0.237 OA
ATOM     89  O   UNL A   1      32.437  34.985  29.595  1.00  0.00    -0.237 OA
ATOM     90  O   UNL A   1      34.020  35.921  27.958  1.00  0.00    -0.744 OA
ENDBRANCH  86  87
ENDBRANCH  54  79
BRANCH  66  91
ATOM     91  C   UNL A   1      39.937  33.905  36.956  1.00  0.00     0.058 A 
ATOM     92  C   UNL A   1      40.481  35.197  36.868  1.00  0.00     0.135 A 
ATOM     93  C   UNL A   1      39.137  33.609  38.072  1.00  0.00     0.135 A 
ATOM     94  F   UNL A   1      41.255  35.534  35.824  1.00  0.00    -0.206 F 
ATOM     95  C   UNL A   1      40.271  36.144  37.866  1.00  0.00     0.059 A 
ATOM     96  C   UNL A   1      38.888  34.551  39.067  1.00  0.00     0.059 A 
ATOM     97  F   UNL A   1      38.579  32.395  38.203  1.00  0.00    -0.206 F 
ATOM     98  C   UNL A   1      39.475  35.811  38.963  1.00  0.00     0.060 A 
BRANCH  98  99
ATOM     99  S   UNL A   1      39.203  37.051  40.247  1.00  0.00     0.124 S 
ATOM    100  O   UNL A   1      38.367  36.317  41.192  1.00  0.00    -0.237 OA
ATOM    101  O   UNL A   1      40.561  37.341  40.697  1.00  0.00    -0.237 OA
ATOM    102  O   UNL A   1      38.539  38.139  39.535  1.00  0.00    -0.744 OA
ENDBRANCH  98  99
ENDBRANCH  66  91
ENDBRANCH  40  41
ENDBRANCH  33  35
ENDBRANCH  32  33
ENDBRANCH  31  32
ENDBRANCH   1  31
TORSDOF 21
ENDMDL
MODEL 3
REMARK VINA RESULT:     -11.3      1.326      8.087
REMARK SMILES CCC(=O)N1c2ccc(S(=O)(=O)N3CCC(C)CC3)cc2C[C@H]1C(=O)OCCOCCOC(=O)c1ccc(-c2c3nc(c(-c4c(F)cc(S(=O)(=O)[O-])cc4F)c4ccc([nH]4)c(-c4c(F)cc(S(=O)(=O)[O-])cc4F)c4nc(c(-c5c(F)cc(S(=O)(=O)[O-])cc5F)c5ccc2[nH]5)C=C4)C=C3)cc1
REMARK SMILES IDX 30 1 29 2 28 3 27 4 26 5 24 6 25 7 23 8 5 9 6 10 7 11 21 12
REMARK SMILES IDX 22 13 8 14 20 15 9 16 3 17 4 18 2 19 1 20 10 21 11 22 12 23
REMARK SMILES IDX 13 24 14 25 19 26 15 27 18 28 16 29 17 30 31 31 32 32 33 33
REMARK SMILES IDX 34 34 35 35 36 36 100 37 37 38 99 39 38 40 39 41 40 42 93 43
REMARK SMILES IDX 41 44 98 45 92 46 94 47 42 48 97 49 91 50 90 51 43 53 77 54
REMARK SMILES IDX 56 55 76 56 57 57 60 58 75 59 95 60 58 61 59 62 74 64 96 65
REMARK SMILES IDX 61 66 44 67 45 68 54 69 46 70 47 71 53 72 55 73 48 74 49 75
REMARK SMILES IDX 50 76 51 77 52 78 78 79 79 80 88 81 80 82 81 83 87 84 89 85
REMARK SMILES IDX 82 86 83 87 84 88 85 89 86 90 62 91 63 92 72 93 64 94 65 95
REMARK SMILES IDX 71 96 73 97 66 98 67 99 68 100 69 101 70 102
REMARK H PARENT 94 52 60 63
REMARK Flexibility Score: inf
ROOT
ATOM      1  C   UNL A   1      41.639  21.574  27.894  1.00  0.00     0.202 C 
ENDROOT
BRANCH   1   2
ATOM      2  O   UNL A   1      40.254  21.439  27.564  1.00  0.00    -0.374 OA
BRANCH   2   3
ATOM      3  C   UNL A   1      39.851  21.815  26.247  1.00  0.00     0.202 C 
BRANCH   3   4
ATOM      4  C   UNL A   1      38.447  22.412  26.111  1.00  0.00     0.261 C 
BRANCH   4   5
ATOM      5  O   UNL A   1      37.871  22.178  24.819  1.00  0.00    -0.462 OA
BRANCH   5   6
ATOM      6  C   UNL A   1      36.773  21.377  24.786  1.00  0.00     0.329 C 
ATOM      7  O   UNL A   1      36.748  20.199  25.126  1.00  0.00    -0.250 OA
BRANCH   6   8
ATOM      8  C   UNL A   1      35.517  22.104  24.299  1.00  0.00     0.204 C 
ATOM      9  N   UNL A   1      34.282  21.808  25.058  1.00  0.00    -0.298 N 
ATOM     10  C   UNL A   1      33.741  23.012  25.501  1.00  0.00     0.048 A 
ATOM     11  C   UNL A   1      32.542  23.152  26.148  1.00  0.00     0.028 A 
ATOM     12  C   UNL A   1      34.508  24.106  25.106  1.00  0.00    -0.020 A 
ATOM     13  C   UNL A   1      35.767  23.632  24.449  1.00  0.00     0.075 C 
ATOM     14  C   UNL A   1      32.102  24.437  26.378  1.00  0.00     0.024 A 
ATOM     15  C   UNL A   1      34.059  25.405  25.334  1.00  0.00     0.027 A 
ATOM     16  C   UNL A   1      32.817  25.560  25.967  1.00  0.00     0.083 A 
BRANCH   9  17
ATOM     17  C   UNL A   1      33.492  20.682  25.023  1.00  0.00     0.227 C 
ATOM     18  O   UNL A   1      33.339  19.950  26.003  1.00  0.00    -0.275 OA
BRANCH  17  19
ATOM     19  C   UNL A   1      32.576  20.546  23.819  1.00  0.00     0.097 C 
ATOM     20  C   UNL A   1      32.390  19.071  23.464  1.00  0.00     0.014 C 
ENDBRANCH  17  19
ENDBRANCH   9  17
BRANCH  16  21
ATOM     21  S   UNL A   1      32.102  27.174  26.233  1.00  0.00     0.243 S 
ATOM     22  O   UNL A   1      30.838  26.948  26.906  1.00  0.00    -0.207 OA
ATOM     23  O   UNL A   1      33.142  27.981  26.831  1.00  0.00    -0.207 OA
BRANCH  21  24
ATOM     24  N   UNL A   1      31.774  27.810  24.694  1.00  0.00    -0.198 NA
ATOM     25  C   UNL A   1      31.586  29.250  24.442  1.00  0.00     0.103 C 
ATOM     26  C   UNL A   1      31.465  26.948  23.555  1.00  0.00     0.103 C 
ATOM     27  C   UNL A   1      30.220  29.585  23.809  1.00  0.00     0.020 C 
ATOM     28  C   UNL A   1      29.985  27.039  23.248  1.00  0.00     0.020 C 
ATOM     29  C   UNL A   1      29.508  28.479  22.995  1.00  0.00    -0.012 C 
ATOM     30  C   UNL A   1      27.983  28.535  23.189  1.00  0.00     0.008 C 
ENDBRANCH  21  24
ENDBRANCH  16  21
ENDBRANCH   6   8
ENDBRANCH   5   6
ENDBRANCH   4   5
ENDBRANCH   3   4
ENDBRANCH   2   3
ENDBRANCH   1   2
BRANCH   1  31
ATOM     31  C   UNL A   1      42.503  22.382  26.921  1.00  0.00     0.261 C 
BRANCH  31  32
ATOM     32  O   UNL A   1      42.819  23.676  27.463  1.00  0.00    -0.460 OA
BRANCH  32  33
ATOM     33  C   UNL A   1      42.416  24.722  26.707  1.00  0.00     0.338 C 
ATOM     34  O   UNL A   1      42.334  24.753  25.490  1.00  0.00    -0.246 OA
BRANCH  33  35
ATOM     35  C   UNL A   1      41.880  25.806  27.554  1.00  0.00     0.060 A 
ATOM     36  C   UNL A   1      42.616  26.994  27.603  1.00  0.00     0.016 A 
ATOM     37  C   UNL A   1      40.781  25.617  28.394  1.00  0.00     0.016 A 
ATOM     38  C   UNL A   1      42.309  27.965  28.553  1.00  0.00     0.010 A 
ATOM     39  C   UNL A   1      40.476  26.596  29.352  1.00  0.00     0.010 A 
ATOM     40  C   UNL A   1      41.271  27.751  29.471  1.00  0.00    -0.014 A 
BRANCH  40  41
ATOM     41  C   UNL A   1      41.137  28.682  30.623  1.00  0.00     0.031 A 
ATOM     42  C   UNL A   1      40.042  29.720  30.616  1.00  0.00     0.074 A 
ATOM     43  C   UNL A   1      41.919  28.545  31.710  1.00  0.00     0.049 A 
ATOM     44  N   UNL A   1      39.698  30.571  31.549  1.00  0.00    -0.248 NA
ATOM     45  C   UNL A   1      39.224  29.808  29.396  1.00  0.00     0.031 C 
ATOM     46  C   UNL A   1      42.991  27.562  31.855  1.00  0.00     0.029 A 
ATOM     47  N   UNL A   1      41.922  29.226  32.902  1.00  0.00    -0.354 N 
ATOM     48  C   UNL A   1      38.627  31.292  31.035  1.00  0.00     0.074 A 
ATOM     49  C   UNL A   1      38.401  30.805  29.691  1.00  0.00     0.031 C 
ATOM     50  C   UNL A   1      43.545  27.698  33.073  1.00  0.00     0.029 A 
ATOM     51  C   UNL A   1      42.885  28.792  33.783  1.00  0.00     0.049 A 
ATOM     52  H   UNL A   1      41.295  29.957  33.107  1.00  0.00     0.167 HD
ATOM     53  C   UNL A   1      37.889  32.261  31.629  1.00  0.00     0.037 A 
ATOM     54  C   UNL A   1      43.201  29.229  35.019  1.00  0.00     0.037 A 
ATOM     55  C   UNL A   1      38.113  32.744  32.969  1.00  0.00     0.049 A 
ATOM     56  C   UNL A   1      42.397  30.340  35.642  1.00  0.00     0.074 A 
ATOM     57  C   UNL A   1      37.407  33.713  33.663  1.00  0.00     0.029 A 
ATOM     58  N   UNL A   1      39.119  32.304  33.815  1.00  0.00    -0.354 N 
ATOM     59  N   UNL A   1      41.369  30.992  35.151  1.00  0.00    -0.248 NA
ATOM     60  C   UNL A   1      42.788  30.766  36.993  1.00  0.00     0.031 C 
ATOM     61  C   UNL A   1      38.019  33.893  34.910  1.00  0.00     0.029 A 
ATOM     62  C   UNL A   1      39.068  32.994  35.016  1.00  0.00     0.049 A 
ATOM     63  H   UNL A   1      39.774  31.602  33.595  1.00  0.00     0.167 HD
ATOM     64  C   UNL A   1      40.971  31.880  36.146  1.00  0.00     0.074 A 
ATOM     65  C   UNL A   1      41.863  31.675  37.269  1.00  0.00     0.031 C 
ATOM     66  C   UNL A   1      39.955  32.780  36.132  1.00  0.00     0.037 A 
BRANCH  53  67
ATOM     67  C   UNL A   1      36.777  32.885  30.828  1.00  0.00     0.058 A 
ATOM     68  C   UNL A   1      35.441  32.477  30.970  1.00  0.00     0.135 A 
ATOM     69  C   UNL A   1      37.046  33.935  29.935  1.00  0.00     0.135 A 
ATOM     70  F   UNL A   1      35.126  31.469  31.799  1.00  0.00    -0.206 F 
ATOM     71  C   UNL A   1      34.416  33.071  30.238  1.00  0.00     0.059 A 
ATOM     72  C   UNL A   1      36.035  34.562  29.214  1.00  0.00     0.059 A 
ATOM     73  F   UNL A   1      38.306  34.367  29.760  1.00  0.00    -0.206 F 
ATOM     74  C   UNL A   1      34.724  34.112  29.362  1.00  0.00     0.060 A 
BRANCH  74  75
ATOM     75  S   UNL A   1      33.384  34.875  28.423  1.00  0.00     0.124 S 
ATOM     76  O   UNL A   1      32.725  33.705  27.849  1.00  0.00    -0.237 OA
ATOM     77  O   UNL A   1      32.636  35.578  29.459  1.00  0.00    -0.237 OA
ATOM     78  O   UNL A   1      34.081  35.732  27.467  1.00  0.00    -0.744 OA
ENDBRANCH  74  75
ENDBRANCH  53  67
BRANCH  54  79
ATOM     79  C   UNL A   1      44.336  28.609  35.753  1.00  0.00     0.058 A 
ATOM     80  C   UNL A   1      45.643  29.102  35.625  1.00  0.00     0.135 A 
ATOM     81  C   UNL A   1      44.134  27.509  36.601  1.00  0.00     0.135 A 
ATOM     82  F   UNL A   1      45.892  30.144  34.819  1.00  0.00    -0.206 F 
ATOM     83  C   UNL A   1      46.712  28.516  36.298  1.00  0.00     0.059 A 
ATOM     84  C   UNL A   1      45.180  26.924  37.305  1.00  0.00     0.059 A 
ATOM     85  F   UNL A   1      42.900  27.006  36.766  1.00  0.00    -0.206 F 
ATOM     86  C   UNL A   1      46.468  27.428  37.139  1.00  0.00     0.060 A 
BRANCH  86  87
ATOM     87  S   UNL A   1      47.854  26.706  38.046  1.00  0.00     0.124 S 
ATOM     88  O   UNL A   1      47.989  27.634  39.162  1.00  0.00    -0.237 OA
ATOM     89  O   UNL A   1      47.345  25.378  38.376  1.00  0.00    -0.237 OA
ATOM     90  O   UNL A   1      48.939  26.727  37.070  1.00  0.00    -0.744 OA
ENDBRANCH  86  87
ENDBRANCH  54  79
BRANCH  66  91
ATOM     91  C   UNL A   1      39.718  33.580  37.386  1.00  0.00     0.058 A 
ATOM     92  C   UNL A   1      40.416  34.769  37.655  1.00  0.00     0.135 A 
ATOM     93  C   UNL A   1      38.755  33.164  38.321  1.00  0.00     0.135 A 
ATOM     94  F   UNL A   1      41.349  35.213  36.797  1.00  0.00    -0.206 F 
ATOM     95  C   UNL A   1      40.194  35.495  38.821  1.00  0.00     0.059 A 
ATOM     96  C   UNL A   1      38.494  33.891  39.479  1.00  0.00     0.059 A 
ATOM     97  F   UNL A   1      38.048  32.042  38.111  1.00  0.00    -0.206 F 
ATOM     98  C   UNL A   1      39.233  35.047  39.728  1.00  0.00     0.060 A 
BRANCH  98  99
ATOM     99  S   UNL A   1      38.947  36.002  41.234  1.00  0.00     0.124 S 
ATOM    100  O   UNL A   1      37.732  35.381  41.751  1.00  0.00    -0.237 OA
ATOM    101  O   UNL A   1      40.163  35.749  42.002  1.00  0.00    -0.237 OA
ATOM    102  O   UNL A   1      38.794  37.370  40.746  1.00  0.00    -0.744 OA
ENDBRANCH  98  99
ENDBRANCH  66  91
ENDBRANCH  40  41
ENDBRANCH  33  35
ENDBRANCH  32  33
ENDBRANCH  31  32
ENDBRANCH   1  31
TORSDOF 21
ENDMDL
