MODEL 1
REMARK VINA RESULT:     -10.8      0.000      0.000
REMARK SMILES O=C(OCCOCCOC(=O)c1cccnc1-c1ccccn1)c1ccc(-c2c3nc(c(-c4c(F)cc(S(=O)(=O)[O-])cc4F)c4ccc([nH]4)c(-c4c(F)cc(S(=O)(=O)[O-])cc4F)c4nc(c(-c5c(F)cc(S(=O)(=O)[O-])cc5F)c5ccc2[nH]5)C=C4)C=C3)cc1
REMARK SMILES IDX 5 1 4 2 3 3 2 4 1 5 24 6 25 7 89 8 26 9 88 10 27 11 28 12
REMARK SMILES IDX 29 13 82 14 30 15 87 16 81 17 83 18 31 19 86 20 80 21 79 22
REMARK SMILES IDX 32 24 66 25 45 26 65 27 46 28 49 29 64 30 84 31 47 32 48 33
REMARK SMILES IDX 63 35 85 36 50 37 33 38 34 39 43 40 35 41 36 42 42 43 44 44
REMARK SMILES IDX 37 45 38 46 39 47 40 48 41 49 67 50 68 51 77 52 69 53 70 54
REMARK SMILES IDX 76 55 78 56 71 57 72 58 73 59 74 60 75 61 51 62 52 63 61 64
REMARK SMILES IDX 53 65 54 66 60 67 62 68 55 69 56 70 57 71 58 72 59 73 6 74
REMARK SMILES IDX 7 75 8 76 9 77 10 78 11 79 12 80 13 81 17 82 14 83 16 84
REMARK SMILES IDX 15 85 18 86 19 87 23 88 20 89 22 90 21 91
REMARK H PARENT 83 23 49 34
REMARK Flexibility Score: inf
ROOT
ATOM      1  C   UNL A   1      40.278  21.909  26.424  1.00  0.00     0.202 C 
ENDROOT
BRANCH   1   2
ATOM      2  C   UNL A   1      41.090  23.192  26.595  1.00  0.00     0.261 C 
BRANCH   2   3
ATOM      3  O   UNL A   1      40.322  24.351  26.226  1.00  0.00    -0.460 OA
BRANCH   3   4
ATOM      4  C   UNL A   1      40.763  25.634  26.320  1.00  0.00     0.338 C 
ATOM      5  O   UNL A   1      41.196  26.204  25.322  1.00  0.00    -0.246 OA
BRANCH   4   6
ATOM      6  C   UNL A   1      40.722  26.376  27.612  1.00  0.00     0.060 A 
ATOM      7  C   UNL A   1      41.540  27.474  27.864  1.00  0.00     0.016 A 
ATOM      8  C   UNL A   1      39.771  26.034  28.577  1.00  0.00     0.016 A 
ATOM      9  C   UNL A   1      41.516  28.159  29.056  1.00  0.00     0.010 A 
ATOM     10  C   UNL A   1      39.648  26.803  29.743  1.00  0.00     0.010 A 
ATOM     11  C   UNL A   1      40.517  27.879  29.975  1.00  0.00    -0.014 A 
BRANCH  11  12
ATOM     12  C   UNL A   1      40.413  28.769  31.145  1.00  0.00     0.031 A 
ATOM     13  C   UNL A   1      39.364  29.830  31.151  1.00  0.00     0.074 A 
ATOM     14  C   UNL A   1      41.200  28.536  32.215  1.00  0.00     0.049 A 
ATOM     15  N   UNL A   1      39.192  30.805  31.995  1.00  0.00    -0.248 NA
ATOM     16  C   UNL A   1      38.377  29.791  30.057  1.00  0.00     0.031 C 
ATOM     17  C   UNL A   1      42.169  27.435  32.333  1.00  0.00     0.029 A 
ATOM     18  N   UNL A   1      41.300  29.181  33.418  1.00  0.00    -0.354 N 
ATOM     19  C   UNL A   1      38.119  31.535  31.507  1.00  0.00     0.074 A 
ATOM     20  C   UNL A   1      37.663  30.881  30.302  1.00  0.00     0.031 C 
ATOM     21  C   UNL A   1      42.733  27.465  33.550  1.00  0.00     0.029 A 
ATOM     22  C   UNL A   1      42.253  28.644  34.254  1.00  0.00     0.049 A 
ATOM     23  H   UNL A   1      40.744  29.956  33.662  1.00  0.00     0.167 HD
ATOM     24  C   UNL A   1      37.588  32.666  32.025  1.00  0.00     0.037 A 
ATOM     25  C   UNL A   1      42.728  29.095  35.430  1.00  0.00     0.037 A 
ATOM     26  C   UNL A   1      38.064  33.263  33.244  1.00  0.00     0.049 A 
ATOM     27  C   UNL A   1      42.162  30.388  35.948  1.00  0.00     0.074 A 
ATOM     28  C   UNL A   1      37.649  34.432  33.853  1.00  0.00     0.029 A 
ATOM     29  N   UNL A   1      39.062  32.721  34.047  1.00  0.00    -0.354 N 
ATOM     30  N   UNL A   1      41.205  31.129  35.435  1.00  0.00    -0.248 NA
ATOM     31  C   UNL A   1      42.749  30.926  37.178  1.00  0.00     0.031 C 
ATOM     32  C   UNL A   1      38.423  34.614  35.004  1.00  0.00     0.029 A 
ATOM     33  C   UNL A   1      39.285  33.536  35.139  1.00  0.00     0.049 A 
ATOM     34  H   UNL A   1      39.538  31.879  33.863  1.00  0.00     0.167 HD
ATOM     35  C   UNL A   1      41.067  32.215  36.287  1.00  0.00     0.074 A 
ATOM     36  C   UNL A   1      42.023  32.021  37.361  1.00  0.00     0.031 C 
ATOM     37  C   UNL A   1      40.240  33.283  36.191  1.00  0.00     0.037 A 
BRANCH  24  38
ATOM     38  C   UNL A   1      36.508  33.347  31.240  1.00  0.00     0.058 A 
ATOM     39  C   UNL A   1      36.768  34.029  30.041  1.00  0.00     0.135 A 
ATOM     40  C   UNL A   1      35.182  33.321  31.704  1.00  0.00     0.135 A 
ATOM     41  F   UNL A   1      38.023  34.118  29.573  1.00  0.00    -0.206 F 
ATOM     42  C   UNL A   1      35.754  34.671  29.337  1.00  0.00     0.059 A 
ATOM     43  C   UNL A   1      34.149  33.936  31.005  1.00  0.00     0.059 A 
ATOM     44  F   UNL A   1      34.882  32.699  32.856  1.00  0.00    -0.206 F 
ATOM     45  C   UNL A   1      34.447  34.618  29.827  1.00  0.00     0.060 A 
BRANCH  45  46
ATOM     46  S   UNL A   1      33.141  35.447  28.897  1.00  0.00     0.124 S 
ATOM     47  O   UNL A   1      33.908  36.415  28.117  1.00  0.00    -0.237 OA
ATOM     48  O   UNL A   1      32.553  34.348  28.138  1.00  0.00    -0.237 OA
ATOM     49  O   UNL A   1      32.289  36.015  29.936  1.00  0.00    -0.744 OA
ENDBRANCH  45  46
ENDBRANCH  24  38
BRANCH  25  50
ATOM     50  C   UNL A   1      43.834  28.388  36.134  1.00  0.00     0.058 A 
ATOM     51  C   UNL A   1      43.580  27.326  37.014  1.00  0.00     0.135 A 
ATOM     52  C   UNL A   1      45.175  28.778  35.963  1.00  0.00     0.135 A 
ATOM     53  F   UNL A   1      42.321  26.913  37.219  1.00  0.00    -0.206 F 
ATOM     54  C   UNL A   1      44.605  26.699  37.721  1.00  0.00     0.059 A 
ATOM     55  C   UNL A   1      46.218  28.147  36.632  1.00  0.00     0.059 A 
ATOM     56  F   UNL A   1      45.484  29.781  35.126  1.00  0.00    -0.206 F 
ATOM     57  C   UNL A   1      45.921  27.121  37.528  1.00  0.00     0.060 A 
BRANCH  57  58
ATOM     58  S   UNL A   1      47.244  26.311  38.453  1.00  0.00     0.124 S 
ATOM     59  O   UNL A   1      48.088  25.807  37.377  1.00  0.00    -0.237 OA
ATOM     60  O   UNL A   1      47.795  27.414  39.235  1.00  0.00    -0.237 OA
ATOM     61  O   UNL A   1      46.538  25.295  39.229  1.00  0.00    -0.744 OA
ENDBRANCH  57  58
ENDBRANCH  25  50
BRANCH  37  62
ATOM     62  C   UNL A   1      40.310  34.291  37.300  1.00  0.00     0.058 A 
ATOM     63  C   UNL A   1      39.485  34.195  38.430  1.00  0.00     0.135 A 
ATOM     64  C   UNL A   1      41.258  35.324  37.251  1.00  0.00     0.135 A 
ATOM     65  F   UNL A   1      38.558  33.229  38.511  1.00  0.00    -0.206 F 
ATOM     66  C   UNL A   1      39.588  35.106  39.473  1.00  0.00     0.059 A 
ATOM     67  C   UNL A   1      41.397  36.228  38.296  1.00  0.00     0.059 A 
ATOM     68  F   UNL A   1      42.073  35.446  36.191  1.00  0.00    -0.206 F 
ATOM     69  C   UNL A   1      40.551  36.115  39.400  1.00  0.00     0.060 A 
BRANCH  69  70
ATOM     70  S   UNL A   1      40.711  37.258  40.785  1.00  0.00     0.124 S 
ATOM     71  O   UNL A   1      41.286  38.430  40.133  1.00  0.00    -0.237 OA
ATOM     72  O   UNL A   1      39.330  37.397  41.238  1.00  0.00    -0.237 OA
ATOM     73  O   UNL A   1      41.598  36.553  41.705  1.00  0.00    -0.744 OA
ENDBRANCH  69  70
ENDBRANCH  37  62
ENDBRANCH  11  12
ENDBRANCH   4   6
ENDBRANCH   3   4
ENDBRANCH   2   3
ENDBRANCH   1   2
BRANCH   1  74
ATOM     74  O   UNL A   1      38.976  22.106  25.902  1.00  0.00    -0.374 OA
BRANCH  74  75
ATOM     75  C   UNL A   1      38.226  20.948  25.584  1.00  0.00     0.202 C 
BRANCH  75  76
ATOM     76  C   UNL A   1      37.061  21.391  24.705  1.00  0.00     0.261 C 
BRANCH  76  77
ATOM     77  O   UNL A   1      35.979  20.457  24.889  1.00  0.00    -0.460 OA
BRANCH  77  78
ATOM     78  C   UNL A   1      34.819  20.939  25.424  1.00  0.00     0.340 C 
ATOM     79  O   UNL A   1      34.629  21.249  26.582  1.00  0.00    -0.246 OA
BRANCH  78  80
ATOM     80  C   UNL A   1      33.860  21.051  24.298  1.00  0.00     0.088 A 
ATOM     81  C   UNL A   1      33.626  22.342  23.786  1.00  0.00     0.019 A 
ATOM     82  C   UNL A   1      33.089  19.991  23.804  1.00  0.00     0.103 A 
ATOM     83  C   UNL A   1      32.637  22.555  22.837  1.00  0.00     0.021 A 
ATOM     84  N   UNL A   1      32.101  20.213  22.876  1.00  0.00    -0.254 NA
ATOM     85  C   UNL A   1      31.907  21.465  22.416  1.00  0.00     0.112 A 
BRANCH  82  86
ATOM     86  C   UNL A   1      33.129  18.587  24.257  1.00  0.00     0.089 A 
ATOM     87  C   UNL A   1      33.904  17.638  23.574  1.00  0.00     0.031 A 
ATOM     88  N   UNL A   1      32.442  18.261  25.376  1.00  0.00    -0.255 NA
ATOM     89  C   UNL A   1      33.918  16.314  24.008  1.00  0.00     0.004 A 
ATOM     90  C   UNL A   1      32.485  16.970  25.788  1.00  0.00     0.112 A 
ATOM     91  C   UNL A   1      33.192  15.970  25.138  1.00  0.00     0.020 A 
ENDBRANCH  82  86
ENDBRANCH  78  80
ENDBRANCH  77  78
ENDBRANCH  76  77
ENDBRANCH  75  76
ENDBRANCH  74  75
ENDBRANCH   1  74
TORSDOF 18
ENDMDL
MODEL 2
REMARK VINA RESULT:     -10.7      5.340      9.962
REMARK SMILES O=C(OCCOCCOC(=O)c1cccnc1-c1ccccn1)c1ccc(-c2c3nc(c(-c4c(F)cc(S(=O)(=O)[O-])cc4F)c4ccc([nH]4)c(-c4c(F)cc(S(=O)(=O)[O-])cc4F)c4nc(c(-c5c(F)cc(S(=O)(=O)[O-])cc5F)c5ccc2[nH]5)C=C4)C=C3)cc1
REMARK SMILES IDX 5 1 4 2 3 3 2 4 1 5 24 6 25 7 89 8 26 9 88 10 27 11 28 12
REMARK SMILES IDX 29 13 82 14 30 15 87 16 81 17 83 18 31 19 86 20 80 21 79 22
REMARK SMILES IDX 32 24 66 25 45 26 65 27 46 28 49 29 64 30 84 31 47 32 48 33
REMARK SMILES IDX 63 35 85 36 50 37 33 38 34 39 43 40 35 41 36 42 42 43 44 44
REMARK SMILES IDX 37 45 38 46 39 47 40 48 41 49 67 50 68 51 77 52 69 53 70 54
REMARK SMILES IDX 76 55 78 56 71 57 72 58 73 59 74 60 75 61 51 62 52 63 61 64
REMARK SMILES IDX 53 65 54 66 60 67 62 68 55 69 56 70 57 71 58 72 59 73 6 74
REMARK SMILES IDX 7 75 8 76 9 77 10 78 11 79 12 80 13 81 17 82 14 83 16 84
REMARK SMILES IDX 15 85 18 86 19 87 23 88 20 89 22 90 21 91
REMARK H PARENT 83 23 49 34
REMARK Flexibility Score: inf
ROOT
ATOM      1  C   UNL A   1      32.521  28.364  25.499  1.00  0.00     0.202 C 
ENDROOT
BRANCH   1   2
ATOM      2  C   UNL A   1      33.619  28.073  26.521  1.00  0.00     0.261 C 
BRANCH   2   3
ATOM      3  O   UNL A   1      33.487  28.909  27.684  1.00  0.00    -0.460 OA
BRANCH   3   4
ATOM      4  C   UNL A   1      34.269  29.988  27.954  1.00  0.00     0.338 C 
ATOM      5  O   UNL A   1      33.765  31.106  28.013  1.00  0.00    -0.246 OA
BRANCH   4   6
ATOM      6  C   UNL A   1      35.733  29.844  28.196  1.00  0.00     0.060 A 
ATOM      7  C   UNL A   1      36.244  29.377  29.403  1.00  0.00     0.016 A 
ATOM      8  C   UNL A   1      36.633  30.088  27.155  1.00  0.00     0.016 A 
ATOM      9  C   UNL A   1      37.593  29.249  29.639  1.00  0.00     0.010 A 
ATOM     10  C   UNL A   1      38.001  29.840  27.339  1.00  0.00     0.010 A 
ATOM     11  C   UNL A   1      38.479  29.405  28.585  1.00  0.00    -0.014 A 
BRANCH  11  12
ATOM     12  C   UNL A   1      39.890  29.066  28.839  1.00  0.00     0.031 A 
ATOM     13  C   UNL A   1      40.772  30.086  29.477  1.00  0.00     0.074 A 
ATOM     14  C   UNL A   1      40.318  27.813  28.579  1.00  0.00     0.049 A 
ATOM     15  N   UNL A   1      42.061  30.058  29.653  1.00  0.00    -0.248 NA
ATOM     16  C   UNL A   1      40.115  31.304  29.984  1.00  0.00     0.031 C 
ATOM     17  C   UNL A   1      39.480  26.718  28.067  1.00  0.00     0.029 A 
ATOM     18  N   UNL A   1      41.547  27.231  28.732  1.00  0.00    -0.354 N 
ATOM     19  C   UNL A   1      42.384  31.276  30.232  1.00  0.00     0.074 A 
ATOM     20  C   UNL A   1      41.154  32.016  30.399  1.00  0.00     0.031 C 
ATOM     21  C   UNL A   1      40.211  25.597  27.985  1.00  0.00     0.029 A 
ATOM     22  C   UNL A   1      41.587  25.915  28.328  1.00  0.00     0.049 A 
ATOM     23  H   UNL A   1      42.328  27.707  29.096  1.00  0.00     0.167 HD
ATOM     24  C   UNL A   1      43.613  31.727  30.569  1.00  0.00     0.037 A 
ATOM     25  C   UNL A   1      42.636  25.083  28.191  1.00  0.00     0.037 A 
ATOM     26  C   UNL A   1      44.805  30.939  30.405  1.00  0.00     0.049 A 
ATOM     27  C   UNL A   1      43.997  25.634  28.514  1.00  0.00     0.074 A 
ATOM     28  C   UNL A   1      46.116  31.292  30.660  1.00  0.00     0.029 A 
ATOM     29  N   UNL A   1      44.821  29.624  29.951  1.00  0.00    -0.354 N 
ATOM     30  N   UNL A   1      44.312  26.823  28.978  1.00  0.00    -0.248 NA
ATOM     31  C   UNL A   1      45.146  24.756  28.272  1.00  0.00     0.031 C 
ATOM     32  C   UNL A   1      46.928  30.202  30.324  1.00  0.00     0.029 A 
ATOM     33  C   UNL A   1      46.119  29.155  29.906  1.00  0.00     0.049 A 
ATOM     34  H   UNL A   1      44.023  29.105  29.699  1.00  0.00     0.167 HD
ATOM     35  C   UNL A   1      45.695  26.832  29.094  1.00  0.00     0.074 A 
ATOM     36  C   UNL A   1      46.152  25.521  28.675  1.00  0.00     0.031 C 
ATOM     37  C   UNL A   1      46.517  27.830  29.497  1.00  0.00     0.037 A 
BRANCH  24  38
ATOM     38  C   UNL A   1      43.722  33.138  31.064  1.00  0.00     0.058 A 
ATOM     39  C   UNL A   1      43.812  34.234  30.192  1.00  0.00     0.135 A 
ATOM     40  C   UNL A   1      43.741  33.397  32.445  1.00  0.00     0.135 A 
ATOM     41  F   UNL A   1      43.837  34.041  28.864  1.00  0.00    -0.206 F 
ATOM     42  C   UNL A   1      43.932  35.535  30.671  1.00  0.00     0.059 A 
ATOM     43  C   UNL A   1      43.836  34.691  32.946  1.00  0.00     0.059 A 
ATOM     44  F   UNL A   1      43.677  32.383  33.323  1.00  0.00    -0.206 F 
ATOM     45  C   UNL A   1      43.942  35.753  32.051  1.00  0.00     0.060 A 
BRANCH  45  46
ATOM     46  S   UNL A   1      44.086  37.447  32.657  1.00  0.00     0.124 S 
ATOM     47  O   UNL A   1      43.817  38.214  31.444  1.00  0.00    -0.237 OA
ATOM     48  O   UNL A   1      43.049  37.501  33.683  1.00  0.00    -0.237 OA
ATOM     49  O   UNL A   1      45.457  37.517  33.151  1.00  0.00    -0.744 OA
ENDBRANCH  45  46
ENDBRANCH  24  38
BRANCH  25  50
ATOM     50  C   UNL A   1      42.459  23.705  27.652  1.00  0.00     0.058 A 
ATOM     51  C   UNL A   1      42.324  22.598  28.503  1.00  0.00     0.135 A 
ATOM     52  C   UNL A   1      42.447  23.459  26.268  1.00  0.00     0.135 A 
ATOM     53  F   UNL A   1      42.332  22.771  29.833  1.00  0.00    -0.206 F 
ATOM     54  C   UNL A   1      42.217  21.301  28.006  1.00  0.00     0.059 A 
ATOM     55  C   UNL A   1      42.308  22.177  25.746  1.00  0.00     0.059 A 
ATOM     56  F   UNL A   1      42.560  24.478  25.400  1.00  0.00    -0.206 F 
ATOM     57  C   UNL A   1      42.216  21.099  26.625  1.00  0.00     0.060 A 
BRANCH  57  58
ATOM     58  S   UNL A   1      42.086  19.415  25.986  1.00  0.00     0.124 S 
ATOM     59  O   UNL A   1      42.563  18.634  27.122  1.00  0.00    -0.237 OA
ATOM     60  O   UNL A   1      40.662  19.306  25.688  1.00  0.00    -0.237 OA
ATOM     61  O   UNL A   1      42.964  19.430  24.819  1.00  0.00    -0.744 OA
ENDBRANCH  57  58
ENDBRANCH  25  50
BRANCH  37  62
ATOM     62  C   UNL A   1      47.983  27.518  29.541  1.00  0.00     0.058 A 
ATOM     63  C   UNL A   1      48.832  27.835  28.470  1.00  0.00     0.135 A 
ATOM     64  C   UNL A   1      48.547  26.954  30.695  1.00  0.00     0.135 A 
ATOM     65  F   UNL A   1      48.331  28.365  27.344  1.00  0.00    -0.206 F 
ATOM     66  C   UNL A   1      50.196  27.584  28.536  1.00  0.00     0.059 A 
ATOM     67  C   UNL A   1      49.913  26.722  30.793  1.00  0.00     0.059 A 
ATOM     68  F   UNL A   1      47.772  26.644  31.746  1.00  0.00    -0.206 F 
ATOM     69  C   UNL A   1      50.728  27.033  29.705  1.00  0.00     0.060 A 
BRANCH  69  70
ATOM     70  S   UNL A   1      52.508  26.763  29.799  1.00  0.00     0.124 S 
ATOM     71  O   UNL A   1      53.002  28.125  29.973  1.00  0.00    -0.237 OA
ATOM     72  O   UNL A   1      52.631  25.889  30.962  1.00  0.00    -0.237 OA
ATOM     73  O   UNL A   1      52.824  26.140  28.517  1.00  0.00    -0.744 OA
ENDBRANCH  69  70
ENDBRANCH  37  62
ENDBRANCH  11  12
ENDBRANCH   4   6
ENDBRANCH   3   4
ENDBRANCH   2   3
ENDBRANCH   1   2
BRANCH   1  74
ATOM     74  O   UNL A   1      32.617  27.607  24.305  1.00  0.00    -0.374 OA
BRANCH  74  75
ATOM     75  C   UNL A   1      33.378  26.414  24.357  1.00  0.00     0.202 C 
BRANCH  75  76
ATOM     76  C   UNL A   1      32.394  25.251  24.400  1.00  0.00     0.261 C 
BRANCH  76  77
ATOM     77  O   UNL A   1      33.134  24.046  24.680  1.00  0.00    -0.460 OA
BRANCH  77  78
ATOM     78  C   UNL A   1      33.823  23.480  23.645  1.00  0.00     0.340 C 
ATOM     79  O   UNL A   1      34.343  24.062  22.715  1.00  0.00    -0.246 OA
BRANCH  78  80
ATOM     80  C   UNL A   1      33.849  22.021  23.915  1.00  0.00     0.088 A 
ATOM     81  C   UNL A   1      32.700  21.287  23.561  1.00  0.00     0.019 A 
ATOM     82  C   UNL A   1      34.873  21.360  24.606  1.00  0.00     0.103 A 
ATOM     83  C   UNL A   1      32.582  19.951  23.914  1.00  0.00     0.021 A 
ATOM     84  N   UNL A   1      34.741  20.041  24.965  1.00  0.00    -0.254 NA
ATOM     85  C   UNL A   1      33.623  19.377  24.609  1.00  0.00     0.112 A 
BRANCH  82  86
ATOM     86  C   UNL A   1      36.116  21.962  25.126  1.00  0.00     0.089 A 
ATOM     87  C   UNL A   1      36.108  23.249  25.684  1.00  0.00     0.031 A 
ATOM     88  N   UNL A   1      37.243  21.215  25.097  1.00  0.00    -0.255 NA
ATOM     89  C   UNL A   1      37.295  23.806  26.156  1.00  0.00     0.004 A 
ATOM     90  C   UNL A   1      38.381  21.772  25.578  1.00  0.00     0.112 A 
ATOM     91  C   UNL A   1      38.458  23.054  26.102  1.00  0.00     0.020 A 
ENDBRANCH  82  86
ENDBRANCH  78  80
ENDBRANCH  77  78
ENDBRANCH  76  77
ENDBRANCH  75  76
ENDBRANCH  74  75
ENDBRANCH   1  74
TORSDOF 18
ENDMDL
MODEL 3
REMARK VINA RESULT:     -10.6      4.246     10.888
REMARK SMILES O=C(OCCOCCOC(=O)c1cccnc1-c1ccccn1)c1ccc(-c2c3nc(c(-c4c(F)cc(S(=O)(=O)[O-])cc4F)c4ccc([nH]4)c(-c4c(F)cc(S(=O)(=O)[O-])cc4F)c4nc(c(-c5c(F)cc(S(=O)(=O)[O-])cc5F)c5ccc2[nH]5)C=C4)C=C3)cc1
REMARK SMILES IDX 5 1 4 2 3 3 2 4 1 5 24 6 25 7 89 8 26 9 88 10 27 11 28 12
REMARK SMILES IDX 29 13 82 14 30 15 87 16 81 17 83 18 31 19 86 20 80 21 79 22
REMARK SMILES IDX 32 24 66 25 45 26 65 27 46 28 49 29 64 30 84 31 47 32 48 33
REMARK SMILES IDX 63 35 85 36 50 37 33 38 34 39 43 40 35 41 36 42 42 43 44 44
REMARK SMILES IDX 37 45 38 46 39 47 40 48 41 49 67 50 68 51 77 52 69 53 70 54
REMARK SMILES IDX 76 55 78 56 71 57 72 58 73 59 74 60 75 61 51 62 52 63 61 64
REMARK SMILES IDX 53 65 54 66 60 67 62 68 55 69 56 70 57 71 58 72 59 73 6 74
REMARK SMILES IDX 7 75 8 76 9 77 10 78 11 79 12 80 13 81 17 82 14 83 16 84
REMARK SMILES IDX 15 85 18 86 19 87 23 88 20 89 22 90 21 91
REMARK H PARENT 83 23 49 34
REMARK Flexibility Score: inf
ROOT
ATOM      1  C   UNL A   1      41.941  21.712  27.522  1.00  0.00     0.202 C 
ENDROOT
BRANCH   1   2
ATOM      2  C   UNL A   1      41.333  21.785  26.122  1.00  0.00     0.261 C 
BRANCH   2   3
ATOM      3  O   UNL A   1      39.896  21.763  26.174  1.00  0.00    -0.460 OA
BRANCH   3   4
ATOM      4  C   UNL A   1      39.100  22.858  26.043  1.00  0.00     0.338 C 
ATOM      5  O   UNL A   1      38.120  22.814  25.304  1.00  0.00    -0.246 OA
BRANCH   4   6
ATOM      6  C   UNL A   1      39.383  24.117  26.790  1.00  0.00     0.060 A 
ATOM      7  C   UNL A   1      38.993  24.298  28.113  1.00  0.00     0.016 A 
ATOM      8  C   UNL A   1      40.148  25.120  26.190  1.00  0.00     0.016 A 
ATOM      9  C   UNL A   1      39.242  25.459  28.808  1.00  0.00     0.010 A 
ATOM     10  C   UNL A   1      40.519  26.254  26.927  1.00  0.00     0.010 A 
ATOM     11  C   UNL A   1      40.073  26.415  28.248  1.00  0.00    -0.014 A 
BRANCH  11  12
ATOM     12  C   UNL A   1      40.468  27.547  29.105  1.00  0.00     0.031 A 
ATOM     13  C   UNL A   1      41.799  27.509  29.779  1.00  0.00     0.074 A 
ATOM     14  C   UNL A   1      39.661  28.625  29.176  1.00  0.00     0.049 A 
ATOM     15  N   UNL A   1      42.281  28.312  30.682  1.00  0.00    -0.248 NA
ATOM     16  C   UNL A   1      42.709  26.419  29.385  1.00  0.00     0.031 C 
ATOM     17  C   UNL A   1      38.395  28.788  28.445  1.00  0.00     0.029 A 
ATOM     18  N   UNL A   1      39.785  29.799  29.868  1.00  0.00    -0.354 N 
ATOM     19  C   UNL A   1      43.524  27.794  31.015  1.00  0.00     0.074 A 
ATOM     20  C   UNL A   1      43.734  26.618  30.202  1.00  0.00     0.031 C 
ATOM     21  C   UNL A   1      37.884  30.002  28.701  1.00  0.00     0.029 A 
ATOM     22  C   UNL A   1      38.721  30.656  29.694  1.00  0.00     0.049 A 
ATOM     23  H   UNL A   1      40.561  30.011  30.436  1.00  0.00     0.167 HD
ATOM     24  C   UNL A   1      44.391  28.265  31.939  1.00  0.00     0.037 A 
ATOM     25  C   UNL A   1      38.428  31.811  30.320  1.00  0.00     0.037 A 
ATOM     26  C   UNL A   1      44.144  29.457  32.705  1.00  0.00     0.049 A 
ATOM     27  C   UNL A   1      39.381  32.275  31.386  1.00  0.00     0.074 A 
ATOM     28  C   UNL A   1      44.915  30.017  33.705  1.00  0.00     0.029 A 
ATOM     29  N   UNL A   1      43.036  30.281  32.539  1.00  0.00    -0.354 N 
ATOM     30  N   UNL A   1      40.516  31.732  31.765  1.00  0.00    -0.248 NA
ATOM     31  C   UNL A   1      39.009  33.482  32.131  1.00  0.00     0.031 C 
ATOM     32  C   UNL A   1      44.253  31.159  34.170  1.00  0.00     0.029 A 
ATOM     33  C   UNL A   1      43.095  31.338  33.426  1.00  0.00     0.049 A 
ATOM     34  H   UNL A   1      42.315  30.132  31.885  1.00  0.00     0.167 HD
ATOM     35  C   UNL A   1      41.001  32.539  32.785  1.00  0.00     0.074 A 
ATOM     36  C   UNL A   1      40.046  33.619  32.947  1.00  0.00     0.031 C 
ATOM     37  C   UNL A   1      42.123  32.399  33.531  1.00  0.00     0.037 A 
BRANCH  24  38
ATOM     38  C   UNL A   1      45.622  27.454  32.211  1.00  0.00     0.058 A 
ATOM     39  C   UNL A   1      45.657  26.449  33.190  1.00  0.00     0.135 A 
ATOM     40  C   UNL A   1      46.795  27.692  31.476  1.00  0.00     0.135 A 
ATOM     41  F   UNL A   1      44.576  26.206  33.948  1.00  0.00    -0.206 F 
ATOM     42  C   UNL A   1      46.815  25.719  33.441  1.00  0.00     0.059 A 
ATOM     43  C   UNL A   1      47.957  26.959  31.693  1.00  0.00     0.059 A 
ATOM     44  F   UNL A   1      46.822  28.655  30.540  1.00  0.00    -0.206 F 
ATOM     45  C   UNL A   1      47.960  25.982  32.686  1.00  0.00     0.060 A 
BRANCH  45  46
ATOM     46  S   UNL A   1      49.451  25.019  33.015  1.00  0.00     0.124 S 
ATOM     47  O   UNL A   1      48.902  23.858  33.708  1.00  0.00    -0.237 OA
ATOM     48  O   UNL A   1      49.964  24.769  31.671  1.00  0.00    -0.237 OA
ATOM     49  O   UNL A   1      50.261  25.914  33.836  1.00  0.00    -0.744 OA
ENDBRANCH  45  46
ENDBRANCH  24  38
BRANCH  25  50
ATOM     50  C   UNL A   1      37.164  32.544  30.028  1.00  0.00     0.058 A 
ATOM     51  C   UNL A   1      37.125  33.597  29.103  1.00  0.00     0.135 A 
ATOM     52  C   UNL A   1      35.966  32.223  30.691  1.00  0.00     0.135 A 
ATOM     53  F   UNL A   1      38.238  33.950  28.442  1.00  0.00    -0.206 F 
ATOM     54  C   UNL A   1      35.960  34.324  28.869  1.00  0.00     0.059 A 
ATOM     55  C   UNL A   1      34.782  32.913  30.451  1.00  0.00     0.059 A 
ATOM     56  F   UNL A   1      35.934  31.218  31.580  1.00  0.00    -0.206 F 
ATOM     57  C   UNL A   1      34.794  33.979  29.553  1.00  0.00     0.060 A 
BRANCH  57  58
ATOM     58  S   UNL A   1      33.288  34.931  29.253  1.00  0.00     0.124 S 
ATOM     59  O   UNL A   1      33.831  36.182  28.737  1.00  0.00    -0.237 OA
ATOM     60  O   UNL A   1      32.580  34.095  28.288  1.00  0.00    -0.237 OA
ATOM     61  O   UNL A   1      32.671  35.009  30.575  1.00  0.00    -0.744 OA
ENDBRANCH  57  58
ENDBRANCH  25  50
BRANCH  37  62
ATOM     62  C   UNL A   1      42.389  33.464  34.553  1.00  0.00     0.058 A 
ATOM     63  C   UNL A   1      43.116  34.620  34.234  1.00  0.00     0.135 A 
ATOM     64  C   UNL A   1      41.854  33.347  35.845  1.00  0.00     0.135 A 
ATOM     65  F   UNL A   1      43.654  34.766  33.014  1.00  0.00    -0.206 F 
ATOM     66  C   UNL A   1      43.319  35.623  35.173  1.00  0.00     0.059 A 
ATOM     67  C   UNL A   1      42.020  34.351  36.790  1.00  0.00     0.059 A 
ATOM     68  F   UNL A   1      41.144  32.261  36.189  1.00  0.00    -0.206 F 
ATOM     69  C   UNL A   1      42.762  35.482  36.447  1.00  0.00     0.060 A 
BRANCH  69  70
ATOM     70  S   UNL A   1      42.986  36.815  37.639  1.00  0.00     0.124 S 
ATOM     71  O   UNL A   1      41.625  37.000  38.131  1.00  0.00    -0.237 OA
ATOM     72  O   UNL A   1      43.930  36.232  38.587  1.00  0.00    -0.237 OA
ATOM     73  O   UNL A   1      43.515  37.908  36.829  1.00  0.00    -0.744 OA
ENDBRANCH  69  70
ENDBRANCH  37  62
ENDBRANCH  11  12
ENDBRANCH   4   6
ENDBRANCH   3   4
ENDBRANCH   2   3
ENDBRANCH   1   2
BRANCH   1  74
ATOM     74  O   UNL A   1      42.430  22.948  28.012  1.00  0.00    -0.374 OA
BRANCH  74  75
ATOM     75  C   UNL A   1      43.771  22.978  28.466  1.00  0.00     0.202 C 
BRANCH  75  76
ATOM     76  C   UNL A   1      44.655  23.220  27.248  1.00  0.00     0.261 C 
BRANCH  76  77
ATOM     77  O   UNL A   1      44.744  24.643  27.033  1.00  0.00    -0.460 OA
BRANCH  77  78
ATOM     78  C   UNL A   1      45.907  25.260  27.398  1.00  0.00     0.340 C 
ATOM     79  O   UNL A   1      46.426  25.238  28.495  1.00  0.00    -0.246 OA
BRANCH  78  80
ATOM     80  C   UNL A   1      46.426  25.919  26.174  1.00  0.00     0.088 A 
ATOM     81  C   UNL A   1      47.442  25.244  25.470  1.00  0.00     0.019 A 
ATOM     82  C   UNL A   1      46.068  27.206  25.753  1.00  0.00     0.103 A 
ATOM     83  C   UNL A   1      48.086  25.856  24.404  1.00  0.00     0.021 A 
ATOM     84  N   UNL A   1      46.721  27.810  24.707  1.00  0.00    -0.254 NA
ATOM     85  C   UNL A   1      47.691  27.130  24.062  1.00  0.00     0.112 A 
BRANCH  82  86
ATOM     86  C   UNL A   1      45.086  28.102  26.395  1.00  0.00     0.089 A 
ATOM     87  C   UNL A   1      45.448  28.883  27.502  1.00  0.00     0.031 A 
ATOM     88  N   UNL A   1      43.852  28.185  25.848  1.00  0.00    -0.255 NA
ATOM     89  C   UNL A   1      44.503  29.712  28.103  1.00  0.00     0.004 A 
ATOM     90  C   UNL A   1      42.955  29.011  26.440  1.00  0.00     0.112 A 
ATOM     91  C   UNL A   1      43.228  29.778  27.563  1.00  0.00     0.020 A 
ENDBRANCH  82  86
ENDBRANCH  78  80
ENDBRANCH  77  78
ENDBRANCH  76  77
ENDBRANCH  75  76
ENDBRANCH  74  75
ENDBRANCH   1  74
TORSDOF 18
ENDMDL
