MODEL 1
REMARK VINA RESULT:     -10.9      0.000      0.000
REMARK SMILES CCCNC(=O)N1[C@@H](C(=O)OCCOCCOC(=O)c2ccc(-c3c4nc(c(-c5c(F)cc(S(=O)(=O)[O-])cc5F)c5ccc([nH]5)c(-c5c(F)cc(S(=O)(=O)[O-])cc5F)c5nc(c(-c6c(F)cc(S(=O)(=O)[O-])cc6F)c6ccc3[nH]6)C=C5)C=C4)cc2)CC[C@H]2CCCC[C@@H]21
REMARK SMILES IDX 14 1 13 2 12 3 11 4 9 5 10 6 8 7 7 8 93 9 86 10 88 11 92 12
REMARK SMILES IDX 87 13 89 14 91 15 90 16 5 17 4 18 6 20 3 21 2 22 1 23 15 24
REMARK SMILES IDX 16 25 17 26 18 27 19 28 20 29 21 30 85 31 22 32 84 33 23 34
REMARK SMILES IDX 24 35 25 36 78 37 26 38 83 39 77 40 79 41 27 42 82 43 76 44
REMARK SMILES IDX 75 45 28 47 62 48 41 49 61 50 42 51 45 52 60 53 80 54 43 55
REMARK SMILES IDX 44 56 59 58 81 59 46 60 29 61 30 62 39 63 31 64 32 65 38 66
REMARK SMILES IDX 40 67 33 68 34 69 35 70 36 71 37 72 63 73 64 74 73 75 65 76
REMARK SMILES IDX 66 77 72 78 74 79 67 80 68 81 69 82 70 83 71 84 47 85 48 86
REMARK SMILES IDX 57 87 49 88 50 89 56 90 58 91 51 92 52 93 53 94 54 95 55 96
REMARK H PARENT 4 19 79 46 45 57
REMARK Flexibility Score: inf
ROOT
ATOM      1  O   UNL A   1      35.165  21.695  24.605  1.00  0.00    -0.374 OA
ENDROOT
BRANCH   1   2
ATOM      2  C   UNL A   1      33.886  21.050  24.641  1.00  0.00     0.202 C 
BRANCH   2   3
ATOM      3  C   UNL A   1      33.092  21.190  25.943  1.00  0.00     0.261 C 
BRANCH   3   4
ATOM      4  O   UNL A   1      32.214  22.326  25.874  1.00  0.00    -0.462 OA
BRANCH   4   5
ATOM      5  C   UNL A   1      32.277  23.214  26.882  1.00  0.00     0.329 C 
ATOM      6  O   UNL A   1      32.357  22.892  28.068  1.00  0.00    -0.250 OA
BRANCH   5   7
ATOM      7  C   UNL A   1      32.423  24.701  26.461  1.00  0.00     0.197 C 
ATOM      8  N   UNL A   1      31.432  25.760  26.143  1.00  0.00    -0.308 N 
ATOM      9  C   UNL A   1      31.983  27.130  26.204  1.00  0.00     0.091 C 
ATOM     10  C   UNL A   1      33.471  24.742  25.307  1.00  0.00     0.038 C 
ATOM     11  C   UNL A   1      33.520  27.142  26.023  1.00  0.00     0.012 C 
ATOM     12  C   UNL A   1      31.643  27.873  27.502  1.00  0.00     0.025 C 
ATOM     13  C   UNL A   1      33.911  26.166  24.922  1.00  0.00     0.008 C 
ATOM     14  C   UNL A   1      34.000  28.572  25.808  1.00  0.00     0.006 C 
ATOM     15  C   UNL A   1      32.166  29.314  27.428  1.00  0.00     0.002 C 
ATOM     16  C   UNL A   1      33.649  29.406  27.044  1.00  0.00     0.000 C 
BRANCH   8  17
ATOM     17  C   UNL A   1      30.137  25.471  25.816  1.00  0.00     0.318 C 
ATOM     18  N   UNL A   1      29.695  25.576  24.538  1.00  0.00    -0.338 N 
ATOM     19  H   UNL A   1      28.713  25.608  24.466  1.00  0.00     0.165 HD
ATOM     20  O   UNL A   1      29.304  25.114  26.646  1.00  0.00    -0.249 OA
BRANCH  18  21
ATOM     21  C   UNL A   1      30.372  25.650  23.255  1.00  0.00     0.117 C 
BRANCH  21  22
ATOM     22  C   UNL A   1      30.565  27.075  22.735  1.00  0.00     0.018 C 
ATOM     23  C   UNL A   1      29.640  28.110  23.351  1.00  0.00     0.006 C 
ENDBRANCH  21  22
ENDBRANCH  18  21
ENDBRANCH   8  17
ENDBRANCH   5   7
ENDBRANCH   4   5
ENDBRANCH   3   4
ENDBRANCH   2   3
ENDBRANCH   1   2
BRANCH   1  24
ATOM     24  C   UNL A   1      36.276  20.916  25.039  1.00  0.00     0.202 C 
BRANCH  24  25
ATOM     25  C   UNL A   1      37.669  21.541  24.948  1.00  0.00     0.261 C 
BRANCH  25  26
ATOM     26  O   UNL A   1      38.027  22.261  26.133  1.00  0.00    -0.460 OA
BRANCH  26  27
ATOM     27  C   UNL A   1      39.351  22.233  26.405  1.00  0.00     0.338 C 
ATOM     28  O   UNL A   1      40.162  21.392  26.037  1.00  0.00    -0.246 OA
BRANCH  27  29
ATOM     29  C   UNL A   1      39.748  23.474  27.089  1.00  0.00     0.060 A 
ATOM     30  C   UNL A   1      39.042  24.638  26.763  1.00  0.00     0.016 A 
ATOM     31  C   UNL A   1      40.821  23.514  27.981  1.00  0.00     0.016 A 
ATOM     32  C   UNL A   1      39.447  25.863  27.278  1.00  0.00     0.010 A 
ATOM     33  C   UNL A   1      41.232  24.747  28.491  1.00  0.00     0.010 A 
ATOM     34  C   UNL A   1      40.575  25.929  28.106  1.00  0.00    -0.014 A 
BRANCH  34  35
ATOM     35  C   UNL A   1      41.170  27.248  28.420  1.00  0.00     0.031 A 
ATOM     36  C   UNL A   1      42.647  27.436  28.211  1.00  0.00     0.074 A 
ATOM     37  C   UNL A   1      40.403  28.265  28.849  1.00  0.00     0.049 A 
ATOM     38  N   UNL A   1      43.396  28.476  28.466  1.00  0.00    -0.248 NA
ATOM     39  C   UNL A   1      43.380  26.293  27.638  1.00  0.00     0.031 C 
ATOM     40  C   UNL A   1      38.954  28.208  29.040  1.00  0.00     0.029 A 
ATOM     41  N   UNL A   1      40.740  29.545  29.208  1.00  0.00    -0.354 N 
ATOM     42  C   UNL A   1      44.686  28.113  28.096  1.00  0.00     0.074 A 
ATOM     43  C   UNL A   1      44.625  26.744  27.630  1.00  0.00     0.031 C 
ATOM     44  C   UNL A   1      38.528  29.400  29.493  1.00  0.00     0.029 A 
ATOM     45  C   UNL A   1      39.676  30.288  29.658  1.00  0.00     0.049 A 
ATOM     46  H   UNL A   1      41.658  29.897  29.150  1.00  0.00     0.167 HD
ATOM     47  C   UNL A   1      45.816  28.858  28.131  1.00  0.00     0.037 A 
ATOM     48  C   UNL A   1      39.643  31.535  30.167  1.00  0.00     0.037 A 
ATOM     49  C   UNL A   1      45.862  30.219  28.597  1.00  0.00     0.049 A 
ATOM     50  C   UNL A   1      40.926  32.320  30.269  1.00  0.00     0.074 A 
ATOM     51  C   UNL A   1      46.953  31.067  28.673  1.00  0.00     0.029 A 
ATOM     52  N   UNL A   1      44.768  30.931  29.070  1.00  0.00    -0.354 N 
ATOM     53  N   UNL A   1      42.138  31.970  29.909  1.00  0.00    -0.248 NA
ATOM     54  C   UNL A   1      40.837  33.671  30.842  1.00  0.00     0.031 C 
ATOM     55  C   UNL A   1      46.528  32.273  29.238  1.00  0.00     0.029 A 
ATOM     56  C   UNL A   1      45.161  32.200  29.458  1.00  0.00     0.049 A 
ATOM     57  H   UNL A   1      43.848  30.585  29.121  1.00  0.00     0.167 HD
ATOM     58  C   UNL A   1      42.950  33.068  30.178  1.00  0.00     0.074 A 
ATOM     59  C   UNL A   1      42.088  34.096  30.727  1.00  0.00     0.031 C 
ATOM     60  C   UNL A   1      44.284  33.216  29.986  1.00  0.00     0.037 A 
BRANCH  47  61
ATOM     61  C   UNL A   1      47.096  28.208  27.680  1.00  0.00     0.058 A 
ATOM     62  C   UNL A   1      47.909  27.481  28.563  1.00  0.00     0.135 A 
ATOM     63  C   UNL A   1      47.498  28.288  26.337  1.00  0.00     0.135 A 
ATOM     64  F   UNL A   1      47.583  27.388  29.862  1.00  0.00    -0.206 F 
ATOM     65  C   UNL A   1      49.089  26.878  28.137  1.00  0.00     0.059 A 
ATOM     66  C   UNL A   1      48.659  27.668  25.882  1.00  0.00     0.059 A 
ATOM     67  F   UNL A   1      46.761  28.974  25.449  1.00  0.00    -0.206 F 
ATOM     68  C   UNL A   1      49.454  26.976  26.793  1.00  0.00     0.060 A 
BRANCH  68  69
ATOM     69  S   UNL A   1      50.983  26.181  26.255  1.00  0.00     0.124 S 
ATOM     70  O   UNL A   1      51.991  27.074  26.820  1.00  0.00    -0.237 OA
ATOM     71  O   UNL A   1      50.885  24.864  26.875  1.00  0.00    -0.237 OA
ATOM     72  O   UNL A   1      50.880  26.195  24.800  1.00  0.00    -0.744 OA
ENDBRANCH  68  69
ENDBRANCH  47  61
BRANCH  48  73
ATOM     73  C   UNL A   1      38.353  32.117  30.631  1.00  0.00     0.058 A 
ATOM     74  C   UNL A   1      37.549  32.878  29.770  1.00  0.00     0.135 A 
ATOM     75  C   UNL A   1      37.902  31.929  31.948  1.00  0.00     0.135 A 
ATOM     76  F   UNL A   1      37.941  33.094  28.504  1.00  0.00    -0.206 F 
ATOM     77  C   UNL A   1      36.355  33.448  30.199  1.00  0.00     0.059 A 
ATOM     78  C   UNL A   1      36.699  32.465  32.393  1.00  0.00     0.059 A 
ATOM     79  F   UNL A   1      38.630  31.202  32.811  1.00  0.00    -0.206 F 
ATOM     80  C   UNL A   1      35.937  33.233  31.514  1.00  0.00     0.060 A 
BRANCH  80  81
ATOM     81  S   UNL A   1      34.369  33.949  32.051  1.00  0.00     0.124 S 
ATOM     82  O   UNL A   1      33.725  32.806  32.689  1.00  0.00    -0.237 OA
ATOM     83  O   UNL A   1      34.810  35.015  32.945  1.00  0.00    -0.237 OA
ATOM     84  O   UNL A   1      33.760  34.401  30.803  1.00  0.00    -0.744 OA
ENDBRANCH  80  81
ENDBRANCH  48  73
BRANCH  60  85
ATOM     85  C   UNL A   1      44.892  34.552  30.316  1.00  0.00     0.058 A 
ATOM     86  C   UNL A   1      45.404  34.842  31.590  1.00  0.00     0.135 A 
ATOM     87  C   UNL A   1      45.023  35.534  29.319  1.00  0.00     0.135 A 
ATOM     88  F   UNL A   1      45.301  33.942  32.581  1.00  0.00    -0.206 F 
ATOM     89  C   UNL A   1      46.004  36.065  31.871  1.00  0.00     0.059 A 
ATOM     90  C   UNL A   1      45.646  36.752  29.569  1.00  0.00     0.059 A 
ATOM     91  F   UNL A   1      44.561  35.305  28.080  1.00  0.00    -0.206 F 
ATOM     92  C   UNL A   1      46.125  37.013  30.852  1.00  0.00     0.060 A 
BRANCH  92  93
ATOM     93  S   UNL A   1      46.944  38.579  31.219  1.00  0.00     0.124 S 
ATOM     94  O   UNL A   1      48.344  38.173  31.277  1.00  0.00    -0.237 OA
ATOM     95  O   UNL A   1      46.571  39.402  30.072  1.00  0.00    -0.237 OA
ATOM     96  O   UNL A   1      46.354  38.984  32.491  1.00  0.00    -0.744 OA
ENDBRANCH  92  93
ENDBRANCH  60  85
ENDBRANCH  34  35
ENDBRANCH  27  29
ENDBRANCH  26  27
ENDBRANCH  25  26
ENDBRANCH  24  25
ENDBRANCH   1  24
TORSDOF 20
ENDMDL
MODEL 2
REMARK VINA RESULT:     -10.7      4.948      6.390
REMARK SMILES CCCNC(=O)N1[C@@H](C(=O)OCCOCCOC(=O)c2ccc(-c3c4nc(c(-c5c(F)cc(S(=O)(=O)[O-])cc5F)c5ccc([nH]5)c(-c5c(F)cc(S(=O)(=O)[O-])cc5F)c5nc(c(-c6c(F)cc(S(=O)(=O)[O-])cc6F)c6ccc3[nH]6)C=C5)C=C4)cc2)CC[C@H]2CCCC[C@@H]21
REMARK SMILES IDX 14 1 13 2 12 3 11 4 9 5 10 6 8 7 7 8 93 9 86 10 88 11 92 12
REMARK SMILES IDX 87 13 89 14 91 15 90 16 5 17 4 18 6 20 3 21 2 22 1 23 15 24
REMARK SMILES IDX 16 25 17 26 18 27 19 28 20 29 21 30 85 31 22 32 84 33 23 34
REMARK SMILES IDX 24 35 25 36 78 37 26 38 83 39 77 40 79 41 27 42 82 43 76 44
REMARK SMILES IDX 75 45 28 47 62 48 41 49 61 50 42 51 45 52 60 53 80 54 43 55
REMARK SMILES IDX 44 56 59 58 81 59 46 60 29 61 30 62 39 63 31 64 32 65 38 66
REMARK SMILES IDX 40 67 33 68 34 69 35 70 36 71 37 72 63 73 64 74 73 75 65 76
REMARK SMILES IDX 66 77 72 78 74 79 67 80 68 81 69 82 70 83 71 84 47 85 48 86
REMARK SMILES IDX 57 87 49 88 50 89 56 90 58 91 51 92 52 93 53 94 54 95 55 96
REMARK H PARENT 4 19 79 46 45 57
REMARK Flexibility Score: inf
ROOT
ATOM      1  O   UNL A   1      37.921  22.074  26.386  1.00  0.00    -0.374 OA
ENDROOT
BRANCH   1   2
ATOM      2  C   UNL A   1      37.138  21.675  25.256  1.00  0.00     0.202 C 
BRANCH   2   3
ATOM      3  C   UNL A   1      35.617  21.759  25.420  1.00  0.00     0.261 C 
BRANCH   3   4
ATOM      4  O   UNL A   1      35.174  23.119  25.280  1.00  0.00    -0.462 OA
BRANCH   4   5
ATOM      5  C   UNL A   1      34.298  23.576  26.192  1.00  0.00     0.329 C 
ATOM      6  O   UNL A   1      34.101  23.032  27.280  1.00  0.00    -0.250 OA
BRANCH   5   7
ATOM      7  C   UNL A   1      33.657  24.955  25.877  1.00  0.00     0.197 C 
ATOM      8  N   UNL A   1      32.275  25.480  26.021  1.00  0.00    -0.308 N 
ATOM      9  C   UNL A   1      32.192  26.955  26.004  1.00  0.00     0.091 C 
ATOM     10  C   UNL A   1      34.109  25.344  24.437  1.00  0.00     0.038 C 
ATOM     11  C   UNL A   1      33.413  27.592  25.296  1.00  0.00     0.012 C 
ATOM     12  C   UNL A   1      32.061  27.581  27.398  1.00  0.00     0.025 C 
ATOM     13  C   UNL A   1      33.753  26.791  24.047  1.00  0.00     0.008 C 
ATOM     14  C   UNL A   1      33.148  29.073  25.051  1.00  0.00     0.006 C 
ATOM     15  C   UNL A   1      31.878  29.100  27.270  1.00  0.00     0.002 C 
ATOM     16  C   UNL A   1      32.947  29.772  26.399  1.00  0.00     0.000 C 
BRANCH   8  17
ATOM     17  C   UNL A   1      31.192  24.655  26.147  1.00  0.00     0.318 C 
ATOM     18  N   UNL A   1      30.406  24.362  25.082  1.00  0.00    -0.338 N 
ATOM     19  H   UNL A   1      29.528  23.994  25.334  1.00  0.00     0.165 HD
ATOM     20  O   UNL A   1      30.863  24.146  27.215  1.00  0.00    -0.249 OA
BRANCH  18  21
ATOM     21  C   UNL A   1      30.593  24.479  23.646  1.00  0.00     0.117 C 
BRANCH  21  22
ATOM     22  C   UNL A   1      30.245  25.857  23.083  1.00  0.00     0.018 C 
ATOM     23  C   UNL A   1      29.224  26.638  23.893  1.00  0.00     0.006 C 
ENDBRANCH  21  22
ENDBRANCH  18  21
ENDBRANCH   8  17
ENDBRANCH   5   7
ENDBRANCH   4   5
ENDBRANCH   3   4
ENDBRANCH   2   3
ENDBRANCH   1   2
BRANCH   1  24
ATOM     24  C   UNL A   1      39.149  22.736  26.100  1.00  0.00     0.202 C 
BRANCH  24  25
ATOM     25  C   UNL A   1      40.414  22.236  26.800  1.00  0.00     0.261 C 
BRANCH  25  26
ATOM     26  O   UNL A   1      40.883  23.144  27.803  1.00  0.00    -0.460 OA
BRANCH  26  27
ATOM     27  C   UNL A   1      41.553  24.206  27.303  1.00  0.00     0.338 C 
ATOM     28  O   UNL A   1      42.259  24.227  26.302  1.00  0.00    -0.246 OA
BRANCH  27  29
ATOM     29  C   UNL A   1      41.188  25.423  28.043  1.00  0.00     0.060 A 
ATOM     30  C   UNL A   1      42.184  26.394  28.208  1.00  0.00     0.016 A 
ATOM     31  C   UNL A   1      39.926  25.590  28.614  1.00  0.00     0.016 A 
ATOM     32  C   UNL A   1      41.942  27.509  29.001  1.00  0.00     0.010 A 
ATOM     33  C   UNL A   1      39.687  26.706  29.418  1.00  0.00     0.010 A 
ATOM     34  C   UNL A   1      40.708  27.645  29.650  1.00  0.00    -0.014 A 
BRANCH  34  35
ATOM     35  C   UNL A   1      40.552  28.669  30.708  1.00  0.00     0.031 A 
ATOM     36  C   UNL A   1      41.436  28.585  31.922  1.00  0.00     0.074 A 
ATOM     37  C   UNL A   1      39.666  29.670  30.572  1.00  0.00     0.049 A 
ATOM     38  N   UNL A   1      41.445  29.331  32.995  1.00  0.00    -0.248 NA
ATOM     39  C   UNL A   1      42.446  27.512  31.926  1.00  0.00     0.031 C 
ATOM     40  C   UNL A   1      38.795  29.876  29.416  1.00  0.00     0.029 A 
ATOM     41  N   UNL A   1      39.350  30.701  31.420  1.00  0.00    -0.354 N 
ATOM     42  C   UNL A   1      42.450  28.814  33.806  1.00  0.00     0.074 A 
ATOM     43  C   UNL A   1      43.007  27.671  33.116  1.00  0.00     0.031 C 
ATOM     44  C   UNL A   1      38.033  30.962  29.633  1.00  0.00     0.029 A 
ATOM     45  C   UNL A   1      38.337  31.504  30.955  1.00  0.00     0.049 A 
ATOM     46  H   UNL A   1      39.806  30.850  32.280  1.00  0.00     0.167 HD
ATOM     47  C   UNL A   1      42.875  29.261  35.011  1.00  0.00     0.037 A 
ATOM     48  C   UNL A   1      37.713  32.541  31.546  1.00  0.00     0.037 A 
ATOM     49  C   UNL A   1      42.312  30.401  35.685  1.00  0.00     0.049 A 
ATOM     50  C   UNL A   1      38.152  32.975  32.922  1.00  0.00     0.074 A 
ATOM     51  C   UNL A   1      42.670  30.941  36.908  1.00  0.00     0.029 A 
ATOM     52  N   UNL A   1      41.269  31.174  35.196  1.00  0.00    -0.354 N 
ATOM     53  N   UNL A   1      39.108  32.484  33.675  1.00  0.00    -0.248 NA
ATOM     54  C   UNL A   1      37.432  34.105  33.525  1.00  0.00     0.031 C 
ATOM     55  C   UNL A   1      41.811  32.010  37.180  1.00  0.00     0.029 A 
ATOM     56  C   UNL A   1      40.957  32.174  36.100  1.00  0.00     0.049 A 
ATOM     57  H   UNL A   1      40.818  31.033  34.332  1.00  0.00     0.167 HD
ATOM     58  C   UNL A   1      39.127  33.267  34.826  1.00  0.00     0.074 A 
ATOM     59  C   UNL A   1      38.090  34.267  34.665  1.00  0.00     0.031 C 
ATOM     60  C   UNL A   1      39.931  33.172  35.914  1.00  0.00     0.037 A 
BRANCH  47  61
ATOM     61  C   UNL A   1      43.984  28.500  35.687  1.00  0.00     0.058 A 
ATOM     62  C   UNL A   1      45.336  28.794  35.451  1.00  0.00     0.135 A 
ATOM     63  C   UNL A   1      43.688  27.481  36.607  1.00  0.00     0.135 A 
ATOM     64  F   UNL A   1      45.676  29.745  34.566  1.00  0.00    -0.206 F 
ATOM     65  C   UNL A   1      46.356  28.090  36.082  1.00  0.00     0.059 A 
ATOM     66  C   UNL A   1      44.691  26.783  37.273  1.00  0.00     0.059 A 
ATOM     67  F   UNL A   1      42.412  27.154  36.868  1.00  0.00    -0.206 F 
ATOM     68  C   UNL A   1      46.022  27.086  36.994  1.00  0.00     0.060 A 
BRANCH  68  69
ATOM     69  S   UNL A   1      47.357  26.187  37.812  1.00  0.00     0.124 S 
ATOM     70  O   UNL A   1      47.850  27.189  38.754  1.00  0.00    -0.237 OA
ATOM     71  O   UNL A   1      46.654  25.055  38.404  1.00  0.00    -0.237 OA
ATOM     72  O   UNL A   1      48.265  25.856  36.719  1.00  0.00    -0.744 OA
ENDBRANCH  68  69
ENDBRANCH  47  61
BRANCH  48  73
ATOM     73  C   UNL A   1      36.598  33.237  30.846  1.00  0.00     0.058 A 
ATOM     74  C   UNL A   1      35.264  33.035  31.226  1.00  0.00     0.135 A 
ATOM     75  C   UNL A   1      36.846  34.115  29.778  1.00  0.00     0.135 A 
ATOM     76  F   UNL A   1      34.974  32.198  32.234  1.00  0.00    -0.206 F 
ATOM     77  C   UNL A   1      34.213  33.660  30.563  1.00  0.00     0.059 A 
ATOM     78  C   UNL A   1      35.815  34.774  29.117  1.00  0.00     0.059 A 
ATOM     79  F   UNL A   1      38.107  34.351  29.379  1.00  0.00    -0.206 F 
ATOM     80  C   UNL A   1      34.500  34.531  29.509  1.00  0.00     0.060 A 
BRANCH  80  81
ATOM     81  S   UNL A   1      33.130  35.363  28.678  1.00  0.00     0.124 S 
ATOM     82  O   UNL A   1      33.835  36.328  27.841  1.00  0.00    -0.237 OA
ATOM     83  O   UNL A   1      32.484  34.260  27.974  1.00  0.00    -0.237 OA
ATOM     84  O   UNL A   1      32.360  35.929  29.781  1.00  0.00    -0.744 OA
ENDBRANCH  80  81
ENDBRANCH  48  73
BRANCH  60  85
ATOM     85  C   UNL A   1      39.766  34.205  36.996  1.00  0.00     0.058 A 
ATOM     86  C   UNL A   1      39.003  33.960  38.148  1.00  0.00     0.135 A 
ATOM     87  C   UNL A   1      40.438  35.436  36.905  1.00  0.00     0.135 A 
ATOM     88  F   UNL A   1      38.336  32.803  38.283  1.00  0.00    -0.206 F 
ATOM     89  C   UNL A   1      38.893  34.906  39.162  1.00  0.00     0.059 A 
ATOM     90  C   UNL A   1      40.367  36.384  37.920  1.00  0.00     0.059 A 
ATOM     91  F   UNL A   1      41.191  35.717  35.830  1.00  0.00    -0.206 F 
ATOM     92  C   UNL A   1      39.583  36.115  39.041  1.00  0.00     0.060 A 
BRANCH  92  93
ATOM     93  S   UNL A   1      39.467  37.316  40.383  1.00  0.00     0.124 S 
ATOM     94  O   UNL A   1      38.791  38.429  39.724  1.00  0.00    -0.237 OA
ATOM     95  O   UNL A   1      38.679  36.596  41.378  1.00  0.00    -0.237 OA
ATOM     96  O   UNL A   1      40.860  37.556  40.748  1.00  0.00    -0.744 OA
ENDBRANCH  92  93
ENDBRANCH  60  85
ENDBRANCH  34  35
ENDBRANCH  27  29
ENDBRANCH  26  27
ENDBRANCH  25  26
ENDBRANCH  24  25
ENDBRANCH   1  24
TORSDOF 20
ENDMDL
MODEL 3
REMARK VINA RESULT:     -10.7      5.108      6.475
REMARK SMILES CCCNC(=O)N1[C@@H](C(=O)OCCOCCOC(=O)c2ccc(-c3c4nc(c(-c5c(F)cc(S(=O)(=O)[O-])cc5F)c5ccc([nH]5)c(-c5c(F)cc(S(=O)(=O)[O-])cc5F)c5nc(c(-c6c(F)cc(S(=O)(=O)[O-])cc6F)c6ccc3[nH]6)C=C5)C=C4)cc2)CC[C@H]2CCCC[C@@H]21
REMARK SMILES IDX 14 1 13 2 12 3 11 4 9 5 10 6 8 7 7 8 93 9 86 10 88 11 92 12
REMARK SMILES IDX 87 13 89 14 91 15 90 16 5 17 4 18 6 20 3 21 2 22 1 23 15 24
REMARK SMILES IDX 16 25 17 26 18 27 19 28 20 29 21 30 85 31 22 32 84 33 23 34
REMARK SMILES IDX 24 35 25 36 78 37 26 38 83 39 77 40 79 41 27 42 82 43 76 44
REMARK SMILES IDX 75 45 28 47 62 48 41 49 61 50 42 51 45 52 60 53 80 54 43 55
REMARK SMILES IDX 44 56 59 58 81 59 46 60 29 61 30 62 39 63 31 64 32 65 38 66
REMARK SMILES IDX 40 67 33 68 34 69 35 70 36 71 37 72 63 73 64 74 73 75 65 76
REMARK SMILES IDX 66 77 72 78 74 79 67 80 68 81 69 82 70 83 71 84 47 85 48 86
REMARK SMILES IDX 57 87 49 88 50 89 56 90 58 91 51 92 52 93 53 94 54 95 55 96
REMARK H PARENT 4 19 79 46 45 57
REMARK Flexibility Score: inf
ROOT
ATOM      1  O   UNL A   1      37.138  22.678  24.454  1.00  0.00    -0.374 OA
ENDROOT
BRANCH   1   2
ATOM      2  C   UNL A   1      35.709  22.769  24.439  1.00  0.00     0.202 C 
BRANCH   2   3
ATOM      3  C   UNL A   1      35.120  24.125  24.040  1.00  0.00     0.261 C 
BRANCH   3   4
ATOM      4  O   UNL A   1      33.889  23.943  23.322  1.00  0.00    -0.462 OA
BRANCH   4   5
ATOM      5  C   UNL A   1      33.417  24.998  22.632  1.00  0.00     0.329 C 
ATOM      6  O   UNL A   1      33.144  24.959  21.432  1.00  0.00    -0.250 OA
BRANCH   5   7
ATOM      7  C   UNL A   1      33.059  26.250  23.478  1.00  0.00     0.197 C 
ATOM      8  N   UNL A   1      31.777  26.766  24.021  1.00  0.00    -0.308 N 
ATOM      9  C   UNL A   1      31.943  27.746  25.114  1.00  0.00     0.091 C 
ATOM     10  C   UNL A   1      33.750  27.468  22.794  1.00  0.00     0.038 C 
ATOM     11  C   UNL A   1      33.333  28.427  25.070  1.00  0.00     0.012 C 
ATOM     12  C   UNL A   1      31.741  27.149  26.512  1.00  0.00     0.025 C 
ATOM     13  C   UNL A   1      33.692  28.761  23.629  1.00  0.00     0.008 C 
ATOM     14  C   UNL A   1      33.350  29.616  26.023  1.00  0.00     0.006 C 
ATOM     15  C   UNL A   1      31.830  28.260  27.568  1.00  0.00     0.002 C 
ATOM     16  C   UNL A   1      33.098  29.115  27.449  1.00  0.00     0.000 C 
BRANCH   8  17
ATOM     17  C   UNL A   1      30.565  26.364  23.532  1.00  0.00     0.318 C 
ATOM     18  N   UNL A   1      29.699  27.253  22.986  1.00  0.00    -0.338 N 
ATOM     19  H   UNL A   1      28.778  26.911  22.920  1.00  0.00     0.165 HD
ATOM     20  O   UNL A   1      30.187  25.196  23.566  1.00  0.00    -0.249 OA
BRANCH  18  21
ATOM     21  C   UNL A   1      29.851  28.606  22.479  1.00  0.00     0.117 C 
BRANCH  21  22
ATOM     22  C   UNL A   1      28.547  29.404  22.437  1.00  0.00     0.018 C 
ATOM     23  C   UNL A   1      27.357  28.719  23.088  1.00  0.00     0.006 C 
ENDBRANCH  21  22
ENDBRANCH  18  21
ENDBRANCH   8  17
ENDBRANCH   5   7
ENDBRANCH   4   5
ENDBRANCH   3   4
ENDBRANCH   2   3
ENDBRANCH   1   2
BRANCH   1  24
ATOM     24  C   UNL A   1      37.763  22.769  25.731  1.00  0.00     0.202 C 
BRANCH  24  25
ATOM     25  C   UNL A   1      38.314  24.128  26.166  1.00  0.00     0.261 C 
BRANCH  25  26
ATOM     26  O   UNL A   1      39.685  24.061  26.572  1.00  0.00    -0.460 OA
BRANCH  26  27
ATOM     27  C   UNL A   1      40.387  25.184  26.299  1.00  0.00     0.338 C 
ATOM     28  O   UNL A   1      40.725  25.591  25.194  1.00  0.00    -0.246 OA
BRANCH  27  29
ATOM     29  C   UNL A   1      40.563  25.977  27.525  1.00  0.00     0.060 A 
ATOM     30  C   UNL A   1      39.600  25.822  28.531  1.00  0.00     0.016 A 
ATOM     31  C   UNL A   1      41.606  26.892  27.669  1.00  0.00     0.016 A 
ATOM     32  C   UNL A   1      39.639  26.631  29.659  1.00  0.00     0.010 A 
ATOM     33  C   UNL A   1      41.639  27.711  28.799  1.00  0.00     0.010 A 
ATOM     34  C   UNL A   1      40.631  27.613  29.776  1.00  0.00    -0.014 A 
BRANCH  34  35
ATOM     35  C   UNL A   1      40.506  28.651  30.824  1.00  0.00     0.031 A 
ATOM     36  C   UNL A   1      41.412  28.572  32.022  1.00  0.00     0.074 A 
ATOM     37  C   UNL A   1      39.628  29.660  30.693  1.00  0.00     0.049 A 
ATOM     38  N   UNL A   1      41.449  29.329  33.086  1.00  0.00    -0.248 NA
ATOM     39  C   UNL A   1      42.410  27.488  32.020  1.00  0.00     0.031 C 
ATOM     40  C   UNL A   1      38.737  29.862  29.551  1.00  0.00     0.029 A 
ATOM     41  N   UNL A   1      39.339  30.704  31.535  1.00  0.00    -0.354 N 
ATOM     42  C   UNL A   1      42.463  28.811  33.884  1.00  0.00     0.074 A 
ATOM     43  C   UNL A   1      42.995  27.654  33.197  1.00  0.00     0.031 C 
ATOM     44  C   UNL A   1      37.991  30.959  29.771  1.00  0.00     0.029 A 
ATOM     45  C   UNL A   1      38.326  31.512  31.080  1.00  0.00     0.049 A 
ATOM     46  H   UNL A   1      39.812  30.858  32.385  1.00  0.00     0.167 HD
ATOM     47  C   UNL A   1      42.917  29.267  35.075  1.00  0.00     0.037 A 
ATOM     48  C   UNL A   1      37.724  32.563  31.671  1.00  0.00     0.037 A 
ATOM     49  C   UNL A   1      42.378  30.420  35.747  1.00  0.00     0.049 A 
ATOM     50  C   UNL A   1      38.194  33.008  33.033  1.00  0.00     0.074 A 
ATOM     51  C   UNL A   1      42.765  30.971  36.956  1.00  0.00     0.029 A 
ATOM     52  N   UNL A   1      41.334  31.199  35.269  1.00  0.00    -0.354 N 
ATOM     53  N   UNL A   1      39.158  32.515  33.774  1.00  0.00    -0.248 NA
ATOM     54  C   UNL A   1      37.498  34.152  33.637  1.00  0.00     0.031 C 
ATOM     55  C   UNL A   1      41.922  32.051  37.232  1.00  0.00     0.029 A 
ATOM     56  C   UNL A   1      41.050  32.213  36.167  1.00  0.00     0.049 A 
ATOM     57  H   UNL A   1      40.866  31.053  34.415  1.00  0.00     0.167 HD
ATOM     58  C   UNL A   1      39.208  33.311  34.915  1.00  0.00     0.074 A 
ATOM     59  C   UNL A   1      38.179  34.320  34.762  1.00  0.00     0.031 C 
ATOM     60  C   UNL A   1      40.032  33.219  35.989  1.00  0.00     0.037 A 
BRANCH  47  61
ATOM     61  C   UNL A   1      44.030  28.501  35.738  1.00  0.00     0.058 A 
ATOM     62  C   UNL A   1      43.776  27.454  36.638  1.00  0.00     0.135 A 
ATOM     63  C   UNL A   1      45.370  28.801  35.445  1.00  0.00     0.135 A 
ATOM     64  F   UNL A   1      42.513  27.139  36.969  1.00  0.00    -0.206 F 
ATOM     65  C   UNL A   1      44.810  26.747  37.243  1.00  0.00     0.059 A 
ATOM     66  C   UNL A   1      46.421  28.087  36.016  1.00  0.00     0.059 A 
ATOM     67  F   UNL A   1      45.672  29.795  34.595  1.00  0.00    -0.206 F 
ATOM     68  C   UNL A   1      46.130  27.071  36.924  1.00  0.00     0.060 A 
BRANCH  68  69
ATOM     69  S   UNL A   1      47.460  26.138  37.711  1.00  0.00     0.124 S 
ATOM     70  O   UNL A   1      46.765  24.918  38.112  1.00  0.00    -0.237 OA
ATOM     71  O   UNL A   1      48.423  25.992  36.626  1.00  0.00    -0.237 OA
ATOM     72  O   UNL A   1      47.882  27.005  38.807  1.00  0.00    -0.744 OA
ENDBRANCH  68  69
ENDBRANCH  47  61
BRANCH  48  73
ATOM     73  C   UNL A   1      36.604  33.263  30.984  1.00  0.00     0.058 A 
ATOM     74  C   UNL A   1      35.269  33.013  31.333  1.00  0.00     0.135 A 
ATOM     75  C   UNL A   1      36.847  34.193  29.960  1.00  0.00     0.135 A 
ATOM     76  F   UNL A   1      34.984  32.125  32.299  1.00  0.00    -0.206 F 
ATOM     77  C   UNL A   1      34.213  33.642  30.681  1.00  0.00     0.059 A 
ATOM     78  C   UNL A   1      35.810  34.856  29.312  1.00  0.00     0.059 A 
ATOM     79  F   UNL A   1      38.107  34.476  29.592  1.00  0.00    -0.206 F 
ATOM     80  C   UNL A   1      34.495  34.566  29.672  1.00  0.00     0.060 A 
BRANCH  80  81
ATOM     81  S   UNL A   1      33.119  35.401  28.855  1.00  0.00     0.124 S 
ATOM     82  O   UNL A   1      32.397  35.962  29.993  1.00  0.00    -0.237 OA
ATOM     83  O   UNL A   1      33.808  36.363  28.000  1.00  0.00    -0.237 OA
ATOM     84  O   UNL A   1      32.439  34.320  28.148  1.00  0.00    -0.744 OA
ENDBRANCH  80  81
ENDBRANCH  48  73
BRANCH  60  85
ATOM     85  C   UNL A   1      39.898  34.266  37.061  1.00  0.00     0.058 A 
ATOM     86  C   UNL A   1      40.436  35.554  36.915  1.00  0.00     0.135 A 
ATOM     87  C   UNL A   1      39.160  33.993  38.226  1.00  0.00     0.135 A 
ATOM     88  F   UNL A   1      41.154  35.866  35.825  1.00  0.00    -0.206 F 
ATOM     89  C   UNL A   1      40.268  36.527  37.895  1.00  0.00     0.059 A 
ATOM     90  C   UNL A   1      38.953  34.960  39.204  1.00  0.00     0.059 A 
ATOM     91  F   UNL A   1      38.613  32.781  38.411  1.00  0.00    -0.206 F 
ATOM     92  C   UNL A   1      39.520  36.222  39.035  1.00  0.00     0.060 A 
BRANCH  92  93
ATOM     93  S   UNL A   1      39.273  37.507  40.278  1.00  0.00     0.124 S 
ATOM     94  O   UNL A   1      40.622  38.046  40.417  1.00  0.00    -0.237 OA
ATOM     95  O   UNL A   1      38.305  38.387  39.629  1.00  0.00    -0.237 OA
ATOM     96  O   UNL A   1      38.767  36.773  41.432  1.00  0.00    -0.744 OA
ENDBRANCH  92  93
ENDBRANCH  60  85
ENDBRANCH  34  35
ENDBRANCH  27  29
ENDBRANCH  26  27
ENDBRANCH  25  26
ENDBRANCH  24  25
ENDBRANCH   1  24
TORSDOF 20
ENDMDL
