MODEL 1
REMARK VINA RESULT:     -10.8      0.000      0.000
REMARK SMILES CC(C)[NH2+][C@]1(C(=O)OCCOCCOC(=O)c2ccc(-c3c4nc(c(-c5c(F)cc(S(=O)(=O)[O-])cc5F)c5ccc([nH]5)c(-c5c(F)cc(S(=O)(=O)[O-])cc5F)c5nc(c(-c6c(F)cc(S(=O)(=O)[O-])cc6F)c6ccc3[nH]6)C=C5)C=C4)cc2)CCC[C@@H](Sc2nnnn2C)C1
REMARK SMILES IDX 12 1 11 2 10 3 9 4 8 5 6 6 7 7 5 8 83 9 94 10 84 11 86 12
REMARK SMILES IDX 85 13 4 14 2 17 1 18 3 19 87 20 88 21 89 22 92 23 90 24
REMARK SMILES IDX 91 25 93 26 13 27 14 28 15 29 16 30 17 31 18 32 82 33 19 34
REMARK SMILES IDX 81 35 20 36 21 37 22 38 75 39 23 40 80 41 74 42 76 43 24 44
REMARK SMILES IDX 79 45 73 46 72 47 25 49 59 50 38 51 58 52 39 53 42 54 57 55
REMARK SMILES IDX 77 56 40 57 41 58 56 60 78 61 43 62 26 63 27 64 36 65 28 66
REMARK SMILES IDX 29 67 35 68 37 69 30 70 31 71 32 72 33 73 34 74 60 75 61 76
REMARK SMILES IDX 70 77 62 78 63 79 69 80 71 81 64 82 65 83 66 84 67 85 68 86
REMARK SMILES IDX 44 87 45 88 54 89 46 90 47 91 53 92 55 93 48 94 49 95 50 96
REMARK SMILES IDX 51 97 52 98
REMARK H PARENT 4 15 4 16 76 48 42 59
REMARK Flexibility Score: inf
ROOT
ATOM      1  C   UNL A   1      31.755  29.700  25.518  1.00  0.00     0.202 C 
ENDROOT
BRANCH   1   2
ATOM      2  O   UNL A   1      31.514  28.598  24.643  1.00  0.00    -0.374 OA
BRANCH   2   3
ATOM      3  C   UNL A   1      32.621  27.727  24.395  1.00  0.00     0.202 C 
BRANCH   3   4
ATOM      4  C   UNL A   1      32.392  26.246  24.730  1.00  0.00     0.261 C 
BRANCH   4   5
ATOM      5  O   UNL A   1      33.573  25.446  24.504  1.00  0.00    -0.459 OA
BRANCH   5   6
ATOM      6  C   UNL A   1      33.348  24.266  23.882  1.00  0.00     0.368 C 
ATOM      7  O   UNL A   1      32.731  24.185  22.819  1.00  0.00    -0.245 OA
BRANCH   6   8
ATOM      8  C   UNL A   1      34.010  23.021  24.572  1.00  0.00     0.195 C 
ATOM      9  C   UNL A   1      33.794  22.945  26.095  1.00  0.00     0.081 C 
ATOM     10  C   UNL A   1      33.187  21.867  23.937  1.00  0.00     0.096 C 
ATOM     11  C   UNL A   1      34.090  21.548  26.669  1.00  0.00     0.008 C 
ATOM     12  C   UNL A   1      33.381  20.474  24.501  1.00  0.00     0.061 C 
ATOM     13  C   UNL A   1      33.230  20.460  26.021  1.00  0.00     0.015 C 
BRANCH   8  14
ATOM     14  N   UNL A   1      35.414  22.814  24.139  1.00  0.00    -0.330 N 
ATOM     15  H   UNL A   1      35.410  21.994  23.532  1.00  0.00     0.347 HD
ATOM     16  H   UNL A   1      35.653  23.719  23.733  1.00  0.00     0.347 HD
BRANCH  14  17
ATOM     17  C   UNL A   1      36.494  22.607  25.113  1.00  0.00     0.176 C 
ATOM     18  C   UNL A   1      37.387  21.480  24.567  1.00  0.00     0.075 C 
ATOM     19  C   UNL A   1      37.374  23.805  25.456  1.00  0.00     0.075 C 
ENDBRANCH  14  17
ENDBRANCH   8  14
BRANCH  12  20
ATOM     20  S   UNL A   1      32.226  19.336  23.618  1.00  0.00    -0.081 SA
BRANCH  20  21
ATOM     21  C   UNL A   1      33.088  17.836  23.558  1.00  0.00     0.209 A 
ATOM     22  N   UNL A   1      33.712  17.375  22.496  1.00  0.00    -0.102 NA
ATOM     23  N   UNL A   1      33.193  16.905  24.558  1.00  0.00    -0.224 N 
ATOM     24  N   UNL A   1      34.225  16.154  22.858  1.00  0.00    -0.023 NA
ATOM     25  N   UNL A   1      33.920  15.860  24.113  1.00  0.00    -0.045 NA
ATOM     26  C   UNL A   1      32.738  16.893  25.922  1.00  0.00     0.179 C 
ENDBRANCH  20  21
ENDBRANCH  12  20
ENDBRANCH   6   8
ENDBRANCH   5   6
ENDBRANCH   4   5
ENDBRANCH   3   4
ENDBRANCH   2   3
ENDBRANCH   1   2
BRANCH   1  27
ATOM     27  C   UNL A   1      33.214  29.909  25.943  1.00  0.00     0.261 C 
BRANCH  27  28
ATOM     28  O   UNL A   1      33.307  30.190  27.353  1.00  0.00    -0.460 OA
BRANCH  28  29
ATOM     29  C   UNL A   1      33.976  31.330  27.662  1.00  0.00     0.338 C 
ATOM     30  O   UNL A   1      33.489  32.433  27.813  1.00  0.00    -0.246 OA
BRANCH  29  31
ATOM     31  C   UNL A   1      35.388  31.027  28.002  1.00  0.00     0.060 A 
ATOM     32  C   UNL A   1      35.712  29.675  28.151  1.00  0.00     0.016 A 
ATOM     33  C   UNL A   1      36.365  32.006  28.207  1.00  0.00     0.016 A 
ATOM     34  C   UNL A   1      36.981  29.300  28.586  1.00  0.00     0.010 A 
ATOM     35  C   UNL A   1      37.648  31.625  28.638  1.00  0.00     0.010 A 
ATOM     36  C   UNL A   1      37.949  30.272  28.878  1.00  0.00    -0.014 A 
BRANCH  36  37
ATOM     37  C   UNL A   1      39.188  29.837  29.585  1.00  0.00     0.031 A 
ATOM     38  C   UNL A   1      39.449  30.325  30.989  1.00  0.00     0.074 A 
ATOM     39  C   UNL A   1      40.007  28.913  29.045  1.00  0.00     0.049 A 
ATOM     40  N   UNL A   1      40.377  29.957  31.834  1.00  0.00    -0.248 NA
ATOM     41  C   UNL A   1      38.539  31.357  31.512  1.00  0.00     0.031 C 
ATOM     42  C   UNL A   1      39.871  28.336  27.708  1.00  0.00     0.029 A 
ATOM     43  N   UNL A   1      41.107  28.278  29.571  1.00  0.00    -0.354 N 
ATOM     44  C   UNL A   1      40.155  30.695  32.992  1.00  0.00     0.074 A 
ATOM     45  C   UNL A   1      39.036  31.572  32.722  1.00  0.00     0.031 C 
ATOM     46  C   UNL A   1      40.838  27.420  27.525  1.00  0.00     0.029 A 
ATOM     47  C   UNL A   1      41.671  27.353  28.725  1.00  0.00     0.049 A 
ATOM     48  H   UNL A   1      41.458  28.468  30.472  1.00  0.00     0.167 HD
ATOM     49  C   UNL A   1      40.799  30.634  34.181  1.00  0.00     0.037 A 
ATOM     50  C   UNL A   1      42.733  26.539  28.897  1.00  0.00     0.037 A 
ATOM     51  C   UNL A   1      41.908  29.763  34.469  1.00  0.00     0.049 A 
ATOM     52  C   UNL A   1      43.469  26.530  30.214  1.00  0.00     0.074 A 
ATOM     53  C   UNL A   1      42.611  29.629  35.656  1.00  0.00     0.029 A 
ATOM     54  N   UNL A   1      42.480  28.878  33.569  1.00  0.00    -0.354 N 
ATOM     55  N   UNL A   1      43.215  27.208  31.309  1.00  0.00    -0.248 NA
ATOM     56  C   UNL A   1      44.631  25.633  30.321  1.00  0.00     0.031 C 
ATOM     57  C   UNL A   1      43.632  28.693  35.461  1.00  0.00     0.029 A 
ATOM     58  C   UNL A   1      43.537  28.211  34.167  1.00  0.00     0.049 A 
ATOM     59  H   UNL A   1      42.177  28.743  32.641  1.00  0.00     0.167 HD
ATOM     60  C   UNL A   1      44.169  26.799  32.238  1.00  0.00     0.074 A 
ATOM     61  C   UNL A   1      44.990  25.802  31.586  1.00  0.00     0.031 C 
ATOM     62  C   UNL A   1      44.350  27.215  33.517  1.00  0.00     0.037 A 
BRANCH  49  63
ATOM     63  C   UNL A   1      40.317  31.538  35.281  1.00  0.00     0.058 A 
ATOM     64  C   UNL A   1      39.154  31.245  36.010  1.00  0.00     0.135 A 
ATOM     65  C   UNL A   1      41.059  32.670  35.653  1.00  0.00     0.135 A 
ATOM     66  F   UNL A   1      38.399  30.185  35.680  1.00  0.00    -0.206 F 
ATOM     67  C   UNL A   1      38.737  32.050  37.065  1.00  0.00     0.059 A 
ATOM     68  C   UNL A   1      40.674  33.476  36.719  1.00  0.00     0.059 A 
ATOM     69  F   UNL A   1      42.178  32.995  34.984  1.00  0.00    -0.206 F 
ATOM     70  C   UNL A   1      39.507  33.162  37.415  1.00  0.00     0.060 A 
BRANCH  70  71
ATOM     71  S   UNL A   1      38.968  34.177  38.805  1.00  0.00     0.124 S 
ATOM     72  O   UNL A   1      38.997  35.514  38.218  1.00  0.00    -0.237 OA
ATOM     73  O   UNL A   1      37.642  33.639  39.091  1.00  0.00    -0.237 OA
ATOM     74  O   UNL A   1      39.979  33.920  39.827  1.00  0.00    -0.744 OA
ENDBRANCH  70  71
ENDBRANCH  49  63
BRANCH  50  75
ATOM     75  C   UNL A   1      43.191  25.655  27.790  1.00  0.00     0.058 A 
ATOM     76  C   UNL A   1      42.814  24.306  27.728  1.00  0.00     0.135 A 
ATOM     77  C   UNL A   1      44.067  26.135  26.804  1.00  0.00     0.135 A 
ATOM     78  F   UNL A   1      41.987  23.797  28.655  1.00  0.00    -0.206 F 
ATOM     79  C   UNL A   1      43.315  23.453  26.750  1.00  0.00     0.059 A 
ATOM     80  C   UNL A   1      44.560  25.309  25.800  1.00  0.00     0.059 A 
ATOM     81  F   UNL A   1      44.450  27.421  26.813  1.00  0.00    -0.206 F 
ATOM     82  C   UNL A   1      44.193  23.964  25.792  1.00  0.00     0.060 A 
BRANCH  82  83
ATOM     83  S   UNL A   1      44.836  22.857  24.519  1.00  0.00     0.124 S 
ATOM     84  O   UNL A   1      43.640  22.593  23.729  1.00  0.00    -0.237 OA
ATOM     85  O   UNL A   1      45.856  23.683  23.880  1.00  0.00    -0.237 OA
ATOM     86  O   UNL A   1      45.350  21.728  25.288  1.00  0.00    -0.744 OA
ENDBRANCH  82  83
ENDBRANCH  50  75
BRANCH  62  87
ATOM     87  C   UNL A   1      45.460  26.575  34.306  1.00  0.00     0.058 A 
ATOM     88  C   UNL A   1      46.774  27.070  34.266  1.00  0.00     0.135 A 
ATOM     89  C   UNL A   1      45.207  25.463  35.125  1.00  0.00     0.135 A 
ATOM     90  F   UNL A   1      47.073  28.129  33.497  1.00  0.00    -0.206 F 
ATOM     91  C   UNL A   1      47.803  26.461  34.979  1.00  0.00     0.059 A 
ATOM     92  C   UNL A   1      46.215  24.857  35.869  1.00  0.00     0.059 A 
ATOM     93  F   UNL A   1      43.966  24.957  35.214  1.00  0.00    -0.206 F 
ATOM     94  C   UNL A   1      47.515  25.351  35.773  1.00  0.00     0.060 A 
BRANCH  94  95
ATOM     95  S   UNL A   1      48.858  24.568  36.693  1.00  0.00     0.124 S 
ATOM     96  O   UNL A   1      49.321  25.670  37.529  1.00  0.00    -0.237 OA
ATOM     97  O   UNL A   1      48.172  23.487  37.394  1.00  0.00    -0.237 OA
ATOM     98  O   UNL A   1      49.781  24.141  35.647  1.00  0.00    -0.744 OA
ENDBRANCH  94  95
ENDBRANCH  62  87
ENDBRANCH  36  37
ENDBRANCH  29  31
ENDBRANCH  28  29
ENDBRANCH  27  28
ENDBRANCH   1  27
TORSDOF 21
ENDMDL
MODEL 2
REMARK VINA RESULT:     -10.8      5.162      7.284
REMARK SMILES CC(C)[NH2+][C@]1(C(=O)OCCOCCOC(=O)c2ccc(-c3c4nc(c(-c5c(F)cc(S(=O)(=O)[O-])cc5F)c5ccc([nH]5)c(-c5c(F)cc(S(=O)(=O)[O-])cc5F)c5nc(c(-c6c(F)cc(S(=O)(=O)[O-])cc6F)c6ccc3[nH]6)C=C5)C=C4)cc2)CCC[C@@H](Sc2nnnn2C)C1
REMARK SMILES IDX 12 1 11 2 10 3 9 4 8 5 6 6 7 7 5 8 83 9 94 10 84 11 86 12
REMARK SMILES IDX 85 13 4 14 2 17 1 18 3 19 87 20 88 21 89 22 92 23 90 24
REMARK SMILES IDX 91 25 93 26 13 27 14 28 15 29 16 30 17 31 18 32 82 33 19 34
REMARK SMILES IDX 81 35 20 36 21 37 22 38 75 39 23 40 80 41 74 42 76 43 24 44
REMARK SMILES IDX 79 45 73 46 72 47 25 49 59 50 38 51 58 52 39 53 42 54 57 55
REMARK SMILES IDX 77 56 40 57 41 58 56 60 78 61 43 62 26 63 27 64 36 65 28 66
REMARK SMILES IDX 29 67 35 68 37 69 30 70 31 71 32 72 33 73 34 74 60 75 61 76
REMARK SMILES IDX 70 77 62 78 63 79 69 80 71 81 64 82 65 83 66 84 67 85 68 86
REMARK SMILES IDX 44 87 45 88 54 89 46 90 47 91 53 92 55 93 48 94 49 95 50 96
REMARK SMILES IDX 51 97 52 98
REMARK H PARENT 4 15 4 16 76 48 42 59
REMARK Flexibility Score: inf
ROOT
ATOM      1  C   UNL A   1      34.397  31.650  28.282  1.00  0.00     0.202 C 
ENDROOT
BRANCH   1   2
ATOM      2  O   UNL A   1      34.212  30.397  27.625  1.00  0.00    -0.374 OA
BRANCH   2   3
ATOM      3  C   UNL A   1      33.343  30.396  26.488  1.00  0.00     0.202 C 
BRANCH   3   4
ATOM      4  C   UNL A   1      31.887  29.992  26.763  1.00  0.00     0.261 C 
BRANCH   4   5
ATOM      5  O   UNL A   1      31.430  28.955  25.866  1.00  0.00    -0.459 OA
BRANCH   5   6
ATOM      6  C   UNL A   1      31.597  27.694  26.326  1.00  0.00     0.368 C 
ATOM      7  O   UNL A   1      31.303  27.363  27.475  1.00  0.00    -0.245 OA
BRANCH   6   8
ATOM      8  C   UNL A   1      32.109  26.666  25.255  1.00  0.00     0.195 C 
ATOM      9  C   UNL A   1      33.385  27.101  24.511  1.00  0.00     0.081 C 
ATOM     10  C   UNL A   1      32.500  25.470  26.167  1.00  0.00     0.096 C 
ATOM     11  C   UNL A   1      34.078  25.935  23.785  1.00  0.00     0.008 C 
ATOM     12  C   UNL A   1      33.245  24.316  25.528  1.00  0.00     0.061 C 
ATOM     13  C   UNL A   1      34.460  24.802  24.741  1.00  0.00     0.015 C 
BRANCH   8  14
ATOM     14  N   UNL A   1      31.020  26.176  24.375  1.00  0.00    -0.330 N 
ATOM     15  H   UNL A   1      31.457  25.928  23.487  1.00  0.00     0.347 HD
ATOM     16  H   UNL A   1      30.602  25.434  24.937  1.00  0.00     0.347 HD
BRANCH  14  17
ATOM     17  C   UNL A   1      29.862  27.019  24.049  1.00  0.00     0.176 C 
ATOM     18  C   UNL A   1      30.180  27.733  22.724  1.00  0.00     0.075 C 
ATOM     19  C   UNL A   1      28.505  26.333  23.920  1.00  0.00     0.075 C 
ENDBRANCH  14  17
ENDBRANCH   8  14
BRANCH  12  20
ATOM     20  S   UNL A   1      33.645  23.095  26.854  1.00  0.00    -0.081 SA
BRANCH  20  21
ATOM     21  C   UNL A   1      34.340  21.762  25.993  1.00  0.00     0.209 A 
ATOM     22  N   UNL A   1      35.628  21.507  25.927  1.00  0.00    -0.102 NA
ATOM     23  N   UNL A   1      33.678  20.842  25.224  1.00  0.00    -0.224 N 
ATOM     24  N   UNL A   1      35.755  20.400  25.125  1.00  0.00    -0.023 NA
ATOM     25  N   UNL A   1      34.572  19.983  24.696  1.00  0.00    -0.045 NA
ATOM     26  C   UNL A   1      32.281  20.625  24.962  1.00  0.00     0.179 C 
ENDBRANCH  20  21
ENDBRANCH  12  20
ENDBRANCH   6   8
ENDBRANCH   5   6
ENDBRANCH   4   5
ENDBRANCH   3   4
ENDBRANCH   2   3
ENDBRANCH   1   2
BRANCH   1  27
ATOM     27  C   UNL A   1      35.248  31.617  29.557  1.00  0.00     0.261 C 
BRANCH  27  28
ATOM     28  O   UNL A   1      35.818  30.310  29.764  1.00  0.00    -0.460 OA
BRANCH  28  29
ATOM     29  C   UNL A   1      36.639  30.212  30.840  1.00  0.00     0.338 C 
ATOM     30  O   UNL A   1      36.298  30.056  31.995  1.00  0.00    -0.246 OA
BRANCH  29  31
ATOM     31  C   UNL A   1      38.054  30.113  30.405  1.00  0.00     0.060 A 
ATOM     32  C   UNL A   1      38.286  30.197  29.028  1.00  0.00     0.016 A 
ATOM     33  C   UNL A   1      39.125  29.911  31.282  1.00  0.00     0.016 A 
ATOM     34  C   UNL A   1      39.566  29.996  28.517  1.00  0.00     0.010 A 
ATOM     35  C   UNL A   1      40.417  29.716  30.764  1.00  0.00     0.010 A 
ATOM     36  C   UNL A   1      40.638  29.708  29.375  1.00  0.00    -0.014 A 
BRANCH  36  37
ATOM     37  C   UNL A   1      41.917  29.244  28.766  1.00  0.00     0.031 A 
ATOM     38  C   UNL A   1      43.094  30.187  28.710  1.00  0.00     0.074 A 
ATOM     39  C   UNL A   1      42.083  27.960  28.392  1.00  0.00     0.049 A 
ATOM     40  N   UNL A   1      44.333  29.946  28.365  1.00  0.00    -0.248 NA
ATOM     41  C   UNL A   1      42.844  31.584  29.102  1.00  0.00     0.031 C 
ATOM     42  C   UNL A   1      41.044  26.931  28.408  1.00  0.00     0.029 A 
ATOM     43  N   UNL A   1      43.202  27.297  27.945  1.00  0.00    -0.354 N 
ATOM     44  C   UNL A   1      45.013  31.150  28.514  1.00  0.00     0.074 A 
ATOM     45  C   UNL A   1      44.038  32.135  28.930  1.00  0.00     0.031 C 
ATOM     46  C   UNL A   1      41.577  25.763  28.007  1.00  0.00     0.029 A 
ATOM     47  C   UNL A   1      42.992  25.962  27.693  1.00  0.00     0.049 A 
ATOM     48  H   UNL A   1      44.073  27.738  27.817  1.00  0.00     0.167 HD
ATOM     49  C   UNL A   1      46.331  31.413  28.349  1.00  0.00     0.037 A 
ATOM     50  C   UNL A   1      43.841  25.005  27.265  1.00  0.00     0.037 A 
ATOM     51  C   UNL A   1      47.316  30.444  27.944  1.00  0.00     0.049 A 
ATOM     52  C   UNL A   1      45.295  25.337  27.036  1.00  0.00     0.074 A 
ATOM     53  C   UNL A   1      48.679  30.627  27.767  1.00  0.00     0.029 A 
ATOM     54  N   UNL A   1      47.052  29.116  27.651  1.00  0.00    -0.354 N 
ATOM     55  N   UNL A   1      45.924  26.474  27.223  1.00  0.00    -0.248 NA
ATOM     56  C   UNL A   1      46.157  24.250  26.548  1.00  0.00     0.031 C 
ATOM     57  C   UNL A   1      49.231  29.419  27.328  1.00  0.00     0.029 A 
ATOM     58  C   UNL A   1      48.221  28.473  27.276  1.00  0.00     0.049 A 
ATOM     59  H   UNL A   1      46.165  28.692  27.704  1.00  0.00     0.167 HD
ATOM     60  C   UNL A   1      47.256  26.227  26.900  1.00  0.00     0.074 A 
ATOM     61  C   UNL A   1      47.347  24.833  26.528  1.00  0.00     0.031 C 
ATOM     62  C   UNL A   1      48.310  27.082  26.910  1.00  0.00     0.037 A 
BRANCH  49  63
ATOM     63  C   UNL A   1      46.799  32.816  28.616  1.00  0.00     0.058 A 
ATOM     64  C   UNL A   1      46.819  33.785  27.601  1.00  0.00     0.135 A 
ATOM     65  C   UNL A   1      47.165  33.213  29.911  1.00  0.00     0.135 A 
ATOM     66  F   UNL A   1      46.496  33.451  26.341  1.00  0.00    -0.206 F 
ATOM     67  C   UNL A   1      47.198  35.098  27.858  1.00  0.00     0.059 A 
ATOM     68  C   UNL A   1      47.525  34.526  30.196  1.00  0.00     0.059 A 
ATOM     69  F   UNL A   1      47.165  32.323  30.917  1.00  0.00    -0.206 F 
ATOM     70  C   UNL A   1      47.546  35.460  29.161  1.00  0.00     0.060 A 
BRANCH  70  71
ATOM     71  S   UNL A   1      48.005  37.175  29.484  1.00  0.00     0.124 S 
ATOM     72  O   UNL A   1      48.204  37.156  30.930  1.00  0.00    -0.237 OA
ATOM     73  O   UNL A   1      49.213  37.332  28.680  1.00  0.00    -0.237 OA
ATOM     74  O   UNL A   1      46.845  37.931  29.020  1.00  0.00    -0.744 OA
ENDBRANCH  70  71
ENDBRANCH  49  63
BRANCH  50  75
ATOM     75  C   UNL A   1      43.350  23.623  27.008  1.00  0.00     0.058 A 
ATOM     76  C   UNL A   1      43.242  22.681  28.041  1.00  0.00     0.135 A 
ATOM     77  C   UNL A   1      43.037  23.204  25.705  1.00  0.00     0.135 A 
ATOM     78  F   UNL A   1      43.543  23.031  29.301  1.00  0.00    -0.206 F 
ATOM     79  C   UNL A   1      42.876  21.363  27.790  1.00  0.00     0.059 A 
ATOM     80  C   UNL A   1      42.642  21.900  25.433  1.00  0.00     0.059 A 
ATOM     81  F   UNL A   1      43.115  24.071  24.683  1.00  0.00    -0.206 F 
ATOM     82  C   UNL A   1      42.583  20.980  26.480  1.00  0.00     0.060 A 
BRANCH  82  83
ATOM     83  S   UNL A   1      42.099  19.271  26.157  1.00  0.00     0.124 S 
ATOM     84  O   UNL A   1      42.989  18.916  25.059  1.00  0.00    -0.237 OA
ATOM     85  O   UNL A   1      42.375  18.626  27.438  1.00  0.00    -0.237 OA
ATOM     86  O   UNL A   1      40.685  19.384  25.816  1.00  0.00    -0.744 OA
ENDBRANCH  82  83
ENDBRANCH  50  75
BRANCH  62  87
ATOM     87  C   UNL A   1      49.658  26.529  26.532  1.00  0.00     0.058 A 
ATOM     88  C   UNL A   1      50.496  25.918  27.478  1.00  0.00     0.135 A 
ATOM     89  C   UNL A   1      50.110  26.593  25.204  1.00  0.00     0.135 A 
ATOM     90  F   UNL A   1      50.114  25.831  28.763  1.00  0.00    -0.206 F 
ATOM     91  C   UNL A   1      51.752  25.428  27.130  1.00  0.00     0.059 A 
ATOM     92  C   UNL A   1      51.350  26.084  24.828  1.00  0.00     0.059 A 
ATOM     93  F   UNL A   1      49.344  27.152  24.254  1.00  0.00    -0.206 F 
ATOM     94  C   UNL A   1      52.173  25.521  25.803  1.00  0.00     0.060 A 
BRANCH  94  95
ATOM     95  S   UNL A   1      53.804  24.883  25.362  1.00  0.00     0.124 S 
ATOM     96  O   UNL A   1      53.511  23.474  25.121  1.00  0.00    -0.237 OA
ATOM     97  O   UNL A   1      54.142  25.670  24.180  1.00  0.00    -0.237 OA
ATOM     98  O   UNL A   1      54.610  25.164  26.546  1.00  0.00    -0.744 OA
ENDBRANCH  94  95
ENDBRANCH  62  87
ENDBRANCH  36  37
ENDBRANCH  29  31
ENDBRANCH  28  29
ENDBRANCH  27  28
ENDBRANCH   1  27
TORSDOF 21
ENDMDL
MODEL 3
REMARK VINA RESULT:     -10.7      1.161      1.988
REMARK SMILES CC(C)[NH2+][C@]1(C(=O)OCCOCCOC(=O)c2ccc(-c3c4nc(c(-c5c(F)cc(S(=O)(=O)[O-])cc5F)c5ccc([nH]5)c(-c5c(F)cc(S(=O)(=O)[O-])cc5F)c5nc(c(-c6c(F)cc(S(=O)(=O)[O-])cc6F)c6ccc3[nH]6)C=C5)C=C4)cc2)CCC[C@@H](Sc2nnnn2C)C1
REMARK SMILES IDX 12 1 11 2 10 3 9 4 8 5 6 6 7 7 5 8 83 9 94 10 84 11 86 12
REMARK SMILES IDX 85 13 4 14 2 17 1 18 3 19 87 20 88 21 89 22 92 23 90 24
REMARK SMILES IDX 91 25 93 26 13 27 14 28 15 29 16 30 17 31 18 32 82 33 19 34
REMARK SMILES IDX 81 35 20 36 21 37 22 38 75 39 23 40 80 41 74 42 76 43 24 44
REMARK SMILES IDX 79 45 73 46 72 47 25 49 59 50 38 51 58 52 39 53 42 54 57 55
REMARK SMILES IDX 77 56 40 57 41 58 56 60 78 61 43 62 26 63 27 64 36 65 28 66
REMARK SMILES IDX 29 67 35 68 37 69 30 70 31 71 32 72 33 73 34 74 60 75 61 76
REMARK SMILES IDX 70 77 62 78 63 79 69 80 71 81 64 82 65 83 66 84 67 85 68 86
REMARK SMILES IDX 44 87 45 88 54 89 46 90 47 91 53 92 55 93 48 94 49 95 50 96
REMARK SMILES IDX 51 97 52 98
REMARK H PARENT 4 15 4 16 76 48 42 59
REMARK Flexibility Score: inf
ROOT
ATOM      1  C   UNL A   1      31.832  29.989  25.621  1.00  0.00     0.202 C 
ENDROOT
BRANCH   1   2
ATOM      2  O   UNL A   1      31.283  28.873  24.919  1.00  0.00    -0.374 OA
BRANCH   2   3
ATOM      3  C   UNL A   1      32.213  28.040  24.221  1.00  0.00     0.202 C 
BRANCH   3   4
ATOM      4  C   UNL A   1      32.164  26.546  24.574  1.00  0.00     0.261 C 
BRANCH   4   5
ATOM      5  O   UNL A   1      33.463  26.029  24.941  1.00  0.00    -0.459 OA
BRANCH   5   6
ATOM      6  C   UNL A   1      33.449  24.784  25.468  1.00  0.00     0.368 C 
ATOM      7  O   UNL A   1      32.719  24.471  26.410  1.00  0.00    -0.245 OA
BRANCH   6   8
ATOM      8  C   UNL A   1      34.365  23.745  24.728  1.00  0.00     0.195 C 
ATOM      9  C   UNL A   1      35.807  23.672  25.262  1.00  0.00     0.081 C 
ATOM     10  C   UNL A   1      33.666  22.414  25.118  1.00  0.00     0.096 C 
ATOM     11  C   UNL A   1      36.544  22.399  24.811  1.00  0.00     0.008 C 
ATOM     12  C   UNL A   1      34.372  21.121  24.763  1.00  0.00     0.061 C 
ATOM     13  C   UNL A   1      35.820  21.123  25.249  1.00  0.00     0.015 C 
BRANCH   8  14
ATOM     14  N   UNL A   1      34.260  23.849  23.251  1.00  0.00    -0.330 N 
ATOM     15  H   UNL A   1      34.665  24.751  22.997  1.00  0.00     0.347 HD
ATOM     16  H   UNL A   1      34.727  22.999  22.938  1.00  0.00     0.347 HD
BRANCH  14  17
ATOM     17  C   UNL A   1      32.961  23.769  22.569  1.00  0.00     0.176 C 
ATOM     18  C   UNL A   1      32.925  24.903  21.529  1.00  0.00     0.075 C 
ATOM     19  C   UNL A   1      32.611  22.457  21.873  1.00  0.00     0.075 C 
ENDBRANCH  14  17
ENDBRANCH   8  14
BRANCH  12  20
ATOM     20  S   UNL A   1      33.359  19.723  25.417  1.00  0.00    -0.081 SA
BRANCH  20  21
ATOM     21  C   UNL A   1      33.216  18.649  24.065  1.00  0.00     0.209 A 
ATOM     22  N   UNL A   1      32.407  18.837  23.046  1.00  0.00    -0.102 NA
ATOM     23  N   UNL A   1      33.856  17.451  23.893  1.00  0.00    -0.224 N 
ATOM     24  N   UNL A   1      32.571  17.749  22.225  1.00  0.00    -0.023 NA
ATOM     25  N   UNL A   1      33.456  16.900  22.728  1.00  0.00    -0.045 NA
ATOM     26  C   UNL A   1      34.857  16.768  24.666  1.00  0.00     0.179 C 
ENDBRANCH  20  21
ENDBRANCH  12  20
ENDBRANCH   6   8
ENDBRANCH   5   6
ENDBRANCH   4   5
ENDBRANCH   3   4
ENDBRANCH   2   3
ENDBRANCH   1   2
BRANCH   1  27
ATOM     27  C   UNL A   1      33.257  29.806  26.157  1.00  0.00     0.261 C 
BRANCH  27  28
ATOM     28  O   UNL A   1      33.334  30.161  27.551  1.00  0.00    -0.460 OA
BRANCH  28  29
ATOM     29  C   UNL A   1      34.251  31.119  27.843  1.00  0.00     0.338 C 
ATOM     30  O   UNL A   1      34.030  32.302  28.007  1.00  0.00    -0.246 OA
BRANCH  29  31
ATOM     31  C   UNL A   1      35.566  30.502  28.145  1.00  0.00     0.060 A 
ATOM     32  C   UNL A   1      35.682  29.867  29.386  1.00  0.00     0.016 A 
ATOM     33  C   UNL A   1      36.668  30.561  27.285  1.00  0.00     0.016 A 
ATOM     34  C   UNL A   1      36.911  29.365  29.807  1.00  0.00     0.010 A 
ATOM     35  C   UNL A   1      37.905  30.046  27.709  1.00  0.00     0.010 A 
ATOM     36  C   UNL A   1      38.047  29.489  28.993  1.00  0.00    -0.014 A 
BRANCH  36  37
ATOM     37  C   UNL A   1      39.376  29.178  29.592  1.00  0.00     0.031 A 
ATOM     38  C   UNL A   1      39.803  29.887  30.854  1.00  0.00     0.074 A 
ATOM     39  C   UNL A   1      40.140  28.181  29.105  1.00  0.00     0.049 A 
ATOM     40  N   UNL A   1      40.840  29.664  31.620  1.00  0.00    -0.248 NA
ATOM     41  C   UNL A   1      38.943  30.988  31.320  1.00  0.00     0.031 C 
ATOM     42  C   UNL A   1      39.849  27.395  27.908  1.00  0.00     0.029 A 
ATOM     43  N   UNL A   1      41.314  27.642  29.579  1.00  0.00    -0.354 N 
ATOM     44  C   UNL A   1      40.750  30.578  32.663  1.00  0.00     0.074 A 
ATOM     45  C   UNL A   1      39.585  31.397  32.405  1.00  0.00     0.031 C 
ATOM     46  C   UNL A   1      40.806  26.465  27.749  1.00  0.00     0.029 A 
ATOM     47  C   UNL A   1      41.788  26.594  28.826  1.00  0.00     0.049 A 
ATOM     48  H   UNL A   1      41.773  27.977  30.384  1.00  0.00     0.167 HD
ATOM     49  C   UNL A   1      41.543  30.713  33.753  1.00  0.00     0.037 A 
ATOM     50  C   UNL A   1      42.882  25.822  28.985  1.00  0.00     0.037 A 
ATOM     51  C   UNL A   1      42.700  29.902  34.030  1.00  0.00     0.049 A 
ATOM     52  C   UNL A   1      43.781  26.028  30.180  1.00  0.00     0.074 A 
ATOM     53  C   UNL A   1      43.552  29.964  35.121  1.00  0.00     0.029 A 
ATOM     54  N   UNL A   1      43.172  28.885  33.216  1.00  0.00    -0.354 N 
ATOM     55  N   UNL A   1      43.653  26.873  31.176  1.00  0.00    -0.248 NA
ATOM     56  C   UNL A   1      44.967  25.164  30.277  1.00  0.00     0.031 C 
ATOM     57  C   UNL A   1      44.562  29.012  34.947  1.00  0.00     0.029 A 
ATOM     58  C   UNL A   1      44.313  28.326  33.770  1.00  0.00     0.049 A 
ATOM     59  H   UNL A   1      42.757  28.601  32.369  1.00  0.00     0.167 HD
ATOM     60  C   UNL A   1      44.727  26.623  32.026  1.00  0.00     0.074 A 
ATOM     61  C   UNL A   1      45.481  25.537  31.441  1.00  0.00     0.031 C 
ATOM     62  C   UNL A   1      45.060  27.241  33.187  1.00  0.00     0.037 A 
BRANCH  49  63
ATOM     63  C   UNL A   1      41.184  31.781  34.747  1.00  0.00     0.058 A 
ATOM     64  C   UNL A   1      41.709  33.078  34.647  1.00  0.00     0.135 A 
ATOM     65  C   UNL A   1      40.254  31.524  35.767  1.00  0.00     0.135 A 
ATOM     66  F   UNL A   1      42.616  33.370  33.701  1.00  0.00    -0.206 F 
ATOM     67  C   UNL A   1      41.334  34.083  35.533  1.00  0.00     0.059 A 
ATOM     68  C   UNL A   1      39.847  32.519  36.649  1.00  0.00     0.059 A 
ATOM     69  F   UNL A   1      39.725  30.298  35.906  1.00  0.00    -0.206 F 
ATOM     70  C   UNL A   1      40.399  33.794  36.529  1.00  0.00     0.060 A 
BRANCH  70  71
ATOM     71  S   UNL A   1      39.900  35.117  37.650  1.00  0.00     0.124 S 
ATOM     72  O   UNL A   1      38.625  34.610  38.150  1.00  0.00    -0.237 OA
ATOM     73  O   UNL A   1      40.995  35.140  38.615  1.00  0.00    -0.237 OA
ATOM     74  O   UNL A   1      39.813  36.286  36.780  1.00  0.00    -0.744 OA
ENDBRANCH  70  71
ENDBRANCH  49  63
BRANCH  50  75
ATOM     75  C   UNL A   1      43.215  24.772  27.984  1.00  0.00     0.058 A 
ATOM     76  C   UNL A   1      42.781  23.448  28.141  1.00  0.00     0.135 A 
ATOM     77  C   UNL A   1      44.029  25.067  26.879  1.00  0.00     0.135 A 
ATOM     78  F   UNL A   1      42.011  23.114  29.189  1.00  0.00    -0.206 F 
ATOM     79  C   UNL A   1      43.169  22.444  27.260  1.00  0.00     0.059 A 
ATOM     80  C   UNL A   1      44.407  24.087  25.969  1.00  0.00     0.059 A 
ATOM     81  F   UNL A   1      44.462  26.321  26.678  1.00  0.00    -0.206 F 
ATOM     82  C   UNL A   1      43.988  22.773  26.178  1.00  0.00     0.060 A 
BRANCH  82  83
ATOM     83  S   UNL A   1      44.484  21.471  25.031  1.00  0.00     0.124 S 
ATOM     84  O   UNL A   1      45.865  21.235  25.433  1.00  0.00    -0.237 OA
ATOM     85  O   UNL A   1      43.535  20.406  25.345  1.00  0.00    -0.237 OA
ATOM     86  O   UNL A   1      44.301  22.092  23.723  1.00  0.00    -0.744 OA
ENDBRANCH  82  83
ENDBRANCH  50  75
BRANCH  62  87
ATOM     87  C   UNL A   1      46.277  26.740  33.917  1.00  0.00     0.058 A 
ATOM     88  C   UNL A   1      47.550  27.291  33.694  1.00  0.00     0.135 A 
ATOM     89  C   UNL A   1      46.169  25.709  34.864  1.00  0.00     0.135 A 
ATOM     90  F   UNL A   1      47.711  28.278  32.798  1.00  0.00    -0.206 F 
ATOM     91  C   UNL A   1      48.677  26.809  34.354  1.00  0.00     0.059 A 
ATOM     92  C   UNL A   1      47.279  25.232  35.556  1.00  0.00     0.059 A 
ATOM     93  F   UNL A   1      44.975  25.156  35.129  1.00  0.00    -0.206 F 
ATOM     94  C   UNL A   1      48.532  25.775  35.279  1.00  0.00     0.060 A 
BRANCH  94  95
ATOM     95  S   UNL A   1      50.001  25.157  36.129  1.00  0.00     0.124 S 
ATOM     96  O   UNL A   1      50.932  26.266  35.949  1.00  0.00    -0.237 OA
ATOM     97  O   UNL A   1      49.516  24.952  37.490  1.00  0.00    -0.237 OA
ATOM     98  O   UNL A   1      50.328  23.937  35.397  1.00  0.00    -0.744 OA
ENDBRANCH  94  95
ENDBRANCH  62  87
ENDBRANCH  36  37
ENDBRANCH  29  31
ENDBRANCH  28  29
ENDBRANCH  27  28
ENDBRANCH   1  27
TORSDOF 21
ENDMDL
