MODEL 1
REMARK VINA RESULT:      -9.4      0.000      0.000
REMARK SMILES CC[C@H](CCO)CNc1cc(C(=O)OCCOCCOC(=O)c2ccc(-c3c4nc(c(-c5c(F)cc(S(=O)(=O)[O-])cc5F)c5ccc([nH]5)c(-c5c(F)cc(S(=O)(=O)[O-])cc5F)c5nc(c(-c6c(F)cc(S(=O)(=O)[O-])cc6F)c6ccc3[nH]6)C=C5)C=C4)cc2)ccn1
REMARK SMILES IDX 15 1 14 2 12 3 13 4 11 5 9 6 10 7 91 8 90 9 89 10 8 11 7 13
REMARK SMILES IDX 3 14 2 15 1 16 4 17 5 18 6 19 16 21 17 22 18 23 19 24 20 25
REMARK SMILES IDX 21 26 22 27 23 28 24 29 88 30 25 31 87 32 26 33 27 34 28 35
REMARK SMILES IDX 81 36 29 37 86 38 80 39 82 40 30 41 85 42 79 43 78 44 31 46
REMARK SMILES IDX 65 47 44 48 64 49 45 50 48 51 63 52 83 53 46 54 47 55 62 57
REMARK SMILES IDX 84 58 49 59 32 60 33 61 42 62 34 63 35 64 41 65 43 66 36 67
REMARK SMILES IDX 37 68 38 69 39 70 40 71 66 72 67 73 76 74 68 75 69 76 75 77
REMARK SMILES IDX 77 78 70 79 71 80 72 81 73 82 74 83 50 84 51 85 60 86 52 87
REMARK SMILES IDX 53 88 59 89 61 90 54 91 55 92 56 93 57 94 58 95
REMARK H PARENT 8 12 6 20 82 45 48 56
REMARK Flexibility Score: inf
ROOT
ATOM      1  C   UNL A   1      37.902  22.768  25.500  1.00  0.00     0.261 C 
ENDROOT
BRANCH   1   2
ATOM      2  O   UNL A   1      36.573  22.465  25.048  1.00  0.00    -0.460 OA
BRANCH   2   3
ATOM      3  C   UNL A   1      36.209  23.077  23.897  1.00  0.00     0.338 C 
ATOM      4  O   UNL A   1      36.804  23.057  22.830  1.00  0.00    -0.246 OA
BRANCH   3   5
ATOM      5  C   UNL A   1      34.850  23.641  24.035  1.00  0.00     0.065 A 
ATOM      6  C   UNL A   1      33.125  24.780  25.217  1.00  0.00     0.126 A 
ATOM      7  C   UNL A   1      34.406  24.261  25.204  1.00  0.00     0.062 A 
ATOM      8  N   UNL A   1      32.285  24.629  24.171  1.00  0.00    -0.240 NA
ATOM      9  C   UNL A   1      32.723  23.991  23.068  1.00  0.00     0.114 A 
ATOM     10  C   UNL A   1      33.998  23.498  22.944  1.00  0.00     0.036 A 
BRANCH   6  11
ATOM     11  N   UNL A   1      32.566  25.495  26.234  1.00  0.00    -0.370 N 
ATOM     12  H   UNL A   1      33.098  25.564  27.060  1.00  0.00     0.162 HD
BRANCH  11  13
ATOM     13  C   UNL A   1      31.281  26.165  26.245  1.00  0.00     0.118 C 
BRANCH  13  14
ATOM     14  C   UNL A   1      31.454  27.698  26.256  1.00  0.00     0.010 C 
BRANCH  14  15
ATOM     15  C   UNL A   1      31.701  28.215  24.813  1.00  0.00     0.002 C 
ATOM     16  C   UNL A   1      31.049  29.560  24.492  1.00  0.00     0.004 C 
ENDBRANCH  14  15
BRANCH  14  17
ATOM     17  C   UNL A   1      32.527  28.303  27.201  1.00  0.00     0.033 C 
BRANCH  17  18
ATOM     18  C   UNL A   1      33.933  28.561  26.675  1.00  0.00     0.156 C 
BRANCH  18  19
ATOM     19  O   UNL A   1      34.174  29.946  26.489  1.00  0.00    -0.396 OA
ATOM     20  H   UNL A   1      33.695  30.256  25.706  1.00  0.00     0.210 HD
ENDBRANCH  18  19
ENDBRANCH  17  18
ENDBRANCH  14  17
ENDBRANCH  13  14
ENDBRANCH  11  13
ENDBRANCH   6  11
ENDBRANCH   3   5
ENDBRANCH   2   3
ENDBRANCH   1   2
BRANCH   1  21
ATOM     21  C   UNL A   1      38.745  21.497  25.652  1.00  0.00     0.202 C 
BRANCH  21  22
ATOM     22  O   UNL A   1      39.753  21.510  26.663  1.00  0.00    -0.374 OA
BRANCH  22  23
ATOM     23  C   UNL A   1      41.099  21.273  26.247  1.00  0.00     0.202 C 
BRANCH  23  24
ATOM     24  C   UNL A   1      42.046  22.479  26.189  1.00  0.00     0.261 C 
BRANCH  24  25
ATOM     25  O   UNL A   1      41.351  23.729  26.324  1.00  0.00    -0.460 OA
BRANCH  25  26
ATOM     26  C   UNL A   1      42.147  24.825  26.248  1.00  0.00     0.338 C 
ATOM     27  O   UNL A   1      43.016  25.047  25.423  1.00  0.00    -0.246 OA
BRANCH  26  28
ATOM     28  C   UNL A   1      41.689  25.842  27.213  1.00  0.00     0.060 A 
ATOM     29  C   UNL A   1      42.415  27.039  27.279  1.00  0.00     0.016 A 
ATOM     30  C   UNL A   1      40.619  25.611  28.080  1.00  0.00     0.016 A 
ATOM     31  C   UNL A   1      42.105  27.989  28.250  1.00  0.00     0.010 A 
ATOM     32  C   UNL A   1      40.314  26.566  29.057  1.00  0.00     0.010 A 
ATOM     33  C   UNL A   1      41.076  27.742  29.168  1.00  0.00    -0.014 A 
BRANCH  33  34
ATOM     34  C   UNL A   1      40.884  28.664  30.315  1.00  0.00     0.031 A 
ATOM     35  C   UNL A   1      41.767  28.526  31.526  1.00  0.00     0.074 A 
ATOM     36  C   UNL A   1      39.954  29.634  30.260  1.00  0.00     0.049 A 
ATOM     37  N   UNL A   1      41.756  29.210  32.641  1.00  0.00    -0.248 NA
ATOM     38  C   UNL A   1      42.797  27.477  31.474  1.00  0.00     0.031 C 
ATOM     39  C   UNL A   1      39.063  29.886  29.128  1.00  0.00     0.029 A 
ATOM     40  N   UNL A   1      39.602  30.588  31.183  1.00  0.00    -0.354 N 
ATOM     41  C   UNL A   1      42.769  28.673  33.426  1.00  0.00     0.074 A 
ATOM     42  C   UNL A   1      43.352  27.582  32.673  1.00  0.00     0.031 C 
ATOM     43  C   UNL A   1      38.260  30.922  29.425  1.00  0.00     0.029 A 
ATOM     44  C   UNL A   1      38.558  31.385  30.780  1.00  0.00     0.049 A 
ATOM     45  H   UNL A   1      40.055  30.691  32.051  1.00  0.00     0.167 HD
ATOM     46  C   UNL A   1      43.183  29.059  34.657  1.00  0.00     0.037 A 
ATOM     47  C   UNL A   1      37.901  32.361  31.437  1.00  0.00     0.037 A 
ATOM     48  C   UNL A   1      42.597  30.147  35.398  1.00  0.00     0.049 A 
ATOM     49  C   UNL A   1      38.337  32.732  32.831  1.00  0.00     0.074 A 
ATOM     50  C   UNL A   1      42.959  30.633  36.643  1.00  0.00     0.029 A 
ATOM     51  N   UNL A   1      41.520  30.912  34.971  1.00  0.00    -0.354 N 
ATOM     52  N   UNL A   1      39.316  32.234  33.550  1.00  0.00    -0.248 NA
ATOM     53  C   UNL A   1      37.583  33.800  33.501  1.00  0.00     0.031 C 
ATOM     54  C   UNL A   1      42.066  31.651  36.992  1.00  0.00     0.029 A 
ATOM     55  C   UNL A   1      41.186  31.845  35.939  1.00  0.00     0.049 A 
ATOM     56  H   UNL A   1      41.062  30.807  34.106  1.00  0.00     0.167 HD
ATOM     57  C   UNL A   1      39.311  32.948  34.745  1.00  0.00     0.074 A 
ATOM     58  C   UNL A   1      38.244  33.920  34.645  1.00  0.00     0.031 C 
ATOM     59  C   UNL A   1      40.119  32.809  35.827  1.00  0.00     0.037 A 
BRANCH  46  60
ATOM     60  C   UNL A   1      44.306  28.285  35.294  1.00  0.00     0.058 A 
ATOM     61  C   UNL A   1      45.649  28.659  35.132  1.00  0.00     0.135 A 
ATOM     62  C   UNL A   1      44.031  27.177  36.111  1.00  0.00     0.135 A 
ATOM     63  F   UNL A   1      45.973  29.699  34.348  1.00  0.00    -0.206 F 
ATOM     64  C   UNL A   1      46.681  27.946  35.736  1.00  0.00     0.059 A 
ATOM     65  C   UNL A   1      45.044  26.467  36.749  1.00  0.00     0.059 A 
ATOM     66  F   UNL A   1      42.764  26.773  36.300  1.00  0.00    -0.206 F 
ATOM     67  C   UNL A   1      46.368  26.852  36.545  1.00  0.00     0.060 A 
BRANCH  67  68
ATOM     68  S   UNL A   1      47.717  25.943  37.327  1.00  0.00     0.124 S 
ATOM     69  O   UNL A   1      48.044  26.816  38.451  1.00  0.00    -0.237 OA
ATOM     70  O   UNL A   1      47.079  24.677  37.674  1.00  0.00    -0.237 OA
ATOM     71  O   UNL A   1      48.729  25.865  36.278  1.00  0.00    -0.744 OA
ENDBRANCH  67  68
ENDBRANCH  46  60
BRANCH  47  72
ATOM     72  C   UNL A   1      36.753  33.050  30.789  1.00  0.00     0.058 A 
ATOM     73  C   UNL A   1      35.429  32.746  31.141  1.00  0.00     0.135 A 
ATOM     74  C   UNL A   1      36.957  34.029  29.803  1.00  0.00     0.135 A 
ATOM     75  F   UNL A   1      35.181  31.811  32.070  1.00  0.00    -0.206 F 
ATOM     76  C   UNL A   1      34.350  33.378  30.531  1.00  0.00     0.059 A 
ATOM     77  C   UNL A   1      35.895  34.694  29.200  1.00  0.00     0.059 A 
ATOM     78  F   UNL A   1      38.205  34.365  29.437  1.00  0.00    -0.206 F 
ATOM     79  C   UNL A   1      34.594  34.355  29.564  1.00  0.00     0.060 A 
BRANCH  79  80
ATOM     80  S   UNL A   1      33.188  35.206  28.818  1.00  0.00     0.124 S 
ATOM     81  O   UNL A   1      33.844  36.318  28.137  1.00  0.00    -0.237 OA
ATOM     82  O   UNL A   1      32.627  34.171  27.956  1.00  0.00    -0.237 OA
ATOM     83  O   UNL A   1      32.366  35.567  29.970  1.00  0.00    -0.744 OA
ENDBRANCH  79  80
ENDBRANCH  47  72
BRANCH  59  84
ATOM     84  C   UNL A   1      39.901  33.754  36.980  1.00  0.00     0.058 A 
ATOM     85  C   UNL A   1      40.517  35.015  37.033  1.00  0.00     0.135 A 
ATOM     86  C   UNL A   1      39.034  33.407  38.030  1.00  0.00     0.135 A 
ATOM     87  F   UNL A   1      41.359  35.397  36.059  1.00  0.00    -0.206 F 
ATOM     88  C   UNL A   1      40.305  35.884  38.099  1.00  0.00     0.059 A 
ATOM     89  C   UNL A   1      38.783  34.273  39.089  1.00  0.00     0.059 A 
ATOM     90  F   UNL A   1      38.409  32.217  38.026  1.00  0.00    -0.206 F 
ATOM     91  C   UNL A   1      39.435  35.504  39.123  1.00  0.00     0.060 A 
BRANCH  91  92
ATOM     92  S   UNL A   1      39.156  36.649  40.490  1.00  0.00     0.124 S 
ATOM     93  O   UNL A   1      38.565  37.792  39.801  1.00  0.00    -0.237 OA
ATOM     94  O   UNL A   1      38.254  35.892  41.351  1.00  0.00    -0.237 OA
ATOM     95  O   UNL A   1      40.496  36.866  41.031  1.00  0.00    -0.744 OA
ENDBRANCH  91  92
ENDBRANCH  59  84
ENDBRANCH  33  34
ENDBRANCH  26  28
ENDBRANCH  25  26
ENDBRANCH  24  25
ENDBRANCH  23  24
ENDBRANCH  22  23
ENDBRANCH  21  22
ENDBRANCH   1  21
TORSDOF 24
ENDMDL
MODEL 2
REMARK VINA RESULT:      -9.2      1.938      3.666
REMARK SMILES CC[C@H](CCO)CNc1cc(C(=O)OCCOCCOC(=O)c2ccc(-c3c4nc(c(-c5c(F)cc(S(=O)(=O)[O-])cc5F)c5ccc([nH]5)c(-c5c(F)cc(S(=O)(=O)[O-])cc5F)c5nc(c(-c6c(F)cc(S(=O)(=O)[O-])cc6F)c6ccc3[nH]6)C=C5)C=C4)cc2)ccn1
REMARK SMILES IDX 15 1 14 2 12 3 13 4 11 5 9 6 10 7 91 8 90 9 89 10 8 11 7 13
REMARK SMILES IDX 3 14 2 15 1 16 4 17 5 18 6 19 16 21 17 22 18 23 19 24 20 25
REMARK SMILES IDX 21 26 22 27 23 28 24 29 88 30 25 31 87 32 26 33 27 34 28 35
REMARK SMILES IDX 81 36 29 37 86 38 80 39 82 40 30 41 85 42 79 43 78 44 31 46
REMARK SMILES IDX 65 47 44 48 64 49 45 50 48 51 63 52 83 53 46 54 47 55 62 57
REMARK SMILES IDX 84 58 49 59 32 60 33 61 42 62 34 63 35 64 41 65 43 66 36 67
REMARK SMILES IDX 37 68 38 69 39 70 40 71 66 72 67 73 76 74 68 75 69 76 75 77
REMARK SMILES IDX 77 78 70 79 71 80 72 81 73 82 74 83 50 84 51 85 60 86 52 87
REMARK SMILES IDX 53 88 59 89 61 90 54 91 55 92 56 93 57 94 58 95
REMARK H PARENT 8 12 6 20 82 45 48 56
REMARK Flexibility Score: inf
ROOT
ATOM      1  C   UNL A   1      38.266  23.462  25.940  1.00  0.00     0.261 C 
ENDROOT
BRANCH   1   2
ATOM      2  O   UNL A   1      36.836  23.395  25.836  1.00  0.00    -0.460 OA
BRANCH   2   3
ATOM      3  C   UNL A   1      36.370  23.036  24.617  1.00  0.00     0.338 C 
ATOM      4  O   UNL A   1      37.021  22.868  23.597  1.00  0.00    -0.246 OA
BRANCH   3   5
ATOM      5  C   UNL A   1      34.941  22.670  24.713  1.00  0.00     0.065 A 
ATOM      6  C   UNL A   1      33.151  21.192  25.244  1.00  0.00     0.126 A 
ATOM      7  C   UNL A   1      34.512  21.420  25.164  1.00  0.00     0.062 A 
ATOM      8  N   UNL A   1      32.249  22.104  24.823  1.00  0.00    -0.240 NA
ATOM      9  C   UNL A   1      32.689  23.288  24.353  1.00  0.00     0.114 A 
ATOM     10  C   UNL A   1      34.019  23.625  24.296  1.00  0.00     0.036 A 
BRANCH   6  11
ATOM     11  N   UNL A   1      32.560  20.071  25.747  1.00  0.00    -0.370 N 
ATOM     12  H   UNL A   1      31.580  20.098  25.835  1.00  0.00     0.162 HD
BRANCH  11  13
ATOM     13  C   UNL A   1      33.205  18.844  26.170  1.00  0.00     0.118 C 
BRANCH  13  14
ATOM     14  C   UNL A   1      33.140  17.772  25.063  1.00  0.00     0.010 C 
BRANCH  14  15
ATOM     15  C   UNL A   1      34.572  17.436  24.564  1.00  0.00     0.002 C 
ATOM     16  C   UNL A   1      35.172  16.158  25.148  1.00  0.00     0.004 C 
ENDBRANCH  14  15
BRANCH  14  17
ATOM     17  C   UNL A   1      32.229  18.047  23.835  1.00  0.00     0.033 C 
BRANCH  17  18
ATOM     18  C   UNL A   1      32.768  17.808  22.430  1.00  0.00     0.156 C 
BRANCH  18  19
ATOM     19  O   UNL A   1      31.728  17.807  21.466  1.00  0.00    -0.396 OA
ATOM     20  H   UNL A   1      31.023  17.206  21.752  1.00  0.00     0.210 HD
ENDBRANCH  18  19
ENDBRANCH  17  18
ENDBRANCH  14  17
ENDBRANCH  13  14
ENDBRANCH  11  13
ENDBRANCH   6  11
ENDBRANCH   3   5
ENDBRANCH   2   3
ENDBRANCH   1   2
BRANCH   1  21
ATOM     21  C   UNL A   1      38.874  22.079  26.201  1.00  0.00     0.202 C 
BRANCH  21  22
ATOM     22  O   UNL A   1      40.010  22.027  27.064  1.00  0.00    -0.374 OA
BRANCH  22  23
ATOM     23  C   UNL A   1      41.201  21.438  26.542  1.00  0.00     0.202 C 
BRANCH  23  24
ATOM     24  C   UNL A   1      42.263  22.381  25.962  1.00  0.00     0.261 C 
BRANCH  24  25
ATOM     25  O   UNL A   1      41.824  23.749  25.930  1.00  0.00    -0.460 OA
BRANCH  25  26
ATOM     26  C   UNL A   1      42.789  24.656  26.221  1.00  0.00     0.338 C 
ATOM     27  O   UNL A   1      43.874  24.775  25.679  1.00  0.00    -0.246 OA
BRANCH  26  28
ATOM     28  C   UNL A   1      42.273  25.641  27.190  1.00  0.00     0.060 A 
ATOM     29  C   UNL A   1      42.949  26.865  27.285  1.00  0.00     0.016 A 
ATOM     30  C   UNL A   1      41.197  25.356  28.033  1.00  0.00     0.016 A 
ATOM     31  C   UNL A   1      42.581  27.789  28.260  1.00  0.00     0.010 A 
ATOM     32  C   UNL A   1      40.834  26.285  29.015  1.00  0.00     0.010 A 
ATOM     33  C   UNL A   1      41.546  27.489  29.155  1.00  0.00    -0.014 A 
BRANCH  33  34
ATOM     34  C   UNL A   1      41.295  28.388  30.309  1.00  0.00     0.031 A 
ATOM     35  C   UNL A   1      42.150  28.261  31.541  1.00  0.00     0.074 A 
ATOM     36  C   UNL A   1      40.336  29.329  30.244  1.00  0.00     0.049 A 
ATOM     37  N   UNL A   1      42.089  28.928  32.664  1.00  0.00    -0.248 NA
ATOM     38  C   UNL A   1      43.214  27.246  31.502  1.00  0.00     0.031 C 
ATOM     39  C   UNL A   1      39.466  29.568  29.091  1.00  0.00     0.029 A 
ATOM     40  N   UNL A   1      39.929  30.257  31.170  1.00  0.00    -0.354 N 
ATOM     41  C   UNL A   1      43.098  28.412  33.469  1.00  0.00     0.074 A 
ATOM     42  C   UNL A   1      43.735  27.351  32.717  1.00  0.00     0.031 C 
ATOM     43  C   UNL A   1      38.623  30.574  29.382  1.00  0.00     0.029 A 
ATOM     44  C   UNL A   1      38.871  31.026  30.750  1.00  0.00     0.049 A 
ATOM     45  H   UNL A   1      40.357  30.362  32.050  1.00  0.00     0.167 HD
ATOM     46  C   UNL A   1      43.467  28.793  34.715  1.00  0.00     0.037 A 
ATOM     47  C   UNL A   1      38.166  31.972  31.404  1.00  0.00     0.037 A 
ATOM     48  C   UNL A   1      42.828  29.851  35.455  1.00  0.00     0.049 A 
ATOM     49  C   UNL A   1      38.554  32.336  32.813  1.00  0.00     0.074 A 
ATOM     50  C   UNL A   1      43.142  30.330  36.716  1.00  0.00     0.029 A 
ATOM     51  N   UNL A   1      41.738  30.587  35.011  1.00  0.00    -0.354 N 
ATOM     52  N   UNL A   1      39.530  31.859  33.551  1.00  0.00    -0.248 NA
ATOM     53  C   UNL A   1      37.749  33.369  33.478  1.00  0.00     0.031 C 
ATOM     54  C   UNL A   1      42.207  31.314  37.056  1.00  0.00     0.029 A 
ATOM     55  C   UNL A   1      41.350  31.495  35.982  1.00  0.00     0.049 A 
ATOM     56  H   UNL A   1      41.306  30.480  34.133  1.00  0.00     0.167 HD
ATOM     57  C   UNL A   1      39.471  32.555  34.755  1.00  0.00     0.074 A 
ATOM     58  C   UNL A   1      38.376  33.494  34.640  1.00  0.00     0.031 C 
ATOM     59  C   UNL A   1      40.255  32.426  35.856  1.00  0.00     0.037 A 
BRANCH  46  60
ATOM     60  C   UNL A   1      44.597  28.046  35.370  1.00  0.00     0.058 A 
ATOM     61  C   UNL A   1      44.375  26.904  36.156  1.00  0.00     0.135 A 
ATOM     62  C   UNL A   1      45.927  28.456  35.177  1.00  0.00     0.135 A 
ATOM     63  F   UNL A   1      43.125  26.476  36.389  1.00  0.00    -0.206 F 
ATOM     64  C   UNL A   1      45.427  26.211  36.748  1.00  0.00     0.059 A 
ATOM     65  C   UNL A   1      46.996  27.761  35.734  1.00  0.00     0.059 A 
ATOM     66  F   UNL A   1      46.199  29.543  34.436  1.00  0.00    -0.206 F 
ATOM     67  C   UNL A   1      46.736  26.646  36.529  1.00  0.00     0.060 A 
BRANCH  67  68
ATOM     68  S   UNL A   1      48.089  25.731  37.296  1.00  0.00     0.124 S 
ATOM     69  O   UNL A   1      47.575  24.366  37.262  1.00  0.00    -0.237 OA
ATOM     70  O   UNL A   1      49.203  26.010  36.395  1.00  0.00    -0.237 OA
ATOM     71  O   UNL A   1      48.195  26.329  38.624  1.00  0.00    -0.744 OA
ENDBRANCH  67  68
ENDBRANCH  46  60
BRANCH  47  72
ATOM     72  C   UNL A   1      37.014  32.633  30.735  1.00  0.00     0.058 A 
ATOM     73  C   UNL A   1      37.204  33.691  29.834  1.00  0.00     0.135 A 
ATOM     74  C   UNL A   1      35.695  32.218  30.983  1.00  0.00     0.135 A 
ATOM     75  F   UNL A   1      38.444  34.132  29.571  1.00  0.00    -0.206 F 
ATOM     76  C   UNL A   1      36.131  34.322  29.214  1.00  0.00     0.059 A 
ATOM     77  C   UNL A   1      34.608  32.814  30.353  1.00  0.00     0.059 A 
ATOM     78  F   UNL A   1      35.458  31.202  31.829  1.00  0.00    -0.206 F 
ATOM     79  C   UNL A   1      34.836  33.872  29.476  1.00  0.00     0.060 A 
BRANCH  79  80
ATOM     80  S   UNL A   1      33.454  34.662  28.624  1.00  0.00     0.124 S 
ATOM     81  O   UNL A   1      34.108  35.812  28.007  1.00  0.00    -0.237 OA
ATOM     82  O   UNL A   1      33.017  33.610  27.712  1.00  0.00    -0.237 OA
ATOM     83  O   UNL A   1      32.524  34.970  29.706  1.00  0.00    -0.744 OA
ENDBRANCH  79  80
ENDBRANCH  47  72
BRANCH  59  84
ATOM     84  C   UNL A   1      39.977  33.346  37.015  1.00  0.00     0.058 A 
ATOM     85  C   UNL A   1      38.986  33.061  37.968  1.00  0.00     0.135 A 
ATOM     86  C   UNL A   1      40.740  34.513  37.196  1.00  0.00     0.135 A 
ATOM     87  F   UNL A   1      38.224  31.963  37.842  1.00  0.00    -0.206 F 
ATOM     88  C   UNL A   1      38.740  33.915  39.040  1.00  0.00     0.059 A 
ATOM     89  C   UNL A   1      40.534  35.363  38.278  1.00  0.00     0.059 A 
ATOM     90  F   UNL A   1      41.710  34.830  36.322  1.00  0.00    -0.206 F 
ATOM     91  C   UNL A   1      39.520  35.063  39.187  1.00  0.00     0.060 A 
BRANCH  91  92
ATOM     92  S   UNL A   1      39.202  36.151  40.592  1.00  0.00     0.124 S 
ATOM     93  O   UNL A   1      38.559  37.289  39.943  1.00  0.00    -0.237 OA
ATOM     94  O   UNL A   1      38.337  35.329  41.433  1.00  0.00    -0.237 OA
ATOM     95  O   UNL A   1      40.534  36.407  41.133  1.00  0.00    -0.744 OA
ENDBRANCH  91  92
ENDBRANCH  59  84
ENDBRANCH  33  34
ENDBRANCH  26  28
ENDBRANCH  25  26
ENDBRANCH  24  25
ENDBRANCH  23  24
ENDBRANCH  22  23
ENDBRANCH  21  22
ENDBRANCH   1  21
TORSDOF 24
ENDMDL
MODEL 3
REMARK VINA RESULT:      -9.0      4.470     10.548
REMARK SMILES CC[C@H](CCO)CNc1cc(C(=O)OCCOCCOC(=O)c2ccc(-c3c4nc(c(-c5c(F)cc(S(=O)(=O)[O-])cc5F)c5ccc([nH]5)c(-c5c(F)cc(S(=O)(=O)[O-])cc5F)c5nc(c(-c6c(F)cc(S(=O)(=O)[O-])cc6F)c6ccc3[nH]6)C=C5)C=C4)cc2)ccn1
REMARK SMILES IDX 15 1 14 2 12 3 13 4 11 5 9 6 10 7 91 8 90 9 89 10 8 11 7 13
REMARK SMILES IDX 3 14 2 15 1 16 4 17 5 18 6 19 16 21 17 22 18 23 19 24 20 25
REMARK SMILES IDX 21 26 22 27 23 28 24 29 88 30 25 31 87 32 26 33 27 34 28 35
REMARK SMILES IDX 81 36 29 37 86 38 80 39 82 40 30 41 85 42 79 43 78 44 31 46
REMARK SMILES IDX 65 47 44 48 64 49 45 50 48 51 63 52 83 53 46 54 47 55 62 57
REMARK SMILES IDX 84 58 49 59 32 60 33 61 42 62 34 63 35 64 41 65 43 66 36 67
REMARK SMILES IDX 37 68 38 69 39 70 40 71 66 72 67 73 76 74 68 75 69 76 75 77
REMARK SMILES IDX 77 78 70 79 71 80 72 81 73 82 74 83 50 84 51 85 60 86 52 87
REMARK SMILES IDX 53 88 59 89 61 90 54 91 55 92 56 93 57 94 58 95
REMARK H PARENT 8 12 6 20 82 45 48 56
REMARK Flexibility Score: inf
ROOT
ATOM      1  C   UNL A   1      31.506  26.205  24.016  1.00  0.00     0.261 C 
ENDROOT
BRANCH   1   2
ATOM      2  O   UNL A   1      31.744  25.486  22.796  1.00  0.00    -0.460 OA
BRANCH   2   3
ATOM      3  C   UNL A   1      33.049  25.338  22.468  1.00  0.00     0.338 C 
ATOM      4  O   UNL A   1      33.681  25.983  21.644  1.00  0.00    -0.246 OA
BRANCH   3   5
ATOM      5  C   UNL A   1      33.698  24.392  23.399  1.00  0.00     0.065 A 
ATOM      6  C   UNL A   1      34.147  22.217  24.259  1.00  0.00     0.126 A 
ATOM      7  C   UNL A   1      33.464  23.016  23.361  1.00  0.00     0.062 A 
ATOM      8  N   UNL A   1      34.955  22.739  25.206  1.00  0.00    -0.240 NA
ATOM      9  C   UNL A   1      35.133  24.074  25.249  1.00  0.00     0.114 A 
ATOM     10  C   UNL A   1      34.545  24.938  24.359  1.00  0.00     0.036 A 
BRANCH   6  11
ATOM     11  N   UNL A   1      34.110  20.855  24.299  1.00  0.00    -0.370 N 
ATOM     12  H   UNL A   1      34.369  20.388  23.471  1.00  0.00     0.162 HD
BRANCH  11  13
ATOM     13  C   UNL A   1      33.732  20.011  25.415  1.00  0.00     0.118 C 
BRANCH  13  14
ATOM     14  C   UNL A   1      33.362  18.592  24.938  1.00  0.00     0.010 C 
BRANCH  14  15
ATOM     15  C   UNL A   1      34.620  17.875  24.378  1.00  0.00     0.002 C 
ATOM     16  C   UNL A   1      34.787  16.424  24.828  1.00  0.00     0.004 C 
ENDBRANCH  14  15
BRANCH  14  17
ATOM     17  C   UNL A   1      32.200  18.446  23.917  1.00  0.00     0.033 C 
BRANCH  17  18
ATOM     18  C   UNL A   1      32.509  18.414  22.426  1.00  0.00     0.156 C 
BRANCH  18  19
ATOM     19  O   UNL A   1      31.605  17.577  21.724  1.00  0.00    -0.396 OA
ATOM     20  H   UNL A   1      30.828  17.404  22.278  1.00  0.00     0.210 HD
ENDBRANCH  18  19
ENDBRANCH  17  18
ENDBRANCH  14  17
ENDBRANCH  13  14
ENDBRANCH  11  13
ENDBRANCH   6  11
ENDBRANCH   3   5
ENDBRANCH   2   3
ENDBRANCH   1   2
BRANCH   1  21
ATOM     21  C   UNL A   1      31.121  27.663  23.740  1.00  0.00     0.202 C 
BRANCH  21  22
ATOM     22  O   UNL A   1      32.138  28.646  23.941  1.00  0.00    -0.374 OA
BRANCH  22  23
ATOM     23  C   UNL A   1      33.208  28.308  24.825  1.00  0.00     0.202 C 
BRANCH  23  24
ATOM     24  C   UNL A   1      33.106  28.791  26.278  1.00  0.00     0.261 C 
BRANCH  24  25
ATOM     25  O   UNL A   1      34.367  28.737  26.964  1.00  0.00    -0.460 OA
BRANCH  25  26
ATOM     26  C   UNL A   1      34.730  29.898  27.563  1.00  0.00     0.338 C 
ATOM     27  O   UNL A   1      34.017  30.857  27.803  1.00  0.00    -0.246 OA
BRANCH  26  28
ATOM     28  C   UNL A   1      36.108  29.785  28.079  1.00  0.00     0.060 A 
ATOM     29  C   UNL A   1      37.154  29.986  27.170  1.00  0.00     0.016 A 
ATOM     30  C   UNL A   1      36.374  29.425  29.402  1.00  0.00     0.016 A 
ATOM     31  C   UNL A   1      38.472  29.778  27.568  1.00  0.00     0.010 A 
ATOM     32  C   UNL A   1      37.700  29.213  29.797  1.00  0.00     0.010 A 
ATOM     33  C   UNL A   1      38.751  29.354  28.874  1.00  0.00    -0.014 A 
BRANCH  33  34
ATOM     34  C   UNL A   1      40.132  28.946  29.230  1.00  0.00     0.031 A 
ATOM     35  C   UNL A   1      41.010  29.903  29.989  1.00  0.00     0.074 A 
ATOM     36  C   UNL A   1      40.585  27.720  28.908  1.00  0.00     0.049 A 
ATOM     37  N   UNL A   1      42.250  29.757  30.382  1.00  0.00    -0.248 NA
ATOM     38  C   UNL A   1      40.413  31.198  30.352  1.00  0.00     0.031 C 
ATOM     39  C   UNL A   1      39.816  26.695  28.202  1.00  0.00     0.029 A 
ATOM     40  N   UNL A   1      41.805  27.131  29.129  1.00  0.00    -0.354 N 
ATOM     41  C   UNL A   1      42.584  30.940  31.031  1.00  0.00     0.074 A 
ATOM     42  C   UNL A   1      41.428  31.807  30.949  1.00  0.00     0.031 C 
ATOM     43  C   UNL A   1      40.585  25.605  28.042  1.00  0.00     0.029 A 
ATOM     44  C   UNL A   1      41.910  25.866  28.603  1.00  0.00     0.049 A 
ATOM     45  H   UNL A   1      42.535  27.573  29.620  1.00  0.00     0.167 HD
ATOM     46  C   UNL A   1      43.744  31.269  31.648  1.00  0.00     0.037 A 
ATOM     47  C   UNL A   1      42.961  25.023  28.559  1.00  0.00     0.037 A 
ATOM     48  C   UNL A   1      44.890  30.398  31.725  1.00  0.00     0.049 A 
ATOM     49  C   UNL A   1      44.262  25.436  29.196  1.00  0.00     0.074 A 
ATOM     50  C   UNL A   1      46.105  30.629  32.348  1.00  0.00     0.029 A 
ATOM     51  N   UNL A   1      44.970  29.136  31.154  1.00  0.00    -0.354 N 
ATOM     52  N   UNL A   1      44.555  26.546  29.832  1.00  0.00    -0.248 NA
ATOM     53  C   UNL A   1      45.374  24.480  29.114  1.00  0.00     0.031 C 
ATOM     54  C   UNL A   1      46.938  29.532  32.103  1.00  0.00     0.029 A 
ATOM     55  C   UNL A   1      46.222  28.589  31.383  1.00  0.00     0.049 A 
ATOM     56  H   UNL A   1      44.243  28.695  30.659  1.00  0.00     0.167 HD
ATOM     57  C   UNL A   1      45.876  26.409  30.249  1.00  0.00     0.074 A 
ATOM     58  C   UNL A   1      46.318  25.103  29.807  1.00  0.00     0.031 C 
ATOM     59  C   UNL A   1      46.651  27.286  30.936  1.00  0.00     0.037 A 
BRANCH  46  60
ATOM     60  C   UNL A   1      43.846  32.637  32.266  1.00  0.00     0.058 A 
ATOM     61  C   UNL A   1      44.222  33.764  31.517  1.00  0.00     0.135 A 
ATOM     62  C   UNL A   1      43.523  32.832  33.619  1.00  0.00     0.135 A 
ATOM     63  F   UNL A   1      44.557  33.635  30.224  1.00  0.00    -0.206 F 
ATOM     64  C   UNL A   1      44.300  35.029  32.093  1.00  0.00     0.059 A 
ATOM     65  C   UNL A   1      43.565  34.092  34.209  1.00  0.00     0.059 A 
ATOM     66  F   UNL A   1      43.159  31.790  34.384  1.00  0.00    -0.206 F 
ATOM     67  C   UNL A   1      43.967  35.183  33.441  1.00  0.00     0.060 A 
BRANCH  67  68
ATOM     68  S   UNL A   1      44.066  36.831  34.170  1.00  0.00     0.124 S 
ATOM     69  O   UNL A   1      42.815  37.428  33.713  1.00  0.00    -0.237 OA
ATOM     70  O   UNL A   1      44.141  36.535  35.598  1.00  0.00    -0.237 OA
ATOM     71  O   UNL A   1      45.279  37.392  33.584  1.00  0.00    -0.744 OA
ENDBRANCH  67  68
ENDBRANCH  46  60
BRANCH  47  72
ATOM     72  C   UNL A   1      42.829  23.708  27.876  1.00  0.00     0.058 A 
ATOM     73  C   UNL A   1      43.083  23.574  26.502  1.00  0.00     0.135 A 
ATOM     74  C   UNL A   1      42.448  22.558  28.585  1.00  0.00     0.135 A 
ATOM     75  F   UNL A   1      43.439  24.645  25.778  1.00  0.00    -0.206 F 
ATOM     76  C   UNL A   1      42.951  22.350  25.854  1.00  0.00     0.059 A 
ATOM     77  C   UNL A   1      42.338  21.318  27.964  1.00  0.00     0.059 A 
ATOM     78  F   UNL A   1      42.204  22.630  29.903  1.00  0.00    -0.206 F 
ATOM     79  C   UNL A   1      42.582  21.226  26.596  1.00  0.00     0.060 A 
BRANCH  79  80
ATOM     80  S   UNL A   1      42.467  19.632  25.755  1.00  0.00     0.124 S 
ATOM     81  O   UNL A   1      41.053  19.592  25.393  1.00  0.00    -0.237 OA
ATOM     82  O   UNL A   1      43.405  19.803  24.650  1.00  0.00    -0.237 OA
ATOM     83  O   UNL A   1      42.884  18.681  26.781  1.00  0.00    -0.744 OA
ENDBRANCH  79  80
ENDBRANCH  47  72
BRANCH  59  84
ATOM     84  C   UNL A   1      48.050  26.850  31.282  1.00  0.00     0.058 A 
ATOM     85  C   UNL A   1      48.358  26.248  32.513  1.00  0.00     0.135 A 
ATOM     86  C   UNL A   1      49.093  27.002  30.352  1.00  0.00     0.135 A 
ATOM     87  F   UNL A   1      47.402  26.082  33.441  1.00  0.00    -0.206 F 
ATOM     88  C   UNL A   1      49.653  25.843  32.822  1.00  0.00     0.059 A 
ATOM     89  C   UNL A   1      50.388  26.575  30.627  1.00  0.00     0.059 A 
ATOM     90  F   UNL A   1      48.855  27.561  29.154  1.00  0.00    -0.206 F 
ATOM     91  C   UNL A   1      50.662  26.010  31.872  1.00  0.00     0.060 A 
BRANCH  91  92
ATOM     92  S   UNL A   1      52.333  25.463  32.279  1.00  0.00     0.124 S 
ATOM     93  O   UNL A   1      53.111  26.067  31.202  1.00  0.00    -0.237 OA
ATOM     94  O   UNL A   1      52.534  26.037  33.606  1.00  0.00    -0.237 OA
ATOM     95  O   UNL A   1      52.233  24.007  32.241  1.00  0.00    -0.744 OA
ENDBRANCH  91  92
ENDBRANCH  59  84
ENDBRANCH  33  34
ENDBRANCH  26  28
ENDBRANCH  25  26
ENDBRANCH  24  25
ENDBRANCH  23  24
ENDBRANCH  22  23
ENDBRANCH  21  22
ENDBRANCH   1  21
TORSDOF 24
ENDMDL
