MODEL 1
REMARK VINA RESULT:     -10.9      0.000      0.000
REMARK SMILES O=C(OCCOCCOC(=O)[C@@H]1[C@H](C(=O)Nc2ccccc2OC(F)F)[C@@H]2C=C[C@H]1C2)c1ccc(-c2c3nc(c(-c4c(F)cc(S(=O)(=O)[O-])cc4F)c4ccc([nH]4)c(-c4c(F)cc(S(=O)(=O)[O-])cc4F)c4nc(c(-c5c(F)cc(S(=O)(=O)[O-])cc5F)c5ccc2[nH]5)C=C4)C=C3)cc1
REMARK SMILES IDX 7 1 6 2 5 3 4 4 3 5 2 6 1 7 32 8 33 9 97 10 34 11 96 12
REMARK SMILES IDX 35 13 36 14 37 15 90 16 38 17 95 18 89 19 91 20 39 21 94 22
REMARK SMILES IDX 88 23 87 24 40 26 74 27 53 28 73 29 54 30 57 31 72 32 92 33
REMARK SMILES IDX 55 34 56 35 71 37 93 38 58 39 41 40 42 41 51 42 43 43 44 44
REMARK SMILES IDX 50 45 52 46 45 47 46 48 47 49 48 50 49 51 75 52 76 53 85 54
REMARK SMILES IDX 77 55 78 56 84 57 86 58 79 59 80 60 81 61 82 62 83 63 59 64
REMARK SMILES IDX 60 65 69 66 61 67 62 68 68 69 70 70 63 71 64 72 65 73 66 74
REMARK SMILES IDX 67 75 8 76 9 77 10 78 11 79 12 80 13 81 30 82 27 83 29 84
REMARK SMILES IDX 31 85 28 86 14 87 15 88 16 89 17 91 18 92 22 93 19 94 21 95
REMARK SMILES IDX 20 96 23 97 24 98 25 99 26 100
REMARK H PARENT 91 25 57 36 16 90
REMARK Flexibility Score: inf
ROOT
ATOM      1  C   UNL A   1      32.689  29.577  24.865  1.00  0.00     0.202 C 
ENDROOT
BRANCH   1   2
ATOM      2  O   UNL A   1      32.010  29.253  26.090  1.00  0.00    -0.374 OA
BRANCH   2   3
ATOM      3  C   UNL A   1      32.359  30.075  27.190  1.00  0.00     0.202 C 
BRANCH   3   4
ATOM      4  C   UNL A   1      33.800  30.631  27.228  1.00  0.00     0.261 C 
BRANCH   4   5
ATOM      5  O   UNL A   1      34.715  29.866  28.053  1.00  0.00    -0.460 OA
BRANCH   5   6
ATOM      6  C   UNL A   1      35.750  30.438  28.741  1.00  0.00     0.338 C 
ATOM      7  O   UNL A   1      35.603  31.365  29.509  1.00  0.00    -0.246 OA
BRANCH   6   8
ATOM      8  C   UNL A   1      37.078  29.842  28.476  1.00  0.00     0.060 A 
ATOM      9  C   UNL A   1      37.754  29.300  29.551  1.00  0.00     0.016 A 
ATOM     10  C   UNL A   1      37.705  29.928  27.237  1.00  0.00     0.016 A 
ATOM     11  C   UNL A   1      39.127  29.260  29.509  1.00  0.00     0.010 A 
ATOM     12  C   UNL A   1      39.043  29.525  27.130  1.00  0.00     0.010 A 
ATOM     13  C   UNL A   1      39.787  29.220  28.284  1.00  0.00    -0.014 A 
BRANCH  13  14
ATOM     14  C   UNL A   1      41.216  28.793  28.261  1.00  0.00     0.031 A 
ATOM     15  C   UNL A   1      42.308  29.785  28.539  1.00  0.00     0.074 A 
ATOM     16  C   UNL A   1      41.528  27.501  27.994  1.00  0.00     0.049 A 
ATOM     17  N   UNL A   1      43.570  29.724  28.213  1.00  0.00    -0.248 NA
ATOM     18  C   UNL A   1      41.931  31.026  29.237  1.00  0.00     0.031 C 
ATOM     19  C   UNL A   1      40.569  26.409  27.763  1.00  0.00     0.029 A 
ATOM     20  N   UNL A   1      42.739  26.864  27.900  1.00  0.00    -0.354 N 
ATOM     21  C   UNL A   1      44.110  30.961  28.544  1.00  0.00     0.074 A 
ATOM     22  C   UNL A   1      43.050  31.735  29.153  1.00  0.00     0.031 C 
ATOM     23  C   UNL A   1      41.209  25.239  27.704  1.00  0.00     0.029 A 
ATOM     24  C   UNL A   1      42.629  25.514  27.640  1.00  0.00     0.049 A 
ATOM     25  H   UNL A   1      43.603  27.324  28.008  1.00  0.00     0.167 HD
ATOM     26  C   UNL A   1      45.369  31.402  28.306  1.00  0.00     0.037 A 
ATOM     27  C   UNL A   1      43.547  24.606  27.268  1.00  0.00     0.037 A 
ATOM     28  C   UNL A   1      46.400  30.555  27.760  1.00  0.00     0.049 A 
ATOM     29  C   UNL A   1      44.932  25.110  27.016  1.00  0.00     0.074 A 
ATOM     30  C   UNL A   1      47.703  30.873  27.424  1.00  0.00     0.029 A 
ATOM     31  N   UNL A   1      46.238  29.198  27.498  1.00  0.00    -0.354 N 
ATOM     32  N   UNL A   1      45.398  26.328  27.161  1.00  0.00    -0.248 NA
ATOM     33  C   UNL A   1      45.900  24.141  26.498  1.00  0.00     0.031 C 
ATOM     34  C   UNL A   1      48.322  29.711  26.944  1.00  0.00     0.029 A 
ATOM     35  C   UNL A   1      47.419  28.660  27.018  1.00  0.00     0.049 A 
ATOM     36  H   UNL A   1      45.405  28.693  27.634  1.00  0.00     0.167 HD
ATOM     37  C   UNL A   1      46.719  26.277  26.754  1.00  0.00     0.074 A 
ATOM     38  C   UNL A   1      46.982  24.898  26.380  1.00  0.00     0.031 C 
ATOM     39  C   UNL A   1      47.633  27.275  26.680  1.00  0.00     0.037 A 
BRANCH  26  40
ATOM     40  C   UNL A   1      45.655  32.862  28.544  1.00  0.00     0.058 A 
ATOM     41  C   UNL A   1      46.165  33.350  29.755  1.00  0.00     0.135 A 
ATOM     42  C   UNL A   1      45.374  33.800  27.533  1.00  0.00     0.135 A 
ATOM     43  F   UNL A   1      46.434  32.507  30.764  1.00  0.00    -0.206 F 
ATOM     44  C   UNL A   1      46.346  34.715  29.974  1.00  0.00     0.059 A 
ATOM     45  C   UNL A   1      45.570  35.166  27.721  1.00  0.00     0.059 A 
ATOM     46  F   UNL A   1      44.883  33.394  26.351  1.00  0.00    -0.206 F 
ATOM     47  C   UNL A   1      46.032  35.617  28.954  1.00  0.00     0.060 A 
BRANCH  47  48
ATOM     48  S   UNL A   1      46.218  37.387  29.268  1.00  0.00     0.124 S 
ATOM     49  O   UNL A   1      45.069  37.650  30.128  1.00  0.00    -0.237 OA
ATOM     50  O   UNL A   1      47.524  37.456  29.916  1.00  0.00    -0.237 OA
ATOM     51  O   UNL A   1      46.152  37.977  27.934  1.00  0.00    -0.744 OA
ENDBRANCH  47  48
ENDBRANCH  26  40
BRANCH  27  52
ATOM     52  C   UNL A   1      43.154  23.191  27.010  1.00  0.00     0.058 A 
ATOM     53  C   UNL A   1      42.972  22.728  25.701  1.00  0.00     0.135 A 
ATOM     54  C   UNL A   1      43.007  22.260  28.054  1.00  0.00     0.135 A 
ATOM     55  F   UNL A   1      43.094  23.575  24.668  1.00  0.00    -0.206 F 
ATOM     56  C   UNL A   1      42.655  21.398  25.433  1.00  0.00     0.059 A 
ATOM     57  C   UNL A   1      42.730  20.919  27.811  1.00  0.00     0.059 A 
ATOM     58  F   UNL A   1      43.188  22.640  29.329  1.00  0.00    -0.206 F 
ATOM     59  C   UNL A   1      42.542  20.500  26.496  1.00  0.00     0.060 A 
BRANCH  59  60
ATOM     60  S   UNL A   1      42.185  18.766  26.137  1.00  0.00     0.124 S 
ATOM     61  O   UNL A   1      42.463  18.140  27.424  1.00  0.00    -0.237 OA
ATOM     62  O   UNL A   1      40.781  18.814  25.741  1.00  0.00    -0.237 OA
ATOM     63  O   UNL A   1      43.120  18.447  25.062  1.00  0.00    -0.744 OA
ENDBRANCH  59  60
ENDBRANCH  27  52
BRANCH  39  64
ATOM     64  C   UNL A   1      49.006  26.876  26.241  1.00  0.00     0.058 A 
ATOM     65  C   UNL A   1      49.407  26.968  24.900  1.00  0.00     0.135 A 
ATOM     66  C   UNL A   1      49.930  26.406  27.185  1.00  0.00     0.135 A 
ATOM     67  F   UNL A   1      48.546  27.395  23.964  1.00  0.00    -0.206 F 
ATOM     68  C   UNL A   1      50.681  26.584  24.505  1.00  0.00     0.059 A 
ATOM     69  C   UNL A   1      51.217  26.040  26.815  1.00  0.00     0.059 A 
ATOM     70  F   UNL A   1      49.584  26.303  28.478  1.00  0.00    -0.206 F 
ATOM     71  C   UNL A   1      51.578  26.121  25.470  1.00  0.00     0.060 A 
BRANCH  71  72
ATOM     72  S   UNL A   1      53.241  25.652  24.954  1.00  0.00     0.124 S 
ATOM     73  O   UNL A   1      53.226  26.025  23.544  1.00  0.00    -0.237 OA
ATOM     74  O   UNL A   1      54.081  26.476  25.819  1.00  0.00    -0.237 OA
ATOM     75  O   UNL A   1      53.288  24.219  25.226  1.00  0.00    -0.744 OA
ENDBRANCH  71  72
ENDBRANCH  39  64
ENDBRANCH  13  14
ENDBRANCH   6   8
ENDBRANCH   5   6
ENDBRANCH   4   5
ENDBRANCH   3   4
ENDBRANCH   2   3
ENDBRANCH   1   2
BRANCH   1  76
ATOM     76  C   UNL A   1      33.348  28.381  24.123  1.00  0.00     0.261 C 
BRANCH  76  77
ATOM     77  O   UNL A   1      33.956  27.383  25.016  1.00  0.00    -0.463 OA
BRANCH  77  78
ATOM     78  C   UNL A   1      33.576  26.075  24.814  1.00  0.00     0.310 C 
ATOM     79  O   UNL A   1      33.944  25.430  23.836  1.00  0.00    -0.252 OA
BRANCH  78  80
ATOM     80  C   UNL A   1      32.487  25.563  25.799  1.00  0.00     0.119 C 
ATOM     81  C   UNL A   1      32.277  24.307  26.782  1.00  0.00     0.100 C 
ATOM     82  C   UNL A   1      31.134  25.529  25.003  1.00  0.00     0.027 C 
ATOM     83  C   UNL A   1      30.833  23.835  26.416  1.00  0.00     0.025 C 
ATOM     84  C   UNL A   1      31.068  24.259  24.183  1.00  0.00    -0.027 C 
ATOM     85  C   UNL A   1      30.139  25.154  26.101  1.00  0.00     0.017 C 
ATOM     86  C   UNL A   1      30.866  23.244  25.032  1.00  0.00    -0.027 C 
BRANCH  81  87
ATOM     87  C   UNL A   1      32.962  23.009  27.316  1.00  0.00     0.229 C 
ATOM     88  O   UNL A   1      32.530  22.533  28.380  1.00  0.00    -0.274 OA
ATOM     89  N   UNL A   1      33.899  22.247  26.686  1.00  0.00    -0.323 N 
ATOM     90  H   UNL A   1      33.901  21.291  26.924  1.00  0.00     0.170 HD
BRANCH  89  91
ATOM     91  C   UNL A   1      34.853  22.635  25.752  1.00  0.00     0.084 A 
ATOM     92  C   UNL A   1      35.894  23.494  26.117  1.00  0.00     0.030 A 
ATOM     93  C   UNL A   1      34.793  22.152  24.467  1.00  0.00     0.149 A 
ATOM     94  C   UNL A   1      37.004  23.639  25.279  1.00  0.00     0.002 A 
ATOM     95  C   UNL A   1      35.966  22.170  23.699  1.00  0.00     0.049 A 
ATOM     96  C   UNL A   1      37.074  22.908  24.102  1.00  0.00     0.004 A 
BRANCH  93  97
ATOM     97  O   UNL A   1      33.663  21.633  23.913  1.00  0.00    -0.433 OA
BRANCH  97  98
ATOM     98  C   UNL A   1      33.254  20.262  24.028  1.00  0.00     0.542 C 
ATOM     99  F   UNL A   1      34.184  19.520  24.666  1.00  0.00    -0.167 F 
ATOM    100  F   UNL A   1      32.131  20.238  24.790  1.00  0.00    -0.167 F 
ENDBRANCH  97  98
ENDBRANCH  93  97
ENDBRANCH  89  91
ENDBRANCH  81  87
ENDBRANCH  78  80
ENDBRANCH  77  78
ENDBRANCH  76  77
ENDBRANCH   1  76
TORSDOF 21
ENDMDL
MODEL 2
REMARK VINA RESULT:     -10.7      6.733     11.166
REMARK SMILES O=C(OCCOCCOC(=O)[C@@H]1[C@H](C(=O)Nc2ccccc2OC(F)F)[C@@H]2C=C[C@H]1C2)c1ccc(-c2c3nc(c(-c4c(F)cc(S(=O)(=O)[O-])cc4F)c4ccc([nH]4)c(-c4c(F)cc(S(=O)(=O)[O-])cc4F)c4nc(c(-c5c(F)cc(S(=O)(=O)[O-])cc5F)c5ccc2[nH]5)C=C4)C=C3)cc1
REMARK SMILES IDX 7 1 6 2 5 3 4 4 3 5 2 6 1 7 32 8 33 9 97 10 34 11 96 12
REMARK SMILES IDX 35 13 36 14 37 15 90 16 38 17 95 18 89 19 91 20 39 21 94 22
REMARK SMILES IDX 88 23 87 24 40 26 74 27 53 28 73 29 54 30 57 31 72 32 92 33
REMARK SMILES IDX 55 34 56 35 71 37 93 38 58 39 41 40 42 41 51 42 43 43 44 44
REMARK SMILES IDX 50 45 52 46 45 47 46 48 47 49 48 50 49 51 75 52 76 53 85 54
REMARK SMILES IDX 77 55 78 56 84 57 86 58 79 59 80 60 81 61 82 62 83 63 59 64
REMARK SMILES IDX 60 65 69 66 61 67 62 68 68 69 70 70 63 71 64 72 65 73 66 74
REMARK SMILES IDX 67 75 8 76 9 77 10 78 11 79 12 80 13 81 30 82 27 83 29 84
REMARK SMILES IDX 31 85 28 86 14 87 15 88 16 89 17 91 18 92 22 93 19 94 21 95
REMARK SMILES IDX 20 96 23 97 24 98 25 99 26 100
REMARK H PARENT 91 25 57 36 16 90
REMARK Flexibility Score: inf
ROOT
ATOM      1  C   UNL A   1      38.298  20.992  25.449  1.00  0.00     0.202 C 
ENDROOT
BRANCH   1   2
ATOM      2  O   UNL A   1      39.670  21.402  25.574  1.00  0.00    -0.374 OA
BRANCH   2   3
ATOM      3  C   UNL A   1      40.011  21.936  26.840  1.00  0.00     0.202 C 
BRANCH   3   4
ATOM      4  C   UNL A   1      40.836  23.243  26.858  1.00  0.00     0.261 C 
BRANCH   4   5
ATOM      5  O   UNL A   1      40.169  24.380  26.253  1.00  0.00    -0.460 OA
BRANCH   5   6
ATOM      6  C   UNL A   1      40.670  25.651  26.312  1.00  0.00     0.338 C 
ATOM      7  O   UNL A   1      41.412  26.110  25.470  1.00  0.00    -0.246 OA
BRANCH   6   8
ATOM      8  C   UNL A   1      40.239  26.436  27.489  1.00  0.00     0.060 A 
ATOM      9  C   UNL A   1      40.810  27.681  27.664  1.00  0.00     0.016 A 
ATOM     10  C   UNL A   1      39.400  25.917  28.470  1.00  0.00     0.016 A 
ATOM     11  C   UNL A   1      40.902  28.187  28.939  1.00  0.00     0.010 A 
ATOM     12  C   UNL A   1      39.212  26.646  29.652  1.00  0.00     0.010 A 
ATOM     13  C   UNL A   1      39.999  27.782  29.917  1.00  0.00    -0.014 A 
BRANCH  13  14
ATOM     14  C   UNL A   1      39.872  28.609  31.151  1.00  0.00     0.031 A 
ATOM     15  C   UNL A   1      38.813  29.670  31.247  1.00  0.00     0.074 A 
ATOM     16  C   UNL A   1      40.710  28.396  32.194  1.00  0.00     0.049 A 
ATOM     17  N   UNL A   1      38.768  30.710  32.034  1.00  0.00    -0.248 NA
ATOM     18  C   UNL A   1      37.678  29.577  30.314  1.00  0.00     0.031 C 
ATOM     19  C   UNL A   1      41.750  27.358  32.269  1.00  0.00     0.029 A 
ATOM     20  N   UNL A   1      40.813  29.013  33.415  1.00  0.00    -0.354 N 
ATOM     21  C   UNL A   1      37.680  31.464  31.607  1.00  0.00     0.074 A 
ATOM     22  C   UNL A   1      37.055  30.730  30.529  1.00  0.00     0.031 C 
ATOM     23  C   UNL A   1      42.271  27.315  33.497  1.00  0.00     0.029 A 
ATOM     24  C   UNL A   1      41.791  28.473  34.222  1.00  0.00     0.049 A 
ATOM     25  H   UNL A   1      40.244  29.769  33.688  1.00  0.00     0.167 HD
ATOM     26  C   UNL A   1      37.289  32.678  32.062  1.00  0.00     0.037 A 
ATOM     27  C   UNL A   1      42.341  28.916  35.365  1.00  0.00     0.037 A 
ATOM     28  C   UNL A   1      37.913  33.325  33.191  1.00  0.00     0.049 A 
ATOM     29  C   UNL A   1      41.893  30.257  35.854  1.00  0.00     0.074 A 
ATOM     30  C   UNL A   1      37.655  34.569  33.735  1.00  0.00     0.029 A 
ATOM     31  N   UNL A   1      38.910  32.746  33.968  1.00  0.00    -0.354 N 
ATOM     32  N   UNL A   1      40.983  31.051  35.343  1.00  0.00    -0.248 NA
ATOM     33  C   UNL A   1      42.579  30.788  37.035  1.00  0.00     0.031 C 
ATOM     34  C   UNL A   1      38.510  34.748  34.831  1.00  0.00     0.029 A 
ATOM     35  C   UNL A   1      39.272  33.599  34.995  1.00  0.00     0.049 A 
ATOM     36  H   UNL A   1      39.303  31.858  33.812  1.00  0.00     0.167 HD
ATOM     37  C   UNL A   1      40.980  32.182  36.140  1.00  0.00     0.074 A 
ATOM     38  C   UNL A   1      41.966  31.954  37.183  1.00  0.00     0.031 C 
ATOM     39  C   UNL A   1      40.245  33.314  36.020  1.00  0.00     0.037 A 
BRANCH  26  40
ATOM     40  C   UNL A   1      36.221  33.404  31.288  1.00  0.00     0.058 A 
ATOM     41  C   UNL A   1      36.425  33.903  29.994  1.00  0.00     0.135 A 
ATOM     42  C   UNL A   1      34.964  33.633  31.880  1.00  0.00     0.135 A 
ATOM     43  F   UNL A   1      37.608  33.735  29.383  1.00  0.00    -0.206 F 
ATOM     44  C   UNL A   1      35.443  34.640  29.332  1.00  0.00     0.059 A 
ATOM     45  C   UNL A   1      33.961  34.344  31.229  1.00  0.00     0.059 A 
ATOM     46  F   UNL A   1      34.708  33.180  33.118  1.00  0.00    -0.206 F 
ATOM     47  C   UNL A   1      34.218  34.867  29.963  1.00  0.00     0.060 A 
BRANCH  47  48
ATOM     48  S   UNL A   1      32.974  35.868  29.119  1.00  0.00     0.124 S 
ATOM     49  O   UNL A   1      32.346  34.878  28.251  1.00  0.00    -0.237 OA
ATOM     50  O   UNL A   1      32.154  36.350  30.226  1.00  0.00    -0.237 OA
ATOM     51  O   UNL A   1      33.764  36.889  28.438  1.00  0.00    -0.744 OA
ENDBRANCH  47  48
ENDBRANCH  26  40
BRANCH  27  52
ATOM     52  C   UNL A   1      43.429  28.147  36.032  1.00  0.00     0.058 A 
ATOM     53  C   UNL A   1      44.770  28.516  35.868  1.00  0.00     0.135 A 
ATOM     54  C   UNL A   1      43.155  27.065  36.890  1.00  0.00     0.135 A 
ATOM     55  F   UNL A   1      45.089  29.536  35.057  1.00  0.00    -0.206 F 
ATOM     56  C   UNL A   1      45.800  27.844  36.521  1.00  0.00     0.059 A 
ATOM     57  C   UNL A   1      44.163  26.403  37.585  1.00  0.00     0.059 A 
ATOM     58  F   UNL A   1      41.888  26.677  37.103  1.00  0.00    -0.206 F 
ATOM     59  C   UNL A   1      45.485  26.792  37.383  1.00  0.00     0.060 A 
BRANCH  59  60
ATOM     60  S   UNL A   1      46.821  25.961  38.270  1.00  0.00     0.124 S 
ATOM     61  O   UNL A   1      46.130  25.494  39.466  1.00  0.00    -0.237 OA
ATOM     62  O   UNL A   1      47.226  24.927  37.322  1.00  0.00    -0.237 OA
ATOM     63  O   UNL A   1      47.798  27.026  38.478  1.00  0.00    -0.744 OA
ENDBRANCH  59  60
ENDBRANCH  27  52
BRANCH  39  64
ATOM     64  C   UNL A   1      40.445  34.343  37.087  1.00  0.00     0.058 A 
ATOM     65  C   UNL A   1      39.636  34.386  38.231  1.00  0.00     0.135 A 
ATOM     66  C   UNL A   1      41.472  35.291  36.958  1.00  0.00     0.135 A 
ATOM     67  F   UNL A   1      38.631  33.509  38.383  1.00  0.00    -0.206 F 
ATOM     68  C   UNL A   1      39.826  35.353  39.209  1.00  0.00     0.059 A 
ATOM     69  C   UNL A   1      41.695  36.250  37.935  1.00  0.00     0.059 A 
ATOM     70  F   UNL A   1      42.268  35.283  35.877  1.00  0.00    -0.206 F 
ATOM     71  C   UNL A   1      40.858  36.281  39.051  1.00  0.00     0.060 A 
BRANCH  71  72
ATOM     72  S   UNL A   1      41.118  37.515  40.339  1.00  0.00     0.124 S 
ATOM     73  O   UNL A   1      39.953  37.301  41.189  1.00  0.00    -0.237 OA
ATOM     74  O   UNL A   1      42.401  37.110  40.906  1.00  0.00    -0.237 OA
ATOM     75  O   UNL A   1      41.136  38.774  39.601  1.00  0.00    -0.744 OA
ENDBRANCH  71  72
ENDBRANCH  39  64
ENDBRANCH  13  14
ENDBRANCH   6   8
ENDBRANCH   5   6
ENDBRANCH   4   5
ENDBRANCH   3   4
ENDBRANCH   2   3
ENDBRANCH   1   2
BRANCH   1  76
ATOM     76  C   UNL A   1      37.238  22.042  25.883  1.00  0.00     0.261 C 
BRANCH  76  77
ATOM     77  O   UNL A   1      35.852  21.549  25.837  1.00  0.00    -0.463 OA
BRANCH  77  78
ATOM     78  C   UNL A   1      34.910  22.325  26.476  1.00  0.00     0.310 C 
ATOM     79  O   UNL A   1      34.472  22.039  27.586  1.00  0.00    -0.252 OA
BRANCH  78  80
ATOM     80  C   UNL A   1      34.300  23.451  25.594  1.00  0.00     0.119 C 
ATOM     81  C   UNL A   1      33.021  24.426  25.638  1.00  0.00     0.100 C 
ATOM     82  C   UNL A   1      34.161  22.869  24.143  1.00  0.00     0.027 C 
ATOM     83  C   UNL A   1      32.434  24.272  24.199  1.00  0.00     0.025 C 
ATOM     84  C   UNL A   1      32.899  22.040  24.055  1.00  0.00    -0.027 C 
ATOM     85  C   UNL A   1      33.694  24.095  23.361  1.00  0.00     0.017 C 
ATOM     86  C   UNL A   1      31.862  22.887  24.068  1.00  0.00    -0.027 C 
BRANCH  81  87
ATOM     87  C   UNL A   1      31.779  24.822  26.499  1.00  0.00     0.229 C 
ATOM     88  O   UNL A   1      31.308  23.952  27.253  1.00  0.00    -0.274 OA
ATOM     89  N   UNL A   1      31.220  26.057  26.629  1.00  0.00    -0.323 N 
ATOM     90  H   UNL A   1      30.768  26.232  27.486  1.00  0.00     0.170 HD
BRANCH  89  91
ATOM     91  C   UNL A   1      31.202  27.105  25.716  1.00  0.00     0.084 A 
ATOM     92  C   UNL A   1      30.546  26.965  24.488  1.00  0.00     0.030 A 
ATOM     93  C   UNL A   1      31.806  28.299  26.028  1.00  0.00     0.149 A 
ATOM     94  C   UNL A   1      30.269  28.095  23.713  1.00  0.00     0.002 A 
ATOM     95  C   UNL A   1      31.396  29.447  25.336  1.00  0.00     0.049 A 
ATOM     96  C   UNL A   1      30.626  29.351  24.181  1.00  0.00     0.004 A 
BRANCH  93  97
ATOM     97  O   UNL A   1      32.760  28.427  26.991  1.00  0.00    -0.433 OA
BRANCH  97  98
ATOM     98  C   UNL A   1      34.158  28.623  26.733  1.00  0.00     0.542 C 
ATOM     99  F   UNL A   1      34.827  28.955  27.857  1.00  0.00    -0.167 F 
ATOM    100  F   UNL A   1      34.660  27.437  26.305  1.00  0.00    -0.167 F 
ENDBRANCH  97  98
ENDBRANCH  93  97
ENDBRANCH  89  91
ENDBRANCH  81  87
ENDBRANCH  78  80
ENDBRANCH  77  78
ENDBRANCH  76  77
ENDBRANCH   1  76
TORSDOF 21
ENDMDL
MODEL 3
REMARK VINA RESULT:     -10.4      6.508     11.560
REMARK SMILES O=C(OCCOCCOC(=O)[C@@H]1[C@H](C(=O)Nc2ccccc2OC(F)F)[C@@H]2C=C[C@H]1C2)c1ccc(-c2c3nc(c(-c4c(F)cc(S(=O)(=O)[O-])cc4F)c4ccc([nH]4)c(-c4c(F)cc(S(=O)(=O)[O-])cc4F)c4nc(c(-c5c(F)cc(S(=O)(=O)[O-])cc5F)c5ccc2[nH]5)C=C4)C=C3)cc1
REMARK SMILES IDX 7 1 6 2 5 3 4 4 3 5 2 6 1 7 32 8 33 9 97 10 34 11 96 12
REMARK SMILES IDX 35 13 36 14 37 15 90 16 38 17 95 18 89 19 91 20 39 21 94 22
REMARK SMILES IDX 88 23 87 24 40 26 74 27 53 28 73 29 54 30 57 31 72 32 92 33
REMARK SMILES IDX 55 34 56 35 71 37 93 38 58 39 41 40 42 41 51 42 43 43 44 44
REMARK SMILES IDX 50 45 52 46 45 47 46 48 47 49 48 50 49 51 75 52 76 53 85 54
REMARK SMILES IDX 77 55 78 56 84 57 86 58 79 59 80 60 81 61 82 62 83 63 59 64
REMARK SMILES IDX 60 65 69 66 61 67 62 68 68 69 70 70 63 71 64 72 65 73 66 74
REMARK SMILES IDX 67 75 8 76 9 77 10 78 11 79 12 80 13 81 30 82 27 83 29 84
REMARK SMILES IDX 31 85 28 86 14 87 15 88 16 89 17 91 18 92 22 93 19 94 21 95
REMARK SMILES IDX 20 96 23 97 24 98 25 99 26 100
REMARK H PARENT 91 25 57 36 16 90
REMARK Flexibility Score: inf
ROOT
ATOM      1  C   UNL A   1      36.184  22.640  24.104  1.00  0.00     0.202 C 
ENDROOT
BRANCH   1   2
ATOM      2  O   UNL A   1      37.411  21.914  24.285  1.00  0.00    -0.374 OA
BRANCH   2   3
ATOM      3  C   UNL A   1      37.770  21.694  25.638  1.00  0.00     0.202 C 
BRANCH   3   4
ATOM      4  C   UNL A   1      39.166  22.178  26.087  1.00  0.00     0.261 C 
BRANCH   4   5
ATOM      5  O   UNL A   1      39.281  23.616  26.240  1.00  0.00    -0.460 OA
BRANCH   5   6
ATOM      6  C   UNL A   1      40.430  24.229  26.659  1.00  0.00     0.338 C 
ATOM      7  O   UNL A   1      41.536  23.856  26.332  1.00  0.00    -0.246 OA
BRANCH   6   8
ATOM      8  C   UNL A   1      40.225  25.391  27.551  1.00  0.00     0.060 A 
ATOM      9  C   UNL A   1      41.088  26.459  27.408  1.00  0.00     0.016 A 
ATOM     10  C   UNL A   1      39.300  25.384  28.591  1.00  0.00     0.016 A 
ATOM     11  C   UNL A   1      41.324  27.263  28.498  1.00  0.00     0.010 A 
ATOM     12  C   UNL A   1      39.318  26.437  29.515  1.00  0.00     0.010 A 
ATOM     13  C   UNL A   1      40.365  27.377  29.500  1.00  0.00    -0.014 A 
BRANCH  13  14
ATOM     14  C   UNL A   1      40.466  28.521  30.452  1.00  0.00     0.031 A 
ATOM     15  C   UNL A   1      41.564  28.561  31.476  1.00  0.00     0.074 A 
ATOM     16  C   UNL A   1      39.566  29.533  30.386  1.00  0.00     0.049 A 
ATOM     17  N   UNL A   1      41.614  29.233  32.593  1.00  0.00    -0.248 NA
ATOM     18  C   UNL A   1      42.740  27.707  31.238  1.00  0.00     0.031 C 
ATOM     19  C   UNL A   1      38.479  29.661  29.403  1.00  0.00     0.029 A 
ATOM     20  N   UNL A   1      39.429  30.672  31.137  1.00  0.00    -0.354 N 
ATOM     21  C   UNL A   1      42.755  28.789  33.253  1.00  0.00     0.074 A 
ATOM     22  C   UNL A   1      43.401  27.831  32.383  1.00  0.00     0.031 C 
ATOM     23  C   UNL A   1      37.895  30.856  29.515  1.00  0.00     0.029 A 
ATOM     24  C   UNL A   1      38.388  31.477  30.727  1.00  0.00     0.049 A 
ATOM     25  H   UNL A   1      40.017  30.895  31.896  1.00  0.00     0.167 HD
ATOM     26  C   UNL A   1      43.175  29.132  34.495  1.00  0.00     0.037 A 
ATOM     27  C   UNL A   1      37.801  32.535  31.313  1.00  0.00     0.037 A 
ATOM     28  C   UNL A   1      42.524  30.148  35.284  1.00  0.00     0.049 A 
ATOM     29  C   UNL A   1      38.282  32.901  32.680  1.00  0.00     0.074 A 
ATOM     30  C   UNL A   1      42.808  30.569  36.570  1.00  0.00     0.029 A 
ATOM     31  N   UNL A   1      41.464  30.927  34.832  1.00  0.00    -0.354 N 
ATOM     32  N   UNL A   1      39.252  32.359  33.379  1.00  0.00    -0.248 NA
ATOM     33  C   UNL A   1      37.562  33.978  33.363  1.00  0.00     0.031 C 
ATOM     34  C   UNL A   1      41.907  31.591  36.900  1.00  0.00     0.029 A 
ATOM     35  C   UNL A   1      41.089  31.835  35.806  1.00  0.00     0.049 A 
ATOM     36  H   UNL A   1      41.040  30.845  33.948  1.00  0.00     0.167 HD
ATOM     37  C   UNL A   1      39.263  33.029  34.589  1.00  0.00     0.074 A 
ATOM     38  C   UNL A   1      38.217  34.034  34.515  1.00  0.00     0.031 C 
ATOM     39  C   UNL A   1      40.053  32.828  35.672  1.00  0.00     0.037 A 
BRANCH  26  40
ATOM     40  C   UNL A   1      44.313  28.344  35.090  1.00  0.00     0.058 A 
ATOM     41  C   UNL A   1      44.116  27.228  35.915  1.00  0.00     0.135 A 
ATOM     42  C   UNL A   1      45.640  28.746  34.848  1.00  0.00     0.135 A 
ATOM     43  F   UNL A   1      42.873  26.808  36.199  1.00  0.00    -0.206 F 
ATOM     44  C   UNL A   1      45.186  26.566  36.516  1.00  0.00     0.059 A 
ATOM     45  C   UNL A   1      46.725  28.085  35.418  1.00  0.00     0.059 A 
ATOM     46  F   UNL A   1      45.893  29.808  34.067  1.00  0.00    -0.206 F 
ATOM     47  C   UNL A   1      46.487  27.011  36.271  1.00  0.00     0.060 A 
BRANCH  47  48
ATOM     48  S   UNL A   1      47.863  26.180  37.098  1.00  0.00     0.124 S 
ATOM     49  O   UNL A   1      48.979  27.052  36.747  1.00  0.00    -0.237 OA
ATOM     50  O   UNL A   1      47.453  26.210  38.498  1.00  0.00    -0.237 OA
ATOM     51  O   UNL A   1      47.881  24.857  36.481  1.00  0.00    -0.744 OA
ENDBRANCH  47  48
ENDBRANCH  26  40
BRANCH  27  52
ATOM     52  C   UNL A   1      36.647  33.219  30.663  1.00  0.00     0.058 A 
ATOM     53  C   UNL A   1      35.338  32.982  31.100  1.00  0.00     0.135 A 
ATOM     54  C   UNL A   1      36.828  34.163  29.635  1.00  0.00     0.135 A 
ATOM     55  F   UNL A   1      35.108  32.088  32.073  1.00  0.00    -0.206 F 
ATOM     56  C   UNL A   1      34.249  33.648  30.542  1.00  0.00     0.059 A 
ATOM     57  C   UNL A   1      35.761  34.870  29.089  1.00  0.00     0.059 A 
ATOM     58  F   UNL A   1      38.061  34.447  29.188  1.00  0.00    -0.206 F 
ATOM     59  C   UNL A   1      34.472  34.595  29.541  1.00  0.00     0.060 A 
BRANCH  59  60
ATOM     60  S   UNL A   1      33.061  35.495  28.861  1.00  0.00     0.124 S 
ATOM     61  O   UNL A   1      32.374  35.918  30.076  1.00  0.00    -0.237 OA
ATOM     62  O   UNL A   1      33.709  36.553  28.093  1.00  0.00    -0.237 OA
ATOM     63  O   UNL A   1      32.372  34.484  28.063  1.00  0.00    -0.744 OA
ENDBRANCH  59  60
ENDBRANCH  27  52
BRANCH  39  64
ATOM     64  C   UNL A   1      39.844  33.766  36.819  1.00  0.00     0.058 A 
ATOM     65  C   UNL A   1      40.509  34.998  36.894  1.00  0.00     0.135 A 
ATOM     66  C   UNL A   1      38.955  33.422  37.848  1.00  0.00     0.135 A 
ATOM     67  F   UNL A   1      41.382  35.356  35.939  1.00  0.00    -0.206 F 
ATOM     68  C   UNL A   1      40.314  35.855  37.969  1.00  0.00     0.059 A 
ATOM     69  C   UNL A   1      38.727  34.274  38.920  1.00  0.00     0.059 A 
ATOM     70  F   UNL A   1      38.299  32.251  37.813  1.00  0.00    -0.206 F 
ATOM     71  C   UNL A   1      39.421  35.483  38.977  1.00  0.00     0.060 A 
BRANCH  71  72
ATOM     72  S   UNL A   1      39.150  36.613  40.355  1.00  0.00     0.124 S 
ATOM     73  O   UNL A   1      40.496  36.731  40.906  1.00  0.00    -0.237 OA
ATOM     74  O   UNL A   1      38.631  37.803  39.688  1.00  0.00    -0.237 OA
ATOM     75  O   UNL A   1      38.188  35.901  41.191  1.00  0.00    -0.744 OA
ENDBRANCH  71  72
ENDBRANCH  39  64
ENDBRANCH  13  14
ENDBRANCH   6   8
ENDBRANCH   5   6
ENDBRANCH   4   5
ENDBRANCH   3   4
ENDBRANCH   2   3
ENDBRANCH   1   2
BRANCH   1  76
ATOM     76  C   UNL A   1      36.110  24.026  24.803  1.00  0.00     0.261 C 
BRANCH  76  77
ATOM     77  O   UNL A   1      34.743  24.544  24.964  1.00  0.00    -0.463 OA
BRANCH  77  78
ATOM     78  C   UNL A   1      33.870  24.289  23.929  1.00  0.00     0.310 C 
ATOM     79  O   UNL A   1      34.087  24.670  22.782  1.00  0.00    -0.252 OA
BRANCH  78  80
ATOM     80  C   UNL A   1      32.512  23.676  24.370  1.00  0.00     0.119 C 
ATOM     81  C   UNL A   1      31.194  24.162  25.155  1.00  0.00     0.100 C 
ATOM     82  C   UNL A   1      32.842  22.360  25.161  1.00  0.00     0.027 C 
ATOM     83  C   UNL A   1      30.980  23.013  26.192  1.00  0.00     0.025 C 
ATOM     84  C   UNL A   1      33.211  22.711  26.585  1.00  0.00    -0.027 C 
ATOM     85  C   UNL A   1      31.445  21.791  25.411  1.00  0.00     0.017 C 
ATOM     86  C   UNL A   1      32.087  23.084  27.210  1.00  0.00    -0.027 C 
BRANCH  81  87
ATOM     87  C   UNL A   1      30.532  25.401  25.840  1.00  0.00     0.229 C 
ATOM     88  O   UNL A   1      29.536  25.192  26.554  1.00  0.00    -0.274 OA
ATOM     89  N   UNL A   1      30.994  26.682  25.859  1.00  0.00    -0.323 N 
ATOM     90  H   UNL A   1      30.736  27.215  26.646  1.00  0.00     0.170 HD
BRANCH  89  91
ATOM     91  C   UNL A   1      31.779  27.340  24.919  1.00  0.00     0.084 A 
ATOM     92  C   UNL A   1      33.096  27.700  25.223  1.00  0.00     0.030 A 
ATOM     93  C   UNL A   1      31.271  27.616  23.673  1.00  0.00     0.149 A 
ATOM     94  C   UNL A   1      33.968  28.080  24.198  1.00  0.00     0.002 A 
ATOM     95  C   UNL A   1      32.177  27.841  22.626  1.00  0.00     0.049 A 
ATOM     96  C   UNL A   1      33.525  28.070  22.883  1.00  0.00     0.004 A 
BRANCH  93  97
ATOM     97  O   UNL A   1      29.939  27.653  23.397  1.00  0.00    -0.433 OA
BRANCH  97  98
ATOM     98  C   UNL A   1      29.222  28.829  22.997  1.00  0.00     0.542 C 
ATOM     99  F   UNL A   1      27.894  28.692  23.200  1.00  0.00    -0.167 F 
ATOM    100  F   UNL A   1      29.643  29.849  23.787  1.00  0.00    -0.167 F 
ENDBRANCH  97  98
ENDBRANCH  93  97
ENDBRANCH  89  91
ENDBRANCH  81  87
ENDBRANCH  78  80
ENDBRANCH  77  78
ENDBRANCH  76  77
ENDBRANCH   1  76
TORSDOF 21
ENDMDL
