MODEL 1
REMARK VINA RESULT:     -11.6      0.000      0.000
REMARK SMILES COc1ccccc1C(=O)N/C(=C/c1ccc2c(c1)OCO2)C(=O)Nc1ccc(C(=O)OCCOCCOC(=O)c2ccc(-c3c4nc(c(-c5c(F)cc(S(=O)(=O)[O-])cc5F)c5ccc([nH]5)c(-c5c(F)cc(S(=O)(=O)[O-])cc5F)c5nc(c(-c6c(F)cc(S(=O)(=O)[O-])cc6F)c6ccc3[nH]6)C=C5)C=C4)cc2)cc1
REMARK SMILES IDX 34 1 33 2 32 3 30 4 31 5 29 6 26 7 27 8 108 9 28 10 107 11
REMARK SMILES IDX 25 12 23 13 24 14 12 16 13 17 11 18 9 19 10 20 8 22 3 23
REMARK SMILES IDX 4 24 5 25 7 26 6 27 2 28 1 29 14 30 15 31 19 32 16 33 18 34
REMARK SMILES IDX 17 35 20 36 22 37 21 38 35 39 36 40 37 41 38 42 39 43 40 44
REMARK SMILES IDX 41 45 42 46 106 47 43 48 105 49 44 50 45 51 46 52 99 53
REMARK SMILES IDX 47 54 104 55 98 56 100 57 48 58 103 59 97 60 96 61 49 63
REMARK SMILES IDX 83 64 62 65 82 66 63 67 66 68 81 69 101 70 64 71 65 72 80 74
REMARK SMILES IDX 102 75 67 76 50 77 51 78 60 79 52 80 53 81 59 82 61 83 54 84
REMARK SMILES IDX 55 85 56 86 57 87 58 88 84 89 85 90 94 91 86 92 87 93 93 94
REMARK SMILES IDX 95 95 88 96 89 97 90 98 91 99 92 100 68 101 69 102 78 103
REMARK SMILES IDX 70 104 71 105 77 106 79 107 72 108 73 109 74 110 75 111
REMARK SMILES IDX 76 112
REMARK H PARENT 25 15 11 21 100 62 66 73
REMARK Flexibility Score: inf
ROOT
ATOM      1  C   UNL A   1      43.975  23.316  28.602  1.00  0.00     0.202 C 
ENDROOT
BRANCH   1   2
ATOM      2  C   UNL A   1      42.833  22.295  28.703  1.00  0.00     0.261 C 
BRANCH   2   3
ATOM      3  O   UNL A   1      41.651  22.729  28.015  1.00  0.00    -0.460 OA
BRANCH   3   4
ATOM      4  C   UNL A   1      41.527  22.224  26.767  1.00  0.00     0.338 C 
ATOM      5  O   UNL A   1      42.393  21.719  26.073  1.00  0.00    -0.246 OA
BRANCH   4   6
ATOM      6  C   UNL A   1      40.116  22.194  26.380  1.00  0.00     0.060 A 
ATOM      7  C   UNL A   1      36.605  22.074  25.136  1.00  0.00     0.041 A 
ATOM      8  C   UNL A   1      37.548  20.576  25.157  1.00  0.00     0.027 A 
ATOM      9  C   UNL A   1      37.343  23.537  25.790  1.00  0.00     0.027 A 
ATOM     10  C   UNL A   1      39.472  20.626  25.776  1.00  0.00     0.018 A 
ATOM     11  C   UNL A   1      39.029  23.592  26.395  1.00  0.00     0.018 A 
BRANCH   7  12
ATOM     12  N   UNL A   1      35.807  22.151  23.969  1.00  0.00    -0.321 N 
ATOM     13  C   UNL A   1      34.844  23.155  23.840  1.00  0.00     0.272 C 
ATOM     14  O   UNL A   1      34.957  24.042  22.994  1.00  0.00    -0.267 OA
ATOM     15  H   UNL A   1      35.932  21.495  23.246  1.00  0.00     0.170 HD
BRANCH  13  16
ATOM     16  C   UNL A   1      33.549  23.053  24.670  1.00  0.00     0.108 C 
ATOM     17  C   UNL A   1      32.548  23.978  24.687  1.00  0.00     0.040 C 
BRANCH  16  18
ATOM     18  N   UNL A   1      33.352  21.940  25.476  1.00  0.00    -0.317 N 
ATOM     19  C   UNL A   1      33.078  20.606  25.271  1.00  0.00     0.259 C 
ATOM     20  O   UNL A   1      33.047  19.862  26.254  1.00  0.00    -0.269 OA
ATOM     21  H   UNL A   1      33.426  22.158  26.434  1.00  0.00     0.170 HD
BRANCH  19  22
ATOM     22  C   UNL A   1      32.702  20.022  23.976  1.00  0.00     0.082 A 
ATOM     23  C   UNL A   1      32.826  18.679  23.603  1.00  0.00     0.131 A 
ATOM     24  C   UNL A   1      32.556  18.330  22.271  1.00  0.00     0.047 A 
ATOM     25  C   UNL A   1      32.047  19.261  21.364  1.00  0.00     0.004 A 
ATOM     26  C   UNL A   1      32.123  20.942  23.078  1.00  0.00     0.018 A 
ATOM     27  C   UNL A   1      31.788  20.560  21.781  1.00  0.00     0.001 A 
BRANCH  23  28
ATOM     28  O   UNL A   1      33.237  17.610  24.352  1.00  0.00    -0.496 OA
ATOM     29  C   UNL A   1      34.629  17.319  24.393  1.00  0.00     0.278 C 
ENDBRANCH  23  28
ENDBRANCH  19  22
ENDBRANCH  16  18
BRANCH  17  30
ATOM     30  C   UNL A   1      32.673  25.352  24.166  1.00  0.00    -0.019 A 
ATOM     31  C   UNL A   1      31.106  25.822  23.424  1.00  0.00     0.012 A 
ATOM     32  C   UNL A   1      33.645  26.614  24.948  1.00  0.00     0.058 A 
ATOM     33  C   UNL A   1      30.474  27.733  23.636  1.00  0.00     0.051 A 
ATOM     34  C   UNL A   1      33.079  28.292  25.072  1.00  0.00     0.166 A 
ATOM     35  C   UNL A   1      31.570  28.869  24.469  1.00  0.00     0.165 A 
ATOM     36  O   UNL A   1      33.471  29.198  26.027  1.00  0.00    -0.454 OA
ATOM     37  O   UNL A   1      31.263  30.021  25.119  1.00  0.00    -0.454 OA
ATOM     38  C   UNL A   1      32.237  29.974  26.216  1.00  0.00     0.468 C 
ENDBRANCH  17  30
ENDBRANCH  13  16
ENDBRANCH   7  12
ENDBRANCH   4   6
ENDBRANCH   3   4
ENDBRANCH   2   3
ENDBRANCH   1   2
BRANCH   1  39
ATOM     39  O   UNL A   1      45.092  22.973  27.787  1.00  0.00    -0.374 OA
BRANCH  39  40
ATOM     40  C   UNL A   1      45.681  23.996  26.980  1.00  0.00     0.202 C 
BRANCH  40  41
ATOM     41  C   UNL A   1      44.899  24.493  25.757  1.00  0.00     0.261 C 
BRANCH  41  42
ATOM     42  O   UNL A   1      44.225  25.743  26.007  1.00  0.00    -0.460 OA
BRANCH  42  43
ATOM     43  C   UNL A   1      42.874  25.695  25.886  1.00  0.00     0.338 C 
ATOM     44  O   UNL A   1      42.222  24.943  25.182  1.00  0.00    -0.246 OA
BRANCH  43  45
ATOM     45  C   UNL A   1      42.250  26.581  26.881  1.00  0.00     0.060 A 
ATOM     46  C   UNL A   1      42.671  27.917  26.931  1.00  0.00     0.016 A 
ATOM     47  C   UNL A   1      41.365  26.077  27.834  1.00  0.00     0.016 A 
ATOM     48  C   UNL A   1      42.228  28.748  27.957  1.00  0.00     0.010 A 
ATOM     49  C   UNL A   1      40.932  26.911  28.871  1.00  0.00     0.010 A 
ATOM     50  C   UNL A   1      41.387  28.239  28.954  1.00  0.00    -0.014 A 
BRANCH  50  51
ATOM     51  C   UNL A   1      41.109  29.057  30.159  1.00  0.00     0.031 A 
ATOM     52  C   UNL A   1      41.969  28.872  31.379  1.00  0.00     0.074 A 
ATOM     53  C   UNL A   1      40.125  29.972  30.152  1.00  0.00     0.049 A 
ATOM     54  N   UNL A   1      41.882  29.449  32.549  1.00  0.00    -0.248 NA
ATOM     55  C   UNL A   1      43.074  27.905  31.264  1.00  0.00     0.031 C 
ATOM     56  C   UNL A   1      39.258  30.271  29.013  1.00  0.00     0.029 A 
ATOM     57  N   UNL A   1      39.686  30.817  31.140  1.00  0.00    -0.354 N 
ATOM     58  C   UNL A   1      42.914  28.915  33.312  1.00  0.00     0.074 A 
ATOM     59  C   UNL A   1      43.598  27.948  32.481  1.00  0.00     0.031 C 
ATOM     60  C   UNL A   1      38.379  31.222  29.372  1.00  0.00     0.029 A 
ATOM     61  C   UNL A   1      38.602  31.577  30.773  1.00  0.00     0.049 A 
ATOM     62  H   UNL A   1      40.107  30.872  32.029  1.00  0.00     0.167 HD
ATOM     63  C   UNL A   1      43.263  29.210  34.587  1.00  0.00     0.037 A 
ATOM     64  C   UNL A   1      37.860  32.442  31.493  1.00  0.00     0.037 A 
ATOM     65  C   UNL A   1      42.577  30.176  35.406  1.00  0.00     0.049 A 
ATOM     66  C   UNL A   1      38.227  32.707  32.930  1.00  0.00     0.074 A 
ATOM     67  C   UNL A   1      42.861  30.558  36.706  1.00  0.00     0.029 A 
ATOM     68  N   UNL A   1      41.468  30.907  35.008  1.00  0.00    -0.354 N 
ATOM     69  N   UNL A   1      39.215  32.207  33.635  1.00  0.00    -0.248 NA
ATOM     70  C   UNL A   1      37.384  33.657  33.669  1.00  0.00     0.031 C 
ATOM     71  C   UNL A   1      41.895  31.485  37.110  1.00  0.00     0.029 A 
ATOM     72  C   UNL A   1      41.040  31.721  36.044  1.00  0.00     0.049 A 
ATOM     73  H   UNL A   1      41.047  30.855  34.120  1.00  0.00     0.167 HD
ATOM     74  C   UNL A   1      39.127  32.803  34.890  1.00  0.00     0.074 A 
ATOM     75  C   UNL A   1      37.995  33.705  34.844  1.00  0.00     0.031 C 
ATOM     76  C   UNL A   1      39.915  32.621  35.978  1.00  0.00     0.037 A 
BRANCH  63  77
ATOM     77  C   UNL A   1      44.421  28.459  35.184  1.00  0.00     0.058 A 
ATOM     78  C   UNL A   1      45.722  28.987  35.191  1.00  0.00     0.135 A 
ATOM     79  C   UNL A   1      44.220  27.205  35.785  1.00  0.00     0.135 A 
ATOM     80  F   UNL A   1      45.974  30.172  34.615  1.00  0.00    -0.206 F 
ATOM     81  C   UNL A   1      46.787  28.287  35.749  1.00  0.00     0.059 A 
ATOM     82  C   UNL A   1      45.266  26.499  36.372  1.00  0.00     0.059 A 
ATOM     83  F   UNL A   1      42.996  26.654  35.802  1.00  0.00    -0.206 F 
ATOM     84  C   UNL A   1      46.548  27.042  36.336  1.00  0.00     0.060 A 
BRANCH  84  85
ATOM     85  S   UNL A   1      47.940  26.146  37.057  1.00  0.00     0.124 S 
ATOM     86  O   UNL A   1      48.967  27.182  37.089  1.00  0.00    -0.237 OA
ATOM     87  O   UNL A   1      47.411  25.738  38.355  1.00  0.00    -0.237 OA
ATOM     88  O   UNL A   1      48.173  25.061  36.110  1.00  0.00    -0.744 OA
ENDBRANCH  84  85
ENDBRANCH  63  77
BRANCH  64  89
ATOM     89  C   UNL A   1      36.686  33.108  30.870  1.00  0.00     0.058 A 
ATOM     90  C   UNL A   1      35.376  32.726  31.193  1.00  0.00     0.135 A 
ATOM     91  C   UNL A   1      36.854  34.148  29.941  1.00  0.00     0.135 A 
ATOM     92  F   UNL A   1      35.165  31.730  32.066  1.00  0.00    -0.206 F 
ATOM     93  C   UNL A   1      34.273  33.342  30.610  1.00  0.00     0.059 A 
ATOM     94  C   UNL A   1      35.767  34.795  29.364  1.00  0.00     0.059 A 
ATOM     95  F   UNL A   1      38.087  34.559  29.606  1.00  0.00    -0.206 F 
ATOM     96  C   UNL A   1      34.479  34.379  29.698  1.00  0.00     0.060 A 
BRANCH  96  97
ATOM     97  S   UNL A   1      33.041  35.209  28.988  1.00  0.00     0.124 S 
ATOM     98  O   UNL A   1      33.647  36.406  28.416  1.00  0.00    -0.237 OA
ATOM     99  O   UNL A   1      32.556  34.218  28.032  1.00  0.00    -0.237 OA
ATOM    100  O   UNL A   1      32.177  35.428  30.144  1.00  0.00    -0.744 OA
ENDBRANCH  96  97
ENDBRANCH  64  89
BRANCH  76 101
ATOM    101  C   UNL A   1      39.607  33.439  37.203  1.00  0.00     0.058 A 
ATOM    102  C   UNL A   1      38.692  33.005  38.173  1.00  0.00     0.135 A 
ATOM    103  C   UNL A   1      40.285  34.648  37.436  1.00  0.00     0.135 A 
ATOM    104  F   UNL A   1      38.014  31.859  37.996  1.00  0.00    -0.206 F 
ATOM    105  C   UNL A   1      38.442  33.749  39.321  1.00  0.00     0.059 A 
ATOM    106  C   UNL A   1      40.071  35.395  38.590  1.00  0.00     0.059 A 
ATOM    107  F   UNL A   1      41.180  35.104  36.546  1.00  0.00    -0.206 F 
ATOM    108  C   UNL A   1      39.139  34.942  39.523  1.00  0.00     0.060 A 
BRANCH 108 109
ATOM    109  S   UNL A   1      38.834  35.880  41.035  1.00  0.00     0.124 S 
ATOM    110  O   UNL A   1      37.706  35.153  41.609  1.00  0.00    -0.237 OA
ATOM    111  O   UNL A   1      40.102  35.747  41.746  1.00  0.00    -0.237 OA
ATOM    112  O   UNL A   1      38.534  37.222  40.547  1.00  0.00    -0.744 OA
ENDBRANCH 108 109
ENDBRANCH  76 101
ENDBRANCH  50  51
ENDBRANCH  43  45
ENDBRANCH  42  43
ENDBRANCH  41  42
ENDBRANCH  40  41
ENDBRANCH  39  40
ENDBRANCH   1  39
TORSDOF 23
ENDMDL
MODEL 2
REMARK VINA RESULT:     -11.3      1.773      8.071
REMARK SMILES COc1ccccc1C(=O)N/C(=C/c1ccc2c(c1)OCO2)C(=O)Nc1ccc(C(=O)OCCOCCOC(=O)c2ccc(-c3c4nc(c(-c5c(F)cc(S(=O)(=O)[O-])cc5F)c5ccc([nH]5)c(-c5c(F)cc(S(=O)(=O)[O-])cc5F)c5nc(c(-c6c(F)cc(S(=O)(=O)[O-])cc6F)c6ccc3[nH]6)C=C5)C=C4)cc2)cc1
REMARK SMILES IDX 34 1 33 2 32 3 30 4 31 5 29 6 26 7 27 8 108 9 28 10 107 11
REMARK SMILES IDX 25 12 23 13 24 14 12 16 13 17 11 18 9 19 10 20 8 22 3 23
REMARK SMILES IDX 4 24 5 25 7 26 6 27 2 28 1 29 14 30 15 31 19 32 16 33 18 34
REMARK SMILES IDX 17 35 20 36 22 37 21 38 35 39 36 40 37 41 38 42 39 43 40 44
REMARK SMILES IDX 41 45 42 46 106 47 43 48 105 49 44 50 45 51 46 52 99 53
REMARK SMILES IDX 47 54 104 55 98 56 100 57 48 58 103 59 97 60 96 61 49 63
REMARK SMILES IDX 83 64 62 65 82 66 63 67 66 68 81 69 101 70 64 71 65 72 80 74
REMARK SMILES IDX 102 75 67 76 50 77 51 78 60 79 52 80 53 81 59 82 61 83 54 84
REMARK SMILES IDX 55 85 56 86 57 87 58 88 84 89 85 90 94 91 86 92 87 93 93 94
REMARK SMILES IDX 95 95 88 96 89 97 90 98 91 99 92 100 68 101 69 102 78 103
REMARK SMILES IDX 70 104 71 105 77 106 79 107 72 108 73 109 74 110 75 111
REMARK SMILES IDX 76 112
REMARK H PARENT 25 15 11 21 100 62 66 73
REMARK Flexibility Score: inf
ROOT
ATOM      1  C   UNL A   1      41.055  21.506  26.800  1.00  0.00     0.202 C 
ENDROOT
BRANCH   1   2
ATOM      2  C   UNL A   1      40.015  22.268  25.969  1.00  0.00     0.261 C 
BRANCH   2   3
ATOM      3  O   UNL A   1      38.674  22.034  26.427  1.00  0.00    -0.460 OA
BRANCH   3   4
ATOM      4  C   UNL A   1      37.846  21.551  25.474  1.00  0.00     0.338 C 
ATOM      5  O   UNL A   1      37.935  20.497  24.867  1.00  0.00    -0.246 OA
BRANCH   4   6
ATOM      6  C   UNL A   1      36.663  22.406  25.362  1.00  0.00     0.060 A 
ATOM      7  C   UNL A   1      33.820  24.794  25.042  1.00  0.00     0.041 A 
ATOM      8  C   UNL A   1      34.791  24.434  23.606  1.00  0.00     0.027 A 
ATOM      9  C   UNL A   1      34.190  23.934  26.538  1.00  0.00     0.027 A 
ATOM     10  C   UNL A   1      36.372  23.185  23.766  1.00  0.00     0.018 A 
ATOM     11  C   UNL A   1      35.552  22.780  26.688  1.00  0.00     0.018 A 
BRANCH   7  12
ATOM     12  N   UNL A   1      33.475  26.166  25.088  1.00  0.00    -0.321 N 
ATOM     13  C   UNL A   1      32.479  26.612  25.959  1.00  0.00     0.272 C 
ATOM     14  O   UNL A   1      32.745  27.352  26.907  1.00  0.00    -0.267 OA
ATOM     15  H   UNL A   1      33.939  26.807  24.502  1.00  0.00     0.170 HD
BRANCH  13  16
ATOM     16  C   UNL A   1      31.007  26.295  25.630  1.00  0.00     0.108 C 
ATOM     17  C   UNL A   1      30.266  26.902  24.659  1.00  0.00     0.040 C 
BRANCH  16  18
ATOM     18  N   UNL A   1      30.349  25.316  26.364  1.00  0.00    -0.317 N 
ATOM     19  C   UNL A   1      30.370  23.941  26.418  1.00  0.00     0.259 C 
ATOM     20  O   UNL A   1      29.684  23.383  27.278  1.00  0.00    -0.269 OA
ATOM     21  H   UNL A   1      29.708  25.702  27.004  1.00  0.00     0.170 HD
BRANCH  19  22
ATOM     22  C   UNL A   1      31.058  23.078  25.447  1.00  0.00     0.082 A 
ATOM     23  C   UNL A   1      31.116  23.267  24.062  1.00  0.00     0.131 A 
ATOM     24  C   UNL A   1      31.692  22.256  23.276  1.00  0.00     0.047 A 
ATOM     25  C   UNL A   1      32.313  21.149  23.855  1.00  0.00     0.004 A 
ATOM     26  C   UNL A   1      31.746  21.994  26.031  1.00  0.00     0.018 A 
ATOM     27  C   UNL A   1      32.379  21.040  25.238  1.00  0.00     0.001 A 
BRANCH  23  28
ATOM     28  O   UNL A   1      30.634  24.304  23.312  1.00  0.00    -0.496 OA
ATOM     29  C   UNL A   1      31.457  24.814  22.269  1.00  0.00     0.278 C 
ENDBRANCH  23  28
ENDBRANCH  19  22
ENDBRANCH  16  18
BRANCH  17  30
ATOM     30  C   UNL A   1      30.648  28.154  23.980  1.00  0.00    -0.019 A 
ATOM     31  C   UNL A   1      30.148  28.040  22.258  1.00  0.00     0.012 A 
ATOM     32  C   UNL A   1      30.610  29.745  24.763  1.00  0.00     0.058 A 
ATOM     33  C   UNL A   1      29.445  29.705  21.347  1.00  0.00     0.051 A 
ATOM     34  C   UNL A   1      30.031  31.194  23.916  1.00  0.00     0.166 A 
ATOM     35  C   UNL A   1      29.458  31.221  22.289  1.00  0.00     0.165 A 
ATOM     36  O   UNL A   1      29.507  32.314  24.515  1.00  0.00    -0.454 OA
ATOM     37  O   UNL A   1      28.690  32.328  22.126  1.00  0.00    -0.454 OA
ATOM     38  C   UNL A   1      28.504  32.732  23.524  1.00  0.00     0.468 C 
ENDBRANCH  17  30
ENDBRANCH  13  16
ENDBRANCH   7  12
ENDBRANCH   4   6
ENDBRANCH   3   4
ENDBRANCH   2   3
ENDBRANCH   1   2
BRANCH   1  39
ATOM     39  O   UNL A   1      42.300  22.153  27.049  1.00  0.00    -0.374 OA
BRANCH  39  40
ATOM     40  C   UNL A   1      43.267  22.189  25.997  1.00  0.00     0.202 C 
BRANCH  40  41
ATOM     41  C   UNL A   1      43.375  23.467  25.157  1.00  0.00     0.261 C 
BRANCH  41  42
ATOM     42  O   UNL A   1      42.884  24.628  25.857  1.00  0.00    -0.460 OA
BRANCH  42  43
ATOM     43  C   UNL A   1      43.803  25.252  26.637  1.00  0.00     0.338 C 
ATOM     44  O   UNL A   1      45.015  25.229  26.514  1.00  0.00    -0.246 OA
BRANCH  43  45
ATOM     45  C   UNL A   1      43.126  26.145  27.592  1.00  0.00     0.060 A 
ATOM     46  C   UNL A   1      43.554  27.477  27.666  1.00  0.00     0.016 A 
ATOM     47  C   UNL A   1      42.181  25.650  28.490  1.00  0.00     0.016 A 
ATOM     48  C   UNL A   1      43.057  28.314  28.662  1.00  0.00     0.010 A 
ATOM     49  C   UNL A   1      41.693  26.489  29.498  1.00  0.00     0.010 A 
ATOM     50  C   UNL A   1      42.153  27.814  29.607  1.00  0.00    -0.014 A 
BRANCH  50  51
ATOM     51  C   UNL A   1      41.810  28.635  30.792  1.00  0.00     0.031 A 
ATOM     52  C   UNL A   1      40.617  29.548  30.726  1.00  0.00     0.074 A 
ATOM     53  C   UNL A   1      42.535  28.544  31.921  1.00  0.00     0.049 A 
ATOM     54  N   UNL A   1      40.159  30.380  31.624  1.00  0.00    -0.248 NA
ATOM     55  C   UNL A   1      39.836  29.519  29.477  1.00  0.00     0.031 C 
ATOM     56  C   UNL A   1      43.684  27.661  32.116  1.00  0.00     0.029 A 
ATOM     57  N   UNL A   1      42.413  29.208  33.115  1.00  0.00    -0.354 N 
ATOM     58  C   UNL A   1      39.041  30.978  31.052  1.00  0.00     0.074 A 
ATOM     59  C   UNL A   1      38.906  30.433  29.719  1.00  0.00     0.031 C 
ATOM     60  C   UNL A   1      44.173  27.849  33.354  1.00  0.00     0.029 A 
ATOM     61  C   UNL A   1      43.391  28.886  34.025  1.00  0.00     0.049 A 
ATOM     62  H   UNL A   1      41.695  29.855  33.301  1.00  0.00     0.167 HD
ATOM     63  C   UNL A   1      38.202  31.893  31.594  1.00  0.00     0.037 A 
ATOM     64  C   UNL A   1      43.639  29.389  35.251  1.00  0.00     0.037 A 
ATOM     65  C   UNL A   1      38.344  32.428  32.923  1.00  0.00     0.049 A 
ATOM     66  C   UNL A   1      42.729  30.453  35.808  1.00  0.00     0.074 A 
ATOM     67  C   UNL A   1      37.538  33.349  33.569  1.00  0.00     0.029 A 
ATOM     68  N   UNL A   1      39.360  32.097  33.805  1.00  0.00    -0.354 N 
ATOM     69  N   UNL A   1      41.667  30.998  35.263  1.00  0.00    -0.248 NA
ATOM     70  C   UNL A   1      43.047  30.967  37.148  1.00  0.00     0.031 C 
ATOM     71  C   UNL A   1      38.094  33.610  34.826  1.00  0.00     0.029 A 
ATOM     72  C   UNL A   1      39.217  32.812  34.983  1.00  0.00     0.049 A 
ATOM     73  H   UNL A   1      40.078  31.449  33.622  1.00  0.00     0.167 HD
ATOM     74  C   UNL A   1      41.175  31.898  36.204  1.00  0.00     0.074 A 
ATOM     75  C   UNL A   1      42.052  31.818  37.355  1.00  0.00     0.031 C 
ATOM     76  C   UNL A   1      40.095  32.714  36.124  1.00  0.00     0.037 A 
BRANCH  63  77
ATOM     77  C   UNL A   1      37.072  32.394  30.737  1.00  0.00     0.058 A 
ATOM     78  C   UNL A   1      35.780  31.851  30.823  1.00  0.00     0.135 A 
ATOM     79  C   UNL A   1      37.279  33.453  29.838  1.00  0.00     0.135 A 
ATOM     80  F   UNL A   1      35.531  30.825  31.652  1.00  0.00    -0.206 F 
ATOM     81  C   UNL A   1      34.739  32.323  30.029  1.00  0.00     0.059 A 
ATOM     82  C   UNL A   1      36.246  33.958  29.053  1.00  0.00     0.059 A 
ATOM     83  F   UNL A   1      38.496  34.006  29.714  1.00  0.00    -0.206 F 
ATOM     84  C   UNL A   1      34.983  33.377  29.146  1.00  0.00     0.060 A 
BRANCH  84  85
ATOM     85  S   UNL A   1      33.623  33.980  28.123  1.00  0.00     0.124 S 
ATOM     86  O   UNL A   1      34.307  34.942  27.266  1.00  0.00    -0.237 OA
ATOM     87  O   UNL A   1      33.162  32.761  27.466  1.00  0.00    -0.237 OA
ATOM     88  O   UNL A   1      32.696  34.553  29.094  1.00  0.00    -0.744 OA
ENDBRANCH  84  85
ENDBRANCH  63  77
BRANCH  64  89
ATOM     89  C   UNL A   1      44.809  28.902  36.029  1.00  0.00     0.058 A 
ATOM     90  C   UNL A   1      46.052  29.547  35.953  1.00  0.00     0.135 A 
ATOM     91  C   UNL A   1      44.703  27.782  36.869  1.00  0.00     0.135 A 
ATOM     92  F   UNL A   1      46.205  30.614  35.156  1.00  0.00    -0.206 F 
ATOM     93  C   UNL A   1      47.153  29.094  36.674  1.00  0.00     0.059 A 
ATOM     94  C   UNL A   1      45.782  27.325  37.618  1.00  0.00     0.059 A 
ATOM     95  F   UNL A   1      43.533  27.135  36.985  1.00  0.00    -0.206 F 
ATOM     96  C   UNL A   1      47.006  27.983  37.506  1.00  0.00     0.060 A 
BRANCH  96  97
ATOM     97  S   UNL A   1      48.425  27.435  38.480  1.00  0.00     0.124 S 
ATOM     98  O   UNL A   1      47.772  26.800  39.618  1.00  0.00    -0.237 OA
ATOM     99  O   UNL A   1      49.107  26.538  37.551  1.00  0.00    -0.237 OA
ATOM    100  O   UNL A   1      49.132  28.679  38.769  1.00  0.00    -0.744 OA
ENDBRANCH  96  97
ENDBRANCH  64  89
BRANCH  76 101
ATOM    101  C   UNL A   1      39.772  33.560  37.324  1.00  0.00     0.058 A 
ATOM    102  C   UNL A   1      38.877  33.130  38.315  1.00  0.00     0.135 A 
ATOM    103  C   UNL A   1      40.415  34.796  37.514  1.00  0.00     0.135 A 
ATOM    104  F   UNL A   1      38.232  31.960  38.180  1.00  0.00    -0.206 F 
ATOM    105  C   UNL A   1      38.613  33.902  39.441  1.00  0.00     0.059 A 
ATOM    106  C   UNL A   1      40.187  35.573  38.645  1.00  0.00     0.059 A 
ATOM    107  F   UNL A   1      41.289  35.250  36.602  1.00  0.00    -0.206 F 
ATOM    108  C   UNL A   1      39.276  35.122  39.599  1.00  0.00     0.060 A 
BRANCH 108 109
ATOM    109  S   UNL A   1      38.954  36.098  41.084  1.00  0.00     0.124 S 
ATOM    110  O   UNL A   1      40.211  35.949  41.811  1.00  0.00    -0.237 OA
ATOM    111  O   UNL A   1      38.694  37.425  40.534  1.00  0.00    -0.237 OA
ATOM    112  O   UNL A   1      37.800  35.435  41.682  1.00  0.00    -0.744 OA
ENDBRANCH 108 109
ENDBRANCH  76 101
ENDBRANCH  50  51
ENDBRANCH  43  45
ENDBRANCH  42  43
ENDBRANCH  41  42
ENDBRANCH  40  41
ENDBRANCH  39  40
ENDBRANCH   1  39
TORSDOF 23
ENDMDL
MODEL 3
REMARK VINA RESULT:     -11.2      1.369      8.609
REMARK SMILES COc1ccccc1C(=O)N/C(=C/c1ccc2c(c1)OCO2)C(=O)Nc1ccc(C(=O)OCCOCCOC(=O)c2ccc(-c3c4nc(c(-c5c(F)cc(S(=O)(=O)[O-])cc5F)c5ccc([nH]5)c(-c5c(F)cc(S(=O)(=O)[O-])cc5F)c5nc(c(-c6c(F)cc(S(=O)(=O)[O-])cc6F)c6ccc3[nH]6)C=C5)C=C4)cc2)cc1
REMARK SMILES IDX 34 1 33 2 32 3 30 4 31 5 29 6 26 7 27 8 108 9 28 10 107 11
REMARK SMILES IDX 25 12 23 13 24 14 12 16 13 17 11 18 9 19 10 20 8 22 3 23
REMARK SMILES IDX 4 24 5 25 7 26 6 27 2 28 1 29 14 30 15 31 19 32 16 33 18 34
REMARK SMILES IDX 17 35 20 36 22 37 21 38 35 39 36 40 37 41 38 42 39 43 40 44
REMARK SMILES IDX 41 45 42 46 106 47 43 48 105 49 44 50 45 51 46 52 99 53
REMARK SMILES IDX 47 54 104 55 98 56 100 57 48 58 103 59 97 60 96 61 49 63
REMARK SMILES IDX 83 64 62 65 82 66 63 67 66 68 81 69 101 70 64 71 65 72 80 74
REMARK SMILES IDX 102 75 67 76 50 77 51 78 60 79 52 80 53 81 59 82 61 83 54 84
REMARK SMILES IDX 55 85 56 86 57 87 58 88 84 89 85 90 94 91 86 92 87 93 93 94
REMARK SMILES IDX 95 95 88 96 89 97 90 98 91 99 92 100 68 101 69 102 78 103
REMARK SMILES IDX 70 104 71 105 77 106 79 107 72 108 73 109 74 110 75 111
REMARK SMILES IDX 76 112
REMARK H PARENT 25 15 11 21 100 62 66 73
REMARK Flexibility Score: inf
ROOT
ATOM      1  C   UNL A   1      42.363  22.690  27.851  1.00  0.00     0.202 C 
ENDROOT
BRANCH   1   2
ATOM      2  C   UNL A   1      40.874  22.352  28.001  1.00  0.00     0.261 C 
BRANCH   2   3
ATOM      3  O   UNL A   1      40.090  22.847  26.905  1.00  0.00    -0.460 OA
BRANCH   3   4
ATOM      4  C   UNL A   1      39.453  21.881  26.206  1.00  0.00     0.338 C 
ATOM      5  O   UNL A   1      39.763  20.707  26.097  1.00  0.00    -0.246 OA
BRANCH   4   6
ATOM      6  C   UNL A   1      38.177  22.390  25.700  1.00  0.00     0.060 A 
ATOM      7  C   UNL A   1      35.058  23.746  24.178  1.00  0.00     0.041 A 
ATOM      8  C   UNL A   1      35.713  22.224  23.555  1.00  0.00     0.027 A 
ATOM      9  C   UNL A   1      35.865  24.503  25.553  1.00  0.00     0.027 A 
ATOM     10  C   UNL A   1      37.433  21.496  24.326  1.00  0.00     0.018 A 
ATOM     11  C   UNL A   1      37.361  23.846  26.289  1.00  0.00     0.018 A 
BRANCH   7  12
ATOM     12  N   UNL A   1      34.562  24.551  23.125  1.00  0.00    -0.321 N 
ATOM     13  C   UNL A   1      33.577  25.509  23.375  1.00  0.00     0.272 C 
ATOM     14  O   UNL A   1      33.814  26.713  23.266  1.00  0.00    -0.267 OA
ATOM     15  H   UNL A   1      34.913  24.435  22.212  1.00  0.00     0.170 HD
BRANCH  13  16
ATOM     16  C   UNL A   1      32.133  25.039  23.641  1.00  0.00     0.108 C 
ATOM     17  C   UNL A   1      31.780  23.838  24.181  1.00  0.00     0.040 C 
BRANCH  16  18
ATOM     18  N   UNL A   1      31.079  25.884  23.315  1.00  0.00    -0.317 N 
ATOM     19  C   UNL A   1      30.618  27.104  23.756  1.00  0.00     0.259 C 
ATOM     20  O   UNL A   1      29.665  27.613  23.162  1.00  0.00    -0.269 OA
ATOM     21  H   UNL A   1      30.523  25.519  22.589  1.00  0.00     0.170 HD
BRANCH  19  22
ATOM     22  C   UNL A   1      31.102  27.793  24.960  1.00  0.00     0.082 A 
ATOM     23  C   UNL A   1      31.160  27.263  26.254  1.00  0.00     0.131 A 
ATOM     24  C   UNL A   1      31.510  28.120  27.310  1.00  0.00     0.047 A 
ATOM     25  C   UNL A   1      31.920  29.433  27.075  1.00  0.00     0.004 A 
ATOM     26  C   UNL A   1      31.582  29.097  24.721  1.00  0.00     0.018 A 
ATOM     27  C   UNL A   1      31.998  29.909  25.773  1.00  0.00     0.001 A 
BRANCH  23  28
ATOM     28  O   UNL A   1      30.870  25.996  26.681  1.00  0.00    -0.496 OA
ATOM     29  C   UNL A   1      29.576  25.476  26.399  1.00  0.00     0.278 C 
ENDBRANCH  23  28
ENDBRANCH  19  22
ENDBRANCH  16  18
BRANCH  17  30
ATOM     30  C   UNL A   1      32.689  22.684  24.312  1.00  0.00    -0.019 A 
ATOM     31  C   UNL A   1      33.072  22.459  26.053  1.00  0.00     0.012 A 
ATOM     32  C   UNL A   1      32.605  21.245  23.278  1.00  0.00     0.058 A 
ATOM     33  C   UNL A   1      33.255  20.573  26.764  1.00  0.00     0.051 A 
ATOM     34  C   UNL A   1      32.819  19.608  23.929  1.00  0.00     0.166 A 
ATOM     35  C   UNL A   1      33.122  19.239  25.586  1.00  0.00     0.165 A 
ATOM     36  O   UNL A   1      32.313  18.456  23.375  1.00  0.00    -0.454 OA
ATOM     37  O   UNL A   1      32.774  17.945  25.806  1.00  0.00    -0.454 OA
ATOM     38  C   UNL A   1      32.023  17.660  24.577  1.00  0.00     0.468 C 
ENDBRANCH  17  30
ENDBRANCH  13  16
ENDBRANCH   7  12
ENDBRANCH   4   6
ENDBRANCH   3   4
ENDBRANCH   2   3
ENDBRANCH   1   2
BRANCH   1  39
ATOM     39  O   UNL A   1      43.073  22.077  26.779  1.00  0.00    -0.374 OA
BRANCH  39  40
ATOM     40  C   UNL A   1      43.768  22.920  25.857  1.00  0.00     0.202 C 
BRANCH  40  41
ATOM     41  C   UNL A   1      42.961  23.982  25.099  1.00  0.00     0.261 C 
BRANCH  41  42
ATOM     42  O   UNL A   1      43.045  25.282  25.719  1.00  0.00    -0.460 OA
BRANCH  42  43
ATOM     43  C   UNL A   1      41.848  25.854  26.002  1.00  0.00     0.338 C 
ATOM     44  O   UNL A   1      40.820  25.777  25.352  1.00  0.00    -0.246 OA
BRANCH  43  45
ATOM     45  C   UNL A   1      41.889  26.466  27.340  1.00  0.00     0.060 A 
ATOM     46  C   UNL A   1      40.878  26.129  28.251  1.00  0.00     0.016 A 
ATOM     47  C   UNL A   1      42.826  27.452  27.648  1.00  0.00     0.016 A 
ATOM     48  C   UNL A   1      40.784  26.802  29.466  1.00  0.00     0.010 A 
ATOM     49  C   UNL A   1      42.721  28.135  28.865  1.00  0.00     0.010 A 
ATOM     50  C   UNL A   1      41.681  27.835  29.764  1.00  0.00    -0.014 A 
BRANCH  50  51
ATOM     51  C   UNL A   1      41.434  28.695  30.945  1.00  0.00     0.031 A 
ATOM     52  C   UNL A   1      40.304  29.687  30.902  1.00  0.00     0.074 A 
ATOM     53  C   UNL A   1      42.188  28.571  32.052  1.00  0.00     0.049 A 
ATOM     54  N   UNL A   1      39.934  30.560  31.801  1.00  0.00    -0.248 NA
ATOM     55  C   UNL A   1      39.482  29.693  29.680  1.00  0.00     0.031 C 
ATOM     56  C   UNL A   1      43.280  27.614  32.225  1.00  0.00     0.029 A 
ATOM     57  N   UNL A   1      42.151  29.259  33.238  1.00  0.00    -0.354 N 
ATOM     58  C   UNL A   1      38.841  31.225  31.255  1.00  0.00     0.074 A 
ATOM     59  C   UNL A   1      38.626  30.672  29.936  1.00  0.00     0.031 C 
ATOM     60  C   UNL A   1      43.822  27.786  33.444  1.00  0.00     0.029 A 
ATOM     61  C   UNL A   1      43.134  28.883  34.122  1.00  0.00     0.049 A 
ATOM     62  H   UNL A   1      41.485  29.956  33.437  1.00  0.00     0.167 HD
ATOM     63  C   UNL A   1      38.084  32.203  31.808  1.00  0.00     0.037 A 
ATOM     64  C   UNL A   1      43.456  29.386  35.331  1.00  0.00     0.037 A 
ATOM     65  C   UNL A   1      38.306  32.746  33.123  1.00  0.00     0.049 A 
ATOM     66  C   UNL A   1      42.640  30.517  35.899  1.00  0.00     0.074 A 
ATOM     67  C   UNL A   1      37.586  33.730  33.780  1.00  0.00     0.029 A 
ATOM     68  N   UNL A   1      39.326  32.359  33.978  1.00  0.00    -0.354 N 
ATOM     69  N   UNL A   1      41.600  31.126  35.379  1.00  0.00    -0.248 NA
ATOM     70  C   UNL A   1      43.036  31.027  37.219  1.00  0.00     0.031 C 
ATOM     71  C   UNL A   1      38.201  33.970  35.014  1.00  0.00     0.029 A 
ATOM     72  C   UNL A   1      39.271  33.099  35.148  1.00  0.00     0.049 A 
ATOM     73  H   UNL A   1      39.992  31.661  33.783  1.00  0.00     0.167 HD
ATOM     74  C   UNL A   1      41.202  32.071  36.321  1.00  0.00     0.074 A 
ATOM     75  C   UNL A   1      42.109  31.947  37.444  1.00  0.00     0.031 C 
ATOM     76  C   UNL A   1      40.177  32.957  36.261  1.00  0.00     0.037 A 
BRANCH  63  77
ATOM     77  C   UNL A   1      36.963  32.768  30.980  1.00  0.00     0.058 A 
ATOM     78  C   UNL A   1      37.200  33.661  29.923  1.00  0.00     0.135 A 
ATOM     79  C   UNL A   1      35.635  32.386  31.229  1.00  0.00     0.135 A 
ATOM     80  F   UNL A   1      38.448  34.074  29.653  1.00  0.00    -0.206 F 
ATOM     81  C   UNL A   1      36.157  34.176  29.159  1.00  0.00     0.059 A 
ATOM     82  C   UNL A   1      34.579  32.868  30.461  1.00  0.00     0.059 A 
ATOM     83  F   UNL A   1      35.353  31.537  32.230  1.00  0.00    -0.206 F 
ATOM     84  C   UNL A   1      34.849  33.773  29.438  1.00  0.00     0.060 A 
BRANCH  84  85
ATOM     85  S   UNL A   1      33.506  34.449  28.437  1.00  0.00     0.124 S 
ATOM     86  O   UNL A   1      34.209  35.458  27.651  1.00  0.00    -0.237 OA
ATOM     87  O   UNL A   1      33.047  33.277  27.698  1.00  0.00    -0.237 OA
ATOM     88  O   UNL A   1      32.570  34.967  29.429  1.00  0.00    -0.744 OA
ENDBRANCH  84  85
ENDBRANCH  63  77
BRANCH  64  89
ATOM     89  C   UNL A   1      44.616  28.831  36.078  1.00  0.00     0.058 A 
ATOM     90  C   UNL A   1      44.462  27.754  36.964  1.00  0.00     0.135 A 
ATOM     91  C   UNL A   1      45.904  29.363  35.914  1.00  0.00     0.135 A 
ATOM     92  F   UNL A   1      43.248  27.219  37.163  1.00  0.00    -0.206 F 
ATOM     93  C   UNL A   1      45.541  27.232  37.670  1.00  0.00     0.059 A 
ATOM     94  C   UNL A   1      47.003  28.843  36.590  1.00  0.00     0.059 A 
ATOM     95  F   UNL A   1      46.107  30.387  35.070  1.00  0.00    -0.206 F 
ATOM     96  C   UNL A   1      46.809  27.782  37.473  1.00  0.00     0.060 A 
BRANCH  96  97
ATOM     97  S   UNL A   1      48.213  27.062  38.352  1.00  0.00     0.124 S 
ATOM     98  O   UNL A   1      48.117  25.661  37.960  1.00  0.00    -0.237 OA
ATOM     99  O   UNL A   1      49.338  27.808  37.795  1.00  0.00    -0.237 OA
ATOM    100  O   UNL A   1      47.914  27.349  39.752  1.00  0.00    -0.744 OA
ENDBRANCH  96  97
ENDBRANCH  64  89
BRANCH  76 101
ATOM    101  C   UNL A   1      39.953  33.841  37.457  1.00  0.00     0.058 A 
ATOM    102  C   UNL A   1      40.567  35.097  37.575  1.00  0.00     0.135 A 
ATOM    103  C   UNL A   1      39.063  33.449  38.471  1.00  0.00     0.135 A 
ATOM    104  F   UNL A   1      41.429  35.518  36.636  1.00  0.00    -0.206 F 
ATOM    105  C   UNL A   1      40.323  35.926  38.666  1.00  0.00     0.059 A 
ATOM    106  C   UNL A   1      38.784  34.272  39.558  1.00  0.00     0.059 A 
ATOM    107  F   UNL A   1      38.440  32.262  38.402  1.00  0.00    -0.206 F 
ATOM    108  C   UNL A   1      39.427  35.505  39.651  1.00  0.00     0.060 A 
BRANCH 108 109
ATOM    109  S   UNL A   1      39.091  36.605  41.043  1.00  0.00     0.124 S 
ATOM    110  O   UNL A   1      38.423  37.721  40.381  1.00  0.00    -0.237 OA
ATOM    111  O   UNL A   1      38.245  35.777  41.898  1.00  0.00    -0.237 OA
ATOM    112  O   UNL A   1      40.419  36.894  41.576  1.00  0.00    -0.744 OA
ENDBRANCH 108 109
ENDBRANCH  76 101
ENDBRANCH  50  51
ENDBRANCH  43  45
ENDBRANCH  42  43
ENDBRANCH  41  42
ENDBRANCH  40  41
ENDBRANCH  39  40
ENDBRANCH   1  39
TORSDOF 23
ENDMDL
