MODEL 1
REMARK VINA RESULT:      -9.9      0.000      0.000
REMARK SMILES CCc1c([N+](=O)[O-])cc(C(=O)OCCOCCOC(=O)c2ccc(-c3c4nc(c(-c5c(F)cc(S(=O)(=O)[O-])cc5F)c5ccc([nH]5)c(-c5c(F)cc(S(=O)(=O)[O-])cc5F)c5nc(c(-c6c(F)cc(S(=O)(=O)[O-])cc6F)c6ccc3[nH]6)C=C5)C=C4)cc2)n1C
REMARK SMILES IDX 16 1 15 2 14 3 13 4 12 5 10 6 11 7 9 8 3 9 4 10 87 11 8 12
REMARK SMILES IDX 88 13 2 14 1 15 5 16 6 17 7 18 17 19 18 20 19 21 20 22 21 23
REMARK SMILES IDX 22 24 86 25 23 26 85 27 24 28 25 29 26 30 79 31 27 32 84 33
REMARK SMILES IDX 78 34 80 35 28 36 83 37 77 38 76 39 29 41 63 42 42 43 62 44
REMARK SMILES IDX 43 45 46 46 61 47 81 48 44 49 45 50 60 52 82 53 47 54 30 55
REMARK SMILES IDX 31 56 40 57 32 58 33 59 39 60 41 61 34 62 35 63 36 64 37 65
REMARK SMILES IDX 38 66 64 67 65 68 74 69 66 70 67 71 73 72 75 73 68 74 69 75
REMARK SMILES IDX 70 76 71 77 72 78 48 79 49 80 58 81 50 82 51 83 57 84 59 85
REMARK SMILES IDX 52 86 53 87 54 88 55 89 56 90
REMARK H PARENT 80 40 46 51
REMARK Flexibility Score: inf
ROOT
ATOM      1  C   UNL A   1      40.638  21.739  26.252  1.00  0.00     0.202 C 
ENDROOT
BRANCH   1   2
ATOM      2  O   UNL A   1      39.212  21.861  26.234  1.00  0.00    -0.374 OA
BRANCH   2   3
ATOM      3  C   UNL A   1      38.512  20.920  25.417  1.00  0.00     0.202 C 
BRANCH   3   4
ATOM      4  C   UNL A   1      37.290  21.508  24.708  1.00  0.00     0.261 C 
BRANCH   4   5
ATOM      5  O   UNL A   1      36.301  21.883  25.683  1.00  0.00    -0.459 OA
BRANCH   5   6
ATOM      6  C   UNL A   1      35.967  23.198  25.706  1.00  0.00     0.355 C 
ATOM      7  O   UNL A   1      36.769  24.122  25.760  1.00  0.00    -0.244 OA
BRANCH   6   8
ATOM      8  C   UNL A   1      34.538  23.383  25.519  1.00  0.00     0.134 A 
ATOM      9  C   UNL A   1      32.409  23.443  24.700  1.00  0.00     0.096 A 
ATOM     10  C   UNL A   1      32.360  23.831  26.038  1.00  0.00     0.291 A 
ATOM     11  N   UNL A   1      33.756  23.272  24.375  1.00  0.00    -0.336 N 
ATOM     12  C   UNL A   1      33.682  23.770  26.537  1.00  0.00     0.121 A 
ATOM     13  C   UNL A   1      34.266  22.987  23.045  1.00  0.00     0.150 C 
BRANCH   9  14
ATOM     14  C   UNL A   1      31.294  23.225  23.711  1.00  0.00     0.058 C 
ATOM     15  C   UNL A   1      30.650  24.539  23.287  1.00  0.00     0.011 C 
ENDBRANCH   9  14
BRANCH  10  16
ATOM     16  N   UNL A   1      31.209  24.214  26.828  1.00  0.00     0.064 N 
ATOM     17  O   UNL A   1      30.534  23.322  27.354  1.00  0.00    -0.258 OA
ATOM     18  O   UNL A   1      30.985  25.429  26.921  1.00  0.00    -0.258 OA
ENDBRANCH  10  16
ENDBRANCH   6   8
ENDBRANCH   5   6
ENDBRANCH   4   5
ENDBRANCH   3   4
ENDBRANCH   2   3
ENDBRANCH   1   2
BRANCH   1  19
ATOM     19  C   UNL A   1      41.383  23.034  26.593  1.00  0.00     0.261 C 
BRANCH  19  20
ATOM     20  O   UNL A   1      40.497  24.166  26.511  1.00  0.00    -0.460 OA
BRANCH  20  21
ATOM     21  C   UNL A   1      41.101  25.361  26.296  1.00  0.00     0.338 C 
ATOM     22  O   UNL A   1      41.640  25.740  25.271  1.00  0.00    -0.246 OA
BRANCH  21  23
ATOM     23  C   UNL A   1      40.842  26.247  27.449  1.00  0.00     0.060 A 
ATOM     24  C   UNL A   1      41.672  27.365  27.606  1.00  0.00     0.016 A 
ATOM     25  C   UNL A   1      39.820  25.990  28.366  1.00  0.00     0.016 A 
ATOM     26  C   UNL A   1      41.492  28.222  28.692  1.00  0.00     0.010 A 
ATOM     27  C   UNL A   1      39.650  26.843  29.461  1.00  0.00     0.010 A 
ATOM     28  C   UNL A   1      40.493  27.954  29.637  1.00  0.00    -0.014 A 
BRANCH  28  29
ATOM     29  C   UNL A   1      40.379  28.784  30.859  1.00  0.00     0.031 A 
ATOM     30  C   UNL A   1      39.384  29.909  30.894  1.00  0.00     0.074 A 
ATOM     31  C   UNL A   1      41.166  28.541  31.922  1.00  0.00     0.049 A 
ATOM     32  N   UNL A   1      39.187  30.809  31.822  1.00  0.00    -0.248 NA
ATOM     33  C   UNL A   1      38.495  30.036  29.729  1.00  0.00     0.031 C 
ATOM     34  C   UNL A   1      42.137  27.453  32.022  1.00  0.00     0.029 A 
ATOM     35  N   UNL A   1      41.283  29.208  33.116  1.00  0.00    -0.354 N 
ATOM     36  C   UNL A   1      38.155  31.613  31.354  1.00  0.00     0.074 A 
ATOM     37  C   UNL A   1      37.781  31.107  30.051  1.00  0.00     0.031 C 
ATOM     38  C   UNL A   1      42.770  27.540  33.205  1.00  0.00     0.029 A 
ATOM     39  C   UNL A   1      42.274  28.711  33.928  1.00  0.00     0.049 A 
ATOM     40  H   UNL A   1      40.713  29.970  33.366  1.00  0.00     0.167 HD
ATOM     41  C   UNL A   1      37.571  32.673  31.960  1.00  0.00     0.037 A 
ATOM     42  C   UNL A   1      42.750  29.168  35.103  1.00  0.00     0.037 A 
ATOM     43  C   UNL A   1      37.950  33.176  33.254  1.00  0.00     0.049 A 
ATOM     44  C   UNL A   1      42.150  30.406  35.714  1.00  0.00     0.074 A 
ATOM     45  C   UNL A   1      37.396  34.226  33.966  1.00  0.00     0.029 A 
ATOM     46  N   UNL A   1      38.988  32.674  34.024  1.00  0.00    -0.354 N 
ATOM     47  N   UNL A   1      41.158  31.143  35.274  1.00  0.00    -0.248 NA
ATOM     48  C   UNL A   1      42.741  30.883  36.973  1.00  0.00     0.031 C 
ATOM     49  C   UNL A   1      38.130  34.388  35.146  1.00  0.00     0.029 A 
ATOM     50  C   UNL A   1      39.115  33.414  35.188  1.00  0.00     0.049 A 
ATOM     51  H   UNL A   1      39.551  31.904  33.780  1.00  0.00     0.167 HD
ATOM     52  C   UNL A   1      40.998  32.162  36.207  1.00  0.00     0.074 A 
ATOM     53  C   UNL A   1      41.986  31.942  37.242  1.00  0.00     0.031 C 
ATOM     54  C   UNL A   1      40.110  33.186  36.206  1.00  0.00     0.037 A 
BRANCH  41  55
ATOM     55  C   UNL A   1      36.474  33.379  31.216  1.00  0.00     0.058 A 
ATOM     56  C   UNL A   1      36.739  34.151  30.074  1.00  0.00     0.135 A 
ATOM     57  C   UNL A   1      35.140  33.260  31.635  1.00  0.00     0.135 A 
ATOM     58  F   UNL A   1      38.000  34.310  29.643  1.00  0.00    -0.206 F 
ATOM     59  C   UNL A   1      35.719  34.799  29.386  1.00  0.00     0.059 A 
ATOM     60  C   UNL A   1      34.102  33.883  30.949  1.00  0.00     0.059 A 
ATOM     61  F   UNL A   1      34.835  32.536  32.724  1.00  0.00    -0.206 F 
ATOM     62  C   UNL A   1      34.404  34.663  29.833  1.00  0.00     0.060 A 
BRANCH  62  63
ATOM     63  S   UNL A   1      33.090  35.515  28.934  1.00  0.00     0.124 S 
ATOM     64  O   UNL A   1      33.855  36.480  28.150  1.00  0.00    -0.237 OA
ATOM     65  O   UNL A   1      32.474  34.430  28.176  1.00  0.00    -0.237 OA
ATOM     66  O   UNL A   1      32.265  36.081  29.995  1.00  0.00    -0.744 OA
ENDBRANCH  62  63
ENDBRANCH  41  55
BRANCH  42  67
ATOM     67  C   UNL A   1      43.884  28.469  35.762  1.00  0.00     0.058 A 
ATOM     68  C   UNL A   1      43.660  27.443  36.691  1.00  0.00     0.135 A 
ATOM     69  C   UNL A   1      45.213  28.806  35.463  1.00  0.00     0.135 A 
ATOM     70  F   UNL A   1      42.407  27.095  37.018  1.00  0.00    -0.206 F 
ATOM     71  C   UNL A   1      44.716  26.775  37.304  1.00  0.00     0.059 A 
ATOM     72  C   UNL A   1      46.285  28.140  36.048  1.00  0.00     0.059 A 
ATOM     73  F   UNL A   1      45.477  29.776  34.574  1.00  0.00    -0.206 F 
ATOM     74  C   UNL A   1      46.026  27.129  36.973  1.00  0.00     0.060 A 
BRANCH  74  75
ATOM     75  S   UNL A   1      47.392  26.213  37.720  1.00  0.00     0.124 S 
ATOM     76  O   UNL A   1      47.085  26.338  39.139  1.00  0.00    -0.237 OA
ATOM     77  O   UNL A   1      47.220  24.883  37.144  1.00  0.00    -0.237 OA
ATOM     78  O   UNL A   1      48.570  26.939  37.257  1.00  0.00    -0.744 OA
ENDBRANCH  74  75
ENDBRANCH  42  67
BRANCH  54  79
ATOM     79  C   UNL A   1      40.157  34.149  37.358  1.00  0.00     0.058 A 
ATOM     80  C   UNL A   1      40.909  35.331  37.291  1.00  0.00     0.135 A 
ATOM     81  C   UNL A   1      39.381  33.927  38.508  1.00  0.00     0.135 A 
ATOM     82  F   UNL A   1      41.674  35.585  36.218  1.00  0.00    -0.206 F 
ATOM     83  C   UNL A   1      40.895  36.260  38.326  1.00  0.00     0.059 A 
ATOM     84  C   UNL A   1      39.335  34.853  39.546  1.00  0.00     0.059 A 
ATOM     85  F   UNL A   1      38.639  32.814  38.617  1.00  0.00    -0.206 F 
ATOM     86  C   UNL A   1      40.099  36.015  39.448  1.00  0.00     0.060 A 
BRANCH  86  87
ATOM     87  S   UNL A   1      40.041  37.257  40.758  1.00  0.00     0.124 S 
ATOM     88  O   UNL A   1      39.752  38.469  40.001  1.00  0.00    -0.237 OA
ATOM     89  O   UNL A   1      38.959  36.766  41.607  1.00  0.00    -0.237 OA
ATOM     90  O   UNL A   1      41.374  37.187  41.350  1.00  0.00    -0.744 OA
ENDBRANCH  86  87
ENDBRANCH  54  79
ENDBRANCH  28  29
ENDBRANCH  21  23
ENDBRANCH  20  21
ENDBRANCH  19  20
ENDBRANCH   1  19
TORSDOF 19
ENDMDL
MODEL 2
REMARK VINA RESULT:      -9.7      1.269      8.550
REMARK SMILES CCc1c([N+](=O)[O-])cc(C(=O)OCCOCCOC(=O)c2ccc(-c3c4nc(c(-c5c(F)cc(S(=O)(=O)[O-])cc5F)c5ccc([nH]5)c(-c5c(F)cc(S(=O)(=O)[O-])cc5F)c5nc(c(-c6c(F)cc(S(=O)(=O)[O-])cc6F)c6ccc3[nH]6)C=C5)C=C4)cc2)n1C
REMARK SMILES IDX 16 1 15 2 14 3 13 4 12 5 10 6 11 7 9 8 3 9 4 10 87 11 8 12
REMARK SMILES IDX 88 13 2 14 1 15 5 16 6 17 7 18 17 19 18 20 19 21 20 22 21 23
REMARK SMILES IDX 22 24 86 25 23 26 85 27 24 28 25 29 26 30 79 31 27 32 84 33
REMARK SMILES IDX 78 34 80 35 28 36 83 37 77 38 76 39 29 41 63 42 42 43 62 44
REMARK SMILES IDX 43 45 46 46 61 47 81 48 44 49 45 50 60 52 82 53 47 54 30 55
REMARK SMILES IDX 31 56 40 57 32 58 33 59 39 60 41 61 34 62 35 63 36 64 37 65
REMARK SMILES IDX 38 66 64 67 65 68 74 69 66 70 67 71 73 72 75 73 68 74 69 75
REMARK SMILES IDX 70 76 71 77 72 78 48 79 49 80 58 81 50 82 51 83 57 84 59 85
REMARK SMILES IDX 52 86 53 87 54 88 55 89 56 90
REMARK H PARENT 80 40 46 51
REMARK Flexibility Score: inf
ROOT
ATOM      1  C   UNL A   1      37.281  22.867  25.461  1.00  0.00     0.202 C 
ENDROOT
BRANCH   1   2
ATOM      2  O   UNL A   1      36.293  22.075  26.130  1.00  0.00    -0.374 OA
BRANCH   2   3
ATOM      3  C   UNL A   1      35.456  21.276  25.291  1.00  0.00     0.202 C 
BRANCH   3   4
ATOM      4  C   UNL A   1      34.578  22.092  24.339  1.00  0.00     0.261 C 
BRANCH   4   5
ATOM      5  O   UNL A   1      33.477  21.284  23.886  1.00  0.00    -0.459 OA
BRANCH   5   6
ATOM      6  C   UNL A   1      32.345  21.363  24.630  1.00  0.00     0.355 C 
ATOM      7  O   UNL A   1      31.811  20.416  25.192  1.00  0.00    -0.244 OA
BRANCH   6   8
ATOM      8  C   UNL A   1      31.916  22.742  24.792  1.00  0.00     0.134 A 
ATOM      9  C   UNL A   1      31.527  24.857  25.555  1.00  0.00     0.096 A 
ATOM     10  C   UNL A   1      31.039  24.780  24.251  1.00  0.00     0.291 A 
ATOM     11  N   UNL A   1      31.965  23.578  25.901  1.00  0.00    -0.336 N 
ATOM     12  C   UNL A   1      31.304  23.471  23.785  1.00  0.00     0.121 A 
ATOM     13  C   UNL A   1      32.436  23.183  27.218  1.00  0.00     0.150 C 
BRANCH   9  14
ATOM     14  C   UNL A   1      31.610  26.033  26.492  1.00  0.00     0.058 C 
ATOM     15  C   UNL A   1      32.738  26.983  26.109  1.00  0.00     0.011 C 
ENDBRANCH   9  14
BRANCH  10  16
ATOM     16  N   UNL A   1      30.394  25.809  23.463  1.00  0.00     0.064 N 
ATOM     17  O   UNL A   1      29.276  26.204  23.814  1.00  0.00    -0.258 OA
ATOM     18  O   UNL A   1      31.024  26.226  22.480  1.00  0.00    -0.258 OA
ENDBRANCH  10  16
ENDBRANCH   6   8
ENDBRANCH   5   6
ENDBRANCH   4   5
ENDBRANCH   3   4
ENDBRANCH   2   3
ENDBRANCH   1   2
BRANCH   1  19
ATOM     19  C   UNL A   1      38.662  22.852  26.124  1.00  0.00     0.261 C 
BRANCH  19  20
ATOM     20  O   UNL A   1      39.219  24.179  26.167  1.00  0.00    -0.460 OA
BRANCH  20  21
ATOM     21  C   UNL A   1      40.381  24.298  26.855  1.00  0.00     0.338 C 
ATOM     22  O   UNL A   1      41.419  23.689  26.661  1.00  0.00    -0.246 OA
BRANCH  21  23
ATOM     23  C   UNL A   1      40.277  25.442  27.784  1.00  0.00     0.060 A 
ATOM     24  C   UNL A   1      41.285  26.413  27.733  1.00  0.00     0.016 A 
ATOM     25  C   UNL A   1      39.224  25.561  28.695  1.00  0.00     0.016 A 
ATOM     26  C   UNL A   1      41.253  27.501  28.605  1.00  0.00     0.010 A 
ATOM     27  C   UNL A   1      39.202  26.646  29.578  1.00  0.00     0.010 A 
ATOM     28  C   UNL A   1      40.223  27.613  29.547  1.00  0.00    -0.014 A 
BRANCH  28  29
ATOM     29  C   UNL A   1      40.250  28.693  30.561  1.00  0.00     0.031 A 
ATOM     30  C   UNL A   1      41.205  28.594  31.716  1.00  0.00     0.074 A 
ATOM     31  C   UNL A   1      39.421  29.747  30.454  1.00  0.00     0.049 A 
ATOM     32  N   UNL A   1      41.327  29.377  32.756  1.00  0.00    -0.248 NA
ATOM     33  C   UNL A   1      42.145  27.463  31.696  1.00  0.00     0.031 C 
ATOM     34  C   UNL A   1      38.482  29.974  29.357  1.00  0.00     0.029 A 
ATOM     35  N   UNL A   1      39.223  30.814  31.293  1.00  0.00    -0.354 N 
ATOM     36  C   UNL A   1      42.354  28.833  33.518  1.00  0.00     0.074 A 
ATOM     37  C   UNL A   1      42.807  27.643  32.831  1.00  0.00     0.031 C 
ATOM     38  C   UNL A   1      37.789  31.100  29.601  1.00  0.00     0.029 A 
ATOM     39  C   UNL A   1      38.211  31.651  30.889  1.00  0.00     0.049 A 
ATOM     40  H   UNL A   1      39.755  30.966  32.107  1.00  0.00     0.167 HD
ATOM     41  C   UNL A   1      42.873  29.290  34.682  1.00  0.00     0.037 A 
ATOM     42  C   UNL A   1      37.664  32.718  31.503  1.00  0.00     0.037 A 
ATOM     43  C   UNL A   1      42.415  30.472  35.364  1.00  0.00     0.049 A 
ATOM     44  C   UNL A   1      38.192  33.153  32.844  1.00  0.00     0.074 A 
ATOM     45  C   UNL A   1      42.898  31.034  36.533  1.00  0.00     0.029 A 
ATOM     46  N   UNL A   1      41.357  31.266  34.947  1.00  0.00    -0.354 N 
ATOM     47  N   UNL A   1      39.179  32.646  33.543  1.00  0.00    -0.248 NA
ATOM     48  C   UNL A   1      37.525  34.295  33.487  1.00  0.00     0.031 C 
ATOM     49  C   UNL A   1      42.103  32.141  36.847  1.00  0.00     0.029 A 
ATOM     50  C   UNL A   1      41.149  32.293  35.853  1.00  0.00     0.049 A 
ATOM     51  H   UNL A   1      40.832  31.122  34.127  1.00  0.00     0.167 HD
ATOM     52  C   UNL A   1      39.261  33.413  34.700  1.00  0.00     0.074 A 
ATOM     53  C   UNL A   1      38.231  34.426  34.603  1.00  0.00     0.031 C 
ATOM     54  C   UNL A   1      40.114  33.290  35.746  1.00  0.00     0.037 A 
BRANCH  41  55
ATOM     55  C   UNL A   1      43.981  28.493  35.307  1.00  0.00     0.058 A 
ATOM     56  C   UNL A   1      45.326  28.722  34.982  1.00  0.00     0.135 A 
ATOM     57  C   UNL A   1      43.694  27.505  36.263  1.00  0.00     0.135 A 
ATOM     58  F   UNL A   1      45.651  29.643  34.061  1.00  0.00    -0.206 F 
ATOM     59  C   UNL A   1      46.349  27.984  35.566  1.00  0.00     0.059 A 
ATOM     60  C   UNL A   1      44.704  26.770  36.876  1.00  0.00     0.059 A 
ATOM     61  F   UNL A   1      42.423  27.245  36.606  1.00  0.00    -0.206 F 
ATOM     62  C   UNL A   1      46.028  27.007  36.510  1.00  0.00     0.060 A 
BRANCH  62  63
ATOM     63  S   UNL A   1      47.366  26.051  37.257  1.00  0.00     0.124 S 
ATOM     64  O   UNL A   1      46.658  25.344  38.319  1.00  0.00    -0.237 OA
ATOM     65  O   UNL A   1      47.823  25.227  36.142  1.00  0.00    -0.237 OA
ATOM     66  O   UNL A   1      48.306  27.075  37.702  1.00  0.00    -0.744 OA
ENDBRANCH  62  63
ENDBRANCH  41  55
BRANCH  42  67
ATOM     67  C   UNL A   1      36.523  33.429  30.870  1.00  0.00     0.058 A 
ATOM     68  C   UNL A   1      35.216  33.276  31.355  1.00  0.00     0.135 A 
ATOM     69  C   UNL A   1      36.721  34.286  29.777  1.00  0.00     0.135 A 
ATOM     70  F   UNL A   1      34.976  32.458  32.390  1.00  0.00    -0.206 F 
ATOM     71  C   UNL A   1      34.143  33.947  30.776  1.00  0.00     0.059 A 
ATOM     72  C   UNL A   1      35.668  34.983  29.194  1.00  0.00     0.059 A 
ATOM     73  F   UNL A   1      37.955  34.472  29.283  1.00  0.00    -0.206 F 
ATOM     74  C   UNL A   1      34.380  34.802  29.698  1.00  0.00     0.060 A 
BRANCH  74  75
ATOM     75  S   UNL A   1      32.994  35.723  28.994  1.00  0.00     0.124 S 
ATOM     76  O   UNL A   1      33.685  36.799  28.294  1.00  0.00    -0.237 OA
ATOM     77  O   UNL A   1      32.356  34.718  28.150  1.00  0.00    -0.237 OA
ATOM     78  O   UNL A   1      32.228  36.119  30.171  1.00  0.00    -0.744 OA
ENDBRANCH  74  75
ENDBRANCH  42  67
BRANCH  54  79
ATOM     79  C   UNL A   1      39.979  34.274  36.874  1.00  0.00     0.058 A 
ATOM     80  C   UNL A   1      40.552  35.552  36.799  1.00  0.00     0.135 A 
ATOM     81  C   UNL A   1      39.206  33.964  38.004  1.00  0.00     0.135 A 
ATOM     82  F   UNL A   1      41.308  35.893  35.744  1.00  0.00    -0.206 F 
ATOM     83  C   UNL A   1      40.366  36.490  37.809  1.00  0.00     0.059 A 
ATOM     84  C   UNL A   1      38.989  34.894  39.017  1.00  0.00     0.059 A 
ATOM     85  F   UNL A   1      38.632  32.756  38.120  1.00  0.00    -0.206 F 
ATOM     86  C   UNL A   1      39.577  36.154  38.912  1.00  0.00     0.060 A 
BRANCH  86  87
ATOM     87  S   UNL A   1      39.292  37.401  40.187  1.00  0.00     0.124 S 
ATOM     88  O   UNL A   1      38.653  36.611  41.233  1.00  0.00    -0.237 OA
ATOM     89  O   UNL A   1      40.646  37.864  40.480  1.00  0.00    -0.237 OA
ATOM     90  O   UNL A   1      38.434  38.376  39.521  1.00  0.00    -0.744 OA
ENDBRANCH  86  87
ENDBRANCH  54  79
ENDBRANCH  28  29
ENDBRANCH  21  23
ENDBRANCH  20  21
ENDBRANCH  19  20
ENDBRANCH   1  19
TORSDOF 19
ENDMDL
MODEL 3
REMARK VINA RESULT:      -9.7      1.357      8.615
REMARK SMILES CCc1c([N+](=O)[O-])cc(C(=O)OCCOCCOC(=O)c2ccc(-c3c4nc(c(-c5c(F)cc(S(=O)(=O)[O-])cc5F)c5ccc([nH]5)c(-c5c(F)cc(S(=O)(=O)[O-])cc5F)c5nc(c(-c6c(F)cc(S(=O)(=O)[O-])cc6F)c6ccc3[nH]6)C=C5)C=C4)cc2)n1C
REMARK SMILES IDX 16 1 15 2 14 3 13 4 12 5 10 6 11 7 9 8 3 9 4 10 87 11 8 12
REMARK SMILES IDX 88 13 2 14 1 15 5 16 6 17 7 18 17 19 18 20 19 21 20 22 21 23
REMARK SMILES IDX 22 24 86 25 23 26 85 27 24 28 25 29 26 30 79 31 27 32 84 33
REMARK SMILES IDX 78 34 80 35 28 36 83 37 77 38 76 39 29 41 63 42 42 43 62 44
REMARK SMILES IDX 43 45 46 46 61 47 81 48 44 49 45 50 60 52 82 53 47 54 30 55
REMARK SMILES IDX 31 56 40 57 32 58 33 59 39 60 41 61 34 62 35 63 36 64 37 65
REMARK SMILES IDX 38 66 64 67 65 68 74 69 66 70 67 71 73 72 75 73 68 74 69 75
REMARK SMILES IDX 70 76 71 77 72 78 48 79 49 80 58 81 50 82 51 83 57 84 59 85
REMARK SMILES IDX 52 86 53 87 54 88 55 89 56 90
REMARK H PARENT 80 40 46 51
REMARK Flexibility Score: inf
ROOT
ATOM      1  C   UNL A   1      38.540  21.879  25.801  1.00  0.00     0.202 C 
ENDROOT
BRANCH   1   2
ATOM      2  O   UNL A   1      37.674  21.455  24.744  1.00  0.00    -0.374 OA
BRANCH   2   3
ATOM      3  C   UNL A   1      36.646  20.530  25.108  1.00  0.00     0.202 C 
BRANCH   3   4
ATOM      4  C   UNL A   1      35.229  21.047  24.847  1.00  0.00     0.261 C 
BRANCH   4   5
ATOM      5  O   UNL A   1      35.274  22.460  24.578  1.00  0.00    -0.459 OA
BRANCH   5   6
ATOM      6  C   UNL A   1      34.592  23.246  25.449  1.00  0.00     0.355 C 
ATOM      7  O   UNL A   1      34.730  23.225  26.665  1.00  0.00    -0.244 OA
BRANCH   6   8
ATOM      8  C   UNL A   1      33.771  24.220  24.748  1.00  0.00     0.134 A 
ATOM      9  C   UNL A   1      32.222  25.792  24.170  1.00  0.00     0.096 A 
ATOM     10  C   UNL A   1      33.077  25.618  23.082  1.00  0.00     0.291 A 
ATOM     11  N   UNL A   1      32.600  24.859  25.136  1.00  0.00    -0.336 N 
ATOM     12  C   UNL A   1      34.042  24.656  23.461  1.00  0.00     0.121 A 
ATOM     13  C   UNL A   1      31.894  24.614  26.383  1.00  0.00     0.150 C 
BRANCH   9  14
ATOM     14  C   UNL A   1      31.085  26.760  24.365  1.00  0.00     0.058 C 
ATOM     15  C   UNL A   1      29.731  26.072  24.248  1.00  0.00     0.011 C 
ENDBRANCH   9  14
BRANCH  10  16
ATOM     16  N   UNL A   1      33.048  26.277  21.793  1.00  0.00     0.064 N 
ATOM     17  O   UNL A   1      33.794  27.246  21.613  1.00  0.00    -0.258 OA
ATOM     18  O   UNL A   1      32.266  25.810  20.953  1.00  0.00    -0.258 OA
ENDBRANCH  10  16
ENDBRANCH   6   8
ENDBRANCH   5   6
ENDBRANCH   4   5
ENDBRANCH   3   4
ENDBRANCH   2   3
ENDBRANCH   1   2
BRANCH   1  19
ATOM     19  C   UNL A   1      38.490  23.382  26.098  1.00  0.00     0.261 C 
BRANCH  19  20
ATOM     20  O   UNL A   1      39.452  23.732  27.111  1.00  0.00    -0.460 OA
BRANCH  20  21
ATOM     21  C   UNL A   1      40.341  24.693  26.760  1.00  0.00     0.338 C 
ATOM     22  O   UNL A   1      40.884  24.834  25.678  1.00  0.00    -0.246 OA
BRANCH  21  23
ATOM     23  C   UNL A   1      40.423  25.694  27.843  1.00  0.00     0.060 A 
ATOM     24  C   UNL A   1      39.377  25.728  28.774  1.00  0.00     0.016 A 
ATOM     25  C   UNL A   1      41.492  26.588  27.944  1.00  0.00     0.016 A 
ATOM     26  C   UNL A   1      39.388  26.670  29.803  1.00  0.00     0.010 A 
ATOM     27  C   UNL A   1      41.493  27.541  28.969  1.00  0.00     0.010 A 
ATOM     28  C   UNL A   1      40.435  27.595  29.893  1.00  0.00    -0.014 A 
BRANCH  28  29
ATOM     29  C   UNL A   1      40.390  28.679  30.903  1.00  0.00     0.031 A 
ATOM     30  C   UNL A   1      41.288  28.603  32.105  1.00  0.00     0.074 A 
ATOM     31  C   UNL A   1      39.545  29.715  30.751  1.00  0.00     0.049 A 
ATOM     32  N   UNL A   1      41.341  29.392  33.147  1.00  0.00    -0.248 NA
ATOM     33  C   UNL A   1      42.251  27.492  32.137  1.00  0.00     0.031 C 
ATOM     34  C   UNL A   1      38.658  29.919  29.608  1.00  0.00     0.029 A 
ATOM     35  N   UNL A   1      39.284  30.780  31.575  1.00  0.00    -0.354 N 
ATOM     36  C   UNL A   1      42.340  28.872  33.961  1.00  0.00     0.074 A 
ATOM     37  C   UNL A   1      42.852  27.689  33.302  1.00  0.00     0.031 C 
ATOM     38  C   UNL A   1      37.931  31.031  29.813  1.00  0.00     0.029 A 
ATOM     39  C   UNL A   1      38.276  31.595  31.118  1.00  0.00     0.049 A 
ATOM     40  H   UNL A   1      39.772  30.946  32.414  1.00  0.00     0.167 HD
ATOM     41  C   UNL A   1      42.791  29.342  35.148  1.00  0.00     0.037 A 
ATOM     42  C   UNL A   1      37.677  32.652  31.700  1.00  0.00     0.037 A 
ATOM     43  C   UNL A   1      42.275  30.516  35.802  1.00  0.00     0.049 A 
ATOM     44  C   UNL A   1      38.128  33.101  33.064  1.00  0.00     0.074 A 
ATOM     45  C   UNL A   1      42.688  31.091  36.991  1.00  0.00     0.029 A 
ATOM     46  N   UNL A   1      41.223  31.287  35.329  1.00  0.00    -0.354 N 
ATOM     47  N   UNL A   1      39.090  32.617  33.813  1.00  0.00    -0.248 NA
ATOM     48  C   UNL A   1      37.407  34.231  33.668  1.00  0.00     0.031 C 
ATOM     49  C   UNL A   1      41.855  32.182  37.261  1.00  0.00     0.029 A 
ATOM     50  C   UNL A   1      40.949  32.312  36.220  1.00  0.00     0.049 A 
ATOM     51  H   UNL A   1      40.743  31.129  34.485  1.00  0.00     0.167 HD
ATOM     52  C   UNL A   1      39.098  33.389  34.970  1.00  0.00     0.074 A 
ATOM     53  C   UNL A   1      38.053  34.380  34.818  1.00  0.00     0.031 C 
ATOM     54  C   UNL A   1      39.900  33.287  36.058  1.00  0.00     0.037 A 
BRANCH  41  55
ATOM     55  C   UNL A   1      43.882  28.570  35.830  1.00  0.00     0.058 A 
ATOM     56  C   UNL A   1      43.597  27.516  36.712  1.00  0.00     0.135 A 
ATOM     57  C   UNL A   1      45.230  28.871  35.578  1.00  0.00     0.135 A 
ATOM     58  F   UNL A   1      42.325  27.201  37.000  1.00  0.00    -0.206 F 
ATOM     59  C   UNL A   1      44.612  26.801  37.339  1.00  0.00     0.059 A 
ATOM     60  C   UNL A   1      46.261  28.154  36.178  1.00  0.00     0.059 A 
ATOM     61  F   UNL A   1      45.555  29.872  34.746  1.00  0.00    -0.206 F 
ATOM     62  C   UNL A   1      45.941  27.130  37.068  1.00  0.00     0.060 A 
BRANCH  62  63
ATOM     63  S   UNL A   1      47.249  26.197  37.893  1.00  0.00     0.124 S 
ATOM     64  O   UNL A   1      48.440  26.912  37.447  1.00  0.00    -0.237 OA
ATOM     65  O   UNL A   1      46.906  26.356  39.303  1.00  0.00    -0.237 OA
ATOM     66  O   UNL A   1      47.090  24.847  37.361  1.00  0.00    -0.744 OA
ENDBRANCH  62  63
ENDBRANCH  41  55
BRANCH  42  67
ATOM     67  C   UNL A   1      36.554  33.337  31.009  1.00  0.00     0.058 A 
ATOM     68  C   UNL A   1      35.233  33.197  31.458  1.00  0.00     0.135 A 
ATOM     69  C   UNL A   1      36.784  34.156  29.892  1.00  0.00     0.135 A 
ATOM     70  F   UNL A   1      34.964  32.414  32.513  1.00  0.00    -0.206 F 
ATOM     71  C   UNL A   1      34.178  33.844  30.824  1.00  0.00     0.059 A 
ATOM     72  C   UNL A   1      35.748  34.829  29.254  1.00  0.00     0.059 A 
ATOM     73  F   UNL A   1      38.032  34.328  29.430  1.00  0.00    -0.206 F 
ATOM     74  C   UNL A   1      34.446  34.662  29.724  1.00  0.00     0.060 A 
BRANCH  74  75
ATOM     75  S   UNL A   1      33.080  35.553  28.947  1.00  0.00     0.124 S 
ATOM     76  O   UNL A   1      33.790  36.601  28.224  1.00  0.00    -0.237 OA
ATOM     77  O   UNL A   1      32.463  34.515  28.128  1.00  0.00    -0.237 OA
ATOM     78  O   UNL A   1      32.283  35.997  30.086  1.00  0.00    -0.744 OA
ENDBRANCH  74  75
ENDBRANCH  42  67
BRANCH  54  79
ATOM     79  C   UNL A   1      39.689  34.271  37.174  1.00  0.00     0.058 A 
ATOM     80  C   UNL A   1      38.870  33.965  38.271  1.00  0.00     0.135 A 
ATOM     81  C   UNL A   1      40.374  35.497  37.184  1.00  0.00     0.135 A 
ATOM     82  F   UNL A   1      38.187  32.810  38.303  1.00  0.00    -0.206 F 
ATOM     83  C   UNL A   1      38.732  34.844  39.340  1.00  0.00     0.059 A 
ATOM     84  C   UNL A   1      40.268  36.382  38.253  1.00  0.00     0.059 A 
ATOM     85  F   UNL A   1      41.175  35.832  36.161  1.00  0.00    -0.206 F 
ATOM     86  C   UNL A   1      39.441  36.048  39.325  1.00  0.00     0.060 A 
BRANCH  86  87
ATOM     87  S   UNL A   1      39.302  37.152  40.747  1.00  0.00     0.124 S 
ATOM     88  O   UNL A   1      38.369  38.157  40.250  1.00  0.00    -0.237 OA
ATOM     89  O   UNL A   1      38.783  36.265  41.784  1.00  0.00    -0.237 OA
ATOM     90  O   UNL A   1      40.672  37.613  40.953  1.00  0.00    -0.744 OA
ENDBRANCH  86  87
ENDBRANCH  54  79
ENDBRANCH  28  29
ENDBRANCH  21  23
ENDBRANCH  20  21
ENDBRANCH  19  20
ENDBRANCH   1  19
TORSDOF 19
ENDMDL
