MODEL 1
REMARK VINA RESULT:     -11.6      0.000      0.000
REMARK SMILES CCc1ccc2c(CC(=O)OCCOCCOC(=O)c3ccc(-c4c5nc(c(-c6c(F)cc(S(=O)(=O)[O-])cc6F)c6ccc([nH]6)c(-c6c(F)cc(S(=O)(=O)[O-])cc6F)c6nc(c(-c7c(F)cc(S(=O)(=O)[O-])cc7F)c7ccc4[nH]7)C=C6)C=C5)cc3)c(C(=O)c3cc(C)ccn3)[nH]c2c1
REMARK SMILES IDX 14 1 13 2 12 3 11 4 9 5 10 6 8 7 7 8 3 9 4 10 98 11 5 12
REMARK SMILES IDX 97 13 6 14 96 15 86 16 2 18 1 19 87 20 88 21 89 22 90 23
REMARK SMILES IDX 95 24 91 25 94 26 92 27 93 28 15 29 16 30 17 31 18 32 19 33
REMARK SMILES IDX 20 34 21 35 85 36 22 37 84 38 23 39 24 40 25 41 78 42 26 43
REMARK SMILES IDX 83 44 77 45 79 46 27 47 82 48 76 49 75 50 28 52 62 53 41 54
REMARK SMILES IDX 61 55 42 56 45 57 60 58 80 59 43 60 44 61 59 63 81 64 46 65
REMARK SMILES IDX 29 66 30 67 39 68 31 69 32 70 38 71 40 72 33 73 34 74 35 75
REMARK SMILES IDX 36 76 37 77 63 78 64 79 73 80 65 81 66 82 72 83 74 84 67 85
REMARK SMILES IDX 68 86 69 87 70 88 71 89 47 90 48 91 57 92 49 93 50 94 56 95
REMARK SMILES IDX 58 96 51 97 52 98 53 99 54 100 55 101
REMARK H PARENT 96 17 79 51 45 62
REMARK Flexibility Score: inf
ROOT
ATOM      1  O   UNL A   1      37.979  23.282  25.786  1.00  0.00    -0.374 OA
ENDROOT
BRANCH   1   2
ATOM      2  C   UNL A   1      37.235  22.613  24.768  1.00  0.00     0.202 C 
BRANCH   2   3
ATOM      3  C   UNL A   1      36.295  23.471  23.905  1.00  0.00     0.261 C 
BRANCH   3   4
ATOM      4  O   UNL A   1      35.321  22.702  23.167  1.00  0.00    -0.463 OA
BRANCH   4   5
ATOM      5  C   UNL A   1      34.138  23.338  22.940  1.00  0.00     0.310 C 
ATOM      6  O   UNL A   1      34.049  24.497  22.538  1.00  0.00    -0.252 OA
BRANCH   5   7
ATOM      7  C   UNL A   1      32.900  22.479  23.092  1.00  0.00     0.161 C 
BRANCH   7   8
ATOM      8  C   UNL A   1      32.822  21.525  24.254  1.00  0.00     0.000 A 
ATOM      9  C   UNL A   1      32.890  17.309  24.511  1.00  0.00    -0.046 A 
ATOM     10  C   UNL A   1      32.726  17.838  23.226  1.00  0.00     0.004 A 
ATOM     11  C   UNL A   1      32.885  18.166  25.623  1.00  0.00     0.030 A 
ATOM     12  C   UNL A   1      32.631  19.221  23.018  1.00  0.00     0.011 A 
ATOM     13  C   UNL A   1      32.817  19.547  25.391  1.00  0.00     0.046 A 
ATOM     14  C   UNL A   1      32.721  20.097  24.119  1.00  0.00     0.004 A 
ATOM     15  N   UNL A   1      32.844  20.598  26.276  1.00  0.00    -0.352 N 
ATOM     16  C   UNL A   1      33.036  21.796  25.614  1.00  0.00     0.093 A 
ATOM     17  H   UNL A   1      32.741  20.510  27.251  1.00  0.00     0.167 HD
BRANCH   9  18
ATOM     18  C   UNL A   1      33.087  15.824  24.699  1.00  0.00     0.032 C 
ATOM     19  C   UNL A   1      32.244  15.257  25.828  1.00  0.00     0.009 C 
ENDBRANCH   9  18
BRANCH  16  20
ATOM     20  C   UNL A   1      33.402  23.058  26.262  1.00  0.00     0.227 C 
ATOM     21  O   UNL A   1      34.449  23.216  26.887  1.00  0.00    -0.285 OA
BRANCH  20  22
ATOM     22  C   UNL A   1      32.492  24.239  26.147  1.00  0.00     0.113 A 
ATOM     23  C   UNL A   1      32.981  25.537  26.093  1.00  0.00     0.036 A 
ATOM     24  N   UNL A   1      31.169  23.942  26.115  1.00  0.00    -0.253 NA
ATOM     25  C   UNL A   1      32.056  26.587  26.039  1.00  0.00    -0.047 A 
ATOM     26  C   UNL A   1      30.296  24.965  26.086  1.00  0.00     0.112 A 
ATOM     27  C   UNL A   1      32.490  28.019  25.954  1.00  0.00     0.044 C 
ATOM     28  C   UNL A   1      30.688  26.288  26.050  1.00  0.00     0.023 A 
ENDBRANCH  20  22
ENDBRANCH  16  20
ENDBRANCH   7   8
ENDBRANCH   5   7
ENDBRANCH   4   5
ENDBRANCH   3   4
ENDBRANCH   2   3
ENDBRANCH   1   2
BRANCH   1  29
ATOM     29  C   UNL A   1      38.996  22.532  26.445  1.00  0.00     0.202 C 
BRANCH  29  30
ATOM     30  C   UNL A   1      39.216  21.094  25.975  1.00  0.00     0.261 C 
BRANCH  30  31
ATOM     31  O   UNL A   1      40.001  20.280  26.847  1.00  0.00    -0.460 OA
BRANCH  31  32
ATOM     32  C   UNL A   1      41.211  19.958  26.355  1.00  0.00     0.338 C 
ATOM     33  O   UNL A   1      41.526  18.964  25.705  1.00  0.00    -0.246 OA
BRANCH  32  34
ATOM     34  C   UNL A   1      42.145  21.048  26.624  1.00  0.00     0.060 A 
ATOM     35  C   UNL A   1      42.360  21.405  27.957  1.00  0.00     0.016 A 
ATOM     36  C   UNL A   1      42.682  21.796  25.572  1.00  0.00     0.016 A 
ATOM     37  C   UNL A   1      43.056  22.573  28.243  1.00  0.00     0.010 A 
ATOM     38  C   UNL A   1      43.384  22.966  25.864  1.00  0.00     0.010 A 
ATOM     39  C   UNL A   1      43.520  23.385  27.198  1.00  0.00    -0.014 A 
BRANCH  39  40
ATOM     40  C   UNL A   1      43.985  24.751  27.525  1.00  0.00     0.031 A 
ATOM     41  C   UNL A   1      45.429  25.101  27.290  1.00  0.00     0.074 A 
ATOM     42  C   UNL A   1      43.105  25.680  27.934  1.00  0.00     0.049 A 
ATOM     43  N   UNL A   1      46.026  26.260  27.383  1.00  0.00    -0.248 NA
ATOM     44  C   UNL A   1      46.320  23.995  26.897  1.00  0.00     0.031 C 
ATOM     45  C   UNL A   1      41.684  25.441  28.184  1.00  0.00     0.029 A 
ATOM     46  N   UNL A   1      43.275  27.015  28.192  1.00  0.00    -0.354 N 
ATOM     47  C   UNL A   1      47.356  26.027  27.052  1.00  0.00     0.074 A 
ATOM     48  C   UNL A   1      47.491  24.610  26.799  1.00  0.00     0.031 C 
ATOM     49  C   UNL A   1      41.105  26.598  28.547  1.00  0.00     0.029 A 
ATOM     50  C   UNL A   1      42.116  27.653  28.561  1.00  0.00     0.049 A 
ATOM     51  H   UNL A   1      44.143  27.472  28.120  1.00  0.00     0.167 HD
ATOM     52  C   UNL A   1      48.370  26.920  26.955  1.00  0.00     0.037 A 
ATOM     53  C   UNL A   1      41.900  28.947  28.865  1.00  0.00     0.037 A 
ATOM     54  C   UNL A   1      48.221  28.328  27.208  1.00  0.00     0.049 A 
ATOM     55  C   UNL A   1      43.041  29.920  28.753  1.00  0.00     0.074 A 
ATOM     56  C   UNL A   1      49.174  29.327  27.130  1.00  0.00     0.029 A 
ATOM     57  N   UNL A   1      47.034  28.937  27.593  1.00  0.00    -0.354 N 
ATOM     58  N   UNL A   1      44.287  29.694  28.405  1.00  0.00    -0.248 NA
ATOM     59  C   UNL A   1      42.747  31.327  29.055  1.00  0.00     0.031 C 
ATOM     60  C   UNL A   1      48.573  30.535  27.501  1.00  0.00     0.029 A 
ATOM     61  C   UNL A   1      47.233  30.295  27.770  1.00  0.00     0.049 A 
ATOM     62  H   UNL A   1      46.177  28.471  27.721  1.00  0.00     0.167 HD
ATOM     63  C   UNL A   1      44.920  30.932  28.425  1.00  0.00     0.074 A 
ATOM     64  C   UNL A   1      43.914  31.905  28.806  1.00  0.00     0.031 C 
ATOM     65  C   UNL A   1      46.213  31.240  28.152  1.00  0.00     0.037 A 
BRANCH  52  66
ATOM     66  C   UNL A   1      49.725  26.389  26.576  1.00  0.00     0.058 A 
ATOM     67  C   UNL A   1      50.626  25.904  27.538  1.00  0.00     0.135 A 
ATOM     68  C   UNL A   1      50.130  26.361  25.231  1.00  0.00     0.135 A 
ATOM     69  F   UNL A   1      50.298  25.925  28.840  1.00  0.00    -0.206 F 
ATOM     70  C   UNL A   1      51.890  25.443  27.187  1.00  0.00     0.059 A 
ATOM     71  C   UNL A   1      51.381  25.883  24.854  1.00  0.00     0.059 A 
ATOM     72  F   UNL A   1      49.311  26.815  24.269  1.00  0.00    -0.206 F 
ATOM     73  C   UNL A   1      52.262  25.442  25.840  1.00  0.00     0.060 A 
BRANCH  73  74
ATOM     74  S   UNL A   1      53.912  24.858  25.396  1.00  0.00     0.124 S 
ATOM     75  O   UNL A   1      53.647  23.460  25.068  1.00  0.00    -0.237 OA
ATOM     76  O   UNL A   1      54.258  25.718  24.268  1.00  0.00    -0.237 OA
ATOM     77  O   UNL A   1      54.689  25.080  26.611  1.00  0.00    -0.744 OA
ENDBRANCH  73  74
ENDBRANCH  52  66
BRANCH  53  78
ATOM     78  C   UNL A   1      40.541  29.389  29.274  1.00  0.00     0.058 A 
ATOM     79  C   UNL A   1      40.234  29.659  30.615  1.00  0.00     0.135 A 
ATOM     80  C   UNL A   1      39.529  29.581  28.319  1.00  0.00     0.135 A 
ATOM     81  F   UNL A   1      41.167  29.486  31.564  1.00  0.00    -0.206 F 
ATOM     82  C   UNL A   1      38.971  30.097  30.999  1.00  0.00     0.059 A 
ATOM     83  C   UNL A   1      38.265  30.038  28.676  1.00  0.00     0.059 A 
ATOM     84  F   UNL A   1      39.778  29.349  27.021  1.00  0.00    -0.206 F 
ATOM     85  C   UNL A   1      37.993  30.287  30.020  1.00  0.00     0.060 A 
BRANCH  85  86
ATOM     86  S   UNL A   1      36.375  30.917  30.518  1.00  0.00     0.124 S 
ATOM     87  O   UNL A   1      36.008  29.983  31.576  1.00  0.00    -0.237 OA
ATOM     88  O   UNL A   1      36.691  32.276  30.947  1.00  0.00    -0.237 OA
ATOM     89  O   UNL A   1      35.588  30.823  29.291  1.00  0.00    -0.744 OA
ENDBRANCH  85  86
ENDBRANCH  53  78
BRANCH  65  90
ATOM     90  C   UNL A   1      46.601  32.689  28.236  1.00  0.00     0.058 A 
ATOM     91  C   UNL A   1      46.428  33.560  27.151  1.00  0.00     0.135 A 
ATOM     92  C   UNL A   1      47.121  33.216  29.429  1.00  0.00     0.135 A 
ATOM     93  F   UNL A   1      45.936  33.102  25.988  1.00  0.00    -0.206 F 
ATOM     94  C   UNL A   1      46.791  34.900  27.232  1.00  0.00     0.059 A 
ATOM     95  C   UNL A   1      47.467  34.558  29.541  1.00  0.00     0.059 A 
ATOM     96  F   UNL A   1      47.292  32.426  30.501  1.00  0.00    -0.206 F 
ATOM     97  C   UNL A   1      47.314  35.389  28.431  1.00  0.00     0.060 A 
BRANCH  97  98
ATOM     98  S   UNL A   1      47.773  37.131  28.532  1.00  0.00     0.124 S 
ATOM     99  O   UNL A   1      48.010  37.289  29.964  1.00  0.00    -0.237 OA
ATOM    100  O   UNL A   1      48.960  37.195  27.683  1.00  0.00    -0.237 OA
ATOM    101  O   UNL A   1      46.600  37.822  28.009  1.00  0.00    -0.744 OA
ENDBRANCH  97  98
ENDBRANCH  65  90
ENDBRANCH  39  40
ENDBRANCH  32  34
ENDBRANCH  31  32
ENDBRANCH  30  31
ENDBRANCH  29  30
ENDBRANCH   1  29
TORSDOF 21
ENDMDL
MODEL 2
REMARK VINA RESULT:     -11.5      6.256     12.086
REMARK SMILES CCc1ccc2c(CC(=O)OCCOCCOC(=O)c3ccc(-c4c5nc(c(-c6c(F)cc(S(=O)(=O)[O-])cc6F)c6ccc([nH]6)c(-c6c(F)cc(S(=O)(=O)[O-])cc6F)c6nc(c(-c7c(F)cc(S(=O)(=O)[O-])cc7F)c7ccc4[nH]7)C=C6)C=C5)cc3)c(C(=O)c3cc(C)ccn3)[nH]c2c1
REMARK SMILES IDX 14 1 13 2 12 3 11 4 9 5 10 6 8 7 7 8 3 9 4 10 98 11 5 12
REMARK SMILES IDX 97 13 6 14 96 15 86 16 2 18 1 19 87 20 88 21 89 22 90 23
REMARK SMILES IDX 95 24 91 25 94 26 92 27 93 28 15 29 16 30 17 31 18 32 19 33
REMARK SMILES IDX 20 34 21 35 85 36 22 37 84 38 23 39 24 40 25 41 78 42 26 43
REMARK SMILES IDX 83 44 77 45 79 46 27 47 82 48 76 49 75 50 28 52 62 53 41 54
REMARK SMILES IDX 61 55 42 56 45 57 60 58 80 59 43 60 44 61 59 63 81 64 46 65
REMARK SMILES IDX 29 66 30 67 39 68 31 69 32 70 38 71 40 72 33 73 34 74 35 75
REMARK SMILES IDX 36 76 37 77 63 78 64 79 73 80 65 81 66 82 72 83 74 84 67 85
REMARK SMILES IDX 68 86 69 87 70 88 71 89 47 90 48 91 57 92 49 93 50 94 56 95
REMARK SMILES IDX 58 96 51 97 52 98 53 99 54 100 55 101
REMARK H PARENT 96 17 79 51 45 62
REMARK Flexibility Score: inf
ROOT
ATOM      1  O   UNL A   1      34.106  30.851  28.271  1.00  0.00    -0.374 OA
ENDROOT
BRANCH   1   2
ATOM      2  C   UNL A   1      34.993  29.790  27.916  1.00  0.00     0.202 C 
BRANCH   2   3
ATOM      3  C   UNL A   1      34.674  29.006  26.634  1.00  0.00     0.261 C 
BRANCH   3   4
ATOM      4  O   UNL A   1      33.718  27.941  26.825  1.00  0.00    -0.463 OA
BRANCH   4   5
ATOM      5  C   UNL A   1      33.718  26.986  25.854  1.00  0.00     0.310 C 
ATOM      6  O   UNL A   1      33.638  25.779  26.080  1.00  0.00    -0.252 OA
BRANCH   5   7
ATOM      7  C   UNL A   1      33.695  27.506  24.432  1.00  0.00     0.161 C 
BRANCH   7   8
ATOM      8  C   UNL A   1      32.384  27.524  23.692  1.00  0.00     0.000 A 
ATOM      9  C   UNL A   1      29.270  30.367  23.444  1.00  0.00    -0.046 A 
ATOM     10  C   UNL A   1      30.223  30.594  24.443  1.00  0.00     0.004 A 
ATOM     11  C   UNL A   1      29.315  29.181  22.694  1.00  0.00     0.030 A 
ATOM     12  C   UNL A   1      31.273  29.691  24.661  1.00  0.00     0.011 A 
ATOM     13  C   UNL A   1      30.389  28.305  22.910  1.00  0.00     0.046 A 
ATOM     14  C   UNL A   1      31.383  28.544  23.850  1.00  0.00     0.004 A 
ATOM     15  N   UNL A   1      30.703  27.118  22.293  1.00  0.00    -0.352 N 
ATOM     16  C   UNL A   1      31.988  26.722  22.610  1.00  0.00     0.093 A 
ATOM     17  H   UNL A   1      30.094  26.617  21.704  1.00  0.00     0.167 HD
BRANCH   9  18
ATOM     18  C   UNL A   1      28.207  31.401  23.163  1.00  0.00     0.032 C 
ATOM     19  C   UNL A   1      28.785  32.737  22.729  1.00  0.00     0.009 C 
ENDBRANCH   9  18
BRANCH  16  20
ATOM     20  C   UNL A   1      32.737  25.676  21.908  1.00  0.00     0.227 C 
ATOM     21  O   UNL A   1      33.115  25.785  20.743  1.00  0.00    -0.285 OA
BRANCH  20  22
ATOM     22  C   UNL A   1      33.101  24.417  22.628  1.00  0.00     0.113 A 
ATOM     23  C   UNL A   1      34.410  24.138  22.997  1.00  0.00     0.036 A 
ATOM     24  N   UNL A   1      32.064  23.578  22.874  1.00  0.00    -0.253 NA
ATOM     25  C   UNL A   1      34.669  22.912  23.622  1.00  0.00    -0.047 A 
ATOM     26  C   UNL A   1      32.338  22.396  23.453  1.00  0.00     0.112 A 
ATOM     27  C   UNL A   1      36.046  22.534  24.078  1.00  0.00     0.044 C 
ATOM     28  C   UNL A   1      33.610  22.022  23.838  1.00  0.00     0.023 A 
ENDBRANCH  20  22
ENDBRANCH  16  20
ENDBRANCH   7   8
ENDBRANCH   5   7
ENDBRANCH   4   5
ENDBRANCH   3   4
ENDBRANCH   2   3
ENDBRANCH   1   2
BRANCH   1  29
ATOM     29  C   UNL A   1      33.214  31.316  27.261  1.00  0.00     0.202 C 
BRANCH  29  30
ATOM     30  C   UNL A   1      32.576  32.689  27.473  1.00  0.00     0.261 C 
BRANCH  30  31
ATOM     31  O   UNL A   1      33.491  33.782  27.546  1.00  0.00    -0.460 OA
BRANCH  31  32
ATOM     32  C   UNL A   1      33.354  34.540  28.649  1.00  0.00     0.338 C 
ATOM     33  O   UNL A   1      32.395  35.232  28.981  1.00  0.00    -0.246 OA
BRANCH  32  34
ATOM     34  C   UNL A   1      34.522  34.355  29.507  1.00  0.00     0.060 A 
ATOM     35  C   UNL A   1      35.783  34.415  28.909  1.00  0.00     0.016 A 
ATOM     36  C   UNL A   1      34.366  33.984  30.845  1.00  0.00     0.016 A 
ATOM     37  C   UNL A   1      36.899  34.021  29.637  1.00  0.00     0.010 A 
ATOM     38  C   UNL A   1      35.489  33.593  31.575  1.00  0.00     0.010 A 
ATOM     39  C   UNL A   1      36.748  33.556  30.953  1.00  0.00    -0.014 A 
BRANCH  39  40
ATOM     40  C   UNL A   1      37.894  32.871  31.589  1.00  0.00     0.031 A 
ATOM     41  C   UNL A   1      38.371  33.351  32.932  1.00  0.00     0.074 A 
ATOM     42  C   UNL A   1      38.430  31.782  31.012  1.00  0.00     0.049 A 
ATOM     43  N   UNL A   1      39.265  32.829  33.729  1.00  0.00    -0.248 NA
ATOM     44  C   UNL A   1      37.755  34.587  33.448  1.00  0.00     0.031 C 
ATOM     45  C   UNL A   1      38.033  31.234  29.716  1.00  0.00     0.029 A 
ATOM     46  N   UNL A   1      39.410  30.932  31.454  1.00  0.00    -0.354 N 
ATOM     47  C   UNL A   1      39.315  33.663  34.840  1.00  0.00     0.074 A 
ATOM     48  C   UNL A   1      38.393  34.750  34.598  1.00  0.00     0.031 C 
ATOM     49  C   UNL A   1      38.755  30.127  29.472  1.00  0.00     0.029 A 
ATOM     50  C   UNL A   1      39.667  29.896  30.590  1.00  0.00     0.049 A 
ATOM     51  H   UNL A   1      39.884  31.053  32.308  1.00  0.00     0.167 HD
ATOM     52  C   UNL A   1      40.053  33.525  35.968  1.00  0.00     0.037 A 
ATOM     53  C   UNL A   1      40.535  28.872  30.700  1.00  0.00     0.037 A 
ATOM     54  C   UNL A   1      40.966  32.436  36.195  1.00  0.00     0.049 A 
ATOM     55  C   UNL A   1      41.347  28.740  31.959  1.00  0.00     0.074 A 
ATOM     56  C   UNL A   1      41.757  32.188  37.302  1.00  0.00     0.029 A 
ATOM     57  N   UNL A   1      41.210  31.411  35.291  1.00  0.00    -0.354 N 
ATOM     58  N   UNL A   1      41.358  29.516  33.018  1.00  0.00    -0.248 NA
ATOM     59  C   UNL A   1      42.250  27.585  32.049  1.00  0.00     0.031 C 
ATOM     60  C   UNL A   1      42.506  31.032  37.053  1.00  0.00     0.029 A 
ATOM     61  C   UNL A   1      42.149  30.537  35.807  1.00  0.00     0.049 A 
ATOM     62  H   UNL A   1      40.778  31.321  34.411  1.00  0.00     0.167 HD
ATOM     63  C   UNL A   1      42.252  28.932  33.909  1.00  0.00     0.074 A 
ATOM     64  C   UNL A   1      42.749  27.730  33.268  1.00  0.00     0.031 C 
ATOM     65  C   UNL A   1      42.627  29.348  35.145  1.00  0.00     0.037 A 
BRANCH  52  66
ATOM     66  C   UNL A   1      39.911  34.587  37.022  1.00  0.00     0.058 A 
ATOM     67  C   UNL A   1      39.008  34.454  38.090  1.00  0.00     0.135 A 
ATOM     68  C   UNL A   1      40.689  35.756  36.966  1.00  0.00     0.135 A 
ATOM     69  F   UNL A   1      38.226  33.367  38.181  1.00  0.00    -0.206 F 
ATOM     70  C   UNL A   1      38.857  35.454  39.046  1.00  0.00     0.059 A 
ATOM     71  C   UNL A   1      40.571  36.758  37.925  1.00  0.00     0.059 A 
ATOM     72  F   UNL A   1      41.565  35.937  35.966  1.00  0.00    -0.206 F 
ATOM     73  C   UNL A   1      39.640  36.607  38.951  1.00  0.00     0.060 A 
BRANCH  73  74
ATOM     74  S   UNL A   1      39.424  37.906  40.186  1.00  0.00     0.124 S 
ATOM     75  O   UNL A   1      38.230  38.585  39.690  1.00  0.00    -0.237 OA
ATOM     76  O   UNL A   1      39.250  37.143  41.420  1.00  0.00    -0.237 OA
ATOM     77  O   UNL A   1      40.664  38.670  40.096  1.00  0.00    -0.744 OA
ENDBRANCH  73  74
ENDBRANCH  52  66
BRANCH  53  78
ATOM     78  C   UNL A   1      40.651  27.885  29.594  1.00  0.00     0.058 A 
ATOM     79  C   UNL A   1      41.699  27.950  28.665  1.00  0.00     0.135 A 
ATOM     80  C   UNL A   1      39.728  26.835  29.469  1.00  0.00     0.135 A 
ATOM     81  F   UNL A   1      42.603  28.938  28.742  1.00  0.00    -0.206 F 
ATOM     82  C   UNL A   1      41.825  27.014  27.644  1.00  0.00     0.059 A 
ATOM     83  C   UNL A   1      39.846  25.874  28.469  1.00  0.00     0.059 A 
ATOM     84  F   UNL A   1      38.716  26.722  30.342  1.00  0.00    -0.206 F 
ATOM     85  C   UNL A   1      40.894  25.976  27.557  1.00  0.00     0.060 A 
BRANCH  85  86
ATOM     86  S   UNL A   1      41.101  24.728  26.268  1.00  0.00     0.124 S 
ATOM     87  O   UNL A   1      41.864  25.462  25.267  1.00  0.00    -0.237 OA
ATOM     88  O   UNL A   1      41.823  23.672  26.973  1.00  0.00    -0.237 OA
ATOM     89  O   UNL A   1      39.727  24.397  25.900  1.00  0.00    -0.744 OA
ENDBRANCH  85  86
ENDBRANCH  53  78
BRANCH  65  90
ATOM     90  C   UNL A   1      43.605  28.482  35.887  1.00  0.00     0.058 A 
ATOM     91  C   UNL A   1      43.180  27.412  36.687  1.00  0.00     0.135 A 
ATOM     92  C   UNL A   1      44.986  28.709  35.770  1.00  0.00     0.135 A 
ATOM     93  F   UNL A   1      41.870  27.156  36.833  1.00  0.00    -0.206 F 
ATOM     94  C   UNL A   1      44.089  26.615  37.375  1.00  0.00     0.059 A 
ATOM     95  C   UNL A   1      45.913  27.909  36.428  1.00  0.00     0.059 A 
ATOM     96  F   UNL A   1      45.444  29.712  35.004  1.00  0.00    -0.206 F 
ATOM     97  C   UNL A   1      45.454  26.874  37.242  1.00  0.00     0.060 A 
BRANCH  97  98
ATOM     98  S   UNL A   1      46.628  25.829  38.129  1.00  0.00     0.124 S 
ATOM     99  O   UNL A   1      47.881  26.163  37.460  1.00  0.00    -0.237 OA
ATOM    100  O   UNL A   1      46.498  26.304  39.503  1.00  0.00    -0.237 OA
ATOM    101  O   UNL A   1      46.127  24.480  37.891  1.00  0.00    -0.744 OA
ENDBRANCH  97  98
ENDBRANCH  65  90
ENDBRANCH  39  40
ENDBRANCH  32  34
ENDBRANCH  31  32
ENDBRANCH  30  31
ENDBRANCH  29  30
ENDBRANCH   1  29
TORSDOF 21
ENDMDL
MODEL 3
REMARK VINA RESULT:     -11.5      5.776      8.697
REMARK SMILES CCc1ccc2c(CC(=O)OCCOCCOC(=O)c3ccc(-c4c5nc(c(-c6c(F)cc(S(=O)(=O)[O-])cc6F)c6ccc([nH]6)c(-c6c(F)cc(S(=O)(=O)[O-])cc6F)c6nc(c(-c7c(F)cc(S(=O)(=O)[O-])cc7F)c7ccc4[nH]7)C=C6)C=C5)cc3)c(C(=O)c3cc(C)ccn3)[nH]c2c1
REMARK SMILES IDX 14 1 13 2 12 3 11 4 9 5 10 6 8 7 7 8 3 9 4 10 98 11 5 12
REMARK SMILES IDX 97 13 6 14 96 15 86 16 2 18 1 19 87 20 88 21 89 22 90 23
REMARK SMILES IDX 95 24 91 25 94 26 92 27 93 28 15 29 16 30 17 31 18 32 19 33
REMARK SMILES IDX 20 34 21 35 85 36 22 37 84 38 23 39 24 40 25 41 78 42 26 43
REMARK SMILES IDX 83 44 77 45 79 46 27 47 82 48 76 49 75 50 28 52 62 53 41 54
REMARK SMILES IDX 61 55 42 56 45 57 60 58 80 59 43 60 44 61 59 63 81 64 46 65
REMARK SMILES IDX 29 66 30 67 39 68 31 69 32 70 38 71 40 72 33 73 34 74 35 75
REMARK SMILES IDX 36 76 37 77 63 78 64 79 73 80 65 81 66 82 72 83 74 84 67 85
REMARK SMILES IDX 68 86 69 87 70 88 71 89 47 90 48 91 57 92 49 93 50 94 56 95
REMARK SMILES IDX 58 96 51 97 52 98 53 99 54 100 55 101
REMARK H PARENT 96 17 79 51 45 62
REMARK Flexibility Score: inf
ROOT
ATOM      1  O   UNL A   1      39.028  22.544  26.193  1.00  0.00    -0.374 OA
ENDROOT
BRANCH   1   2
ATOM      2  C   UNL A   1      38.262  21.671  25.362  1.00  0.00     0.202 C 
BRANCH   2   3
ATOM      3  C   UNL A   1      36.759  21.557  25.658  1.00  0.00     0.261 C 
BRANCH   3   4
ATOM      4  O   UNL A   1      35.918  21.847  24.520  1.00  0.00    -0.463 OA
BRANCH   4   5
ATOM      5  C   UNL A   1      35.816  23.167  24.202  1.00  0.00     0.310 C 
ATOM      6  O   UNL A   1      35.859  23.601  23.051  1.00  0.00    -0.252 OA
BRANCH   5   7
ATOM      7  C   UNL A   1      35.511  24.093  25.361  1.00  0.00     0.161 C 
BRANCH   7   8
ATOM      8  C   UNL A   1      34.075  24.438  25.650  1.00  0.00     0.000 A 
ATOM      9  C   UNL A   1      31.587  27.621  24.416  1.00  0.00    -0.046 A 
ATOM     10  C   UNL A   1      32.951  27.775  24.145  1.00  0.00     0.004 A 
ATOM     11  C   UNL A   1      31.146  26.525  25.176  1.00  0.00     0.030 A 
ATOM     12  C   UNL A   1      33.884  26.813  24.557  1.00  0.00     0.011 A 
ATOM     13  C   UNL A   1      32.092  25.562  25.554  1.00  0.00     0.046 A 
ATOM     14  C   UNL A   1      33.441  25.661  25.238  1.00  0.00     0.004 A 
ATOM     15  N   UNL A   1      31.933  24.385  26.246  1.00  0.00    -0.352 N 
ATOM     16  C   UNL A   1      33.067  23.603  26.158  1.00  0.00     0.093 A 
ATOM     17  H   UNL A   1      31.118  24.134  26.739  1.00  0.00     0.167 HD
BRANCH   9  18
ATOM     18  C   UNL A   1      30.591  28.619  23.878  1.00  0.00     0.032 C 
ATOM     19  C   UNL A   1      29.383  27.959  23.236  1.00  0.00     0.009 C 
ENDBRANCH   9  18
BRANCH  16  20
ATOM     20  C   UNL A   1      33.135  22.186  26.524  1.00  0.00     0.227 C 
ATOM     21  O   UNL A   1      33.336  21.795  27.673  1.00  0.00    -0.285 OA
BRANCH  20  22
ATOM     22  C   UNL A   1      32.922  21.140  25.477  1.00  0.00     0.113 A 
ATOM     23  C   UNL A   1      32.485  21.464  24.199  1.00  0.00     0.036 A 
ATOM     24  N   UNL A   1      33.173  19.869  25.876  1.00  0.00    -0.253 NA
ATOM     25  C   UNL A   1      32.262  20.417  23.296  1.00  0.00    -0.047 A 
ATOM     26  C   UNL A   1      32.930  18.877  25.002  1.00  0.00     0.112 A 
ATOM     27  C   UNL A   1      31.814  20.670  21.889  1.00  0.00     0.044 C 
ATOM     28  C   UNL A   1      32.477  19.099  23.717  1.00  0.00     0.023 A 
ENDBRANCH  20  22
ENDBRANCH  16  20
ENDBRANCH   7   8
ENDBRANCH   5   7
ENDBRANCH   4   5
ENDBRANCH   3   4
ENDBRANCH   2   3
ENDBRANCH   1   2
BRANCH   1  29
ATOM     29  C   UNL A   1      40.112  21.966  26.915  1.00  0.00     0.202 C 
BRANCH  29  30
ATOM     30  C   UNL A   1      41.469  22.663  26.808  1.00  0.00     0.261 C 
BRANCH  30  31
ATOM     31  O   UNL A   1      41.420  24.045  26.453  1.00  0.00    -0.460 OA
BRANCH  31  32
ATOM     32  C   UNL A   1      42.400  24.787  27.000  1.00  0.00     0.338 C 
ATOM     33  O   UNL A   1      43.614  24.663  26.859  1.00  0.00    -0.246 OA
BRANCH  32  34
ATOM     34  C   UNL A   1      41.806  25.885  27.758  1.00  0.00     0.060 A 
ATOM     35  C   UNL A   1      42.598  27.009  28.004  1.00  0.00     0.016 A 
ATOM     36  C   UNL A   1      40.542  25.743  28.338  1.00  0.00     0.016 A 
ATOM     37  C   UNL A   1      42.156  27.967  28.906  1.00  0.00     0.010 A 
ATOM     38  C   UNL A   1      40.099  26.710  29.241  1.00  0.00     0.010 A 
ATOM     39  C   UNL A   1      40.932  27.793  29.569  1.00  0.00    -0.014 A 
BRANCH  39  40
ATOM     40  C   UNL A   1      40.632  28.662  30.728  1.00  0.00     0.031 A 
ATOM     41  C   UNL A   1      41.486  28.545  31.961  1.00  0.00     0.074 A 
ATOM     42  C   UNL A   1      39.675  29.600  30.635  1.00  0.00     0.049 A 
ATOM     43  N   UNL A   1      41.490  29.284  33.038  1.00  0.00    -0.248 NA
ATOM     44  C   UNL A   1      42.468  27.447  31.982  1.00  0.00     0.031 C 
ATOM     45  C   UNL A   1      38.799  29.797  29.480  1.00  0.00     0.029 A 
ATOM     46  N   UNL A   1      39.293  30.574  31.520  1.00  0.00    -0.354 N 
ATOM     47  C   UNL A   1      42.476  28.750  33.860  1.00  0.00     0.074 A 
ATOM     48  C   UNL A   1      43.020  27.597  33.177  1.00  0.00     0.031 C 
ATOM     49  C   UNL A   1      37.989  30.842  29.722  1.00  0.00     0.029 A 
ATOM     50  C   UNL A   1      38.285  31.378  31.048  1.00  0.00     0.049 A 
ATOM     51  H   UNL A   1      39.703  30.686  32.408  1.00  0.00     0.167 HD
ATOM     52  C   UNL A   1      42.899  29.191  35.069  1.00  0.00     0.037 A 
ATOM     53  C   UNL A   1      37.680  32.435  31.624  1.00  0.00     0.037 A 
ATOM     54  C   UNL A   1      42.348  30.341  35.736  1.00  0.00     0.049 A 
ATOM     55  C   UNL A   1      38.163  32.905  32.968  1.00  0.00     0.074 A 
ATOM     56  C   UNL A   1      42.704  30.886  36.956  1.00  0.00     0.029 A 
ATOM     57  N   UNL A   1      41.318  31.124  35.233  1.00  0.00    -0.354 N 
ATOM     58  N   UNL A   1      39.121  32.412  33.719  1.00  0.00    -0.248 NA
ATOM     59  C   UNL A   1      37.499  34.086  33.537  1.00  0.00     0.031 C 
ATOM     60  C   UNL A   1      41.865  31.978  37.208  1.00  0.00     0.029 A 
ATOM     61  C   UNL A   1      41.015  32.138  36.124  1.00  0.00     0.049 A 
ATOM     62  H   UNL A   1      40.868  30.978  34.370  1.00  0.00     0.167 HD
ATOM     63  C   UNL A   1      39.189  33.234  34.839  1.00  0.00     0.074 A 
ATOM     64  C   UNL A   1      38.185  34.265  34.657  1.00  0.00     0.031 C 
ATOM     65  C   UNL A   1      40.008  33.149  35.918  1.00  0.00     0.037 A 
BRANCH  52  66
ATOM     66  C   UNL A   1      43.993  28.412  35.745  1.00  0.00     0.058 A 
ATOM     67  C   UNL A   1      43.713  27.369  36.643  1.00  0.00     0.135 A 
ATOM     68  C   UNL A   1      45.342  28.712  35.492  1.00  0.00     0.135 A 
ATOM     69  F   UNL A   1      42.442  27.053  36.936  1.00  0.00    -0.206 F 
ATOM     70  C   UNL A   1      44.729  26.672  37.290  1.00  0.00     0.059 A 
ATOM     71  C   UNL A   1      46.375  28.013  36.111  1.00  0.00     0.059 A 
ATOM     72  F   UNL A   1      45.667  29.702  34.647  1.00  0.00    -0.206 F 
ATOM     73  C   UNL A   1      46.058  27.006  37.022  1.00  0.00     0.060 A 
BRANCH  73  74
ATOM     74  S   UNL A   1      47.368  26.108  37.881  1.00  0.00     0.124 S 
ATOM     75  O   UNL A   1      46.605  25.086  38.590  1.00  0.00    -0.237 OA
ATOM     76  O   UNL A   1      48.197  25.628  36.779  1.00  0.00    -0.237 OA
ATOM     77  O   UNL A   1      47.983  27.129  38.724  1.00  0.00    -0.744 OA
ENDBRANCH  73  74
ENDBRANCH  52  66
BRANCH  53  78
ATOM     78  C   UNL A   1      36.575  33.126  30.911  1.00  0.00     0.058 A 
ATOM     79  C   UNL A   1      35.250  33.042  31.363  1.00  0.00     0.135 A 
ATOM     80  C   UNL A   1      36.831  33.915  29.778  1.00  0.00     0.135 A 
ATOM     81  F   UNL A   1      34.954  32.298  32.438  1.00  0.00    -0.206 F 
ATOM     82  C   UNL A   1      34.216  33.709  30.713  1.00  0.00     0.059 A 
ATOM     83  C   UNL A   1      35.818  34.608  29.124  1.00  0.00     0.059 A 
ATOM     84  F   UNL A   1      38.085  34.038  29.316  1.00  0.00    -0.206 F 
ATOM     85  C   UNL A   1      34.511  34.493  29.595  1.00  0.00     0.060 A 
BRANCH  85  86
ATOM     86  S   UNL A   1      33.174  35.406  28.795  1.00  0.00     0.124 S 
ATOM     87  O   UNL A   1      32.440  35.921  29.944  1.00  0.00    -0.237 OA
ATOM     88  O   UNL A   1      33.904  36.396  28.008  1.00  0.00    -0.237 OA
ATOM     89  O   UNL A   1      32.489  34.380  28.015  1.00  0.00    -0.744 OA
ENDBRANCH  85  86
ENDBRANCH  53  78
BRANCH  65  90
ATOM     90  C   UNL A   1      39.861  34.212  36.969  1.00  0.00     0.058 A 
ATOM     91  C   UNL A   1      40.492  35.459  36.848  1.00  0.00     0.135 A 
ATOM     92  C   UNL A   1      39.053  33.989  38.096  1.00  0.00     0.135 A 
ATOM     93  F   UNL A   1      41.276  35.719  35.790  1.00  0.00    -0.206 F 
ATOM     94  C   UNL A   1      40.355  36.438  37.825  1.00  0.00     0.059 A 
ATOM     95  C   UNL A   1      38.882  34.963  39.073  1.00  0.00     0.059 A 
ATOM     96  F   UNL A   1      38.417  32.817  38.251  1.00  0.00    -0.206 F 
ATOM     97  C   UNL A   1      39.551  36.179  38.937  1.00  0.00     0.060 A 
BRANCH  97  98
ATOM     98  S   UNL A   1      39.371  37.459  40.197  1.00  0.00     0.124 S 
ATOM     99  O   UNL A   1      38.787  36.704  41.300  1.00  0.00    -0.237 OA
ATOM    100  O   UNL A   1      40.747  37.906  40.392  1.00  0.00    -0.237 OA
ATOM    101  O   UNL A   1      38.488  38.434  39.565  1.00  0.00    -0.744 OA
ENDBRANCH  97  98
ENDBRANCH  65  90
ENDBRANCH  39  40
ENDBRANCH  32  34
ENDBRANCH  31  32
ENDBRANCH  30  31
ENDBRANCH  29  30
ENDBRANCH   1  29
TORSDOF 21
ENDMDL
