MODEL 1
REMARK VINA RESULT:     -10.2      0.000      0.000
REMARK SMILES COc1cc(/C=N/c2cccc(F)c2)ccc1OCc1cccc(C(=O)OCCOCCOC(=O)c2ccc(-c3c4nc(c(-c5c(F)cc(S(=O)(=O)[O-])cc5F)c5ccc([nH]5)c(-c5c(F)cc(S(=O)(=O)[O-])cc5F)c5nc(c(-c6c(F)cc(S(=O)(=O)[O-])cc6F)c6ccc3[nH]6)C=C5)C=C4)cc2)c1
REMARK SMILES IDX 29 1 28 2 27 3 25 4 26 5 24 6 20 7 21 8 102 9 22 10 23 11
REMARK SMILES IDX 19 12 18 13 17 14 3 15 4 16 5 17 16 18 15 19 2 20 1 21 6 22
REMARK SMILES IDX 7 23 8 24 9 25 14 26 10 27 12 28 11 29 13 30 30 31 31 32
REMARK SMILES IDX 32 33 33 34 34 35 35 36 36 37 37 38 101 39 38 40 100 41
REMARK SMILES IDX 39 42 40 43 41 44 94 45 42 46 99 47 93 48 95 49 43 50 98 51
REMARK SMILES IDX 92 52 91 53 44 55 78 56 57 57 77 58 58 59 61 60 76 61 96 62
REMARK SMILES IDX 59 63 60 64 75 66 97 67 62 68 45 69 46 70 55 71 47 72 48 73
REMARK SMILES IDX 54 74 56 75 49 76 50 77 51 78 52 79 53 80 79 81 80 82 89 83
REMARK SMILES IDX 81 84 82 85 88 86 90 87 83 88 84 89 85 90 86 91 87 92 63 93
REMARK SMILES IDX 64 94 73 95 65 96 66 97 72 98 74 99 67 100 68 101 69 102
REMARK SMILES IDX 70 103 71 104
REMARK H PARENT 95 54 61 65
REMARK Flexibility Score: inf
ROOT
ATOM      1  C   UNL A   1      37.911  34.007  33.438  1.00  0.00     0.202 C 
ENDROOT
BRANCH   1   2
ATOM      2  C   UNL A   1      36.948  34.820  32.566  1.00  0.00     0.261 C 
BRANCH   2   3
ATOM      3  O   UNL A   1      35.593  34.351  32.685  1.00  0.00    -0.460 OA
BRANCH   3   4
ATOM      4  C   UNL A   1      34.659  35.325  32.795  1.00  0.00     0.338 C 
ATOM      5  O   UNL A   1      34.386  35.976  33.795  1.00  0.00    -0.246 OA
BRANCH   4   6
ATOM      6  C   UNL A   1      34.106  35.653  31.464  1.00  0.00     0.060 A 
ATOM      7  C   UNL A   1      33.498  35.071  29.194  1.00  0.00    -0.010 A 
ATOM      8  C   UNL A   1      32.913  36.340  29.044  1.00  0.00     0.007 A 
ATOM      9  C   UNL A   1      34.164  34.761  30.392  1.00  0.00     0.023 A 
ATOM     10  C   UNL A   1      32.889  37.242  30.105  1.00  0.00     0.001 A 
ATOM     11  C   UNL A   1      33.461  36.889  31.322  1.00  0.00     0.016 A 
BRANCH   7  12
ATOM     12  C   UNL A   1      33.348  34.009  28.119  1.00  0.00     0.265 C 
BRANCH  12  13
ATOM     13  O   UNL A   1      34.018  32.770  28.397  1.00  0.00    -0.485 OA
BRANCH  13  14
ATOM     14  C   UNL A   1      33.645  31.621  27.746  1.00  0.00     0.161 A 
ATOM     15  C   UNL A   1      34.331  30.396  27.679  1.00  0.00     0.161 A 
ATOM     16  C   UNL A   1      33.743  29.318  27.003  1.00  0.00     0.060 A 
ATOM     17  C   UNL A   1      32.486  29.450  26.403  1.00  0.00    -0.003 A 
ATOM     18  C   UNL A   1      32.397  31.746  27.113  1.00  0.00     0.051 A 
ATOM     19  C   UNL A   1      31.811  30.667  26.450  1.00  0.00     0.014 A 
BRANCH  15  20
ATOM     20  O   UNL A   1      35.595  30.305  28.201  1.00  0.00    -0.493 OA
ATOM     21  C   UNL A   1      36.624  29.987  27.265  1.00  0.00     0.278 C 
ENDBRANCH  15  20
BRANCH  17  22
ATOM     22  C   UNL A   1      31.894  28.325  25.651  1.00  0.00     0.120 C 
ATOM     23  N   UNL A   1      32.406  27.137  25.701  1.00  0.00    -0.256 NA
BRANCH  23  24
ATOM     24  C   UNL A   1      31.870  26.147  24.866  1.00  0.00     0.066 A 
ATOM     25  C   UNL A   1      30.514  26.200  24.525  1.00  0.00     0.028 A 
ATOM     26  C   UNL A   1      32.627  25.043  24.466  1.00  0.00     0.067 A 
ATOM     27  C   UNL A   1      29.921  25.171  23.785  1.00  0.00     0.005 A 
ATOM     28  C   UNL A   1      32.033  24.027  23.726  1.00  0.00     0.125 A 
ATOM     29  C   UNL A   1      30.688  24.078  23.384  1.00  0.00     0.039 A 
ATOM     30  F   UNL A   1      32.769  22.971  23.351  1.00  0.00    -0.207 F 
ENDBRANCH  23  24
ENDBRANCH  17  22
ENDBRANCH  13  14
ENDBRANCH  12  13
ENDBRANCH   7  12
ENDBRANCH   4   6
ENDBRANCH   3   4
ENDBRANCH   2   3
ENDBRANCH   1   2
BRANCH   1  31
ATOM     31  O   UNL A   1      38.164  32.654  33.059  1.00  0.00    -0.374 OA
BRANCH  31  32
ATOM     32  C   UNL A   1      37.243  31.655  33.490  1.00  0.00     0.202 C 
BRANCH  32  33
ATOM     33  C   UNL A   1      36.124  31.235  32.527  1.00  0.00     0.261 C 
BRANCH  33  34
ATOM     34  O   UNL A   1      36.426  30.058  31.764  1.00  0.00    -0.460 OA
BRANCH  34  35
ATOM     35  C   UNL A   1      37.243  29.173  32.388  1.00  0.00     0.338 C 
ATOM     36  O   UNL A   1      37.027  28.580  33.438  1.00  0.00    -0.246 OA
BRANCH  35  37
ATOM     37  C   UNL A   1      38.405  28.875  31.534  1.00  0.00     0.060 A 
ATOM     38  C   UNL A   1      39.598  28.491  32.160  1.00  0.00     0.016 A 
ATOM     39  C   UNL A   1      38.345  29.025  30.147  1.00  0.00     0.016 A 
ATOM     40  C   UNL A   1      40.743  28.267  31.400  1.00  0.00     0.010 A 
ATOM     41  C   UNL A   1      39.500  28.815  29.388  1.00  0.00     0.010 A 
ATOM     42  C   UNL A   1      40.708  28.451  30.011  1.00  0.00    -0.014 A 
BRANCH  42  43
ATOM     43  C   UNL A   1      41.951  28.336  29.213  1.00  0.00     0.031 A 
ATOM     44  C   UNL A   1      42.324  27.012  28.610  1.00  0.00     0.074 A 
ATOM     45  C   UNL A   1      42.742  29.410  29.036  1.00  0.00     0.049 A 
ATOM     46  N   UNL A   1      43.397  26.681  27.943  1.00  0.00    -0.248 NA
ATOM     47  C   UNL A   1      41.356  25.918  28.781  1.00  0.00     0.031 C 
ATOM     48  C   UNL A   1      42.461  30.754  29.537  1.00  0.00     0.029 A 
ATOM     49  N   UNL A   1      43.950  29.533  28.398  1.00  0.00    -0.354 N 
ATOM     50  C   UNL A   1      43.240  25.339  27.614  1.00  0.00     0.074 A 
ATOM     51  C   UNL A   1      41.976  24.913  28.177  1.00  0.00     0.031 C 
ATOM     52  C   UNL A   1      43.479  31.565  29.200  1.00  0.00     0.029 A 
ATOM     53  C   UNL A   1      44.497  30.789  28.496  1.00  0.00     0.049 A 
ATOM     54  H   UNL A   1      44.383  28.791  27.915  1.00  0.00     0.167 HD
ATOM     55  C   UNL A   1      44.072  24.541  26.903  1.00  0.00     0.037 A 
ATOM     56  C   UNL A   1      45.697  31.251  28.093  1.00  0.00     0.037 A 
ATOM     57  C   UNL A   1      45.332  24.971  26.356  1.00  0.00     0.049 A 
ATOM     58  C   UNL A   1      46.652  30.318  27.398  1.00  0.00     0.074 A 
ATOM     59  C   UNL A   1      46.232  24.248  25.594  1.00  0.00     0.029 A 
ATOM     60  N   UNL A   1      45.881  26.233  26.530  1.00  0.00    -0.354 N 
ATOM     61  N   UNL A   1      46.479  29.060  27.067  1.00  0.00    -0.248 NA
ATOM     62  C   UNL A   1      47.969  30.860  27.035  1.00  0.00     0.031 C 
ATOM     63  C   UNL A   1      47.349  25.056  25.351  1.00  0.00     0.029 A 
ATOM     64  C   UNL A   1      47.126  26.297  25.925  1.00  0.00     0.049 A 
ATOM     65  H   UNL A   1      45.449  26.975  27.013  1.00  0.00     0.167 HD
ATOM     66  C   UNL A   1      47.661  28.663  26.449  1.00  0.00     0.074 A 
ATOM     67  C   UNL A   1      48.534  29.819  26.438  1.00  0.00     0.031 C 
ATOM     68  C   UNL A   1      47.991  27.452  25.937  1.00  0.00     0.037 A 
BRANCH  55  69
ATOM     69  C   UNL A   1      43.654  23.111  26.704  1.00  0.00     0.058 A 
ATOM     70  C   UNL A   1      43.267  22.623  25.447  1.00  0.00     0.135 A 
ATOM     71  C   UNL A   1      43.656  22.213  27.783  1.00  0.00     0.135 A 
ATOM     72  F   UNL A   1      43.232  23.444  24.385  1.00  0.00    -0.206 F 
ATOM     73  C   UNL A   1      42.864  21.304  25.272  1.00  0.00     0.059 A 
ATOM     74  C   UNL A   1      43.279  20.882  27.628  1.00  0.00     0.059 A 
ATOM     75  F   UNL A   1      44.017  22.628  29.008  1.00  0.00    -0.206 F 
ATOM     76  C   UNL A   1      42.867  20.441  26.370  1.00  0.00     0.060 A 
BRANCH  76  77
ATOM     77  S   UNL A   1      42.324  18.736  26.133  1.00  0.00     0.124 S 
ATOM     78  O   UNL A   1      40.927  18.927  25.752  1.00  0.00    -0.237 OA
ATOM     79  O   UNL A   1      43.211  18.269  25.073  1.00  0.00    -0.237 OA
ATOM     80  O   UNL A   1      42.540  18.126  27.441  1.00  0.00    -0.744 OA
ENDBRANCH  76  77
ENDBRANCH  55  69
BRANCH  56  81
ATOM     81  C   UNL A   1      46.071  32.664  28.364  1.00  0.00     0.058 A 
ATOM     82  C   UNL A   1      45.833  33.668  27.416  1.00  0.00     0.135 A 
ATOM     83  C   UNL A   1      46.650  33.038  29.587  1.00  0.00     0.135 A 
ATOM     84  F   UNL A   1      45.294  33.356  26.229  1.00  0.00    -0.206 F 
ATOM     85  C   UNL A   1      46.154  34.999  27.671  1.00  0.00     0.059 A 
ATOM     86  C   UNL A   1      46.960  34.364  29.874  1.00  0.00     0.059 A 
ATOM     87  F   UNL A   1      46.891  32.112  30.529  1.00  0.00    -0.206 F 
ATOM     88  C   UNL A   1      46.711  35.337  28.907  1.00  0.00     0.060 A 
BRANCH  88  89
ATOM     89  S   UNL A   1      47.053  37.076  29.255  1.00  0.00     0.124 S 
ATOM     90  O   UNL A   1      45.873  37.725  28.698  1.00  0.00    -0.237 OA
ATOM     91  O   UNL A   1      47.160  37.081  30.710  1.00  0.00    -0.237 OA
ATOM     92  O   UNL A   1      48.305  37.318  28.542  1.00  0.00    -0.744 OA
ENDBRANCH  88  89
ENDBRANCH  56  81
BRANCH  68  93
ATOM     93  C   UNL A   1      49.357  27.305  25.327  1.00  0.00     0.058 A 
ATOM     94  C   UNL A   1      50.492  27.086  26.123  1.00  0.00     0.135 A 
ATOM     95  C   UNL A   1      49.525  27.314  23.933  1.00  0.00     0.135 A 
ATOM     96  F   UNL A   1      50.387  27.080  27.461  1.00  0.00    -0.206 F 
ATOM     97  C   UNL A   1      51.748  26.888  25.558  1.00  0.00     0.059 A 
ATOM     98  C   UNL A   1      50.767  27.096  23.345  1.00  0.00     0.059 A 
ATOM     99  F   UNL A   1      48.469  27.514  23.126  1.00  0.00    -0.206 F 
ATOM    100  C   UNL A   1      51.875  26.889  24.167  1.00  0.00     0.060 A 
BRANCH 100 101
ATOM    101  S   UNL A   1      53.500  26.576  23.446  1.00  0.00     0.124 S 
ATOM    102  O   UNL A   1      54.189  27.833  23.714  1.00  0.00    -0.237 OA
ATOM    103  O   UNL A   1      53.965  25.423  24.213  1.00  0.00    -0.237 OA
ATOM    104  O   UNL A   1      53.204  26.308  22.042  1.00  0.00    -0.744 OA
ENDBRANCH 100 101
ENDBRANCH  68  93
ENDBRANCH  42  43
ENDBRANCH  35  37
ENDBRANCH  34  35
ENDBRANCH  33  34
ENDBRANCH  32  33
ENDBRANCH  31  32
ENDBRANCH   1  31
TORSDOF 23
ENDMDL
MODEL 2
REMARK VINA RESULT:      -9.9      6.945     12.739
REMARK SMILES COc1cc(/C=N/c2cccc(F)c2)ccc1OCc1cccc(C(=O)OCCOCCOC(=O)c2ccc(-c3c4nc(c(-c5c(F)cc(S(=O)(=O)[O-])cc5F)c5ccc([nH]5)c(-c5c(F)cc(S(=O)(=O)[O-])cc5F)c5nc(c(-c6c(F)cc(S(=O)(=O)[O-])cc6F)c6ccc3[nH]6)C=C5)C=C4)cc2)c1
REMARK SMILES IDX 29 1 28 2 27 3 25 4 26 5 24 6 20 7 21 8 102 9 22 10 23 11
REMARK SMILES IDX 19 12 18 13 17 14 3 15 4 16 5 17 16 18 15 19 2 20 1 21 6 22
REMARK SMILES IDX 7 23 8 24 9 25 14 26 10 27 12 28 11 29 13 30 30 31 31 32
REMARK SMILES IDX 32 33 33 34 34 35 35 36 36 37 37 38 101 39 38 40 100 41
REMARK SMILES IDX 39 42 40 43 41 44 94 45 42 46 99 47 93 48 95 49 43 50 98 51
REMARK SMILES IDX 92 52 91 53 44 55 78 56 57 57 77 58 58 59 61 60 76 61 96 62
REMARK SMILES IDX 59 63 60 64 75 66 97 67 62 68 45 69 46 70 55 71 47 72 48 73
REMARK SMILES IDX 54 74 56 75 49 76 50 77 51 78 52 79 53 80 79 81 80 82 89 83
REMARK SMILES IDX 81 84 82 85 88 86 90 87 83 88 84 89 85 90 86 91 87 92 63 93
REMARK SMILES IDX 64 94 73 95 65 96 66 97 72 98 74 99 67 100 68 101 69 102
REMARK SMILES IDX 70 103 71 104
REMARK H PARENT 95 54 61 65
REMARK Flexibility Score: inf
ROOT
ATOM      1  C   UNL A   1      33.790  34.680  28.795  1.00  0.00     0.202 C 
ENDROOT
BRANCH   1   2
ATOM      2  C   UNL A   1      34.470  33.349  29.136  1.00  0.00     0.261 C 
BRANCH   2   3
ATOM      3  O   UNL A   1      35.484  33.004  28.176  1.00  0.00    -0.460 OA
BRANCH   3   4
ATOM      4  C   UNL A   1      36.750  33.014  28.654  1.00  0.00     0.338 C 
ATOM      5  O   UNL A   1      37.372  33.979  29.078  1.00  0.00    -0.246 OA
BRANCH   4   6
ATOM      6  C   UNL A   1      37.258  31.631  28.778  1.00  0.00     0.060 A 
ATOM      7  C   UNL A   1      38.507  29.903  29.925  1.00  0.00    -0.010 A 
ATOM      8  C   UNL A   1      38.041  28.968  28.986  1.00  0.00     0.007 A 
ATOM      9  C   UNL A   1      38.169  31.258  29.768  1.00  0.00     0.023 A 
ATOM     10  C   UNL A   1      37.162  29.351  27.976  1.00  0.00     0.001 A 
ATOM     11  C   UNL A   1      36.749  30.677  27.888  1.00  0.00     0.016 A 
BRANCH   7  12
ATOM     12  C   UNL A   1      39.297  29.460  31.144  1.00  0.00     0.265 C 
BRANCH  12  13
ATOM     13  O   UNL A   1      40.085  30.490  31.760  1.00  0.00    -0.485 OA
BRANCH  13  14
ATOM     14  C   UNL A   1      39.944  30.762  33.098  1.00  0.00     0.161 A 
ATOM     15  C   UNL A   1      40.939  31.121  34.022  1.00  0.00     0.161 A 
ATOM     16  C   UNL A   1      40.573  31.416  35.343  1.00  0.00     0.060 A 
ATOM     17  C   UNL A   1      39.233  31.360  35.742  1.00  0.00    -0.003 A 
ATOM     18  C   UNL A   1      38.607  30.681  33.522  1.00  0.00     0.051 A 
ATOM     19  C   UNL A   1      38.246  30.985  34.835  1.00  0.00     0.014 A 
BRANCH  15  20
ATOM     20  O   UNL A   1      42.255  31.094  33.638  1.00  0.00    -0.493 OA
ATOM     21  C   UNL A   1      42.959  29.891  33.945  1.00  0.00     0.278 C 
ENDBRANCH  15  20
BRANCH  17  22
ATOM     22  C   UNL A   1      38.859  31.625  37.147  1.00  0.00     0.120 C 
ATOM     23  N   UNL A   1      37.620  31.662  37.520  1.00  0.00    -0.256 NA
BRANCH  23  24
ATOM     24  C   UNL A   1      37.335  32.043  38.838  1.00  0.00     0.066 A 
ATOM     25  C   UNL A   1      38.109  33.035  39.447  1.00  0.00     0.028 A 
ATOM     26  C   UNL A   1      36.376  31.368  39.599  1.00  0.00     0.067 A 
ATOM     27  C   UNL A   1      37.924  33.361  40.795  1.00  0.00     0.005 A 
ATOM     28  C   UNL A   1      36.193  31.701  40.937  1.00  0.00     0.125 A 
ATOM     29  C   UNL A   1      36.960  32.688  41.543  1.00  0.00     0.039 A 
ATOM     30  F   UNL A   1      35.273  31.045  41.657  1.00  0.00    -0.207 F 
ENDBRANCH  23  24
ENDBRANCH  17  22
ENDBRANCH  13  14
ENDBRANCH  12  13
ENDBRANCH   7  12
ENDBRANCH   4   6
ENDBRANCH   3   4
ENDBRANCH   2   3
ENDBRANCH   1   2
BRANCH   1  31
ATOM     31  O   UNL A   1      32.654  35.060  29.572  1.00  0.00    -0.374 OA
BRANCH  31  32
ATOM     32  C   UNL A   1      32.874  35.849  30.739  1.00  0.00     0.202 C 
BRANCH  32  33
ATOM     33  C   UNL A   1      32.209  35.408  32.050  1.00  0.00     0.261 C 
BRANCH  33  34
ATOM     34  O   UNL A   1      33.139  35.149  33.113  1.00  0.00    -0.460 OA
BRANCH  34  35
ATOM     35  C   UNL A   1      33.859  34.008  32.970  1.00  0.00     0.338 C 
ATOM     36  O   UNL A   1      33.471  32.940  32.513  1.00  0.00    -0.246 OA
BRANCH  35  37
ATOM     37  C   UNL A   1      35.271  34.263  33.298  1.00  0.00     0.060 A 
ATOM     38  C   UNL A   1      36.109  34.726  32.274  1.00  0.00     0.016 A 
ATOM     39  C   UNL A   1      35.782  33.999  34.571  1.00  0.00     0.016 A 
ATOM     40  C   UNL A   1      37.468  34.915  32.518  1.00  0.00     0.010 A 
ATOM     41  C   UNL A   1      37.149  34.174  34.807  1.00  0.00     0.010 A 
ATOM     42  C   UNL A   1      38.001  34.617  33.779  1.00  0.00    -0.014 A 
BRANCH  42  43
ATOM     43  C   UNL A   1      39.462  34.696  34.007  1.00  0.00     0.031 A 
ATOM     44  C   UNL A   1      39.982  34.983  35.387  1.00  0.00     0.074 A 
ATOM     45  C   UNL A   1      40.316  34.519  32.983  1.00  0.00     0.049 A 
ATOM     46  N   UNL A   1      41.213  35.164  35.784  1.00  0.00    -0.248 NA
ATOM     47  C   UNL A   1      38.980  35.075  36.459  1.00  0.00     0.031 C 
ATOM     48  C   UNL A   1      39.930  34.194  31.611  1.00  0.00     0.029 A 
ATOM     49  N   UNL A   1      41.685  34.601  32.937  1.00  0.00    -0.354 N 
ATOM     50  C   UNL A   1      41.139  35.395  37.153  1.00  0.00     0.074 A 
ATOM     51  C   UNL A   1      39.737  35.353  37.512  1.00  0.00     0.031 C 
ATOM     52  C   UNL A   1      41.037  34.120  30.852  1.00  0.00     0.029 A 
ATOM     53  C   UNL A   1      42.203  34.431  31.676  1.00  0.00     0.049 A 
ATOM     54  H   UNL A   1      42.242  34.767  33.733  1.00  0.00     0.167 HD
ATOM     55  C   UNL A   1      42.149  35.614  38.029  1.00  0.00     0.037 A 
ATOM     56  C   UNL A   1      43.470  34.545  31.232  1.00  0.00     0.037 A 
ATOM     57  C   UNL A   1      43.540  35.665  37.661  1.00  0.00     0.049 A 
ATOM     58  C   UNL A   1      44.564  34.896  32.205  1.00  0.00     0.074 A 
ATOM     59  C   UNL A   1      44.641  35.850  38.478  1.00  0.00     0.029 A 
ATOM     60  N   UNL A   1      44.020  35.550  36.365  1.00  0.00    -0.354 N 
ATOM     61  N   UNL A   1      44.485  35.082  33.501  1.00  0.00    -0.248 NA
ATOM     62  C   UNL A   1      45.916  35.067  31.653  1.00  0.00     0.031 C 
ATOM     63  C   UNL A   1      45.782  35.898  37.670  1.00  0.00     0.029 A 
ATOM     64  C   UNL A   1      45.398  35.701  36.354  1.00  0.00     0.049 A 
ATOM     65  H   UNL A   1      43.464  35.385  35.569  1.00  0.00     0.167 HD
ATOM     66  C   UNL A   1      45.777  35.383  33.922  1.00  0.00     0.074 A 
ATOM     67  C   UNL A   1      46.620  35.338  32.745  1.00  0.00     0.031 C 
ATOM     68  C   UNL A   1      46.222  35.670  35.170  1.00  0.00     0.037 A 
BRANCH  55  69
ATOM     69  C   UNL A   1      41.778  35.847  39.466  1.00  0.00     0.058 A 
ATOM     70  C   UNL A   1      41.612  37.139  39.986  1.00  0.00     0.135 A 
ATOM     71  C   UNL A   1      41.570  34.760  40.331  1.00  0.00     0.135 A 
ATOM     72  F   UNL A   1      41.814  38.213  39.206  1.00  0.00    -0.206 F 
ATOM     73  C   UNL A   1      41.286  37.349  41.322  1.00  0.00     0.059 A 
ATOM     74  C   UNL A   1      41.220  34.946  41.666  1.00  0.00     0.059 A 
ATOM     75  F   UNL A   1      41.716  33.503  39.885  1.00  0.00    -0.206 F 
ATOM     76  C   UNL A   1      41.097  36.246  42.156  1.00  0.00     0.060 A 
BRANCH  76  77
ATOM     77  S   UNL A   1      40.693  36.532  43.892  1.00  0.00     0.124 S 
ATOM     78  O   UNL A   1      40.292  37.936  43.868  1.00  0.00    -0.237 OA
ATOM     79  O   UNL A   1      39.619  35.572  44.127  1.00  0.00    -0.237 OA
ATOM     80  O   UNL A   1      41.946  36.249  44.584  1.00  0.00    -0.744 OA
ENDBRANCH  76  77
ENDBRANCH  55  69
BRANCH  56  81
ATOM     81  C   UNL A   1      43.764  34.352  29.788  1.00  0.00     0.058 A 
ATOM     82  C   UNL A   1      44.099  33.089  29.282  1.00  0.00     0.135 A 
ATOM     83  C   UNL A   1      43.691  35.424  28.884  1.00  0.00     0.135 A 
ATOM     84  F   UNL A   1      44.193  32.038  30.110  1.00  0.00    -0.206 F 
ATOM     85  C   UNL A   1      44.348  32.892  27.927  1.00  0.00     0.059 A 
ATOM     86  C   UNL A   1      43.916  35.248  27.522  1.00  0.00     0.059 A 
ATOM     87  F   UNL A   1      43.369  36.651  29.320  1.00  0.00    -0.206 F 
ATOM     88  C   UNL A   1      44.248  33.977  27.054  1.00  0.00     0.060 A 
BRANCH  88  89
ATOM     89  S   UNL A   1      44.501  33.694  25.288  1.00  0.00     0.124 S 
ATOM     90  O   UNL A   1      44.711  32.252  25.249  1.00  0.00    -0.237 OA
ATOM     91  O   UNL A   1      43.246  34.175  24.719  1.00  0.00    -0.237 OA
ATOM     92  O   UNL A   1      45.671  34.513  24.984  1.00  0.00    -0.744 OA
ENDBRANCH  88  89
ENDBRANCH  56  81
BRANCH  68  93
ATOM     93  C   UNL A   1      47.687  35.966  35.333  1.00  0.00     0.058 A 
ATOM     94  C   UNL A   1      48.619  34.942  35.554  1.00  0.00     0.135 A 
ATOM     95  C   UNL A   1      48.172  37.277  35.197  1.00  0.00     0.135 A 
ATOM     96  F   UNL A   1      48.206  33.673  35.701  1.00  0.00    -0.206 F 
ATOM     97  C   UNL A   1      49.982  35.207  35.642  1.00  0.00     0.059 A 
ATOM     98  C   UNL A   1      49.532  37.563  35.260  1.00  0.00     0.059 A 
ATOM     99  F   UNL A   1      47.321  38.294  34.978  1.00  0.00    -0.206 F 
ATOM    100  C   UNL A   1      50.430  36.520  35.487  1.00  0.00     0.060 A 
BRANCH 100 101
ATOM    101  S   UNL A   1      52.206  36.842  35.549  1.00  0.00     0.124 S 
ATOM    102  O   UNL A   1      52.728  35.780  34.697  1.00  0.00    -0.237 OA
ATOM    103  O   UNL A   1      52.297  38.194  35.005  1.00  0.00    -0.237 OA
ATOM    104  O   UNL A   1      52.524  36.723  36.968  1.00  0.00    -0.744 OA
ENDBRANCH 100 101
ENDBRANCH  68  93
ENDBRANCH  42  43
ENDBRANCH  35  37
ENDBRANCH  34  35
ENDBRANCH  33  34
ENDBRANCH  32  33
ENDBRANCH  31  32
ENDBRANCH   1  31
TORSDOF 23
ENDMDL
MODEL 3
REMARK VINA RESULT:      -9.7      6.076     10.249
REMARK SMILES COc1cc(/C=N/c2cccc(F)c2)ccc1OCc1cccc(C(=O)OCCOCCOC(=O)c2ccc(-c3c4nc(c(-c5c(F)cc(S(=O)(=O)[O-])cc5F)c5ccc([nH]5)c(-c5c(F)cc(S(=O)(=O)[O-])cc5F)c5nc(c(-c6c(F)cc(S(=O)(=O)[O-])cc6F)c6ccc3[nH]6)C=C5)C=C4)cc2)c1
REMARK SMILES IDX 29 1 28 2 27 3 25 4 26 5 24 6 20 7 21 8 102 9 22 10 23 11
REMARK SMILES IDX 19 12 18 13 17 14 3 15 4 16 5 17 16 18 15 19 2 20 1 21 6 22
REMARK SMILES IDX 7 23 8 24 9 25 14 26 10 27 12 28 11 29 13 30 30 31 31 32
REMARK SMILES IDX 32 33 33 34 34 35 35 36 36 37 37 38 101 39 38 40 100 41
REMARK SMILES IDX 39 42 40 43 41 44 94 45 42 46 99 47 93 48 95 49 43 50 98 51
REMARK SMILES IDX 92 52 91 53 44 55 78 56 57 57 77 58 58 59 61 60 76 61 96 62
REMARK SMILES IDX 59 63 60 64 75 66 97 67 62 68 45 69 46 70 55 71 47 72 48 73
REMARK SMILES IDX 54 74 56 75 49 76 50 77 51 78 52 79 53 80 79 81 80 82 89 83
REMARK SMILES IDX 81 84 82 85 88 86 90 87 83 88 84 89 85 90 86 91 87 92 63 93
REMARK SMILES IDX 64 94 73 95 65 96 66 97 72 98 74 99 67 100 68 101 69 102
REMARK SMILES IDX 70 103 71 104
REMARK H PARENT 95 54 61 65
REMARK Flexibility Score: inf
ROOT
ATOM      1  C   UNL A   1      36.739  29.364  27.959  1.00  0.00     0.202 C 
ENDROOT
BRANCH   1   2
ATOM      2  C   UNL A   1      35.240  29.672  27.888  1.00  0.00     0.261 C 
BRANCH   2   3
ATOM      3  O   UNL A   1      34.547  28.761  27.017  1.00  0.00    -0.460 OA
BRANCH   3   4
ATOM      4  C   UNL A   1      33.465  29.281  26.390  1.00  0.00     0.338 C 
ATOM      5  O   UNL A   1      33.184  30.466  26.264  1.00  0.00    -0.246 OA
BRANCH   4   6
ATOM      6  C   UNL A   1      32.721  28.214  25.688  1.00  0.00     0.060 A 
ATOM      7  C   UNL A   1      32.618  26.167  24.398  1.00  0.00    -0.010 A 
ATOM      8  C   UNL A   1      31.218  26.183  24.519  1.00  0.00     0.007 A 
ATOM      9  C   UNL A   1      33.363  27.236  24.925  1.00  0.00     0.023 A 
ATOM     10  C   UNL A   1      30.578  27.181  25.250  1.00  0.00     0.001 A 
ATOM     11  C   UNL A   1      31.331  28.181  25.857  1.00  0.00     0.016 A 
BRANCH   7  12
ATOM     12  C   UNL A   1      33.336  24.979  23.783  1.00  0.00     0.265 C 
BRANCH  12  13
ATOM     13  O   UNL A   1      33.301  23.779  24.571  1.00  0.00    -0.485 OA
BRANCH  13  14
ATOM     14  C   UNL A   1      34.451  23.063  24.793  1.00  0.00     0.161 A 
ATOM     15  C   UNL A   1      34.581  21.700  25.105  1.00  0.00     0.161 A 
ATOM     16  C   UNL A   1      35.863  21.147  25.236  1.00  0.00     0.060 A 
ATOM     17  C   UNL A   1      37.004  21.936  25.055  1.00  0.00    -0.003 A 
ATOM     18  C   UNL A   1      35.607  23.849  24.644  1.00  0.00     0.051 A 
ATOM     19  C   UNL A   1      36.880  23.292  24.765  1.00  0.00     0.014 A 
BRANCH  15  20
ATOM     20  O   UNL A   1      33.457  20.958  25.357  1.00  0.00    -0.493 OA
ATOM     21  C   UNL A   1      32.893  20.295  24.226  1.00  0.00     0.278 C 
ENDBRANCH  15  20
BRANCH  17  22
ATOM     22  C   UNL A   1      38.351  21.358  25.242  1.00  0.00     0.120 C 
ATOM     23  N   UNL A   1      39.178  21.843  26.112  1.00  0.00    -0.256 NA
BRANCH  23  24
ATOM     24  C   UNL A   1      40.481  21.327  26.148  1.00  0.00     0.066 A 
ATOM     25  C   UNL A   1      40.669  19.957  26.358  1.00  0.00     0.028 A 
ATOM     26  C   UNL A   1      41.598  22.166  26.102  1.00  0.00     0.067 A 
ATOM     27  C   UNL A   1      41.955  19.426  26.510  1.00  0.00     0.005 A 
ATOM     28  C   UNL A   1      42.873  21.631  26.248  1.00  0.00     0.125 A 
ATOM     29  C   UNL A   1      43.062  20.270  26.454  1.00  0.00     0.039 A 
ATOM     30  F   UNL A   1      43.936  22.446  26.205  1.00  0.00    -0.207 F 
ENDBRANCH  23  24
ENDBRANCH  17  22
ENDBRANCH  13  14
ENDBRANCH  12  13
ENDBRANCH   7  12
ENDBRANCH   4   6
ENDBRANCH   3   4
ENDBRANCH   2   3
ENDBRANCH   1   2
BRANCH   1  31
ATOM     31  O   UNL A   1      37.321  29.206  29.254  1.00  0.00    -0.374 OA
BRANCH  31  32
ATOM     32  C   UNL A   1      38.623  28.632  29.338  1.00  0.00     0.202 C 
BRANCH  32  33
ATOM     33  C   UNL A   1      38.988  27.514  28.351  1.00  0.00     0.261 C 
BRANCH  33  34
ATOM     34  O   UNL A   1      40.333  27.595  27.856  1.00  0.00    -0.460 OA
BRANCH  34  35
ATOM     35  C   UNL A   1      40.891  26.401  27.535  1.00  0.00     0.338 C 
ATOM     36  O   UNL A   1      40.505  25.608  26.686  1.00  0.00    -0.246 OA
BRANCH  35  37
ATOM     37  C   UNL A   1      42.167  26.236  28.250  1.00  0.00     0.060 A 
ATOM     38  C   UNL A   1      42.684  27.345  28.935  1.00  0.00     0.016 A 
ATOM     39  C   UNL A   1      42.876  25.034  28.205  1.00  0.00     0.016 A 
ATOM     40  C   UNL A   1      43.922  27.258  29.568  1.00  0.00     0.010 A 
ATOM     41  C   UNL A   1      44.126  24.955  28.828  1.00  0.00     0.010 A 
ATOM     42  C   UNL A   1      44.662  26.070  29.498  1.00  0.00    -0.014 A 
BRANCH  42  43
ATOM     43  C   UNL A   1      46.031  26.011  30.061  1.00  0.00     0.031 A 
ATOM     44  C   UNL A   1      47.199  26.420  29.211  1.00  0.00     0.074 A 
ATOM     45  C   UNL A   1      46.224  25.589  31.324  1.00  0.00     0.049 A 
ATOM     46  N   UNL A   1      48.476  26.376  29.485  1.00  0.00    -0.248 NA
ATOM     47  C   UNL A   1      46.885  26.951  27.876  1.00  0.00     0.031 C 
ATOM     48  C   UNL A   1      45.164  25.207  32.256  1.00  0.00     0.029 A 
ATOM     49  N   UNL A   1      47.383  25.397  32.033  1.00  0.00    -0.354 N 
ATOM     50  C   UNL A   1      49.123  26.870  28.359  1.00  0.00     0.074 A 
ATOM     51  C   UNL A   1      48.095  27.186  27.388  1.00  0.00     0.031 C 
ATOM     52  C   UNL A   1      45.723  24.811  33.412  1.00  0.00     0.029 A 
ATOM     53  C   UNL A   1      47.178  24.874  33.287  1.00  0.00     0.049 A 
ATOM     54  H   UNL A   1      48.275  25.615  31.678  1.00  0.00     0.167 HD
ATOM     55  C   UNL A   1      50.450  27.048  28.157  1.00  0.00     0.037 A 
ATOM     56  C   UNL A   1      48.064  24.462  34.215  1.00  0.00     0.037 A 
ATOM     57  C   UNL A   1      51.466  26.721  29.123  1.00  0.00     0.049 A 
ATOM     58  C   UNL A   1      49.538  24.570  33.927  1.00  0.00     0.074 A 
ATOM     59  C   UNL A   1      52.835  26.893  29.027  1.00  0.00     0.029 A 
ATOM     60  N   UNL A   1      51.223  26.135  30.358  1.00  0.00    -0.354 N 
ATOM     61  N   UNL A   1      50.136  25.066  32.870  1.00  0.00    -0.248 NA
ATOM     62  C   UNL A   1      50.456  24.049  34.950  1.00  0.00     0.031 C 
ATOM     63  C   UNL A   1      53.424  26.364  30.181  1.00  0.00     0.029 A 
ATOM     64  C   UNL A   1      52.420  25.901  31.015  1.00  0.00     0.049 A 
ATOM     65  H   UNL A   1      50.332  25.917  30.714  1.00  0.00     0.167 HD
ATOM     66  C   UNL A   1      51.501  24.926  33.104  1.00  0.00     0.074 A 
ATOM     67  C   UNL A   1      51.639  24.314  34.409  1.00  0.00     0.031 C 
ATOM     68  C   UNL A   1      52.542  25.275  32.309  1.00  0.00     0.037 A 
BRANCH  55  69
ATOM     69  C   UNL A   1      50.878  27.597  26.825  1.00  0.00     0.058 A 
ATOM     70  C   UNL A   1      51.066  28.972  26.618  1.00  0.00     0.135 A 
ATOM     71  C   UNL A   1      51.120  26.733  25.745  1.00  0.00     0.135 A 
ATOM     72  F   UNL A   1      50.834  29.842  27.614  1.00  0.00    -0.206 F 
ATOM     73  C   UNL A   1      51.446  29.476  25.378  1.00  0.00     0.059 A 
ATOM     74  C   UNL A   1      51.523  27.212  24.501  1.00  0.00     0.059 A 
ATOM     75  F   UNL A   1      50.955  25.408  25.888  1.00  0.00    -0.206 F 
ATOM     76  C   UNL A   1      51.666  28.588  24.324  1.00  0.00     0.060 A 
BRANCH  76  77
ATOM     77  S   UNL A   1      52.139  29.256  22.715  1.00  0.00     0.124 S 
ATOM     78  O   UNL A   1      53.125  28.274  22.271  1.00  0.00    -0.237 OA
ATOM     79  O   UNL A   1      50.873  29.254  21.989  1.00  0.00    -0.237 OA
ATOM     80  O   UNL A   1      52.670  30.576  23.038  1.00  0.00    -0.744 OA
ENDBRANCH  76  77
ENDBRANCH  55  69
BRANCH  56  81
ATOM     81  C   UNL A   1      47.576  23.882  35.493  1.00  0.00     0.058 A 
ATOM     82  C   UNL A   1      47.430  22.497  35.648  1.00  0.00     0.135 A 
ATOM     83  C   UNL A   1      47.269  24.701  36.591  1.00  0.00     0.135 A 
ATOM     84  F   UNL A   1      47.698  21.675  34.622  1.00  0.00    -0.206 F 
ATOM     85  C   UNL A   1      47.000  21.941  36.849  1.00  0.00     0.059 A 
ATOM     86  C   UNL A   1      46.857  24.168  37.808  1.00  0.00     0.059 A 
ATOM     87  F   UNL A   1      47.398  26.034  36.493  1.00  0.00    -0.206 F 
ATOM     88  C   UNL A   1      46.722  22.786  37.926  1.00  0.00     0.060 A 
BRANCH  88  89
ATOM     89  S   UNL A   1      46.237  22.049  39.502  1.00  0.00     0.124 S 
ATOM     90  O   UNL A   1      47.507  22.017  40.215  1.00  0.00    -0.237 OA
ATOM     91  O   UNL A   1      45.248  23.003  39.994  1.00  0.00    -0.237 OA
ATOM     92  O   UNL A   1      45.699  20.749  39.109  1.00  0.00    -0.744 OA
ENDBRANCH  88  89
ENDBRANCH  56  81
BRANCH  68  93
ATOM     93  C   UNL A   1      53.928  24.996  32.821  1.00  0.00     0.058 A 
ATOM     94  C   UNL A   1      54.524  23.735  32.666  1.00  0.00     0.135 A 
ATOM     95  C   UNL A   1      54.694  26.016  33.408  1.00  0.00     0.135 A 
ATOM     96  F   UNL A   1      53.831  22.724  32.120  1.00  0.00    -0.206 F 
ATOM     97  C   UNL A   1      55.829  23.493  33.082  1.00  0.00     0.059 A 
ATOM     98  C   UNL A   1      56.008  25.803  33.812  1.00  0.00     0.059 A 
ATOM     99  F   UNL A   1      54.173  27.243  33.574  1.00  0.00    -0.206 F 
ATOM    100  C   UNL A   1      56.566  24.534  33.649  1.00  0.00     0.060 A 
BRANCH 100 101
ATOM    101  S   UNL A   1      58.276  24.221  34.134  1.00  0.00     0.124 S 
ATOM    102  O   UNL A   1      58.382  24.999  35.362  1.00  0.00    -0.237 OA
ATOM    103  O   UNL A   1      58.293  22.770  34.299  1.00  0.00    -0.237 OA
ATOM    104  O   UNL A   1      59.049  24.724  33.002  1.00  0.00    -0.744 OA
ENDBRANCH 100 101
ENDBRANCH  68  93
ENDBRANCH  42  43
ENDBRANCH  35  37
ENDBRANCH  34  35
ENDBRANCH  33  34
ENDBRANCH  32  33
ENDBRANCH  31  32
ENDBRANCH   1  31
TORSDOF 23
ENDMDL
