MODEL 1
REMARK VINA RESULT:     -11.0      0.000      0.000
REMARK SMILES CC(C)c1nc(N2C[C@H](C)OC(C)(C)C2)sc1C(=O)OCCOCCOC(=O)c1ccc(-c2c3nc(c(-c4c(F)cc(S(=O)(=O)[O-])cc4F)c4ccc([nH]4)c(-c4c(F)cc(S(=O)(=O)[O-])cc4F)c4nc(c(-c5c(F)cc(S(=O)(=O)[O-])cc5F)c5ccc2[nH]5)C=C4)C=C3)cc1
REMARK SMILES IDX 24 1 23 2 22 3 21 4 20 5 18 6 19 7 17 8 4 9 5 10 6 11 16 12
REMARK SMILES IDX 2 13 1 14 3 15 7 16 8 17 15 18 9 19 12 20 11 21 10 22 13 23
REMARK SMILES IDX 14 24 25 25 26 26 27 27 28 28 29 29 30 30 94 31 31 32 93 33
REMARK SMILES IDX 32 34 33 35 34 36 87 37 35 38 92 39 86 40 88 41 36 42 91 43
REMARK SMILES IDX 85 44 84 45 37 47 71 48 50 49 70 50 51 51 54 52 69 53 89 54
REMARK SMILES IDX 52 55 53 56 68 58 90 59 55 60 38 61 39 62 48 63 40 64 41 65
REMARK SMILES IDX 47 66 49 67 42 68 43 69 44 70 45 71 46 72 72 73 73 74 82 75
REMARK SMILES IDX 74 76 75 77 81 78 83 79 76 80 77 81 78 82 79 83 80 84 56 85
REMARK SMILES IDX 57 86 66 87 58 88 59 89 65 90 67 91 60 92 61 93 62 94 63 95
REMARK SMILES IDX 64 96
REMARK H PARENT 88 46 54 57
REMARK Flexibility Score: inf
ROOT
ATOM      1  C   UNL A   1      39.668  21.757  26.487  1.00  0.00     0.202 C 
ENDROOT
BRANCH   1   2
ATOM      2  O   UNL A   1      38.717  21.887  25.427  1.00  0.00    -0.374 OA
BRANCH   2   3
ATOM      3  C   UNL A   1      37.401  22.298  25.812  1.00  0.00     0.202 C 
BRANCH   3   4
ATOM      4  C   UNL A   1      36.759  23.250  24.804  1.00  0.00     0.261 C 
BRANCH   4   5
ATOM      5  O   UNL A   1      35.399  22.834  24.591  1.00  0.00    -0.459 OA
BRANCH   5   6
ATOM      6  C   UNL A   1      34.700  23.510  23.646  1.00  0.00     0.350 C 
ATOM      7  O   UNL A   1      34.891  23.402  22.439  1.00  0.00    -0.245 OA
BRANCH   6   8
ATOM      8  C   UNL A   1      33.634  24.263  24.262  1.00  0.00     0.137 A 
ATOM      9  C   UNL A   1      32.663  23.978  25.214  1.00  0.00     0.071 A 
ATOM     10  N   UNL A   1      31.856  25.077  25.527  1.00  0.00    -0.224 NA
ATOM     11  C   UNL A   1      32.125  26.112  24.774  1.00  0.00     0.186 A 
ATOM     12  S   UNL A   1      33.416  25.874  23.680  1.00  0.00    -0.089 S 
BRANCH   9  13
ATOM     13  C   UNL A   1      32.314  22.728  25.993  1.00  0.00     0.034 C 
ATOM     14  C   UNL A   1      32.958  22.752  27.383  1.00  0.00     0.014 C 
ATOM     15  C   UNL A   1      30.838  22.360  26.089  1.00  0.00     0.014 C 
ENDBRANCH   9  13
BRANCH  11  16
ATOM     16  N   UNL A   1      31.478  27.289  24.884  1.00  0.00    -0.343 N 
ATOM     17  C   UNL A   1      31.726  28.229  25.963  1.00  0.00     0.150 C 
ATOM     18  C   UNL A   1      30.336  27.568  24.025  1.00  0.00     0.153 C 
ATOM     19  C   UNL A   1      31.805  29.651  25.368  1.00  0.00     0.135 C 
ATOM     20  C   UNL A   1      30.373  29.033  23.521  1.00  0.00     0.081 C 
ATOM     21  O   UNL A   1      30.625  29.965  24.602  1.00  0.00    -0.369 OA
ATOM     22  C   UNL A   1      31.927  30.698  26.466  1.00  0.00     0.040 C 
ATOM     23  C   UNL A   1      31.405  29.208  22.399  1.00  0.00     0.044 C 
ATOM     24  C   UNL A   1      28.986  29.402  22.975  1.00  0.00     0.044 C 
ENDBRANCH  11  16
ENDBRANCH   6   8
ENDBRANCH   5   6
ENDBRANCH   4   5
ENDBRANCH   3   4
ENDBRANCH   2   3
ENDBRANCH   1   2
BRANCH   1  25
ATOM     25  C   UNL A   1      40.700  22.888  26.545  1.00  0.00     0.261 C 
BRANCH  25  26
ATOM     26  O   UNL A   1      40.066  24.175  26.436  1.00  0.00    -0.460 OA
BRANCH  26  27
ATOM     27  C   UNL A   1      40.914  25.219  26.266  1.00  0.00     0.338 C 
ATOM     28  O   UNL A   1      41.461  25.555  25.229  1.00  0.00    -0.246 OA
BRANCH  27  29
ATOM     29  C   UNL A   1      40.978  26.027  27.503  1.00  0.00     0.060 A 
ATOM     30  C   UNL A   1      39.916  25.906  28.407  1.00  0.00     0.016 A 
ATOM     31  C   UNL A   1      42.021  26.924  27.760  1.00  0.00     0.016 A 
ATOM     32  C   UNL A   1      39.864  26.714  29.541  1.00  0.00     0.010 A 
ATOM     33  C   UNL A   1      41.964  27.740  28.896  1.00  0.00     0.010 A 
ATOM     34  C   UNL A   1      40.869  27.662  29.772  1.00  0.00    -0.014 A 
BRANCH  34  35
ATOM     35  C   UNL A   1      40.692  28.659  30.857  1.00  0.00     0.031 A 
ATOM     36  C   UNL A   1      41.590  28.592  32.063  1.00  0.00     0.074 A 
ATOM     37  C   UNL A   1      39.772  29.635  30.752  1.00  0.00     0.049 A 
ATOM     38  N   UNL A   1      41.616  29.364  33.118  1.00  0.00    -0.248 NA
ATOM     39  C   UNL A   1      42.590  27.513  32.080  1.00  0.00     0.031 C 
ATOM     40  C   UNL A   1      38.863  29.822  29.622  1.00  0.00     0.029 A 
ATOM     41  N   UNL A   1      39.451  30.652  31.615  1.00  0.00    -0.354 N 
ATOM     42  C   UNL A   1      42.632  28.867  33.926  1.00  0.00     0.074 A 
ATOM     43  C   UNL A   1      43.182  27.711  33.250  1.00  0.00     0.031 C 
ATOM     44  C   UNL A   1      38.079  30.888  29.866  1.00  0.00     0.029 A 
ATOM     45  C   UNL A   1      38.419  31.444  31.175  1.00  0.00     0.049 A 
ATOM     46  H   UNL A   1      39.917  30.801  32.470  1.00  0.00     0.167 HD
ATOM     47  C   UNL A   1      43.073  29.335  35.117  1.00  0.00     0.037 A 
ATOM     48  C   UNL A   1      37.810  32.491  31.766  1.00  0.00     0.037 A 
ATOM     49  C   UNL A   1      42.532  30.487  35.788  1.00  0.00     0.049 A 
ATOM     50  C   UNL A   1      38.286  32.963  33.115  1.00  0.00     0.074 A 
ATOM     51  C   UNL A   1      42.932  31.052  36.986  1.00  0.00     0.029 A 
ATOM     52  N   UNL A   1      41.470  31.246  35.322  1.00  0.00    -0.354 N 
ATOM     53  N   UNL A   1      39.269  32.501  33.851  1.00  0.00    -0.248 NA
ATOM     54  C   UNL A   1      37.571  34.099  33.714  1.00  0.00     0.031 C 
ATOM     55  C   UNL A   1      42.089  32.135  37.262  1.00  0.00     0.029 A 
ATOM     56  C   UNL A   1      41.187  32.263  36.219  1.00  0.00     0.049 A 
ATOM     57  H   UNL A   1      40.989  31.086  34.479  1.00  0.00     0.167 HD
ATOM     58  C   UNL A   1      39.304  33.303  34.986  1.00  0.00     0.074 A 
ATOM     59  C   UNL A   1      38.250  34.285  34.838  1.00  0.00     0.031 C 
ATOM     60  C   UNL A   1      40.138  33.236  36.054  1.00  0.00     0.037 A 
BRANCH  47  61
ATOM     61  C   UNL A   1      44.193  28.589  35.781  1.00  0.00     0.058 A 
ATOM     62  C   UNL A   1      43.945  27.547  36.687  1.00  0.00     0.135 A 
ATOM     63  C   UNL A   1      45.530  28.898  35.482  1.00  0.00     0.135 A 
ATOM     64  F   UNL A   1      42.685  27.226  37.019  1.00  0.00    -0.206 F 
ATOM     65  C   UNL A   1      44.985  26.845  37.288  1.00  0.00     0.059 A 
ATOM     66  C   UNL A   1      46.585  28.197  36.058  1.00  0.00     0.059 A 
ATOM     67  F   UNL A   1      45.819  29.890  34.626  1.00  0.00    -0.206 F 
ATOM     68  C   UNL A   1      46.303  27.180  36.969  1.00  0.00     0.060 A 
BRANCH  68  69
ATOM     69  S   UNL A   1      47.645  26.260  37.751  1.00  0.00     0.124 S 
ATOM     70  O   UNL A   1      48.682  26.335  36.727  1.00  0.00    -0.237 OA
ATOM     71  O   UNL A   1      47.894  27.035  38.963  1.00  0.00    -0.237 OA
ATOM     72  O   UNL A   1      47.068  24.937  37.966  1.00  0.00    -0.744 OA
ENDBRANCH  68  69
ENDBRANCH  47  61
BRANCH  48  73
ATOM     73  C   UNL A   1      36.672  33.167  31.091  1.00  0.00     0.058 A 
ATOM     74  C   UNL A   1      35.353  32.971  31.524  1.00  0.00     0.135 A 
ATOM     75  C   UNL A   1      36.883  34.014  29.993  1.00  0.00     0.135 A 
ATOM     76  F   UNL A   1      35.103  32.160  32.564  1.00  0.00    -0.206 F 
ATOM     77  C   UNL A   1      34.279  33.580  30.884  1.00  0.00     0.059 A 
ATOM     78  C   UNL A   1      35.829  34.650  29.349  1.00  0.00     0.059 A 
ATOM     79  F   UNL A   1      38.130  34.240  29.548  1.00  0.00    -0.206 F 
ATOM     80  C   UNL A   1      34.528  34.418  29.795  1.00  0.00     0.060 A 
BRANCH  80  81
ATOM     81  S   UNL A   1      33.135  35.246  28.995  1.00  0.00     0.124 S 
ATOM     82  O   UNL A   1      32.244  35.477  30.126  1.00  0.00    -0.237 OA
ATOM     83  O   UNL A   1      33.766  36.431  28.425  1.00  0.00    -0.237 OA
ATOM     84  O   UNL A   1      32.680  34.259  28.020  1.00  0.00    -0.744 OA
ENDBRANCH  80  81
ENDBRANCH  48  73
BRANCH  60  85
ATOM     85  C   UNL A   1      39.965  34.266  37.133  1.00  0.00     0.058 A 
ATOM     86  C   UNL A   1      40.477  35.565  36.996  1.00  0.00     0.135 A 
ATOM     87  C   UNL A   1      39.230  33.968  38.291  1.00  0.00     0.135 A 
ATOM     88  F   UNL A   1      41.191  35.898  35.909  1.00  0.00    -0.206 F 
ATOM     89  C   UNL A   1      40.283  36.529  37.980  1.00  0.00     0.059 A 
ATOM     90  C   UNL A   1      39.006  34.921  39.279  1.00  0.00     0.059 A 
ATOM     91  F   UNL A   1      38.711  32.742  38.464  1.00  0.00    -0.206 F 
ATOM     92  C   UNL A   1      39.546  36.197  39.119  1.00  0.00     0.060 A 
BRANCH  92  93
ATOM     93  S   UNL A   1      39.267  37.464  40.376  1.00  0.00     0.124 S 
ATOM     94  O   UNL A   1      38.515  38.462  39.624  1.00  0.00    -0.237 OA
ATOM     95  O   UNL A   1      38.516  36.738  41.396  1.00  0.00    -0.237 OA
ATOM     96  O   UNL A   1      40.620  37.855  40.765  1.00  0.00    -0.744 OA
ENDBRANCH  92  93
ENDBRANCH  60  85
ENDBRANCH  34  35
ENDBRANCH  27  29
ENDBRANCH  26  27
ENDBRANCH  25  26
ENDBRANCH   1  25
TORSDOF 19
ENDMDL
MODEL 2
REMARK VINA RESULT:     -10.9      1.472      2.270
REMARK SMILES CC(C)c1nc(N2C[C@H](C)OC(C)(C)C2)sc1C(=O)OCCOCCOC(=O)c1ccc(-c2c3nc(c(-c4c(F)cc(S(=O)(=O)[O-])cc4F)c4ccc([nH]4)c(-c4c(F)cc(S(=O)(=O)[O-])cc4F)c4nc(c(-c5c(F)cc(S(=O)(=O)[O-])cc5F)c5ccc2[nH]5)C=C4)C=C3)cc1
REMARK SMILES IDX 24 1 23 2 22 3 21 4 20 5 18 6 19 7 17 8 4 9 5 10 6 11 16 12
REMARK SMILES IDX 2 13 1 14 3 15 7 16 8 17 15 18 9 19 12 20 11 21 10 22 13 23
REMARK SMILES IDX 14 24 25 25 26 26 27 27 28 28 29 29 30 30 94 31 31 32 93 33
REMARK SMILES IDX 32 34 33 35 34 36 87 37 35 38 92 39 86 40 88 41 36 42 91 43
REMARK SMILES IDX 85 44 84 45 37 47 71 48 50 49 70 50 51 51 54 52 69 53 89 54
REMARK SMILES IDX 52 55 53 56 68 58 90 59 55 60 38 61 39 62 48 63 40 64 41 65
REMARK SMILES IDX 47 66 49 67 42 68 43 69 44 70 45 71 46 72 72 73 73 74 82 75
REMARK SMILES IDX 74 76 75 77 81 78 83 79 76 80 77 81 78 82 79 83 80 84 56 85
REMARK SMILES IDX 57 86 66 87 58 88 59 89 65 90 67 91 60 92 61 93 62 94 63 95
REMARK SMILES IDX 64 96
REMARK H PARENT 88 46 54 57
REMARK Flexibility Score: inf
ROOT
ATOM      1  C   UNL A   1      41.157  21.618  26.140  1.00  0.00     0.202 C 
ENDROOT
BRANCH   1   2
ATOM      2  O   UNL A   1      39.915  21.650  26.848  1.00  0.00    -0.374 OA
BRANCH   2   3
ATOM      3  C   UNL A   1      38.792  22.164  26.123  1.00  0.00     0.202 C 
BRANCH   3   4
ATOM      4  C   UNL A   1      38.038  21.081  25.354  1.00  0.00     0.261 C 
BRANCH   4   5
ATOM      5  O   UNL A   1      36.640  21.190  25.672  1.00  0.00    -0.459 OA
BRANCH   5   6
ATOM      6  C   UNL A   1      35.800  20.365  25.000  1.00  0.00     0.350 C 
ATOM      7  O   UNL A   1      35.988  19.161  24.854  1.00  0.00    -0.245 OA
BRANCH   6   8
ATOM      8  C   UNL A   1      34.613  21.082  24.602  1.00  0.00     0.137 A 
ATOM      9  C   UNL A   1      33.281  20.734  24.412  1.00  0.00     0.071 A 
ATOM     10  N   UNL A   1      32.472  21.817  24.054  1.00  0.00    -0.224 NA
ATOM     11  C   UNL A   1      33.168  22.910  23.874  1.00  0.00     0.186 A 
ATOM     12  S   UNL A   1      34.839  22.743  24.189  1.00  0.00    -0.089 S 
BRANCH   9  13
ATOM     13  C   UNL A   1      32.527  19.427  24.529  1.00  0.00     0.034 C 
ATOM     14  C   UNL A   1      32.651  18.607  23.241  1.00  0.00     0.014 C 
ATOM     15  C   UNL A   1      32.821  18.563  25.750  1.00  0.00     0.014 C 
ENDBRANCH   9  13
BRANCH  11  16
ATOM     16  N   UNL A   1      32.612  24.086  23.522  1.00  0.00    -0.343 N 
ATOM     17  C   UNL A   1      31.185  24.342  23.610  1.00  0.00     0.150 C 
ATOM     18  C   UNL A   1      33.413  25.086  22.831  1.00  0.00     0.153 C 
ATOM     19  C   UNL A   1      30.974  25.748  24.213  1.00  0.00     0.135 C 
ATOM     20  C   UNL A   1      33.111  26.504  23.376  1.00  0.00     0.081 C 
ATOM     21  O   UNL A   1      31.686  26.752  23.464  1.00  0.00    -0.369 OA
ATOM     22  C   UNL A   1      29.501  26.131  24.204  1.00  0.00     0.040 C 
ATOM     23  C   UNL A   1      33.790  26.733  24.733  1.00  0.00     0.044 C 
ATOM     24  C   UNL A   1      33.647  27.540  22.378  1.00  0.00     0.044 C 
ENDBRANCH  11  16
ENDBRANCH   6   8
ENDBRANCH   5   6
ENDBRANCH   4   5
ENDBRANCH   3   4
ENDBRANCH   2   3
ENDBRANCH   1   2
BRANCH   1  25
ATOM     25  C   UNL A   1      41.843  22.981  26.016  1.00  0.00     0.261 C 
BRANCH  25  26
ATOM     26  O   UNL A   1      40.975  24.041  26.454  1.00  0.00    -0.460 OA
BRANCH  26  27
ATOM     27  C   UNL A   1      41.409  25.294  26.169  1.00  0.00     0.338 C 
ATOM     28  O   UNL A   1      41.625  25.758  25.062  1.00  0.00    -0.246 OA
BRANCH  27  29
ATOM     29  C   UNL A   1      41.443  26.111  27.401  1.00  0.00     0.060 A 
ATOM     30  C   UNL A   1      40.440  25.886  28.352  1.00  0.00     0.016 A 
ATOM     31  C   UNL A   1      42.398  27.113  27.610  1.00  0.00     0.016 A 
ATOM     32  C   UNL A   1      40.355  26.691  29.486  1.00  0.00     0.010 A 
ATOM     33  C   UNL A   1      42.307  27.926  28.746  1.00  0.00     0.010 A 
ATOM     34  C   UNL A   1      41.265  27.740  29.671  1.00  0.00    -0.014 A 
BRANCH  34  35
ATOM     35  C   UNL A   1      41.034  28.719  30.761  1.00  0.00     0.031 A 
ATOM     36  C   UNL A   1      41.914  28.675  31.981  1.00  0.00     0.074 A 
ATOM     37  C   UNL A   1      40.079  29.660  30.650  1.00  0.00     0.049 A 
ATOM     38  N   UNL A   1      41.894  29.438  33.043  1.00  0.00    -0.248 NA
ATOM     39  C   UNL A   1      42.955  27.634  32.005  1.00  0.00     0.031 C 
ATOM     40  C   UNL A   1      39.181  29.823  29.507  1.00  0.00     0.029 A 
ATOM     41  N   UNL A   1      39.706  30.656  31.516  1.00  0.00    -0.354 N 
ATOM     42  C   UNL A   1      42.915  28.972  33.862  1.00  0.00     0.074 A 
ATOM     43  C   UNL A   1      43.520  27.844  33.185  1.00  0.00     0.031 C 
ATOM     44  C   UNL A   1      38.354  30.856  29.747  1.00  0.00     0.029 A 
ATOM     45  C   UNL A   1      38.651  31.413  31.066  1.00  0.00     0.049 A 
ATOM     46  H   UNL A   1      40.152  30.815  32.379  1.00  0.00     0.167 HD
ATOM     47  C   UNL A   1      43.320  29.446  35.064  1.00  0.00     0.037 A 
ATOM     48  C   UNL A   1      37.994  32.431  31.656  1.00  0.00     0.037 A 
ATOM     49  C   UNL A   1      42.725  30.570  35.736  1.00  0.00     0.049 A 
ATOM     50  C   UNL A   1      38.430  32.908  33.017  1.00  0.00     0.074 A 
ATOM     51  C   UNL A   1      43.084  31.138  36.945  1.00  0.00     0.029 A 
ATOM     52  N   UNL A   1      41.642  31.293  35.259  1.00  0.00    -0.354 N 
ATOM     53  N   UNL A   1      39.418  32.476  33.764  1.00  0.00    -0.248 NA
ATOM     54  C   UNL A   1      37.663  34.011  33.614  1.00  0.00     0.031 C 
ATOM     55  C   UNL A   1      42.197  32.186  37.217  1.00  0.00     0.029 A 
ATOM     56  C   UNL A   1      41.307  32.290  36.160  1.00  0.00     0.049 A 
ATOM     57  H   UNL A   1      41.181  31.122  34.407  1.00  0.00     0.167 HD
ATOM     58  C   UNL A   1      39.406  33.269  34.906  1.00  0.00     0.074 A 
ATOM     59  C   UNL A   1      38.317  34.211  34.750  1.00  0.00     0.031 C 
ATOM     60  C   UNL A   1      40.224  33.224  35.987  1.00  0.00     0.037 A 
BRANCH  47  61
ATOM     61  C   UNL A   1      44.457  28.737  35.740  1.00  0.00     0.058 A 
ATOM     62  C   UNL A   1      44.234  27.695  36.653  1.00  0.00     0.135 A 
ATOM     63  C   UNL A   1      45.786  29.080  35.445  1.00  0.00     0.135 A 
ATOM     64  F   UNL A   1      42.981  27.341  36.982  1.00  0.00    -0.206 F 
ATOM     65  C   UNL A   1      45.290  27.027  37.265  1.00  0.00     0.059 A 
ATOM     66  C   UNL A   1      46.858  28.414  36.032  1.00  0.00     0.059 A 
ATOM     67  F   UNL A   1      46.052  30.073  34.582  1.00  0.00    -0.206 F 
ATOM     68  C   UNL A   1      46.599  27.396  36.950  1.00  0.00     0.060 A 
BRANCH  68  69
ATOM     69  S   UNL A   1      47.962  26.521  37.745  1.00  0.00     0.124 S 
ATOM     70  O   UNL A   1      47.562  25.130  37.556  1.00  0.00    -0.237 OA
ATOM     71  O   UNL A   1      49.116  26.960  36.967  1.00  0.00    -0.237 OA
ATOM     72  O   UNL A   1      47.918  27.005  39.122  1.00  0.00    -0.744 OA
ENDBRANCH  68  69
ENDBRANCH  47  61
BRANCH  48  73
ATOM     73  C   UNL A   1      36.842  33.069  30.969  1.00  0.00     0.058 A 
ATOM     74  C   UNL A   1      37.037  33.958  29.903  1.00  0.00     0.135 A 
ATOM     75  C   UNL A   1      35.525  32.808  31.373  1.00  0.00     0.135 A 
ATOM     76  F   UNL A   1      38.281  34.247  29.489  1.00  0.00    -0.206 F 
ATOM     77  C   UNL A   1      35.967  34.579  29.268  1.00  0.00     0.059 A 
ATOM     78  C   UNL A   1      34.437  33.400  30.741  1.00  0.00     0.059 A 
ATOM     79  F   UNL A   1      35.287  31.955  32.383  1.00  0.00    -0.206 F 
ATOM     80  C   UNL A   1      34.669  34.293  29.696  1.00  0.00     0.060 A 
BRANCH  80  81
ATOM     81  S   UNL A   1      33.277  35.065  28.839  1.00  0.00     0.124 S 
ATOM     82  O   UNL A   1      33.937  36.163  28.142  1.00  0.00    -0.237 OA
ATOM     83  O   UNL A   1      32.789  33.976  28.000  1.00  0.00    -0.237 OA
ATOM     84  O   UNL A   1      32.388  35.449  29.932  1.00  0.00    -0.744 OA
ENDBRANCH  80  81
ENDBRANCH  48  73
BRANCH  60  85
ATOM     85  C   UNL A   1      39.995  34.237  37.072  1.00  0.00     0.058 A 
ATOM     86  C   UNL A   1      40.575  35.513  37.018  1.00  0.00     0.135 A 
ATOM     87  C   UNL A   1      39.141  33.947  38.147  1.00  0.00     0.135 A 
ATOM     88  F   UNL A   1      41.403  35.837  36.013  1.00  0.00    -0.206 F 
ATOM     89  C   UNL A   1      40.332  36.463  38.005  1.00  0.00     0.059 A 
ATOM     90  C   UNL A   1      38.866  34.888  39.135  1.00  0.00     0.059 A 
ATOM     91  F   UNL A   1      38.554  32.744  38.238  1.00  0.00    -0.206 F 
ATOM     92  C   UNL A   1      39.476  36.140  39.061  1.00  0.00     0.060 A 
BRANCH  92  93
ATOM     93  S   UNL A   1      39.135  37.391  40.318  1.00  0.00     0.124 S 
ATOM     94  O   UNL A   1      38.526  36.587  41.372  1.00  0.00    -0.237 OA
ATOM     95  O   UNL A   1      40.465  37.917  40.610  1.00  0.00    -0.237 OA
ATOM     96  O   UNL A   1      38.238  38.320  39.636  1.00  0.00    -0.744 OA
ENDBRANCH  92  93
ENDBRANCH  60  85
ENDBRANCH  34  35
ENDBRANCH  27  29
ENDBRANCH  26  27
ENDBRANCH  25  26
ENDBRANCH   1  25
TORSDOF 19
ENDMDL
MODEL 3
REMARK VINA RESULT:     -10.6      6.327      8.533
REMARK SMILES CC(C)c1nc(N2C[C@H](C)OC(C)(C)C2)sc1C(=O)OCCOCCOC(=O)c1ccc(-c2c3nc(c(-c4c(F)cc(S(=O)(=O)[O-])cc4F)c4ccc([nH]4)c(-c4c(F)cc(S(=O)(=O)[O-])cc4F)c4nc(c(-c5c(F)cc(S(=O)(=O)[O-])cc5F)c5ccc2[nH]5)C=C4)C=C3)cc1
REMARK SMILES IDX 24 1 23 2 22 3 21 4 20 5 18 6 19 7 17 8 4 9 5 10 6 11 16 12
REMARK SMILES IDX 2 13 1 14 3 15 7 16 8 17 15 18 9 19 12 20 11 21 10 22 13 23
REMARK SMILES IDX 14 24 25 25 26 26 27 27 28 28 29 29 30 30 94 31 31 32 93 33
REMARK SMILES IDX 32 34 33 35 34 36 87 37 35 38 92 39 86 40 88 41 36 42 91 43
REMARK SMILES IDX 85 44 84 45 37 47 71 48 50 49 70 50 51 51 54 52 69 53 89 54
REMARK SMILES IDX 52 55 53 56 68 58 90 59 55 60 38 61 39 62 48 63 40 64 41 65
REMARK SMILES IDX 47 66 49 67 42 68 43 69 44 70 45 71 46 72 72 73 73 74 82 75
REMARK SMILES IDX 74 76 75 77 81 78 83 79 76 80 77 81 78 82 79 83 80 84 56 85
REMARK SMILES IDX 57 86 66 87 58 88 59 89 65 90 67 91 60 92 61 93 62 94 63 95
REMARK SMILES IDX 64 96
REMARK H PARENT 88 46 54 57
REMARK Flexibility Score: inf
ROOT
ATOM      1  C   UNL A   1      39.599  21.412  26.008  1.00  0.00     0.202 C 
ENDROOT
BRANCH   1   2
ATOM      2  O   UNL A   1      39.695  22.443  26.994  1.00  0.00    -0.374 OA
BRANCH   2   3
ATOM      3  C   UNL A   1      38.762  23.521  26.870  1.00  0.00     0.202 C 
BRANCH   3   4
ATOM      4  C   UNL A   1      37.880  23.401  25.628  1.00  0.00     0.261 C 
BRANCH   4   5
ATOM      5  O   UNL A   1      36.510  23.589  26.025  1.00  0.00    -0.459 OA
BRANCH   5   6
ATOM      6  C   UNL A   1      35.627  22.644  25.617  1.00  0.00     0.350 C 
ATOM      7  O   UNL A   1      35.778  21.439  25.789  1.00  0.00    -0.245 OA
BRANCH   6   8
ATOM      8  C   UNL A   1      34.447  23.272  25.074  1.00  0.00     0.137 A 
ATOM      9  C   UNL A   1      33.329  22.817  24.385  1.00  0.00     0.071 A 
ATOM     10  N   UNL A   1      32.406  23.828  24.097  1.00  0.00    -0.224 NA
ATOM     11  C   UNL A   1      32.848  25.008  24.450  1.00  0.00     0.186 A 
ATOM     12  S   UNL A   1      34.373  24.992  25.220  1.00  0.00    -0.089 S 
BRANCH   9  13
ATOM     13  C   UNL A   1      32.900  21.449  23.899  1.00  0.00     0.034 C 
ATOM     14  C   UNL A   1      32.172  20.679  25.006  1.00  0.00     0.014 C 
ATOM     15  C   UNL A   1      32.113  21.391  22.595  1.00  0.00     0.014 C 
ENDBRANCH   9  13
BRANCH  11  16
ATOM     16  N   UNL A   1      32.139  26.141  24.273  1.00  0.00    -0.343 N 
ATOM     17  C   UNL A   1      30.897  26.185  23.521  1.00  0.00     0.150 C 
ATOM     18  C   UNL A   1      32.715  27.421  24.658  1.00  0.00     0.153 C 
ATOM     19  C   UNL A   1      29.881  27.047  24.300  1.00  0.00     0.135 C 
ATOM     20  C   UNL A   1      31.653  28.316  25.345  1.00  0.00     0.081 C 
ATOM     21  O   UNL A   1      30.416  28.354  24.592  1.00  0.00    -0.369 OA
ATOM     22  C   UNL A   1      28.603  27.246  23.498  1.00  0.00     0.040 C 
ATOM     23  C   UNL A   1      31.399  27.866  26.791  1.00  0.00     0.044 C 
ATOM     24  C   UNL A   1      32.166  29.763  25.364  1.00  0.00     0.044 C 
ENDBRANCH  11  16
ENDBRANCH   6   8
ENDBRANCH   5   6
ENDBRANCH   4   5
ENDBRANCH   3   4
ENDBRANCH   2   3
ENDBRANCH   1   2
BRANCH   1  25
ATOM     25  C   UNL A   1      40.132  20.052  26.468  1.00  0.00     0.261 C 
BRANCH  25  26
ATOM     26  O   UNL A   1      41.077  19.518  25.523  1.00  0.00    -0.460 OA
BRANCH  26  27
ATOM     27  C   UNL A   1      42.330  19.337  26.006  1.00  0.00     0.338 C 
ATOM     28  O   UNL A   1      42.919  18.275  26.132  1.00  0.00    -0.246 OA
BRANCH  27  29
ATOM     29  C   UNL A   1      42.984  20.645  26.226  1.00  0.00     0.060 A 
ATOM     30  C   UNL A   1      42.940  21.177  27.520  1.00  0.00     0.016 A 
ATOM     31  C   UNL A   1      43.584  21.367  25.188  1.00  0.00     0.016 A 
ATOM     32  C   UNL A   1      43.447  22.450  27.772  1.00  0.00     0.010 A 
ATOM     33  C   UNL A   1      44.087  22.649  25.442  1.00  0.00     0.010 A 
ATOM     34  C   UNL A   1      43.989  23.209  26.726  1.00  0.00    -0.014 A 
BRANCH  34  35
ATOM     35  C   UNL A   1      44.324  24.635  26.960  1.00  0.00     0.031 A 
ATOM     36  C   UNL A   1      45.746  25.091  26.778  1.00  0.00     0.074 A 
ATOM     37  C   UNL A   1      43.367  25.521  27.291  1.00  0.00     0.049 A 
ATOM     38  N   UNL A   1      46.256  26.287  26.920  1.00  0.00    -0.248 NA
ATOM     39  C   UNL A   1      46.722  24.062  26.383  1.00  0.00     0.031 C 
ATOM     40  C   UNL A   1      41.949  25.208  27.470  1.00  0.00     0.029 A 
ATOM     41  N   UNL A   1      43.448  26.868  27.538  1.00  0.00    -0.354 N 
ATOM     42  C   UNL A   1      47.610  26.157  26.633  1.00  0.00     0.074 A 
ATOM     43  C   UNL A   1      47.847  24.761  26.333  1.00  0.00     0.031 C 
ATOM     44  C   UNL A   1      41.294  26.333  27.806  1.00  0.00     0.029 A 
ATOM     45  C   UNL A   1      42.247  27.439  27.885  1.00  0.00     0.049 A 
ATOM     46  H   UNL A   1      44.288  27.378  27.473  1.00  0.00     0.167 HD
ATOM     47  C   UNL A   1      48.566  27.115  26.612  1.00  0.00     0.037 A 
ATOM     48  C   UNL A   1      41.954  28.706  28.238  1.00  0.00     0.037 A 
ATOM     49  C   UNL A   1      48.332  28.504  26.903  1.00  0.00     0.049 A 
ATOM     50  C   UNL A   1      43.046  29.744  28.256  1.00  0.00     0.074 A 
ATOM     51  C   UNL A   1      49.235  29.552  26.882  1.00  0.00     0.029 A 
ATOM     52  N   UNL A   1      47.107  29.038  27.276  1.00  0.00    -0.354 N 
ATOM     53  N   UNL A   1      44.315  29.612  27.951  1.00  0.00    -0.248 NA
ATOM     54  C   UNL A   1      42.665  31.104  28.663  1.00  0.00     0.031 C 
ATOM     55  C   UNL A   1      48.564  30.716  27.275  1.00  0.00     0.029 A 
ATOM     56  C   UNL A   1      47.235  30.397  27.507  1.00  0.00     0.049 A 
ATOM     57  H   UNL A   1      46.272  28.525  27.363  1.00  0.00     0.167 HD
ATOM     58  C   UNL A   1      44.878  30.874  28.108  1.00  0.00     0.074 A 
ATOM     59  C   UNL A   1      43.811  31.758  28.527  1.00  0.00     0.031 C 
ATOM     60  C   UNL A   1      46.162  31.266  27.918  1.00  0.00     0.037 A 
BRANCH  47  61
ATOM     61  C   UNL A   1      49.965  26.688  26.273  1.00  0.00     0.058 A 
ATOM     62  C   UNL A   1      50.445  26.727  24.956  1.00  0.00     0.135 A 
ATOM     63  C   UNL A   1      50.844  26.268  27.283  1.00  0.00     0.135 A 
ATOM     64  F   UNL A   1      49.637  27.105  23.952  1.00  0.00    -0.206 F 
ATOM     65  C   UNL A   1      51.748  26.347  24.647  1.00  0.00     0.059 A 
ATOM     66  C   UNL A   1      52.156  25.900  26.999  1.00  0.00     0.059 A 
ATOM     67  F   UNL A   1      50.430  26.208  28.558  1.00  0.00    -0.206 F 
ATOM     68  C   UNL A   1      52.595  25.932  25.676  1.00  0.00     0.060 A 
BRANCH  68  69
ATOM     69  S   UNL A   1      54.284  25.445  25.265  1.00  0.00     0.124 S 
ATOM     70  O   UNL A   1      54.992  25.790  26.494  1.00  0.00    -0.237 OA
ATOM     71  O   UNL A   1      54.144  24.018  24.994  1.00  0.00    -0.237 OA
ATOM     72  O   UNL A   1      54.602  26.271  24.105  1.00  0.00    -0.744 OA
ENDBRANCH  68  69
ENDBRANCH  47  61
BRANCH  48  73
ATOM     73  C   UNL A   1      40.564  29.070  28.613  1.00  0.00     0.058 A 
ATOM     74  C   UNL A   1      39.608  29.381  27.636  1.00  0.00     0.135 A 
ATOM     75  C   UNL A   1      40.169  29.122  29.958  1.00  0.00     0.135 A 
ATOM     76  F   UNL A   1      39.944  29.355  26.337  1.00  0.00    -0.206 F 
ATOM     77  C   UNL A   1      38.310  29.746  27.978  1.00  0.00     0.059 A 
ATOM     78  C   UNL A   1      38.872  29.464  30.325  1.00  0.00     0.059 A 
ATOM     79  F   UNL A   1      41.047  28.824  30.929  1.00  0.00    -0.206 F 
ATOM     80  C   UNL A   1      37.952  29.785  29.327  1.00  0.00     0.060 A 
BRANCH  80  81
ATOM     81  S   UNL A   1      36.253  30.213  29.767  1.00  0.00     0.124 S 
ATOM     82  O   UNL A   1      36.306  31.671  29.751  1.00  0.00    -0.237 OA
ATOM     83  O   UNL A   1      35.489  29.590  28.692  1.00  0.00    -0.237 OA
ATOM     84  O   UNL A   1      36.087  29.599  31.081  1.00  0.00    -0.744 OA
ENDBRANCH  80  81
ENDBRANCH  48  73
BRANCH  60  85
ATOM     85  C   UNL A   1      46.482  32.717  28.134  1.00  0.00     0.058 A 
ATOM     86  C   UNL A   1      46.288  33.669  27.122  1.00  0.00     0.135 A 
ATOM     87  C   UNL A   1      46.933  33.168  29.384  1.00  0.00     0.135 A 
ATOM     88  F   UNL A   1      45.863  33.287  25.908  1.00  0.00    -0.206 F 
ATOM     89  C   UNL A   1      46.550  35.019  27.336  1.00  0.00     0.059 A 
ATOM     90  C   UNL A   1      47.181  34.516  29.627  1.00  0.00     0.059 A 
ATOM     91  F   UNL A   1      47.124  32.298  30.388  1.00  0.00    -0.206 F 
ATOM     92  C   UNL A   1      46.997  35.432  28.592  1.00  0.00     0.060 A 
BRANCH  92  93
ATOM     93  S   UNL A   1      47.299  37.190  28.874  1.00  0.00     0.124 S 
ATOM     94  O   UNL A   1      46.276  37.802  28.032  1.00  0.00    -0.237 OA
ATOM     95  O   UNL A   1      47.096  37.320  30.314  1.00  0.00    -0.237 OA
ATOM     96  O   UNL A   1      48.676  37.372  28.424  1.00  0.00    -0.744 OA
ENDBRANCH  92  93
ENDBRANCH  60  85
ENDBRANCH  34  35
ENDBRANCH  27  29
ENDBRANCH  26  27
ENDBRANCH  25  26
ENDBRANCH   1  25
TORSDOF 19
ENDMDL
