MODEL 1
REMARK VINA RESULT:     -11.0      0.000      0.000
REMARK SMILES Cc1ccnc(C(=O)c2[nH]c3cc(F)ccc3c2CC(=O)OCCOCCOC(=O)c2ccc(-c3c4nc(c(-c5c(F)cc(S(=O)(=O)[O-])cc5F)c5ccc([nH]5)c(-c5c(F)cc(S(=O)(=O)[O-])cc5F)c5nc(c(-c6c(F)cc(S(=O)(=O)[O-])cc6F)c6ccc3[nH]6)C=C5)C=C4)cc2)c1
REMARK SMILES IDX 25 1 24 2 23 3 22 4 20 5 21 6 19 7 18 8 9 9 10 10 11 11
REMARK SMILES IDX 17 13 12 14 16 15 13 16 15 17 14 18 7 19 8 20 6 21 1 22 2 23
REMARK SMILES IDX 3 24 97 25 4 26 5 27 26 28 27 29 28 30 29 31 30 32 31 33
REMARK SMILES IDX 32 34 96 35 33 36 95 37 34 38 35 39 36 40 89 41 37 42 94 43
REMARK SMILES IDX 88 44 90 45 38 46 93 47 87 48 86 49 39 51 73 52 52 53 72 54
REMARK SMILES IDX 53 55 56 56 71 57 91 58 54 59 55 60 70 62 92 63 57 64 40 65
REMARK SMILES IDX 41 66 50 67 42 68 43 69 49 70 51 71 44 72 45 73 46 74 47 75
REMARK SMILES IDX 48 76 74 77 75 78 84 79 76 80 77 81 83 82 85 83 78 84 79 85
REMARK SMILES IDX 80 86 81 87 82 88 58 89 59 90 68 91 60 92 61 93 67 94 69 95
REMARK SMILES IDX 62 96 63 97 64 98 65 99 66 100
REMARK H PARENT 10 12 90 50 56 61
REMARK Flexibility Score: inf
ROOT
ATOM      1  O   UNL A   1      31.953  27.626  25.498  1.00  0.00    -0.374 OA
ENDROOT
BRANCH   1   2
ATOM      2  C   UNL A   1      30.836  27.122  24.767  1.00  0.00     0.202 C 
BRANCH   2   3
ATOM      3  C   UNL A   1      30.993  25.793  24.017  1.00  0.00     0.261 C 
BRANCH   3   4
ATOM      4  O   UNL A   1      31.297  24.672  24.877  1.00  0.00    -0.463 OA
BRANCH   4   5
ATOM      5  C   UNL A   1      32.534  24.130  24.705  1.00  0.00     0.310 C 
ATOM      6  O   UNL A   1      33.301  24.444  23.795  1.00  0.00    -0.252 OA
BRANCH   5   7
ATOM      7  C   UNL A   1      32.894  23.013  25.658  1.00  0.00     0.161 C 
BRANCH   7   8
ATOM      8  C   UNL A   1      34.125  22.183  25.397  1.00  0.00     0.000 A 
ATOM      9  C   UNL A   1      34.191  20.804  25.172  1.00  0.00     0.093 A 
ATOM     10  N   UNL A   1      35.523  20.500  24.977  1.00  0.00    -0.351 N 
ATOM     11  C   UNL A   1      36.318  21.556  25.353  1.00  0.00     0.049 A 
ATOM     12  H   UNL A   1      35.856  19.645  24.621  1.00  0.00     0.167 HD
ATOM     13  C   UNL A   1      35.473  22.640  25.585  1.00  0.00     0.004 A 
ATOM     14  C   UNL A   1      37.708  21.635  25.516  1.00  0.00     0.066 A 
ATOM     15  C   UNL A   1      36.041  23.866  25.995  1.00  0.00     0.013 A 
ATOM     16  C   UNL A   1      38.230  22.849  25.965  1.00  0.00     0.125 A 
ATOM     17  C   UNL A   1      37.423  23.952  26.199  1.00  0.00     0.040 A 
ATOM     18  F   UNL A   1      39.548  22.943  26.193  1.00  0.00    -0.207 F 
BRANCH   9  19
ATOM     19  C   UNL A   1      33.077  19.861  25.130  1.00  0.00     0.227 C 
ATOM     20  O   UNL A   1      31.912  20.226  25.286  1.00  0.00    -0.285 OA
BRANCH  19  21
ATOM     21  C   UNL A   1      33.303  18.392  24.964  1.00  0.00     0.113 A 
ATOM     22  C   UNL A   1      31.894  15.080  26.136  1.00  0.00     0.044 C 
ATOM     23  C   UNL A   1      32.689  16.115  25.397  1.00  0.00    -0.047 A 
ATOM     24  C   UNL A   1      33.442  15.748  24.278  1.00  0.00     0.023 A 
ATOM     25  C   UNL A   1      32.613  17.468  25.744  1.00  0.00     0.036 A 
ATOM     26  C   UNL A   1      34.117  16.734  23.577  1.00  0.00     0.112 A 
ATOM     27  N   UNL A   1      34.073  18.041  23.901  1.00  0.00    -0.253 NA
ENDBRANCH  19  21
ENDBRANCH   9  19
ENDBRANCH   7   8
ENDBRANCH   5   7
ENDBRANCH   4   5
ENDBRANCH   3   4
ENDBRANCH   2   3
ENDBRANCH   1   2
BRANCH   1  28
ATOM     28  C   UNL A   1      31.914  29.002  25.864  1.00  0.00     0.202 C 
BRANCH  28  29
ATOM     29  C   UNL A   1      33.246  29.684  26.206  1.00  0.00     0.261 C 
BRANCH  29  30
ATOM     30  O   UNL A   1      33.622  29.562  27.585  1.00  0.00    -0.460 OA
BRANCH  30  31
ATOM     31  C   UNL A   1      34.389  30.578  28.049  1.00  0.00     0.338 C 
ATOM     32  O   UNL A   1      34.021  31.690  28.403  1.00  0.00    -0.246 OA
BRANCH  31  33
ATOM     33  C   UNL A   1      35.768  30.103  28.234  1.00  0.00     0.060 A 
ATOM     34  C   UNL A   1      36.132  29.632  29.501  1.00  0.00     0.016 A 
ATOM     35  C   UNL A   1      36.697  30.146  27.192  1.00  0.00     0.016 A 
ATOM     36  C   UNL A   1      37.437  29.210  29.737  1.00  0.00     0.010 A 
ATOM     37  C   UNL A   1      38.010  29.736  27.435  1.00  0.00     0.010 A 
ATOM     38  C   UNL A   1      38.388  29.282  28.711  1.00  0.00    -0.014 A 
BRANCH  38  39
ATOM     39  C   UNL A   1      39.803  28.959  28.997  1.00  0.00     0.031 A 
ATOM     40  C   UNL A   1      40.682  30.010  29.612  1.00  0.00     0.074 A 
ATOM     41  C   UNL A   1      40.283  27.734  28.712  1.00  0.00     0.049 A 
ATOM     42  N   UNL A   1      41.956  29.959  29.898  1.00  0.00    -0.248 NA
ATOM     43  C   UNL A   1      40.040  31.292  29.950  1.00  0.00     0.031 C 
ATOM     44  C   UNL A   1      39.500  26.634  28.146  1.00  0.00     0.029 A 
ATOM     45  N   UNL A   1      41.543  27.212  28.851  1.00  0.00    -0.354 N 
ATOM     46  C   UNL A   1      42.274  31.199  30.436  1.00  0.00     0.074 A 
ATOM     47  C   UNL A   1      41.064  31.991  30.422  1.00  0.00     0.031 C 
ATOM     48  C   UNL A   1      40.302  25.570  27.975  1.00  0.00     0.029 A 
ATOM     49  C   UNL A   1      41.659  25.923  28.382  1.00  0.00     0.049 A 
ATOM     50  H   UNL A   1      42.293  27.710  29.248  1.00  0.00     0.167 HD
ATOM     51  C   UNL A   1      43.469  31.631  30.902  1.00  0.00     0.037 A 
ATOM     52  C   UNL A   1      42.747  25.136  28.270  1.00  0.00     0.037 A 
ATOM     53  C   UNL A   1      44.661  30.823  30.912  1.00  0.00     0.049 A 
ATOM     54  C   UNL A   1      44.079  25.670  28.729  1.00  0.00     0.074 A 
ATOM     55  C   UNL A   1      45.915  31.147  31.400  1.00  0.00     0.029 A 
ATOM     56  N   UNL A   1      44.751  29.537  30.398  1.00  0.00    -0.354 N 
ATOM     57  N   UNL A   1      44.358  26.828  29.282  1.00  0.00    -0.248 NA
ATOM     58  C   UNL A   1      45.246  24.796  28.546  1.00  0.00     0.031 C 
ATOM     59  C   UNL A   1      46.777  30.081  31.124  1.00  0.00     0.029 A 
ATOM     60  C   UNL A   1      46.049  29.069  30.518  1.00  0.00     0.049 A 
ATOM     61  H   UNL A   1      44.002  29.031  30.007  1.00  0.00     0.167 HD
ATOM     62  C   UNL A   1      45.726  26.812  29.530  1.00  0.00     0.074 A 
ATOM     63  C   UNL A   1      46.214  25.523  29.087  1.00  0.00     0.031 C 
ATOM     64  C   UNL A   1      46.510  27.778  30.070  1.00  0.00     0.037 A 
BRANCH  51  65
ATOM     65  C   UNL A   1      43.565  33.043  31.413  1.00  0.00     0.058 A 
ATOM     66  C   UNL A   1      43.504  33.343  32.782  1.00  0.00     0.135 A 
ATOM     67  C   UNL A   1      43.790  34.104  30.519  1.00  0.00     0.135 A 
ATOM     68  F   UNL A   1      43.271  32.372  33.678  1.00  0.00    -0.206 F 
ATOM     69  C   UNL A   1      43.656  34.646  33.248  1.00  0.00     0.059 A 
ATOM     70  C   UNL A   1      43.971  35.410  30.964  1.00  0.00     0.059 A 
ATOM     71  F   UNL A   1      43.849  33.873  29.198  1.00  0.00    -0.206 F 
ATOM     72  C   UNL A   1      43.897  35.671  32.331  1.00  0.00     0.060 A 
BRANCH  72  73
ATOM     73  S   UNL A   1      44.132  37.349  32.957  1.00  0.00     0.124 S 
ATOM     74  O   UNL A   1      42.942  37.523  33.784  1.00  0.00    -0.237 OA
ATOM     75  O   UNL A   1      45.394  37.237  33.678  1.00  0.00    -0.237 OA
ATOM     76  O   UNL A   1      44.175  38.162  31.746  1.00  0.00    -0.744 OA
ENDBRANCH  72  73
ENDBRANCH  51  65
BRANCH  52  77
ATOM     77  C   UNL A   1      42.634  23.776  27.674  1.00  0.00     0.058 A 
ATOM     78  C   UNL A   1      42.453  22.643  28.481  1.00  0.00     0.135 A 
ATOM     79  C   UNL A   1      42.728  23.578  26.287  1.00  0.00     0.135 A 
ATOM     80  F   UNL A   1      42.367  22.775  29.814  1.00  0.00    -0.206 F 
ATOM     81  C   UNL A   1      42.394  21.362  27.938  1.00  0.00     0.059 A 
ATOM     82  C   UNL A   1      42.641  22.311  25.718  1.00  0.00     0.059 A 
ATOM     83  F   UNL A   1      42.891  24.628  25.466  1.00  0.00    -0.206 F 
ATOM     84  C   UNL A   1      42.489  21.207  26.555  1.00  0.00     0.060 A 
BRANCH  84  85
ATOM     85  S   UNL A   1      42.388  19.543  25.859  1.00  0.00     0.124 S 
ATOM     86  O   UNL A   1      41.004  19.501  25.401  1.00  0.00    -0.237 OA
ATOM     87  O   UNL A   1      43.406  19.586  24.814  1.00  0.00    -0.237 OA
ATOM     88  O   UNL A   1      42.703  18.684  26.998  1.00  0.00    -0.744 OA
ENDBRANCH  84  85
ENDBRANCH  52  77
BRANCH  64  89
ATOM     89  C   UNL A   1      47.975  27.473  30.225  1.00  0.00     0.058 A 
ATOM     90  C   UNL A   1      48.920  27.914  29.286  1.00  0.00     0.135 A 
ATOM     91  C   UNL A   1      48.445  26.785  31.356  1.00  0.00     0.135 A 
ATOM     92  F   UNL A   1      48.522  28.568  28.183  1.00  0.00    -0.206 F 
ATOM     93  C   UNL A   1      50.278  27.668  29.453  1.00  0.00     0.059 A 
ATOM     94  C   UNL A   1      49.802  26.556  31.559  1.00  0.00     0.059 A 
ATOM     95  F   UNL A   1      47.583  26.350  32.290  1.00  0.00    -0.206 F 
ATOM     96  C   UNL A   1      50.710  26.993  30.597  1.00  0.00     0.060 A 
BRANCH  96  97
ATOM     97  S   UNL A   1      52.480  26.722  30.821  1.00  0.00     0.124 S 
ATOM     98  O   UNL A   1      52.877  26.258  29.496  1.00  0.00    -0.237 OA
ATOM     99  O   UNL A   1      52.953  28.050  31.195  1.00  0.00    -0.237 OA
ATOM    100  O   UNL A   1      52.540  25.720  31.881  1.00  0.00    -0.744 OA
ENDBRANCH  96  97
ENDBRANCH  64  89
ENDBRANCH  38  39
ENDBRANCH  31  33
ENDBRANCH  30  31
ENDBRANCH  29  30
ENDBRANCH  28  29
ENDBRANCH   1  28
TORSDOF 20
ENDMDL
MODEL 2
REMARK VINA RESULT:     -11.0      3.286      9.239
REMARK SMILES Cc1ccnc(C(=O)c2[nH]c3cc(F)ccc3c2CC(=O)OCCOCCOC(=O)c2ccc(-c3c4nc(c(-c5c(F)cc(S(=O)(=O)[O-])cc5F)c5ccc([nH]5)c(-c5c(F)cc(S(=O)(=O)[O-])cc5F)c5nc(c(-c6c(F)cc(S(=O)(=O)[O-])cc6F)c6ccc3[nH]6)C=C5)C=C4)cc2)c1
REMARK SMILES IDX 25 1 24 2 23 3 22 4 20 5 21 6 19 7 18 8 9 9 10 10 11 11
REMARK SMILES IDX 17 13 12 14 16 15 13 16 15 17 14 18 7 19 8 20 6 21 1 22 2 23
REMARK SMILES IDX 3 24 97 25 4 26 5 27 26 28 27 29 28 30 29 31 30 32 31 33
REMARK SMILES IDX 32 34 96 35 33 36 95 37 34 38 35 39 36 40 89 41 37 42 94 43
REMARK SMILES IDX 88 44 90 45 38 46 93 47 87 48 86 49 39 51 73 52 52 53 72 54
REMARK SMILES IDX 53 55 56 56 71 57 91 58 54 59 55 60 70 62 92 63 57 64 40 65
REMARK SMILES IDX 41 66 50 67 42 68 43 69 49 70 51 71 44 72 45 73 46 74 47 75
REMARK SMILES IDX 48 76 74 77 75 78 84 79 76 80 77 81 83 82 85 83 78 84 79 85
REMARK SMILES IDX 80 86 81 87 82 88 58 89 59 90 68 91 60 92 61 93 67 94 69 95
REMARK SMILES IDX 62 96 63 97 64 98 65 99 66 100
REMARK H PARENT 10 12 90 50 56 61
REMARK Flexibility Score: inf
ROOT
ATOM      1  O   UNL A   1      33.479  31.839  27.702  1.00  0.00    -0.374 OA
ENDROOT
BRANCH   1   2
ATOM      2  C   UNL A   1      33.020  30.569  27.243  1.00  0.00     0.202 C 
BRANCH   2   3
ATOM      3  C   UNL A   1      33.960  29.721  26.376  1.00  0.00     0.261 C 
BRANCH   3   4
ATOM      4  O   UNL A   1      34.173  28.385  26.884  1.00  0.00    -0.463 OA
BRANCH   4   5
ATOM      5  C   UNL A   1      33.548  27.396  26.188  1.00  0.00     0.310 C 
ATOM      6  O   UNL A   1      33.955  26.947  25.117  1.00  0.00    -0.252 OA
BRANCH   5   7
ATOM      7  C   UNL A   1      32.231  26.926  26.763  1.00  0.00     0.161 C 
BRANCH   7   8
ATOM      8  C   UNL A   1      31.071  26.661  25.838  1.00  0.00     0.000 A 
ATOM      9  C   UNL A   1      30.482  25.426  25.542  1.00  0.00     0.093 A 
ATOM     10  N   UNL A   1      29.456  25.682  24.655  1.00  0.00    -0.351 N 
ATOM     11  C   UNL A   1      29.555  26.961  24.159  1.00  0.00     0.049 A 
ATOM     12  H   UNL A   1      28.754  25.038  24.410  1.00  0.00     0.167 HD
ATOM     13  C   UNL A   1      30.532  27.613  24.908  1.00  0.00     0.004 A 
ATOM     14  C   UNL A   1      28.869  27.584  23.107  1.00  0.00     0.066 A 
ATOM     15  C   UNL A   1      30.839  28.956  24.597  1.00  0.00     0.013 A 
ATOM     16  C   UNL A   1      29.229  28.896  22.799  1.00  0.00     0.125 A 
ATOM     17  C   UNL A   1      30.192  29.581  23.526  1.00  0.00     0.040 A 
ATOM     18  F   UNL A   1      28.641  29.504  21.759  1.00  0.00    -0.207 F 
BRANCH   9  19
ATOM     19  C   UNL A   1      30.856  24.119  26.073  1.00  0.00     0.227 C 
ATOM     20  O   UNL A   1      30.471  23.732  27.176  1.00  0.00    -0.285 OA
BRANCH  19  21
ATOM     21  C   UNL A   1      31.785  23.211  25.330  1.00  0.00     0.113 A 
ATOM     22  C   UNL A   1      32.577  19.529  24.960  1.00  0.00     0.044 C 
ATOM     23  C   UNL A   1      32.553  21.014  24.755  1.00  0.00    -0.047 A 
ATOM     24  C   UNL A   1      33.161  21.573  23.628  1.00  0.00     0.023 A 
ATOM     25  C   UNL A   1      31.844  21.852  25.624  1.00  0.00     0.036 A 
ATOM     26  C   UNL A   1      33.071  22.941  23.431  1.00  0.00     0.112 A 
ATOM     27  N   UNL A   1      32.409  23.771  24.260  1.00  0.00    -0.253 NA
ENDBRANCH  19  21
ENDBRANCH   9  19
ENDBRANCH   7   8
ENDBRANCH   5   7
ENDBRANCH   4   5
ENDBRANCH   3   4
ENDBRANCH   2   3
ENDBRANCH   1   2
BRANCH   1  28
ATOM     28  C   UNL A   1      34.874  31.961  27.966  1.00  0.00     0.202 C 
BRANCH  28  29
ATOM     29  C   UNL A   1      35.378  31.509  29.344  1.00  0.00     0.261 C 
BRANCH  29  30
ATOM     30  O   UNL A   1      35.904  30.174  29.358  1.00  0.00    -0.460 OA
BRANCH  30  31
ATOM     31  C   UNL A   1      36.688  29.891  30.426  1.00  0.00     0.338 C 
ATOM     32  O   UNL A   1      36.332  29.656  31.573  1.00  0.00    -0.246 OA
BRANCH  31  33
ATOM     33  C   UNL A   1      38.082  29.740  29.982  1.00  0.00     0.060 A 
ATOM     34  C   UNL A   1      38.331  29.743  28.604  1.00  0.00     0.016 A 
ATOM     35  C   UNL A   1      39.122  29.568  30.897  1.00  0.00     0.016 A 
ATOM     36  C   UNL A   1      39.628  29.561  28.133  1.00  0.00     0.010 A 
ATOM     37  C   UNL A   1      40.420  29.371  30.422  1.00  0.00     0.010 A 
ATOM     38  C   UNL A   1      40.675  29.352  29.038  1.00  0.00    -0.014 A 
BRANCH  38  39
ATOM     39  C   UNL A   1      42.028  29.028  28.535  1.00  0.00     0.031 A 
ATOM     40  C   UNL A   1      42.325  27.625  28.090  1.00  0.00     0.074 A 
ATOM     41  C   UNL A   1      42.969  29.988  28.475  1.00  0.00     0.049 A 
ATOM     42  N   UNL A   1      43.450  27.113  27.666  1.00  0.00    -0.248 NA
ATOM     43  C   UNL A   1      41.206  26.669  28.131  1.00  0.00     0.031 C 
ATOM     44  C   UNL A   1      42.768  31.389  28.850  1.00  0.00     0.029 A 
ATOM     45  N   UNL A   1      44.282  29.931  28.084  1.00  0.00    -0.354 N 
ATOM     46  C   UNL A   1      43.181  25.776  27.400  1.00  0.00     0.074 A 
ATOM     47  C   UNL A   1      41.792  25.549  27.727  1.00  0.00     0.031 C 
ATOM     48  C   UNL A   1      43.922  32.057  28.683  1.00  0.00     0.029 A 
ATOM     49  C   UNL A   1      44.951  31.126  28.226  1.00  0.00     0.049 A 
ATOM     50  H   UNL A   1      44.707  29.115  27.736  1.00  0.00     0.167 HD
ATOM     51  C   UNL A   1      44.023  24.830  26.922  1.00  0.00     0.037 A 
ATOM     52  C   UNL A   1      46.251  31.420  28.035  1.00  0.00     0.037 A 
ATOM     53  C   UNL A   1      45.404  25.080  26.596  1.00  0.00     0.049 A 
ATOM     54  C   UNL A   1      47.181  30.328  27.572  1.00  0.00     0.074 A 
ATOM     55  C   UNL A   1      46.333  24.203  26.065  1.00  0.00     0.029 A 
ATOM     56  N   UNL A   1      46.055  26.290  26.785  1.00  0.00    -0.354 N 
ATOM     57  N   UNL A   1      46.905  29.079  27.277  1.00  0.00    -0.248 NA
ATOM     58  C   UNL A   1      48.600  30.680  27.422  1.00  0.00     0.031 C 
ATOM     59  C   UNL A   1      47.563  24.866  25.993  1.00  0.00     0.029 A 
ATOM     60  C   UNL A   1      47.387  26.172  26.421  1.00  0.00     0.049 A 
ATOM     61  H   UNL A   1      45.634  27.112  27.126  1.00  0.00     0.167 HD
ATOM     62  C   UNL A   1      48.109  28.504  26.887  1.00  0.00     0.074 A 
ATOM     63  C   UNL A   1      49.112  29.546  26.963  1.00  0.00     0.031 C 
ATOM     64  C   UNL A   1      48.366  27.228  26.505  1.00  0.00     0.037 A 
BRANCH  51  65
ATOM     65  C   UNL A   1      43.494  23.433  26.745  1.00  0.00     0.058 A 
ATOM     66  C   UNL A   1      43.272  22.877  25.476  1.00  0.00     0.135 A 
ATOM     67  C   UNL A   1      43.272  22.615  27.866  1.00  0.00     0.135 A 
ATOM     68  F   UNL A   1      43.449  23.619  24.372  1.00  0.00    -0.206 F 
ATOM     69  C   UNL A   1      42.842  21.562  25.323  1.00  0.00     0.059 A 
ATOM     70  C   UNL A   1      42.867  21.290  27.737  1.00  0.00     0.059 A 
ATOM     71  F   UNL A   1      43.461  23.099  29.104  1.00  0.00    -0.206 F 
ATOM     72  C   UNL A   1      42.650  20.774  26.460  1.00  0.00     0.060 A 
BRANCH  72  73
ATOM     73  S   UNL A   1      42.131  19.058  26.241  1.00  0.00     0.124 S 
ATOM     74  O   UNL A   1      42.387  18.503  27.566  1.00  0.00    -0.237 OA
ATOM     75  O   UNL A   1      40.726  19.203  25.876  1.00  0.00    -0.237 OA
ATOM     76  O   UNL A   1      43.005  18.569  25.179  1.00  0.00    -0.744 OA
ENDBRANCH  72  73
ENDBRANCH  51  65
BRANCH  52  77
ATOM     77  C   UNL A   1      46.762  32.792  28.307  1.00  0.00     0.058 A 
ATOM     78  C   UNL A   1      47.211  33.159  29.585  1.00  0.00     0.135 A 
ATOM     79  C   UNL A   1      46.790  33.772  27.302  1.00  0.00     0.135 A 
ATOM     80  F   UNL A   1      47.196  32.263  30.584  1.00  0.00    -0.206 F 
ATOM     81  C   UNL A   1      47.646  34.452  29.862  1.00  0.00     0.059 A 
ATOM     82  C   UNL A   1      47.248  35.063  27.547  1.00  0.00     0.059 A 
ATOM     83  F   UNL A   1      46.381  33.474  26.059  1.00  0.00    -0.206 F 
ATOM     84  C   UNL A   1      47.660  35.398  28.835  1.00  0.00     0.060 A 
BRANCH  84  85
ATOM     85  S   UNL A   1      48.248  37.066  29.200  1.00  0.00     0.124 S 
ATOM     86  O   UNL A   1      47.419  37.869  28.309  1.00  0.00    -0.237 OA
ATOM     87  O   UNL A   1      47.957  37.187  30.625  1.00  0.00    -0.237 OA
ATOM     88  O   UNL A   1      49.666  37.004  28.859  1.00  0.00    -0.744 OA
ENDBRANCH  84  85
ENDBRANCH  52  77
BRANCH  64  89
ATOM     89  C   UNL A   1      49.782  26.891  26.127  1.00  0.00     0.058 A 
ATOM     90  C   UNL A   1      50.668  26.308  27.046  1.00  0.00     0.135 A 
ATOM     91  C   UNL A   1      50.239  27.098  24.815  1.00  0.00     0.135 A 
ATOM     92  F   UNL A   1      50.284  26.097  28.315  1.00  0.00    -0.206 F 
ATOM     93  C   UNL A   1      51.963  25.957  26.684  1.00  0.00     0.059 A 
ATOM     94  C   UNL A   1      51.521  26.726  24.422  1.00  0.00     0.059 A 
ATOM     95  F   UNL A   1      49.429  27.643  23.894  1.00  0.00    -0.206 F 
ATOM     96  C   UNL A   1      52.379  26.165  25.366  1.00  0.00     0.060 A 
BRANCH  96  97
ATOM     97  S   UNL A   1      54.048  25.663  24.900  1.00  0.00     0.124 S 
ATOM     98  O   UNL A   1      54.113  26.105  23.511  1.00  0.00    -0.237 OA
ATOM     99  O   UNL A   1      54.873  26.413  25.842  1.00  0.00    -0.237 OA
ATOM    100  O   UNL A   1      54.038  24.217  25.099  1.00  0.00    -0.744 OA
ENDBRANCH  96  97
ENDBRANCH  64  89
ENDBRANCH  38  39
ENDBRANCH  31  33
ENDBRANCH  30  31
ENDBRANCH  29  30
ENDBRANCH  28  29
ENDBRANCH   1  28
TORSDOF 20
ENDMDL
MODEL 3
REMARK VINA RESULT:     -10.8      3.338      5.334
REMARK SMILES Cc1ccnc(C(=O)c2[nH]c3cc(F)ccc3c2CC(=O)OCCOCCOC(=O)c2ccc(-c3c4nc(c(-c5c(F)cc(S(=O)(=O)[O-])cc5F)c5ccc([nH]5)c(-c5c(F)cc(S(=O)(=O)[O-])cc5F)c5nc(c(-c6c(F)cc(S(=O)(=O)[O-])cc6F)c6ccc3[nH]6)C=C5)C=C4)cc2)c1
REMARK SMILES IDX 25 1 24 2 23 3 22 4 20 5 21 6 19 7 18 8 9 9 10 10 11 11
REMARK SMILES IDX 17 13 12 14 16 15 13 16 15 17 14 18 7 19 8 20 6 21 1 22 2 23
REMARK SMILES IDX 3 24 97 25 4 26 5 27 26 28 27 29 28 30 29 31 30 32 31 33
REMARK SMILES IDX 32 34 96 35 33 36 95 37 34 38 35 39 36 40 89 41 37 42 94 43
REMARK SMILES IDX 88 44 90 45 38 46 93 47 87 48 86 49 39 51 73 52 52 53 72 54
REMARK SMILES IDX 53 55 56 56 71 57 91 58 54 59 55 60 70 62 92 63 57 64 40 65
REMARK SMILES IDX 41 66 50 67 42 68 43 69 49 70 51 71 44 72 45 73 46 74 47 75
REMARK SMILES IDX 48 76 74 77 75 78 84 79 76 80 77 81 83 82 85 83 78 84 79 85
REMARK SMILES IDX 80 86 81 87 82 88 58 89 59 90 68 91 60 92 61 93 67 94 69 95
REMARK SMILES IDX 62 96 63 97 64 98 65 99 66 100
REMARK H PARENT 10 12 90 50 56 61
REMARK Flexibility Score: inf
ROOT
ATOM      1  O   UNL A   1      33.107  32.507  27.197  1.00  0.00    -0.374 OA
ENDROOT
BRANCH   1   2
ATOM      2  C   UNL A   1      32.186  31.420  27.127  1.00  0.00     0.202 C 
BRANCH   2   3
ATOM      3  C   UNL A   1      32.717  30.036  26.734  1.00  0.00     0.261 C 
BRANCH   3   4
ATOM      4  O   UNL A   1      32.052  28.944  27.408  1.00  0.00    -0.463 OA
BRANCH   4   5
ATOM      5  C   UNL A   1      32.244  27.717  26.850  1.00  0.00     0.310 C 
ATOM      6  O   UNL A   1      31.456  26.779  26.965  1.00  0.00    -0.252 OA
BRANCH   5   7
ATOM      7  C   UNL A   1      33.567  27.524  26.142  1.00  0.00     0.161 C 
BRANCH   7   8
ATOM      8  C   UNL A   1      33.638  26.617  24.940  1.00  0.00     0.000 A 
ATOM      9  C   UNL A   1      33.117  26.854  23.662  1.00  0.00     0.093 A 
ATOM     10  N   UNL A   1      33.431  25.749  22.898  1.00  0.00    -0.351 N 
ATOM     11  C   UNL A   1      33.864  24.717  23.697  1.00  0.00     0.049 A 
ATOM     12  H   UNL A   1      33.355  25.705  21.918  1.00  0.00     0.167 HD
ATOM     13  C   UNL A   1      34.040  25.240  24.977  1.00  0.00     0.004 A 
ATOM     14  C   UNL A   1      34.099  23.369  23.394  1.00  0.00     0.066 A 
ATOM     15  C   UNL A   1      34.479  24.378  26.006  1.00  0.00     0.013 A 
ATOM     16  C   UNL A   1      34.488  22.537  24.444  1.00  0.00     0.125 A 
ATOM     17  C   UNL A   1      34.682  23.021  25.729  1.00  0.00     0.040 A 
ATOM     18  F   UNL A   1      34.662  21.229  24.206  1.00  0.00    -0.207 F 
BRANCH   9  19
ATOM     19  C   UNL A   1      32.396  28.039  23.207  1.00  0.00     0.227 C 
ATOM     20  O   UNL A   1      32.980  29.005  22.717  1.00  0.00    -0.285 OA
BRANCH  19  21
ATOM     21  C   UNL A   1      30.916  28.166  23.378  1.00  0.00     0.113 A 
ATOM     22  C   UNL A   1      28.086  30.544  22.563  1.00  0.00     0.044 C 
ATOM     23  C   UNL A   1      28.856  29.336  23.007  1.00  0.00    -0.047 A 
ATOM     24  C   UNL A   1      28.183  28.145  23.294  1.00  0.00     0.023 A 
ATOM     25  C   UNL A   1      30.255  29.345  23.045  1.00  0.00     0.036 A 
ATOM     26  C   UNL A   1      28.924  27.028  23.643  1.00  0.00     0.112 A 
ATOM     27  N   UNL A   1      30.269  27.016  23.702  1.00  0.00    -0.253 NA
ENDBRANCH  19  21
ENDBRANCH   9  19
ENDBRANCH   7   8
ENDBRANCH   5   7
ENDBRANCH   4   5
ENDBRANCH   3   4
ENDBRANCH   2   3
ENDBRANCH   1   2
BRANCH   1  28
ATOM     28  C   UNL A   1      33.982  32.538  28.321  1.00  0.00     0.202 C 
BRANCH  28  29
ATOM     29  C   UNL A   1      35.462  32.209  28.078  1.00  0.00     0.261 C 
BRANCH  29  30
ATOM     30  O   UNL A   1      36.094  31.538  29.178  1.00  0.00    -0.460 OA
BRANCH  30  31
ATOM     31  C   UNL A   1      36.282  30.210  28.991  1.00  0.00     0.338 C 
ATOM     32  O   UNL A   1      35.427  29.348  28.843  1.00  0.00    -0.246 OA
BRANCH  31  33
ATOM     33  C   UNL A   1      37.718  29.940  28.823  1.00  0.00     0.060 A 
ATOM     34  C   UNL A   1      38.181  29.652  27.534  1.00  0.00     0.016 A 
ATOM     35  C   UNL A   1      38.590  29.939  29.915  1.00  0.00     0.016 A 
ATOM     36  C   UNL A   1      39.524  29.349  27.330  1.00  0.00     0.010 A 
ATOM     37  C   UNL A   1      39.934  29.620  29.710  1.00  0.00     0.010 A 
ATOM     38  C   UNL A   1      40.403  29.309  28.420  1.00  0.00    -0.014 A 
BRANCH  38  39
ATOM     39  C   UNL A   1      41.798  28.859  28.223  1.00  0.00     0.031 A 
ATOM     40  C   UNL A   1      42.906  29.873  28.276  1.00  0.00     0.074 A 
ATOM     41  C   UNL A   1      42.059  27.557  28.008  1.00  0.00     0.049 A 
ATOM     42  N   UNL A   1      44.187  29.707  28.080  1.00  0.00    -0.248 NA
ATOM     43  C   UNL A   1      42.518  31.258  28.588  1.00  0.00     0.031 C 
ATOM     44  C   UNL A   1      41.056  26.492  27.974  1.00  0.00     0.029 A 
ATOM     45  N   UNL A   1      43.244  26.910  27.768  1.00  0.00    -0.354 N 
ATOM     46  C   UNL A   1      44.759  30.963  28.233  1.00  0.00     0.074 A 
ATOM     47  C   UNL A   1      43.684  31.887  28.520  1.00  0.00     0.031 C 
ATOM     48  C   UNL A   1      41.668  25.323  27.716  1.00  0.00     0.029 A 
ATOM     49  C   UNL A   1      43.096  25.563  27.528  1.00  0.00     0.049 A 
ATOM     50  H   UNL A   1      44.117  27.364  27.767  1.00  0.00     0.167 HD
ATOM     51  C   UNL A   1      46.065  31.308  28.145  1.00  0.00     0.037 A 
ATOM     52  C   UNL A   1      44.010  24.640  27.170  1.00  0.00     0.037 A 
ATOM     53  C   UNL A   1      47.121  30.369  27.864  1.00  0.00     0.049 A 
ATOM     54  C   UNL A   1      45.446  25.067  27.007  1.00  0.00     0.074 A 
ATOM     55  C   UNL A   1      48.483  30.604  27.794  1.00  0.00     0.029 A 
ATOM     56  N   UNL A   1      46.932  29.022  27.593  1.00  0.00    -0.354 N 
ATOM     57  N   UNL A   1      45.983  26.250  27.203  1.00  0.00    -0.248 NA
ATOM     58  C   UNL A   1      46.401  24.039  26.570  1.00  0.00     0.031 C 
ATOM     59  C   UNL A   1      49.110  29.412  27.418  1.00  0.00     0.029 A 
ATOM     60  C   UNL A   1      48.147  28.421  27.312  1.00  0.00     0.049 A 
ATOM     61  H   UNL A   1      46.062  28.561  27.599  1.00  0.00     0.167 HD
ATOM     62  C   UNL A   1      47.338  26.102  26.932  1.00  0.00     0.074 A 
ATOM     63  C   UNL A   1      47.544  24.712  26.581  1.00  0.00     0.031 C 
ATOM     64  C   UNL A   1      48.325  27.032  26.966  1.00  0.00     0.037 A 
BRANCH  51  65
ATOM     65  C   UNL A   1      46.432  32.756  28.323  1.00  0.00     0.058 A 
ATOM     66  C   UNL A   1      46.825  33.275  29.566  1.00  0.00     0.135 A 
ATOM     67  C   UNL A   1      46.454  33.621  27.216  1.00  0.00     0.135 A 
ATOM     68  F   UNL A   1      46.804  32.499  30.661  1.00  0.00    -0.206 F 
ATOM     69  C   UNL A   1      47.223  34.601  29.707  1.00  0.00     0.059 A 
ATOM     70  C   UNL A   1      46.872  34.943  27.328  1.00  0.00     0.059 A 
ATOM     71  F   UNL A   1      46.080  33.178  26.006  1.00  0.00    -0.206 F 
ATOM     72  C   UNL A   1      47.250  35.426  28.580  1.00  0.00     0.060 A 
BRANCH  72  73
ATOM     73  S   UNL A   1      47.806  37.133  28.774  1.00  0.00     0.124 S 
ATOM     74  O   UNL A   1      49.215  36.946  29.104  1.00  0.00    -0.237 OA
ATOM     75  O   UNL A   1      47.534  37.699  27.458  1.00  0.00    -0.237 OA
ATOM     76  O   UNL A   1      46.972  37.643  29.858  1.00  0.00    -0.744 OA
ENDBRANCH  72  73
ENDBRANCH  51  65
BRANCH  52  77
ATOM     77  C   UNL A   1      43.598  23.233  26.911  1.00  0.00     0.058 A 
ATOM     78  C   UNL A   1      43.560  22.716  25.607  1.00  0.00     0.135 A 
ATOM     79  C   UNL A   1      43.213  22.382  27.959  1.00  0.00     0.135 A 
ATOM     80  F   UNL A   1      43.908  23.491  24.568  1.00  0.00    -0.206 F 
ATOM     81  C   UNL A   1      43.132  21.417  25.349  1.00  0.00     0.059 A 
ATOM     82  C   UNL A   1      42.810  21.069  27.729  1.00  0.00     0.059 A 
ATOM     83  F   UNL A   1      43.239  22.820  29.228  1.00  0.00    -0.206 F 
ATOM     84  C   UNL A   1      42.758  20.601  26.418  1.00  0.00     0.060 A 
BRANCH  84  85
ATOM     85  S   UNL A   1      42.226  18.910  26.074  1.00  0.00     0.124 S 
ATOM     86  O   UNL A   1      43.105  18.546  24.968  1.00  0.00    -0.237 OA
ATOM     87  O   UNL A   1      42.488  18.242  27.345  1.00  0.00    -0.237 OA
ATOM     88  O   UNL A   1      40.814  19.065  25.734  1.00  0.00    -0.744 OA
ENDBRANCH  84  85
ENDBRANCH  52  77
BRANCH  64  89
ATOM     89  C   UNL A   1      49.718  26.575  26.628  1.00  0.00     0.058 A 
ATOM     90  C   UNL A   1      50.537  25.951  27.581  1.00  0.00     0.135 A 
ATOM     91  C   UNL A   1      50.215  26.707  25.321  1.00  0.00     0.135 A 
ATOM     92  F   UNL A   1      50.113  25.808  28.847  1.00  0.00    -0.206 F 
ATOM     93  C   UNL A   1      51.808  25.490  27.257  1.00  0.00     0.059 A 
ATOM     94  C   UNL A   1      51.471  26.225  24.966  1.00  0.00     0.059 A 
ATOM     95  F   UNL A   1      49.468  27.287  24.367  1.00  0.00    -0.206 F 
ATOM     96  C   UNL A   1      52.263  25.626  25.943  1.00  0.00     0.060 A 
BRANCH  96  97
ATOM     97  S   UNL A   1      53.897  24.982  25.527  1.00  0.00     0.124 S 
ATOM     98  O   UNL A   1      54.223  25.753  24.332  1.00  0.00    -0.237 OA
ATOM     99  O   UNL A   1      54.672  25.306  26.720  1.00  0.00    -0.237 OA
ATOM    100  O   UNL A   1      53.657  23.559  25.310  1.00  0.00    -0.744 OA
ENDBRANCH  96  97
ENDBRANCH  64  89
ENDBRANCH  38  39
ENDBRANCH  31  33
ENDBRANCH  30  31
ENDBRANCH  29  30
ENDBRANCH  28  29
ENDBRANCH   1  28
TORSDOF 20
ENDMDL
