MODEL 1
REMARK VINA RESULT:      -9.7      0.000      0.000
REMARK SMILES C[N@H+](CC(C)(C)C(=O)OCCOCCOC(=O)c1ccc(-c2c3nc(c(-c4c(F)cc(S(=O)(=O)[O-])cc4F)c4ccc([nH]4)c(-c4c(F)cc(S(=O)(=O)[O-])cc4F)c4nc(c(-c5c(F)cc(S(=O)(=O)[O-])cc5F)c5ccc2[nH]5)C=C4)C=C3)cc1)[C@@H]1CCCC[C@@H]1C[NH3+]
REMARK SMILES IDX 11 1 10 2 9 3 7 4 8 5 4 6 5 7 6 8 3 9 2 10 1 11 84 13 85 14
REMARK SMILES IDX 89 15 86 16 88 17 87 18 90 19 91 20 12 24 13 25 14 26 15 27
REMARK SMILES IDX 16 28 17 29 18 30 19 31 83 32 20 33 82 34 21 35 22 36 23 37
REMARK SMILES IDX 76 38 24 39 81 40 75 41 77 42 25 43 80 44 74 45 73 46 26 48
REMARK SMILES IDX 60 49 39 50 59 51 40 52 43 53 58 54 78 55 41 56 42 57 57 59
REMARK SMILES IDX 79 60 44 61 27 62 28 63 37 64 29 65 30 66 36 67 38 68 31 69
REMARK SMILES IDX 32 70 33 71 34 72 35 73 61 74 62 75 71 76 63 77 64 78 70 79
REMARK SMILES IDX 72 80 65 81 66 82 67 83 68 84 69 85 45 86 46 87 55 88 47 89
REMARK SMILES IDX 48 90 54 91 56 92 49 93 50 94 51 95 52 96 53 97
REMARK H PARENT 2 12 91 21 91 22 91 23 77 47 43 58
REMARK Flexibility Score: inf
ROOT
ATOM      1  C   UNL A   1      40.039  22.001  26.780  1.00  0.00     0.202 C 
ENDROOT
BRANCH   1   2
ATOM      2  C   UNL A   1      38.905  21.672  25.788  1.00  0.00     0.261 C 
BRANCH   2   3
ATOM      3  O   UNL A   1      37.574  22.070  26.146  1.00  0.00    -0.463 OA
BRANCH   3   4
ATOM      4  C   UNL A   1      36.652  21.615  25.247  1.00  0.00     0.317 C 
ATOM      5  O   UNL A   1      36.552  20.422  24.986  1.00  0.00    -0.251 OA
BRANCH   4   6
ATOM      6  C   UNL A   1      35.725  22.722  24.724  1.00  0.00     0.111 C 
ATOM      7  C   UNL A   1      35.975  22.961  23.222  1.00  0.00     0.029 C 
ATOM      8  C   UNL A   1      36.077  24.048  25.434  1.00  0.00     0.029 C 
BRANCH   6   9
ATOM      9  C   UNL A   1      34.214  22.382  25.023  1.00  0.00     0.280 C 
BRANCH   9  10
ATOM     10  N   UNL A   1      33.185  22.990  24.169  1.00  0.00    -0.334 N 
ATOM     11  C   UNL A   1      32.407  22.039  23.385  1.00  0.00     0.333 C 
ATOM     12  H   UNL A   1      33.771  23.447  23.470  1.00  0.00     0.348 HD
BRANCH  10  13
ATOM     13  C   UNL A   1      32.551  24.248  24.571  1.00  0.00     0.192 C 
ATOM     14  C   UNL A   1      31.017  24.299  24.354  1.00  0.00     0.065 C 
ATOM     15  C   UNL A   1      33.204  25.455  23.840  1.00  0.00     0.102 C 
ATOM     16  C   UNL A   1      30.405  25.629  24.793  1.00  0.00     0.006 C 
ATOM     17  C   UNL A   1      32.614  26.771  24.370  1.00  0.00     0.015 C 
ATOM     18  C   UNL A   1      31.103  26.845  24.196  1.00  0.00     0.001 C 
BRANCH  15  19
ATOM     19  C   UNL A   1      33.096  25.344  22.297  1.00  0.00     0.268 C 
BRANCH  19  20
ATOM     20  N   UNL A   1      33.202  26.644  21.636  1.00  0.00    -0.357 N 
ATOM     21  H   UNL A   1      33.515  27.343  22.309  1.00  0.00     0.344 HD
ATOM     22  H   UNL A   1      32.290  26.912  21.265  1.00  0.00     0.344 HD
ATOM     23  H   UNL A   1      33.874  26.582  20.872  1.00  0.00     0.344 HD
ENDBRANCH  19  20
ENDBRANCH  15  19
ENDBRANCH  10  13
ENDBRANCH   9  10
ENDBRANCH   6   9
ENDBRANCH   4   6
ENDBRANCH   3   4
ENDBRANCH   2   3
ENDBRANCH   1   2
BRANCH   1  24
ATOM     24  O   UNL A   1      41.295  21.338  26.744  1.00  0.00    -0.374 OA
BRANCH  24  25
ATOM     25  C   UNL A   1      42.336  21.825  25.907  1.00  0.00     0.202 C 
BRANCH  25  26
ATOM     26  C   UNL A   1      43.491  22.627  26.508  1.00  0.00     0.261 C 
BRANCH  26  27
ATOM     27  O   UNL A   1      43.059  23.705  27.350  1.00  0.00    -0.460 OA
BRANCH  27  28
ATOM     28  C   UNL A   1      43.035  24.906  26.726  1.00  0.00     0.338 C 
ATOM     29  O   UNL A   1      43.402  25.151  25.582  1.00  0.00    -0.246 OA
BRANCH  28  30
ATOM     30  C   UNL A   1      42.303  25.897  27.530  1.00  0.00     0.060 A 
ATOM     31  C   UNL A   1      42.933  27.130  27.739  1.00  0.00     0.016 A 
ATOM     32  C   UNL A   1      41.096  25.591  28.162  1.00  0.00     0.016 A 
ATOM     33  C   UNL A   1      42.395  28.037  28.641  1.00  0.00     0.010 A 
ATOM     34  C   UNL A   1      40.566  26.500  29.085  1.00  0.00     0.010 A 
ATOM     35  C   UNL A   1      41.244  27.699  29.363  1.00  0.00    -0.014 A 
BRANCH  35  36
ATOM     36  C   UNL A   1      40.903  28.536  30.535  1.00  0.00     0.031 A 
ATOM     37  C   UNL A   1      41.745  28.418  31.776  1.00  0.00     0.074 A 
ATOM     38  C   UNL A   1      39.936  29.466  30.449  1.00  0.00     0.049 A 
ATOM     39  N   UNL A   1      41.724  29.141  32.864  1.00  0.00    -0.248 NA
ATOM     40  C   UNL A   1      42.753  27.343  31.788  1.00  0.00     0.031 C 
ATOM     41  C   UNL A   1      39.079  29.684  29.284  1.00  0.00     0.029 A 
ATOM     42  N   UNL A   1      39.530  30.413  31.351  1.00  0.00    -0.354 N 
ATOM     43  C   UNL A   1      42.716  28.618  33.685  1.00  0.00     0.074 A 
ATOM     44  C   UNL A   1      43.298  27.494  32.986  1.00  0.00     0.031 C 
ATOM     45  C   UNL A   1      38.248  30.708  29.543  1.00  0.00     0.029 A 
ATOM     46  C   UNL A   1      38.511  31.209  30.891  1.00  0.00     0.049 A 
ATOM     47  H   UNL A   1      39.930  30.513  32.245  1.00  0.00     0.167 HD
ATOM     48  C   UNL A   1      43.114  29.046  34.908  1.00  0.00     0.037 A 
ATOM     49  C   UNL A   1      37.867  32.229  31.490  1.00  0.00     0.037 A 
ATOM     50  C   UNL A   1      42.527  30.163  35.598  1.00  0.00     0.049 A 
ATOM     51  C   UNL A   1      38.313  32.674  32.858  1.00  0.00     0.074 A 
ATOM     52  C   UNL A   1      42.862  30.687  36.835  1.00  0.00     0.029 A 
ATOM     53  N   UNL A   1      41.476  30.928  35.112  1.00  0.00    -0.354 N 
ATOM     54  N   UNL A   1      39.275  32.191  33.610  1.00  0.00    -0.248 NA
ATOM     55  C   UNL A   1      37.600  33.813  33.449  1.00  0.00     0.031 C 
ATOM     56  C   UNL A   1      41.987  31.743  37.114  1.00  0.00     0.029 A 
ATOM     57  C   UNL A   1      41.137  31.907  36.031  1.00  0.00     0.049 A 
ATOM     58  H   UNL A   1      41.037  30.794  34.242  1.00  0.00     0.167 HD
ATOM     59  C   UNL A   1      39.294  32.980  34.755  1.00  0.00     0.074 A 
ATOM     60  C   UNL A   1      38.260  33.981  34.587  1.00  0.00     0.031 C 
ATOM     61  C   UNL A   1      40.097  32.889  35.846  1.00  0.00     0.037 A 
BRANCH  48  62
ATOM     62  C   UNL A   1      44.218  28.279  35.581  1.00  0.00     0.058 A 
ATOM     63  C   UNL A   1      45.569  28.617  35.406  1.00  0.00     0.135 A 
ATOM     64  C   UNL A   1      43.918  27.196  36.424  1.00  0.00     0.135 A 
ATOM     65  F   UNL A   1      45.912  29.630  34.594  1.00  0.00    -0.206 F 
ATOM     66  C   UNL A   1      46.586  27.892  36.020  1.00  0.00     0.059 A 
ATOM     67  C   UNL A   1      44.918  26.471  37.066  1.00  0.00     0.059 A 
ATOM     68  F   UNL A   1      42.643  26.827  36.622  1.00  0.00    -0.206 F 
ATOM     69  C   UNL A   1      46.250  26.818  36.846  1.00  0.00     0.060 A 
BRANCH  69  70
ATOM     70  S   UNL A   1      47.578  25.882  37.635  1.00  0.00     0.124 S 
ATOM     71  O   UNL A   1      48.756  26.629  37.203  1.00  0.00    -0.237 OA
ATOM     72  O   UNL A   1      47.242  25.992  39.051  1.00  0.00    -0.237 OA
ATOM     73  O   UNL A   1      47.438  24.547  37.062  1.00  0.00    -0.744 OA
ENDBRANCH  69  70
ENDBRANCH  48  62
BRANCH  49  74
ATOM     74  C   UNL A   1      36.745  32.904  30.789  1.00  0.00     0.058 A 
ATOM     75  C   UNL A   1      35.410  32.672  31.152  1.00  0.00     0.135 A 
ATOM     76  C   UNL A   1      36.993  33.821  29.755  1.00  0.00     0.135 A 
ATOM     77  F   UNL A   1      35.123  31.799  32.129  1.00  0.00    -0.206 F 
ATOM     78  C   UNL A   1      34.359  33.320  30.511  1.00  0.00     0.059 A 
ATOM     79  C   UNL A   1      35.961  34.497  29.115  1.00  0.00     0.059 A 
ATOM     80  F   UNL A   1      38.254  34.086  29.381  1.00  0.00    -0.206 F 
ATOM     81  C   UNL A   1      34.645  34.235  29.495  1.00  0.00     0.060 A 
BRANCH  81  82
ATOM     82  S   UNL A   1      33.281  35.126  28.717  1.00  0.00     0.124 S 
ATOM     83  O   UNL A   1      32.680  34.085  27.894  1.00  0.00    -0.237 OA
ATOM     84  O   UNL A   1      32.499  35.561  29.870  1.00  0.00    -0.237 OA
ATOM     85  O   UNL A   1      33.955  36.199  27.990  1.00  0.00    -0.744 OA
ENDBRANCH  81  82
ENDBRANCH  49  74
BRANCH  61  86
ATOM     86  C   UNL A   1      39.895  33.912  36.929  1.00  0.00     0.058 A 
ATOM     87  C   UNL A   1      40.472  35.189  36.853  1.00  0.00     0.135 A 
ATOM     88  C   UNL A   1      39.103  33.614  38.049  1.00  0.00     0.135 A 
ATOM     89  F   UNL A   1      41.239  35.522  35.802  1.00  0.00    -0.206 F 
ATOM     90  C   UNL A   1      40.307  36.122  37.871  1.00  0.00     0.059 A 
ATOM     91  C   UNL A   1      38.902  34.541  39.067  1.00  0.00     0.059 A 
ATOM     92  F   UNL A   1      38.516  32.413  38.162  1.00  0.00    -0.206 F 
ATOM     93  C   UNL A   1      39.526  35.785  38.979  1.00  0.00     0.060 A 
BRANCH  93  94
ATOM     94  S   UNL A   1      39.323  36.997  40.302  1.00  0.00     0.124 S 
ATOM     95  O   UNL A   1      38.324  36.345  41.142  1.00  0.00    -0.237 OA
ATOM     96  O   UNL A   1      40.668  37.079  40.865  1.00  0.00    -0.237 OA
ATOM     97  O   UNL A   1      38.872  38.193  39.598  1.00  0.00    -0.744 OA
ENDBRANCH  93  94
ENDBRANCH  61  86
ENDBRANCH  35  36
ENDBRANCH  28  30
ENDBRANCH  27  28
ENDBRANCH  26  27
ENDBRANCH  25  26
ENDBRANCH  24  25
ENDBRANCH   1  24
TORSDOF 22
ENDMDL
MODEL 2
REMARK VINA RESULT:      -9.6      5.885      8.371
REMARK SMILES C[N@H+](CC(C)(C)C(=O)OCCOCCOC(=O)c1ccc(-c2c3nc(c(-c4c(F)cc(S(=O)(=O)[O-])cc4F)c4ccc([nH]4)c(-c4c(F)cc(S(=O)(=O)[O-])cc4F)c4nc(c(-c5c(F)cc(S(=O)(=O)[O-])cc5F)c5ccc2[nH]5)C=C4)C=C3)cc1)[C@@H]1CCCC[C@@H]1C[NH3+]
REMARK SMILES IDX 11 1 10 2 9 3 7 4 8 5 4 6 5 7 6 8 3 9 2 10 1 11 84 13 85 14
REMARK SMILES IDX 89 15 86 16 88 17 87 18 90 19 91 20 12 24 13 25 14 26 15 27
REMARK SMILES IDX 16 28 17 29 18 30 19 31 83 32 20 33 82 34 21 35 22 36 23 37
REMARK SMILES IDX 76 38 24 39 81 40 75 41 77 42 25 43 80 44 74 45 73 46 26 48
REMARK SMILES IDX 60 49 39 50 59 51 40 52 43 53 58 54 78 55 41 56 42 57 57 59
REMARK SMILES IDX 79 60 44 61 27 62 28 63 37 64 29 65 30 66 36 67 38 68 31 69
REMARK SMILES IDX 32 70 33 71 34 72 35 73 61 74 62 75 71 76 63 77 64 78 70 79
REMARK SMILES IDX 72 80 65 81 66 82 67 83 68 84 69 85 45 86 46 87 55 88 47 89
REMARK SMILES IDX 48 90 54 91 56 92 49 93 50 94 51 95 52 96 53 97
REMARK H PARENT 2 12 91 21 91 22 91 23 77 47 43 58
REMARK Flexibility Score: inf
ROOT
ATOM      1  C   UNL A   1      36.050  21.411  25.584  1.00  0.00     0.202 C 
ENDROOT
BRANCH   1   2
ATOM      2  C   UNL A   1      34.955  22.413  25.172  1.00  0.00     0.261 C 
BRANCH   2   3
ATOM      3  O   UNL A   1      33.614  22.150  25.609  1.00  0.00    -0.463 OA
BRANCH   3   4
ATOM      4  C   UNL A   1      32.974  23.293  25.996  1.00  0.00     0.317 C 
ATOM      5  O   UNL A   1      33.503  24.093  26.759  1.00  0.00    -0.251 OA
BRANCH   4   6
ATOM      6  C   UNL A   1      31.623  23.492  25.293  1.00  0.00     0.111 C 
ATOM      7  C   UNL A   1      30.467  23.139  26.250  1.00  0.00     0.029 C 
ATOM      8  C   UNL A   1      31.521  22.502  24.112  1.00  0.00     0.029 C 
BRANCH   6   9
ATOM      9  C   UNL A   1      31.492  24.959  24.728  1.00  0.00     0.280 C 
BRANCH   9  10
ATOM     10  N   UNL A   1      32.707  25.782  24.654  1.00  0.00    -0.334 N 
ATOM     11  C   UNL A   1      33.475  25.620  23.425  1.00  0.00     0.333 C 
ATOM     12  H   UNL A   1      33.287  25.322  25.355  1.00  0.00     0.348 HD
BRANCH  10  13
ATOM     13  C   UNL A   1      32.760  27.073  25.346  1.00  0.00     0.192 C 
ATOM     14  C   UNL A   1      31.645  27.289  26.400  1.00  0.00     0.065 C 
ATOM     15  C   UNL A   1      32.727  28.247  24.328  1.00  0.00     0.102 C 
ATOM     16  C   UNL A   1      31.748  28.647  27.095  1.00  0.00     0.006 C 
ATOM     17  C   UNL A   1      32.913  29.584  25.063  1.00  0.00     0.015 C 
ATOM     18  C   UNL A   1      31.848  29.818  26.126  1.00  0.00     0.001 C 
BRANCH  15  19
ATOM     19  C   UNL A   1      31.450  28.236  23.449  1.00  0.00     0.268 C 
BRANCH  19  20
ATOM     20  N   UNL A   1      31.466  29.281  22.427  1.00  0.00    -0.357 N 
ATOM     21  H   UNL A   1      31.471  28.852  21.501  1.00  0.00     0.344 HD
ATOM     22  H   UNL A   1      32.302  29.854  22.540  1.00  0.00     0.344 HD
ATOM     23  H   UNL A   1      30.637  29.866  22.526  1.00  0.00     0.344 HD
ENDBRANCH  19  20
ENDBRANCH  15  19
ENDBRANCH  10  13
ENDBRANCH   9  10
ENDBRANCH   6   9
ENDBRANCH   4   6
ENDBRANCH   3   4
ENDBRANCH   2   3
ENDBRANCH   1   2
BRANCH   1  24
ATOM     24  O   UNL A   1      36.886  20.765  24.633  1.00  0.00    -0.374 OA
BRANCH  24  25
ATOM     25  C   UNL A   1      38.131  20.212  25.037  1.00  0.00     0.202 C 
BRANCH  25  26
ATOM     26  C   UNL A   1      39.138  21.068  25.807  1.00  0.00     0.261 C 
BRANCH  26  27
ATOM     27  O   UNL A   1      39.894  20.326  26.774  1.00  0.00    -0.460 OA
BRANCH  27  28
ATOM     28  C   UNL A   1      41.140  20.000  26.357  1.00  0.00     0.338 C 
ATOM     29  O   UNL A   1      41.470  18.999  25.731  1.00  0.00    -0.246 OA
BRANCH  28  30
ATOM     30  C   UNL A   1      42.070  21.119  26.568  1.00  0.00     0.060 A 
ATOM     31  C   UNL A   1      42.349  21.466  27.896  1.00  0.00     0.016 A 
ATOM     32  C   UNL A   1      42.559  21.885  25.508  1.00  0.00     0.016 A 
ATOM     33  C   UNL A   1      43.059  22.626  28.173  1.00  0.00     0.010 A 
ATOM     34  C   UNL A   1      43.259  23.064  25.791  1.00  0.00     0.010 A 
ATOM     35  C   UNL A   1      43.462  23.460  27.124  1.00  0.00    -0.014 A 
BRANCH  35  36
ATOM     36  C   UNL A   1      43.911  24.827  27.472  1.00  0.00     0.031 A 
ATOM     37  C   UNL A   1      45.349  25.199  27.227  1.00  0.00     0.074 A 
ATOM     38  C   UNL A   1      43.025  25.750  27.885  1.00  0.00     0.049 A 
ATOM     39  N   UNL A   1      45.930  26.366  27.320  1.00  0.00    -0.248 NA
ATOM     40  C   UNL A   1      46.249  24.109  26.813  1.00  0.00     0.031 C 
ATOM     41  C   UNL A   1      41.604  25.504  28.127  1.00  0.00     0.029 A 
ATOM     42  N   UNL A   1      43.189  27.083  28.150  1.00  0.00    -0.354 N 
ATOM     43  C   UNL A   1      47.259  26.155  26.970  1.00  0.00     0.074 A 
ATOM     44  C   UNL A   1      47.407  24.742  26.696  1.00  0.00     0.031 C 
ATOM     45  C   UNL A   1      41.022  26.655  28.504  1.00  0.00     0.029 A 
ATOM     46  C   UNL A   1      42.032  27.713  28.535  1.00  0.00     0.049 A 
ATOM     47  H   UNL A   1      44.054  27.546  28.074  1.00  0.00     0.167 HD
ATOM     48  C   UNL A   1      48.262  27.060  26.874  1.00  0.00     0.037 A 
ATOM     49  C   UNL A   1      41.812  28.999  28.870  1.00  0.00     0.037 A 
ATOM     50  C   UNL A   1      48.106  28.464  27.151  1.00  0.00     0.049 A 
ATOM     51  C   UNL A   1      42.946  29.985  28.775  1.00  0.00     0.074 A 
ATOM     52  C   UNL A   1      49.054  29.469  27.074  1.00  0.00     0.029 A 
ATOM     53  N   UNL A   1      46.924  29.060  27.567  1.00  0.00    -0.354 N 
ATOM     54  N   UNL A   1      44.191  29.777  28.411  1.00  0.00    -0.248 NA
ATOM     55  C   UNL A   1      42.642  31.379  29.117  1.00  0.00     0.031 C 
ATOM     56  C   UNL A   1      48.454  30.666  27.483  1.00  0.00     0.029 A 
ATOM     57  C   UNL A   1      47.122  30.416  27.769  1.00  0.00     0.049 A 
ATOM     58  H   UNL A   1      46.070  28.588  27.698  1.00  0.00     0.167 HD
ATOM     59  C   UNL A   1      44.813  31.020  28.462  1.00  0.00     0.074 A 
ATOM     60  C   UNL A   1      43.803  31.974  28.876  1.00  0.00     0.031 C 
ATOM     61  C   UNL A   1      46.103  31.345  28.189  1.00  0.00     0.037 A 
BRANCH  48  62
ATOM     62  C   UNL A   1      49.618  26.548  26.478  1.00  0.00     0.058 A 
ATOM     63  C   UNL A   1      50.082  26.623  25.155  1.00  0.00     0.135 A 
ATOM     64  C   UNL A   1      50.472  25.983  27.439  1.00  0.00     0.135 A 
ATOM     65  F   UNL A   1      49.298  27.135  24.193  1.00  0.00    -0.206 F 
ATOM     66  C   UNL A   1      51.333  26.132  24.793  1.00  0.00     0.059 A 
ATOM     67  C   UNL A   1      51.736  25.506  27.105  1.00  0.00     0.059 A 
ATOM     68  F   UNL A   1      50.076  25.881  28.718  1.00  0.00    -0.206 F 
ATOM     69  C   UNL A   1      52.151  25.572  25.775  1.00  0.00     0.060 A 
BRANCH  69  70
ATOM     70  S   UNL A   1      53.771  24.934  25.294  1.00  0.00     0.124 S 
ATOM     71  O   UNL A   1      53.960  25.572  23.994  1.00  0.00    -0.237 OA
ATOM     72  O   UNL A   1      54.632  25.418  26.369  1.00  0.00    -0.237 OA
ATOM     73  O   UNL A   1      53.569  23.489  25.260  1.00  0.00    -0.744 OA
ENDBRANCH  69  70
ENDBRANCH  48  62
BRANCH  49  74
ATOM     74  C   UNL A   1      40.458  29.424  29.309  1.00  0.00     0.058 A 
ATOM     75  C   UNL A   1      40.162  29.638  30.663  1.00  0.00     0.135 A 
ATOM     76  C   UNL A   1      39.438  29.653  28.372  1.00  0.00     0.135 A 
ATOM     77  F   UNL A   1      41.102  29.426  31.597  1.00  0.00    -0.206 F 
ATOM     78  C   UNL A   1      38.901  30.057  31.074  1.00  0.00     0.059 A 
ATOM     79  C   UNL A   1      38.177  30.093  28.756  1.00  0.00     0.059 A 
ATOM     80  F   UNL A   1      39.677  29.474  27.063  1.00  0.00    -0.206 F 
ATOM     81  C   UNL A   1      37.915  30.286  30.112  1.00  0.00     0.060 A 
BRANCH  81  82
ATOM     82  S   UNL A   1      36.302  30.900  30.646  1.00  0.00     0.124 S 
ATOM     83  O   UNL A   1      35.458  30.531  29.517  1.00  0.00    -0.237 OA
ATOM     84  O   UNL A   1      36.082  30.154  31.881  1.00  0.00    -0.237 OA
ATOM     85  O   UNL A   1      36.533  32.332  30.823  1.00  0.00    -0.744 OA
ENDBRANCH  81  82
ENDBRANCH  49  74
BRANCH  61  86
ATOM     86  C   UNL A   1      46.481  32.795  28.312  1.00  0.00     0.058 A 
ATOM     87  C   UNL A   1      46.346  33.686  27.236  1.00  0.00     0.135 A 
ATOM     88  C   UNL A   1      46.971  33.301  29.527  1.00  0.00     0.135 A 
ATOM     89  F   UNL A   1      45.883  33.251  26.053  1.00  0.00    -0.206 F 
ATOM     90  C   UNL A   1      46.725  35.020  27.346  1.00  0.00     0.059 A 
ATOM     91  C   UNL A   1      47.332  34.638  29.667  1.00  0.00     0.059 A 
ATOM     92  F   UNL A   1      47.104  32.494  30.591  1.00  0.00    -0.206 F 
ATOM     93  C   UNL A   1      47.225  35.484  28.564  1.00  0.00     0.060 A 
BRANCH  93  94
ATOM     94  S   UNL A   1      47.725  37.214  28.697  1.00  0.00     0.124 S 
ATOM     95  O   UNL A   1      46.641  37.885  27.987  1.00  0.00    -0.237 OA
ATOM     96  O   UNL A   1      47.760  37.422  30.142  1.00  0.00    -0.237 OA
ATOM     97  O   UNL A   1      49.025  37.242  28.034  1.00  0.00    -0.744 OA
ENDBRANCH  93  94
ENDBRANCH  61  86
ENDBRANCH  35  36
ENDBRANCH  28  30
ENDBRANCH  27  28
ENDBRANCH  26  27
ENDBRANCH  25  26
ENDBRANCH  24  25
ENDBRANCH   1  24
TORSDOF 22
ENDMDL
MODEL 3
REMARK VINA RESULT:      -9.5      6.232     10.948
REMARK SMILES C[N@H+](CC(C)(C)C(=O)OCCOCCOC(=O)c1ccc(-c2c3nc(c(-c4c(F)cc(S(=O)(=O)[O-])cc4F)c4ccc([nH]4)c(-c4c(F)cc(S(=O)(=O)[O-])cc4F)c4nc(c(-c5c(F)cc(S(=O)(=O)[O-])cc5F)c5ccc2[nH]5)C=C4)C=C3)cc1)[C@@H]1CCCC[C@@H]1C[NH3+]
REMARK SMILES IDX 11 1 10 2 9 3 7 4 8 5 4 6 5 7 6 8 3 9 2 10 1 11 84 13 85 14
REMARK SMILES IDX 89 15 86 16 88 17 87 18 90 19 91 20 12 24 13 25 14 26 15 27
REMARK SMILES IDX 16 28 17 29 18 30 19 31 83 32 20 33 82 34 21 35 22 36 23 37
REMARK SMILES IDX 76 38 24 39 81 40 75 41 77 42 25 43 80 44 74 45 73 46 26 48
REMARK SMILES IDX 60 49 39 50 59 51 40 52 43 53 58 54 78 55 41 56 42 57 57 59
REMARK SMILES IDX 79 60 44 61 27 62 28 63 37 64 29 65 30 66 36 67 38 68 31 69
REMARK SMILES IDX 32 70 33 71 34 72 35 73 61 74 62 75 71 76 63 77 64 78 70 79
REMARK SMILES IDX 72 80 65 81 66 82 67 83 68 84 69 85 45 86 46 87 55 88 47 89
REMARK SMILES IDX 48 90 54 91 56 92 49 93 50 94 51 95 52 96 53 97
REMARK H PARENT 2 12 91 21 91 22 91 23 77 47 43 58
REMARK Flexibility Score: inf
ROOT
ATOM      1  C   UNL A   1      36.192  21.702  24.474  1.00  0.00     0.202 C 
ENDROOT
BRANCH   1   2
ATOM      2  C   UNL A   1      34.842  20.976  24.642  1.00  0.00     0.261 C 
BRANCH   2   3
ATOM      3  O   UNL A   1      34.098  21.226  25.842  1.00  0.00    -0.463 OA
BRANCH   3   4
ATOM      4  C   UNL A   1      32.824  21.638  25.571  1.00  0.00     0.317 C 
ATOM      5  O   UNL A   1      31.958  20.842  25.223  1.00  0.00    -0.251 OA
BRANCH   4   6
ATOM      6  C   UNL A   1      32.599  23.130  25.857  1.00  0.00     0.111 C 
ATOM      7  C   UNL A   1      33.820  23.721  26.589  1.00  0.00     0.029 C 
ATOM      8  C   UNL A   1      31.404  23.281  26.824  1.00  0.00     0.029 C 
BRANCH   6   9
ATOM      9  C   UNL A   1      32.271  23.916  24.529  1.00  0.00     0.280 C 
BRANCH   9  10
ATOM     10  N   UNL A   1      33.395  24.385  23.707  1.00  0.00    -0.334 N 
ATOM     11  C   UNL A   1      33.660  23.576  22.524  1.00  0.00     0.333 C 
ATOM     12  H   UNL A   1      34.178  24.166  24.321  1.00  0.00     0.348 HD
BRANCH  10  13
ATOM     13  C   UNL A   1      33.726  25.811  23.667  1.00  0.00     0.192 C 
ATOM     14  C   UNL A   1      33.015  26.673  24.741  1.00  0.00     0.065 C 
ATOM     15  C   UNL A   1      33.427  26.408  22.262  1.00  0.00     0.102 C 
ATOM     16  C   UNL A   1      33.398  28.150  24.658  1.00  0.00     0.006 C 
ATOM     17  C   UNL A   1      33.901  27.869  22.202  1.00  0.00     0.015 C 
ATOM     18  C   UNL A   1      33.241  28.741  23.262  1.00  0.00     0.001 C 
BRANCH  15  19
ATOM     19  C   UNL A   1      31.938  26.258  21.858  1.00  0.00     0.268 C 
BRANCH  19  20
ATOM     20  N   UNL A   1      31.778  25.840  20.466  1.00  0.00    -0.357 N 
ATOM     21  H   UNL A   1      32.514  25.177  20.223  1.00  0.00     0.344 HD
ATOM     22  H   UNL A   1      31.838  26.655  19.857  1.00  0.00     0.344 HD
ATOM     23  H   UNL A   1      30.868  25.394  20.348  1.00  0.00     0.344 HD
ENDBRANCH  19  20
ENDBRANCH  15  19
ENDBRANCH  10  13
ENDBRANCH   9  10
ENDBRANCH   6   9
ENDBRANCH   4   6
ENDBRANCH   3   4
ENDBRANCH   2   3
ENDBRANCH   1   2
BRANCH   1  24
ATOM     24  O   UNL A   1      37.134  21.807  25.532  1.00  0.00    -0.374 OA
BRANCH  24  25
ATOM     25  C   UNL A   1      38.213  20.887  25.622  1.00  0.00     0.202 C 
BRANCH  25  26
ATOM     26  C   UNL A   1      39.559  21.335  26.193  1.00  0.00     0.261 C 
BRANCH  26  27
ATOM     27  O   UNL A   1      40.236  20.307  26.930  1.00  0.00    -0.460 OA
BRANCH  27  28
ATOM     28  C   UNL A   1      41.425  19.947  26.394  1.00  0.00     0.338 C 
ATOM     29  O   UNL A   1      41.677  18.912  25.785  1.00  0.00    -0.246 OA
BRANCH  28  30
ATOM     30  C   UNL A   1      42.379  21.064  26.444  1.00  0.00     0.060 A 
ATOM     31  C   UNL A   1      42.626  21.628  27.703  1.00  0.00     0.016 A 
ATOM     32  C   UNL A   1      42.924  21.626  25.287  1.00  0.00     0.016 A 
ATOM     33  C   UNL A   1      43.359  22.801  27.802  1.00  0.00     0.010 A 
ATOM     34  C   UNL A   1      43.648  22.820  25.389  1.00  0.00     0.010 A 
ATOM     35  C   UNL A   1      43.820  23.434  26.642  1.00  0.00    -0.014 A 
BRANCH  35  36
ATOM     36  C   UNL A   1      44.296  24.830  26.767  1.00  0.00     0.031 A 
ATOM     37  C   UNL A   1      43.325  25.886  27.221  1.00  0.00     0.074 A 
ATOM     38  C   UNL A   1      45.596  25.123  26.594  1.00  0.00     0.049 A 
ATOM     39  N   UNL A   1      43.546  27.135  27.536  1.00  0.00    -0.248 NA
ATOM     40  C   UNL A   1      41.916  25.474  27.345  1.00  0.00     0.031 C 
ATOM     41  C   UNL A   1      46.627  24.171  26.183  1.00  0.00     0.029 A 
ATOM     42  N   UNL A   1      46.272  26.302  26.766  1.00  0.00    -0.354 N 
ATOM     43  C   UNL A   1      42.310  27.656  27.902  1.00  0.00     0.074 A 
ATOM     44  C   UNL A   1      41.337  26.600  27.737  1.00  0.00     0.031 C 
ATOM     45  C   UNL A   1      47.811  24.806  26.137  1.00  0.00     0.029 A 
ATOM     46  C   UNL A   1      47.617  26.207  26.509  1.00  0.00     0.049 A 
ATOM     47  H   UNL A   1      45.835  27.138  27.046  1.00  0.00     0.167 HD
ATOM     48  C   UNL A   1      42.017  28.902  28.347  1.00  0.00     0.037 A 
ATOM     49  C   UNL A   1      48.582  27.144  26.572  1.00  0.00     0.037 A 
ATOM     50  C   UNL A   1      42.992  29.949  28.505  1.00  0.00     0.049 A 
ATOM     51  C   UNL A   1      48.230  28.528  27.050  1.00  0.00     0.074 A 
ATOM     52  C   UNL A   1      42.803  31.243  28.958  1.00  0.00     0.029 A 
ATOM     53  N   UNL A   1      44.341  29.823  28.206  1.00  0.00    -0.354 N 
ATOM     54  N   UNL A   1      47.062  28.999  27.423  1.00  0.00    -0.248 NA
ATOM     55  C   UNL A   1      49.327  29.499  27.133  1.00  0.00     0.031 C 
ATOM     56  C   UNL A   1      44.032  31.911  28.896  1.00  0.00     0.029 A 
ATOM     57  C   UNL A   1      44.994  31.020  28.448  1.00  0.00     0.049 A 
ATOM     58  H   UNL A   1      44.770  29.002  27.873  1.00  0.00     0.167 HD
ATOM     59  C   UNL A   1      47.289  30.317  27.805  1.00  0.00     0.074 A 
ATOM     60  C   UNL A   1      48.708  30.561  27.631  1.00  0.00     0.031 C 
ATOM     61  C   UNL A   1      46.406  31.242  28.260  1.00  0.00     0.037 A 
BRANCH  48  62
ATOM     62  C   UNL A   1      40.579  29.200  28.665  1.00  0.00     0.058 A 
ATOM     63  C   UNL A   1      40.111  29.269  29.987  1.00  0.00     0.135 A 
ATOM     64  C   UNL A   1      39.656  29.431  27.632  1.00  0.00     0.135 A 
ATOM     65  F   UNL A   1      40.946  29.035  31.012  1.00  0.00    -0.206 F 
ATOM     66  C   UNL A   1      38.774  29.529  30.273  1.00  0.00     0.059 A 
ATOM     67  C   UNL A   1      38.319  29.716  27.895  1.00  0.00     0.059 A 
ATOM     68  F   UNL A   1      40.049  29.372  26.350  1.00  0.00    -0.206 F 
ATOM     69  C   UNL A   1      37.885  29.748  29.220  1.00  0.00     0.060 A 
BRANCH  69  70
ATOM     70  S   UNL A   1      36.152  30.082  29.603  1.00  0.00     0.124 S 
ATOM     71  O   UNL A   1      36.036  29.515  30.943  1.00  0.00    -0.237 OA
ATOM     72  O   UNL A   1      36.086  31.537  29.522  1.00  0.00    -0.237 OA
ATOM     73  O   UNL A   1      35.430  29.366  28.556  1.00  0.00    -0.744 OA
ENDBRANCH  69  70
ENDBRANCH  48  62
BRANCH  49  74
ATOM     74  C   UNL A   1      49.973  26.794  26.185  1.00  0.00     0.058 A 
ATOM     75  C   UNL A   1      50.846  26.165  27.085  1.00  0.00     0.135 A 
ATOM     76  C   UNL A   1      50.446  27.060  24.891  1.00  0.00     0.135 A 
ATOM     77  F   UNL A   1      50.442  25.896  28.335  1.00  0.00    -0.206 F 
ATOM     78  C   UNL A   1      52.142  25.817  26.716  1.00  0.00     0.059 A 
ATOM     79  C   UNL A   1      51.729  26.702  24.493  1.00  0.00     0.059 A 
ATOM     80  F   UNL A   1      49.644  27.650  23.990  1.00  0.00    -0.206 F 
ATOM     81  C   UNL A   1      52.573  26.086  25.416  1.00  0.00     0.060 A 
BRANCH  81  82
ATOM     82  S   UNL A   1      54.232  25.566  24.923  1.00  0.00     0.124 S 
ATOM     83  O   UNL A   1      54.148  24.121  25.090  1.00  0.00    -0.237 OA
ATOM     84  O   UNL A   1      54.310  26.049  23.548  1.00  0.00    -0.237 OA
ATOM     85  O   UNL A   1      55.095  26.265  25.872  1.00  0.00    -0.744 OA
ENDBRANCH  81  82
ENDBRANCH  49  74
BRANCH  61  86
ATOM     86  C   UNL A   1      46.959  32.593  28.618  1.00  0.00     0.058 A 
ATOM     87  C   UNL A   1      47.429  32.879  29.910  1.00  0.00     0.135 A 
ATOM     88  C   UNL A   1      47.033  33.610  27.653  1.00  0.00     0.135 A 
ATOM     89  F   UNL A   1      47.379  31.941  30.869  1.00  0.00    -0.206 F 
ATOM     90  C   UNL A   1      47.911  34.140  30.245  1.00  0.00     0.059 A 
ATOM     91  C   UNL A   1      47.537  34.871  27.959  1.00  0.00     0.059 A 
ATOM     92  F   UNL A   1      46.613  33.384  26.399  1.00  0.00    -0.206 F 
ATOM     93  C   UNL A   1      47.953  35.132  29.264  1.00  0.00     0.060 A 
BRANCH  93  94
ATOM     94  S   UNL A   1      48.573  36.769  29.707  1.00  0.00     0.124 S 
ATOM     95  O   UNL A   1      50.003  36.615  29.463  1.00  0.00    -0.237 OA
ATOM     96  O   UNL A   1      47.861  37.639  28.775  1.00  0.00    -0.237 OA
ATOM     97  O   UNL A   1      48.184  36.909  31.107  1.00  0.00    -0.744 OA
ENDBRANCH  93  94
ENDBRANCH  61  86
ENDBRANCH  35  36
ENDBRANCH  28  30
ENDBRANCH  27  28
ENDBRANCH  26  27
ENDBRANCH  25  26
ENDBRANCH  24  25
ENDBRANCH   1  24
TORSDOF 22
ENDMDL
