MODEL 1
REMARK VINA RESULT:      -9.1      0.000      0.000
REMARK SMILES O=C(Cc1c[nH]c(=O)n(Cc2ccccc2)c1=O)OCCOCCOC(=O)c1ccc(-c2c3nc(c(-c4c(F)cc(S(=O)(=O)[O-])cc4F)c4ccc([nH]4)c(-c4c(F)cc(S(=O)(=O)[O-])cc4F)c4nc(c(-c5c(F)cc(S(=O)(=O)[O-])cc5F)c5ccc2[nH]5)C=C4)C=C3)cc1
REMARK SMILES IDX 22 1 21 2 20 3 19 4 2 5 1 6 3 7 4 8 5 9 17 10 6 11 9 12
REMARK SMILES IDX 18 13 7 14 8 16 10 17 11 18 12 19 16 20 13 21 15 22 14 23
REMARK SMILES IDX 23 24 24 25 25 26 26 27 27 28 28 29 29 30 93 31 30 32 92 33
REMARK SMILES IDX 31 34 32 35 33 36 86 37 34 38 91 39 85 40 87 41 35 42 90 43
REMARK SMILES IDX 84 44 83 45 36 47 70 48 49 49 69 50 50 51 53 52 68 53 88 54
REMARK SMILES IDX 51 55 52 56 67 58 89 59 54 60 37 61 38 62 47 63 39 64 40 65
REMARK SMILES IDX 46 66 48 67 41 68 42 69 43 70 44 71 45 72 71 73 72 74 81 75
REMARK SMILES IDX 73 76 74 77 80 78 82 79 75 80 76 81 77 82 78 83 79 84 55 85
REMARK SMILES IDX 56 86 65 87 57 88 58 89 64 90 66 91 59 92 60 93 61 94 62 95
REMARK SMILES IDX 63 96
REMARK H PARENT 6 15 87 46 53 57
REMARK Flexibility Score: inf
ROOT
ATOM      1  O   UNL A   1      42.275  19.001  25.691  1.00  0.00    -0.374 OA
ENDROOT
BRANCH   1   2
ATOM      2  C   UNL A   1      43.684  18.842  25.563  1.00  0.00     0.202 C 
BRANCH   2   3
ATOM      3  C   UNL A   1      44.325  19.454  24.324  1.00  0.00     0.261 C 
BRANCH   3   4
ATOM      4  O   UNL A   1      45.454  20.298  24.595  1.00  0.00    -0.463 OA
BRANCH   4   5
ATOM      5  C   UNL A   1      45.432  21.645  24.678  1.00  0.00     0.310 C 
ATOM      6  O   UNL A   1      46.393  22.286  24.247  1.00  0.00    -0.252 OA
BRANCH   5   7
ATOM      7  C   UNL A   1      44.251  22.381  25.287  1.00  0.00     0.165 C 
BRANCH   7   8
ATOM      8  C   UNL A   1      44.706  23.400  26.274  1.00  0.00     0.045 A 
ATOM      9  C   UNL A   1      45.168  23.118  27.493  1.00  0.00     0.097 A 
ATOM     10  C   UNL A   1      44.657  24.831  25.876  1.00  0.00     0.260 A 
ATOM     11  N   UNL A   1      45.770  24.082  28.240  1.00  0.00    -0.314 N 
ATOM     12  N   UNL A   1      45.521  25.669  26.550  1.00  0.00    -0.256 N 
ATOM     13  O   UNL A   1      43.937  25.180  24.944  1.00  0.00    -0.269 OA
ATOM     14  C   UNL A   1      46.067  25.338  27.774  1.00  0.00     0.328 A 
ATOM     15  H   UNL A   1      46.006  23.866  29.171  1.00  0.00     0.171 HD
ATOM     16  O   UNL A   1      46.775  26.076  28.455  1.00  0.00    -0.248 OA
BRANCH  12  17
ATOM     17  C   UNL A   1      45.770  26.991  25.989  1.00  0.00     0.166 C 
BRANCH  17  18
ATOM     18  C   UNL A   1      44.886  28.049  26.609  1.00  0.00    -0.028 A 
ATOM     19  C   UNL A   1      43.585  28.250  26.130  1.00  0.00     0.005 A 
ATOM     20  C   UNL A   1      45.361  28.870  27.642  1.00  0.00     0.005 A 
ATOM     21  C   UNL A   1      42.791  29.276  26.634  1.00  0.00     0.000 A 
ATOM     22  C   UNL A   1      44.556  29.885  28.161  1.00  0.00     0.000 A 
ATOM     23  C   UNL A   1      43.277  30.096  27.648  1.00  0.00     0.000 A 
ENDBRANCH  17  18
ENDBRANCH  12  17
ENDBRANCH   7   8
ENDBRANCH   5   7
ENDBRANCH   4   5
ENDBRANCH   3   4
ENDBRANCH   2   3
ENDBRANCH   1   2
BRANCH   1  24
ATOM     24  C   UNL A   1      41.857  19.953  26.675  1.00  0.00     0.202 C 
BRANCH  24  25
ATOM     25  C   UNL A   1      40.499  20.598  26.383  1.00  0.00     0.261 C 
BRANCH  25  26
ATOM     26  O   UNL A   1      40.647  22.005  26.146  1.00  0.00    -0.460 OA
BRANCH  26  27
ATOM     27  C   UNL A   1      39.490  22.714  26.090  1.00  0.00     0.338 C 
ATOM     28  O   UNL A   1      38.407  22.320  25.694  1.00  0.00    -0.246 OA
BRANCH  27  29
ATOM     29  C   UNL A   1      39.688  23.995  26.812  1.00  0.00     0.060 A 
ATOM     30  C   UNL A   1      38.946  24.316  27.952  1.00  0.00     0.016 A 
ATOM     31  C   UNL A   1      40.603  24.918  26.283  1.00  0.00     0.016 A 
ATOM     32  C   UNL A   1      39.161  25.537  28.591  1.00  0.00     0.010 A 
ATOM     33  C   UNL A   1      40.827  26.135  26.931  1.00  0.00     0.010 A 
ATOM     34  C   UNL A   1      40.133  26.435  28.110  1.00  0.00    -0.014 A 
BRANCH  34  35
ATOM     35  C   UNL A   1      40.570  27.552  28.981  1.00  0.00     0.031 A 
ATOM     36  C   UNL A   1      39.741  28.780  29.192  1.00  0.00     0.074 A 
ATOM     37  C   UNL A   1      41.761  27.412  29.598  1.00  0.00     0.049 A 
ATOM     38  N   UNL A   1      39.949  29.768  30.022  1.00  0.00    -0.248 NA
ATOM     39  C   UNL A   1      38.533  28.930  28.367  1.00  0.00     0.031 C 
ATOM     40  C   UNL A   1      42.667  26.274  29.412  1.00  0.00     0.029 A 
ATOM     41  N   UNL A   1      42.406  28.203  30.513  1.00  0.00    -0.354 N 
ATOM     42  C   UNL A   1      38.890  30.648  29.846  1.00  0.00     0.074 A 
ATOM     43  C   UNL A   1      38.064  30.099  28.789  1.00  0.00     0.031 C 
ATOM     44  C   UNL A   1      43.724  26.415  30.225  1.00  0.00     0.029 A 
ATOM     45  C   UNL A   1      43.589  27.666  30.962  1.00  0.00     0.049 A 
ATOM     46  H   UNL A   1      42.055  29.070  30.818  1.00  0.00     0.167 HD
ATOM     47  C   UNL A   1      38.630  31.793  30.522  1.00  0.00     0.037 A 
ATOM     48  C   UNL A   1      44.467  28.124  31.874  1.00  0.00     0.037 A 
ATOM     49  C   UNL A   1      39.475  32.323  31.564  1.00  0.00     0.049 A 
ATOM     50  C   UNL A   1      44.164  29.411  32.587  1.00  0.00     0.074 A 
ATOM     51  C   UNL A   1      39.273  33.454  32.339  1.00  0.00     0.029 A 
ATOM     52  N   UNL A   1      40.683  31.774  31.970  1.00  0.00    -0.354 N 
ATOM     53  N   UNL A   1      43.109  30.181  32.474  1.00  0.00    -0.248 NA
ATOM     54  C   UNL A   1      45.162  29.891  33.552  1.00  0.00     0.031 C 
ATOM     55  C   UNL A   1      40.383  33.616  33.173  1.00  0.00     0.029 A 
ATOM     56  C   UNL A   1      41.252  32.559  32.961  1.00  0.00     0.049 A 
ATOM     57  H   UNL A   1      41.079  30.948  31.608  1.00  0.00     0.167 HD
ATOM     58  C   UNL A   1      43.307  31.228  33.366  1.00  0.00     0.074 A 
ATOM     59  C   UNL A   1      44.575  30.983  34.023  1.00  0.00     0.031 C 
ATOM     60  C   UNL A   1      42.512  32.297  33.613  1.00  0.00     0.037 A 
BRANCH  47  61
ATOM     61  C   UNL A   1      37.376  32.553  30.189  1.00  0.00     0.058 A 
ATOM     62  C   UNL A   1      37.387  33.601  29.256  1.00  0.00     0.135 A 
ATOM     63  C   UNL A   1      36.133  32.153  30.709  1.00  0.00     0.135 A 
ATOM     64  F   UNL A   1      38.547  34.030  28.734  1.00  0.00    -0.206 F 
ATOM     65  C   UNL A   1      36.212  34.228  28.851  1.00  0.00     0.059 A 
ATOM     66  C   UNL A   1      34.943  32.751  30.300  1.00  0.00     0.059 A 
ATOM     67  F   UNL A   1      36.063  31.154  31.602  1.00  0.00    -0.206 F 
ATOM     68  C   UNL A   1      34.994  33.789  29.372  1.00  0.00     0.060 A 
BRANCH  68  69
ATOM     69  S   UNL A   1      33.479  34.589  28.798  1.00  0.00     0.124 S 
ATOM     70  O   UNL A   1      34.001  35.834  28.243  1.00  0.00    -0.237 OA
ATOM     71  O   UNL A   1      32.971  33.626  27.828  1.00  0.00    -0.237 OA
ATOM     72  O   UNL A   1      32.685  34.731  30.014  1.00  0.00    -0.744 OA
ENDBRANCH  68  69
ENDBRANCH  47  61
BRANCH  48  73
ATOM     73  C   UNL A   1      45.694  27.341  32.177  1.00  0.00     0.058 A 
ATOM     74  C   UNL A   1      46.903  27.606  31.517  1.00  0.00     0.135 A 
ATOM     75  C   UNL A   1      45.689  26.331  33.151  1.00  0.00     0.135 A 
ATOM     76  F   UNL A   1      46.960  28.564  30.579  1.00  0.00    -0.206 F 
ATOM     77  C   UNL A   1      48.058  26.884  31.797  1.00  0.00     0.059 A 
ATOM     78  C   UNL A   1      46.838  25.615  33.470  1.00  0.00     0.059 A 
ATOM     79  F   UNL A   1      44.564  26.054  33.829  1.00  0.00    -0.206 F 
ATOM     80  C   UNL A   1      48.015  25.890  32.777  1.00  0.00     0.060 A 
BRANCH  80  81
ATOM     81  S   UNL A   1      49.528  24.978  33.148  1.00  0.00     0.124 S 
ATOM     82  O   UNL A   1      50.308  25.983  33.861  1.00  0.00    -0.237 OA
ATOM     83  O   UNL A   1      49.025  23.869  33.953  1.00  0.00    -0.237 OA
ATOM     84  O   UNL A   1      50.030  24.608  31.827  1.00  0.00    -0.744 OA
ENDBRANCH  80  81
ENDBRANCH  48  73
BRANCH  60  85
ATOM     85  C   UNL A   1      42.972  33.289  34.644  1.00  0.00     0.058 A 
ATOM     86  C   UNL A   1      43.692  34.437  34.282  1.00  0.00     0.135 A 
ATOM     87  C   UNL A   1      42.591  33.147  35.989  1.00  0.00     0.135 A 
ATOM     88  F   UNL A   1      44.091  34.614  33.013  1.00  0.00    -0.206 F 
ATOM     89  C   UNL A   1      44.016  35.413  35.217  1.00  0.00     0.059 A 
ATOM     90  C   UNL A   1      42.881  34.125  36.935  1.00  0.00     0.059 A 
ATOM     91  F   UNL A   1      41.897  32.068  36.384  1.00  0.00    -0.206 F 
ATOM     92  C   UNL A   1      43.592  35.256  36.538  1.00  0.00     0.060 A 
BRANCH  92  93
ATOM     93  S   UNL A   1      43.944  36.577  37.717  1.00  0.00     0.124 S 
ATOM     94  O   UNL A   1      44.890  37.399  36.968  1.00  0.00    -0.237 OA
ATOM     95  O   UNL A   1      42.625  37.162  37.928  1.00  0.00    -0.237 OA
ATOM     96  O   UNL A   1      44.502  35.869  38.866  1.00  0.00    -0.744 OA
ENDBRANCH  92  93
ENDBRANCH  60  85
ENDBRANCH  34  35
ENDBRANCH  27  29
ENDBRANCH  26  27
ENDBRANCH  25  26
ENDBRANCH  24  25
ENDBRANCH   1  24
TORSDOF 20
ENDMDL
MODEL 2
REMARK VINA RESULT:      -8.9      4.454     10.915
REMARK SMILES O=C(Cc1c[nH]c(=O)n(Cc2ccccc2)c1=O)OCCOCCOC(=O)c1ccc(-c2c3nc(c(-c4c(F)cc(S(=O)(=O)[O-])cc4F)c4ccc([nH]4)c(-c4c(F)cc(S(=O)(=O)[O-])cc4F)c4nc(c(-c5c(F)cc(S(=O)(=O)[O-])cc5F)c5ccc2[nH]5)C=C4)C=C3)cc1
REMARK SMILES IDX 22 1 21 2 20 3 19 4 2 5 1 6 3 7 4 8 5 9 17 10 6 11 9 12
REMARK SMILES IDX 18 13 7 14 8 16 10 17 11 18 12 19 16 20 13 21 15 22 14 23
REMARK SMILES IDX 23 24 24 25 25 26 26 27 27 28 28 29 29 30 93 31 30 32 92 33
REMARK SMILES IDX 31 34 32 35 33 36 86 37 34 38 91 39 85 40 87 41 35 42 90 43
REMARK SMILES IDX 84 44 83 45 36 47 70 48 49 49 69 50 50 51 53 52 68 53 88 54
REMARK SMILES IDX 51 55 52 56 67 58 89 59 54 60 37 61 38 62 47 63 39 64 40 65
REMARK SMILES IDX 46 66 48 67 41 68 42 69 43 70 44 71 45 72 71 73 72 74 81 75
REMARK SMILES IDX 73 76 74 77 80 78 82 79 75 80 76 81 77 82 78 83 79 84 55 85
REMARK SMILES IDX 56 86 65 87 57 88 58 89 64 90 66 91 59 92 60 93 61 94 62 95
REMARK SMILES IDX 63 96
REMARK H PARENT 6 15 87 46 53 57
REMARK Flexibility Score: inf
ROOT
ATOM      1  O   UNL A   1      32.007  28.879  25.217  1.00  0.00    -0.374 OA
ENDROOT
BRANCH   1   2
ATOM      2  C   UNL A   1      31.641  28.586  23.872  1.00  0.00     0.202 C 
BRANCH   2   3
ATOM      3  C   UNL A   1      30.464  27.636  23.682  1.00  0.00     0.261 C 
BRANCH   3   4
ATOM      4  O   UNL A   1      30.054  26.953  24.876  1.00  0.00    -0.463 OA
BRANCH   4   5
ATOM      5  C   UNL A   1      30.454  25.723  25.259  1.00  0.00     0.310 C 
ATOM      6  O   UNL A   1      30.560  25.478  26.463  1.00  0.00    -0.252 OA
BRANCH   5   7
ATOM      7  C   UNL A   1      30.774  24.641  24.242  1.00  0.00     0.165 C 
BRANCH   7   8
ATOM      8  C   UNL A   1      31.713  23.633  24.809  1.00  0.00     0.045 A 
ATOM      9  C   UNL A   1      31.372  22.699  25.698  1.00  0.00     0.097 A 
ATOM     10  C   UNL A   1      33.125  23.652  24.347  1.00  0.00     0.260 A 
ATOM     11  N   UNL A   1      32.228  21.683  25.991  1.00  0.00    -0.314 N 
ATOM     12  N   UNL A   1      33.811  22.462  24.466  1.00  0.00    -0.256 N 
ATOM     13  O   UNL A   1      33.581  24.666  23.822  1.00  0.00    -0.269 OA
ATOM     14  C   UNL A   1      33.407  21.460  25.326  1.00  0.00     0.328 A 
ATOM     15  H   UNL A   1      31.987  21.072  26.725  1.00  0.00     0.171 HD
ATOM     16  O   UNL A   1      34.021  20.416  25.533  1.00  0.00    -0.248 OA
BRANCH  12  17
ATOM     17  C   UNL A   1      35.062  22.315  23.733  1.00  0.00     0.166 C 
BRANCH  17  18
ATOM     18  C   UNL A   1      36.269  22.451  24.633  1.00  0.00    -0.028 A 
ATOM     19  C   UNL A   1      36.440  23.603  25.412  1.00  0.00     0.005 A 
ATOM     20  C   UNL A   1      37.251  21.451  24.677  1.00  0.00     0.005 A 
ATOM     21  C   UNL A   1      37.588  23.779  26.180  1.00  0.00     0.000 A 
ATOM     22  C   UNL A   1      38.391  21.620  25.464  1.00  0.00     0.000 A 
ATOM     23  C   UNL A   1      38.565  22.788  26.204  1.00  0.00     0.000 A 
ENDBRANCH  17  18
ENDBRANCH  12  17
ENDBRANCH   7   8
ENDBRANCH   5   7
ENDBRANCH   4   5
ENDBRANCH   3   4
ENDBRANCH   2   3
ENDBRANCH   1   2
BRANCH   1  24
ATOM     24  C   UNL A   1      31.847  30.248  25.605  1.00  0.00     0.202 C 
BRANCH  24  25
ATOM     25  C   UNL A   1      32.302  30.548  27.036  1.00  0.00     0.261 C 
BRANCH  25  26
ATOM     26  O   UNL A   1      33.669  30.154  27.226  1.00  0.00    -0.460 OA
BRANCH  26  27
ATOM     27  C   UNL A   1      34.402  30.959  28.038  1.00  0.00     0.338 C 
ATOM     28  O   UNL A   1      34.005  31.928  28.663  1.00  0.00    -0.246 OA
BRANCH  27  29
ATOM     29  C   UNL A   1      35.734  30.339  28.238  1.00  0.00     0.060 A 
ATOM     30  C   UNL A   1      36.601  30.103  27.167  1.00  0.00     0.016 A 
ATOM     31  C   UNL A   1      36.087  29.931  29.534  1.00  0.00     0.016 A 
ATOM     32  C   UNL A   1      37.840  29.508  27.404  1.00  0.00     0.010 A 
ATOM     33  C   UNL A   1      37.333  29.347  29.772  1.00  0.00     0.010 A 
ATOM     34  C   UNL A   1      38.232  29.167  28.713  1.00  0.00    -0.014 A 
BRANCH  34  35
ATOM     35  C   UNL A   1      39.657  28.853  28.975  1.00  0.00     0.031 A 
ATOM     36  C   UNL A   1      40.260  27.521  28.655  1.00  0.00     0.074 A 
ATOM     37  C   UNL A   1      40.407  29.836  29.513  1.00  0.00     0.049 A 
ATOM     38  N   UNL A   1      41.515  27.162  28.718  1.00  0.00    -0.248 NA
ATOM     39  C   UNL A   1      39.348  26.453  28.219  1.00  0.00     0.031 C 
ATOM     40  C   UNL A   1      39.895  31.152  29.910  1.00  0.00     0.029 A 
ATOM     41  N   UNL A   1      41.745  29.902  29.798  1.00  0.00    -0.354 N 
ATOM     42  C   UNL A   1      41.556  25.837  28.306  1.00  0.00     0.074 A 
ATOM     43  C   UNL A   1      40.188  25.439  28.042  1.00  0.00     0.031 C 
ATOM     44  C   UNL A   1      40.915  31.910  30.339  1.00  0.00     0.029 A 
ATOM     45  C   UNL A   1      42.143  31.126  30.280  1.00  0.00     0.049 A 
ATOM     46  H   UNL A   1      42.362  29.145  29.669  1.00  0.00     0.167 HD
ATOM     47  C   UNL A   1      42.642  25.042  28.147  1.00  0.00     0.037 A 
ATOM     48  C   UNL A   1      43.363  31.575  30.629  1.00  0.00     0.037 A 
ATOM     49  C   UNL A   1      43.994  25.460  28.426  1.00  0.00     0.049 A 
ATOM     50  C   UNL A   1      44.544  30.660  30.466  1.00  0.00     0.074 A 
ATOM     51  C   UNL A   1      45.166  24.741  28.253  1.00  0.00     0.029 A 
ATOM     52  N   UNL A   1      44.358  26.693  28.946  1.00  0.00    -0.354 N 
ATOM     53  N   UNL A   1      44.575  29.441  29.985  1.00  0.00    -0.248 NA
ATOM     54  C   UNL A   1      45.852  31.177  30.887  1.00  0.00     0.031 C 
ATOM     55  C   UNL A   1      46.230  25.520  28.718  1.00  0.00     0.029 A 
ATOM     56  C   UNL A   1      45.731  26.745  29.130  1.00  0.00     0.049 A 
ATOM     57  H   UNL A   1      43.734  27.425  29.154  1.00  0.00     0.167 HD
ATOM     58  C   UNL A   1      45.908  29.051  30.028  1.00  0.00     0.074 A 
ATOM     59  C   UNL A   1      46.655  30.171  30.567  1.00  0.00     0.031 C 
ATOM     60  C   UNL A   1      46.461  27.871  29.659  1.00  0.00     0.037 A 
BRANCH  47  61
ATOM     61  C   UNL A   1      42.438  23.646  27.625  1.00  0.00     0.058 A 
ATOM     62  C   UNL A   1      42.383  23.387  26.246  1.00  0.00     0.135 A 
ATOM     63  C   UNL A   1      42.423  22.546  28.498  1.00  0.00     0.135 A 
ATOM     64  F   UNL A   1      42.386  24.401  25.367  1.00  0.00    -0.206 F 
ATOM     65  C   UNL A   1      42.318  22.088  25.753  1.00  0.00     0.059 A 
ATOM     66  C   UNL A   1      42.381  21.237  28.025  1.00  0.00     0.059 A 
ATOM     67  F   UNL A   1      42.477  22.736  29.826  1.00  0.00    -0.206 F 
ATOM     68  C   UNL A   1      42.327  21.018  26.650  1.00  0.00     0.060 A 
BRANCH  68  69
ATOM     69  S   UNL A   1      42.286  19.340  25.983  1.00  0.00     0.124 S 
ATOM     70  O   UNL A   1      43.217  19.449  24.864  1.00  0.00    -0.237 OA
ATOM     71  O   UNL A   1      42.747  18.547  27.116  1.00  0.00    -0.237 OA
ATOM     72  O   UNL A   1      40.885  19.152  25.616  1.00  0.00    -0.744 OA
ENDBRANCH  68  69
ENDBRANCH  47  61
BRANCH  48  73
ATOM     73  C   UNL A   1      43.523  32.963  31.137  1.00  0.00     0.058 A 
ATOM     74  C   UNL A   1      43.391  33.254  32.503  1.00  0.00     0.135 A 
ATOM     75  C   UNL A   1      43.837  34.022  30.271  1.00  0.00     0.135 A 
ATOM     76  F   UNL A   1      43.094  32.276  33.371  1.00  0.00    -0.206 F 
ATOM     77  C   UNL A   1      43.545  34.547  32.989  1.00  0.00     0.059 A 
ATOM     78  C   UNL A   1      44.025  35.318  30.737  1.00  0.00     0.059 A 
ATOM     79  F   UNL A   1      43.998  33.792  28.958  1.00  0.00    -0.206 F 
ATOM     80  C   UNL A   1      43.863  35.574  32.097  1.00  0.00     0.060 A 
BRANCH  80  81
ATOM     81  S   UNL A   1      44.084  37.244  32.746  1.00  0.00     0.124 S 
ATOM     82  O   UNL A   1      43.060  37.292  33.783  1.00  0.00    -0.237 OA
ATOM     83  O   UNL A   1      45.466  37.208  33.214  1.00  0.00    -0.237 OA
ATOM     84  O   UNL A   1      43.844  38.091  31.581  1.00  0.00    -0.744 OA
ENDBRANCH  80  81
ENDBRANCH  48  73
BRANCH  60  85
ATOM     85  C   UNL A   1      47.949  27.716  29.810  1.00  0.00     0.058 A 
ATOM     86  C   UNL A   1      48.831  28.124  28.798  1.00  0.00     0.135 A 
ATOM     87  C   UNL A   1      48.499  27.261  31.019  1.00  0.00     0.135 A 
ATOM     88  F   UNL A   1      48.356  28.554  27.619  1.00  0.00    -0.206 F 
ATOM     89  C   UNL A   1      50.209  28.091  28.982  1.00  0.00     0.059 A 
ATOM     90  C   UNL A   1      49.874  27.246  31.234  1.00  0.00     0.059 A 
ATOM     91  F   UNL A   1      47.697  26.864  32.020  1.00  0.00    -0.206 F 
ATOM     92  C   UNL A   1      50.720  27.665  30.209  1.00  0.00     0.060 A 
BRANCH  92  93
ATOM     93  S   UNL A   1      52.507  27.714  30.460  1.00  0.00     0.124 S 
ATOM     94  O   UNL A   1      52.963  26.670  29.548  1.00  0.00    -0.237 OA
ATOM     95  O   UNL A   1      52.835  29.082  30.071  1.00  0.00    -0.237 OA
ATOM     96  O   UNL A   1      52.662  27.417  31.881  1.00  0.00    -0.744 OA
ENDBRANCH  92  93
ENDBRANCH  60  85
ENDBRANCH  34  35
ENDBRANCH  27  29
ENDBRANCH  26  27
ENDBRANCH  25  26
ENDBRANCH  24  25
ENDBRANCH   1  24
TORSDOF 20
ENDMDL
MODEL 3
REMARK VINA RESULT:      -8.9      5.180     11.379
REMARK SMILES O=C(Cc1c[nH]c(=O)n(Cc2ccccc2)c1=O)OCCOCCOC(=O)c1ccc(-c2c3nc(c(-c4c(F)cc(S(=O)(=O)[O-])cc4F)c4ccc([nH]4)c(-c4c(F)cc(S(=O)(=O)[O-])cc4F)c4nc(c(-c5c(F)cc(S(=O)(=O)[O-])cc5F)c5ccc2[nH]5)C=C4)C=C3)cc1
REMARK SMILES IDX 22 1 21 2 20 3 19 4 2 5 1 6 3 7 4 8 5 9 17 10 6 11 9 12
REMARK SMILES IDX 18 13 7 14 8 16 10 17 11 18 12 19 16 20 13 21 15 22 14 23
REMARK SMILES IDX 23 24 24 25 25 26 26 27 27 28 28 29 29 30 93 31 30 32 92 33
REMARK SMILES IDX 31 34 32 35 33 36 86 37 34 38 91 39 85 40 87 41 35 42 90 43
REMARK SMILES IDX 84 44 83 45 36 47 70 48 49 49 69 50 50 51 53 52 68 53 88 54
REMARK SMILES IDX 51 55 52 56 67 58 89 59 54 60 37 61 38 62 47 63 39 64 40 65
REMARK SMILES IDX 46 66 48 67 41 68 42 69 43 70 44 71 45 72 71 73 72 74 81 75
REMARK SMILES IDX 73 76 74 77 80 78 82 79 75 80 76 81 77 82 78 83 79 84 55 85
REMARK SMILES IDX 56 86 65 87 57 88 58 89 64 90 66 91 59 92 60 93 61 94 62 95
REMARK SMILES IDX 63 96
REMARK H PARENT 6 15 87 46 53 57
REMARK Flexibility Score: inf
ROOT
ATOM      1  O   UNL A   1      34.104  30.626  27.264  1.00  0.00    -0.374 OA
ENDROOT
BRANCH   1   2
ATOM      2  C   UNL A   1      32.720  30.326  27.103  1.00  0.00     0.202 C 
BRANCH   2   3
ATOM      3  C   UNL A   1      32.245  30.064  25.680  1.00  0.00     0.261 C 
BRANCH   3   4
ATOM      4  O   UNL A   1      33.219  29.434  24.835  1.00  0.00    -0.463 OA
BRANCH   4   5
ATOM      5  C   UNL A   1      32.970  28.840  23.648  1.00  0.00     0.310 C 
ATOM      6  O   UNL A   1      31.894  29.057  23.086  1.00  0.00    -0.252 OA
BRANCH   5   7
ATOM      7  C   UNL A   1      33.986  27.918  22.996  1.00  0.00     0.165 C 
BRANCH   7   8
ATOM      8  C   UNL A   1      33.436  26.542  22.838  1.00  0.00     0.045 A 
ATOM      9  C   UNL A   1      33.004  26.029  21.684  1.00  0.00     0.097 A 
ATOM     10  C   UNL A   1      33.373  25.669  24.039  1.00  0.00     0.260 A 
ATOM     11  N   UNL A   1      32.731  24.701  21.582  1.00  0.00    -0.314 N 
ATOM     12  N   UNL A   1      33.362  24.312  23.793  1.00  0.00    -0.256 N 
ATOM     13  O   UNL A   1      33.416  26.172  25.160  1.00  0.00    -0.269 OA
ATOM     14  C   UNL A   1      32.996  23.787  22.570  1.00  0.00     0.328 A 
ATOM     15  H   UNL A   1      32.318  24.376  20.749  1.00  0.00     0.171 HD
ATOM     16  O   UNL A   1      32.890  22.588  22.319  1.00  0.00    -0.248 OA
BRANCH  12  17
ATOM     17  C   UNL A   1      33.643  23.412  24.905  1.00  0.00     0.166 C 
BRANCH  17  18
ATOM     18  C   UNL A   1      35.106  23.041  24.982  1.00  0.00    -0.028 A 
ATOM     19  C   UNL A   1      35.533  21.772  24.567  1.00  0.00     0.005 A 
ATOM     20  C   UNL A   1      36.050  23.937  25.501  1.00  0.00     0.005 A 
ATOM     21  C   UNL A   1      36.863  21.387  24.712  1.00  0.00     0.000 A 
ATOM     22  C   UNL A   1      37.387  23.557  25.626  1.00  0.00     0.000 A 
ATOM     23  C   UNL A   1      37.790  22.278  25.244  1.00  0.00     0.000 A 
ENDBRANCH  17  18
ENDBRANCH  12  17
ENDBRANCH   7   8
ENDBRANCH   5   7
ENDBRANCH   4   5
ENDBRANCH   3   4
ENDBRANCH   2   3
ENDBRANCH   1   2
BRANCH   1  24
ATOM     24  C   UNL A   1      34.389  31.756  28.095  1.00  0.00     0.202 C 
BRANCH  24  25
ATOM     25  C   UNL A   1      35.333  31.451  29.261  1.00  0.00     0.261 C 
BRANCH  25  26
ATOM     26  O   UNL A   1      35.878  30.129  29.140  1.00  0.00    -0.460 OA
BRANCH  26  27
ATOM     27  C   UNL A   1      36.654  29.719  30.176  1.00  0.00     0.338 C 
ATOM     28  O   UNL A   1      36.274  29.281  31.249  1.00  0.00    -0.246 OA
BRANCH  27  29
ATOM     29  C   UNL A   1      38.064  29.665  29.716  1.00  0.00     0.060 A 
ATOM     30  C   UNL A   1      39.127  29.617  30.621  1.00  0.00     0.016 A 
ATOM     31  C   UNL A   1      38.313  29.728  28.337  1.00  0.00     0.016 A 
ATOM     32  C   UNL A   1      40.436  29.578  30.141  1.00  0.00     0.010 A 
ATOM     33  C   UNL A   1      39.623  29.675  27.857  1.00  0.00     0.010 A 
ATOM     34  C   UNL A   1      40.691  29.562  28.756  1.00  0.00    -0.014 A 
BRANCH  34  35
ATOM     35  C   UNL A   1      42.044  29.187  28.280  1.00  0.00     0.031 A 
ATOM     36  C   UNL A   1      43.170  30.170  28.199  1.00  0.00     0.074 A 
ATOM     37  C   UNL A   1      42.229  27.900  27.927  1.00  0.00     0.049 A 
ATOM     38  N   UNL A   1      44.427  29.945  27.922  1.00  0.00    -0.248 NA
ATOM     39  C   UNL A   1      42.852  31.584  28.450  1.00  0.00     0.031 C 
ATOM     40  C   UNL A   1      41.177  26.877  27.920  1.00  0.00     0.029 A 
ATOM     41  N   UNL A   1      43.352  27.221  27.531  1.00  0.00    -0.354 N 
ATOM     42  C   UNL A   1      45.062  31.177  27.989  1.00  0.00     0.074 A 
ATOM     43  C   UNL A   1      44.039  32.159  28.286  1.00  0.00     0.031 C 
ATOM     44  C   UNL A   1      41.715  25.695  27.589  1.00  0.00     0.029 A 
ATOM     45  C   UNL A   1      43.137  25.879  27.327  1.00  0.00     0.049 A 
ATOM     46  H   UNL A   1      44.227  27.654  27.406  1.00  0.00     0.167 HD
ATOM     47  C   UNL A   1      46.381  31.450  27.836  1.00  0.00     0.037 A 
ATOM     48  C   UNL A   1      43.991  24.899  26.976  1.00  0.00     0.037 A 
ATOM     49  C   UNL A   1      47.379  30.455  27.531  1.00  0.00     0.049 A 
ATOM     50  C   UNL A   1      45.443  25.238  26.787  1.00  0.00     0.074 A 
ATOM     51  C   UNL A   1      48.748  30.626  27.401  1.00  0.00     0.029 A 
ATOM     52  N   UNL A   1      47.123  29.111  27.296  1.00  0.00    -0.354 N 
ATOM     53  N   UNL A   1      46.041  26.394  26.948  1.00  0.00    -0.248 NA
ATOM     54  C   UNL A   1      46.335  24.148  26.375  1.00  0.00     0.031 C 
ATOM     55  C   UNL A   1      49.309  29.399  27.036  1.00  0.00     0.029 A 
ATOM     56  C   UNL A   1      48.302  28.449  26.991  1.00  0.00     0.049 A 
ATOM     57  H   UNL A   1      46.234  28.690  27.339  1.00  0.00     0.167 HD
ATOM     58  C   UNL A   1      47.384  26.165  26.674  1.00  0.00     0.074 A 
ATOM     59  C   UNL A   1      47.513  24.758  26.354  1.00  0.00     0.031 C 
ATOM     60  C   UNL A   1      48.415  27.044  26.683  1.00  0.00     0.037 A 
BRANCH  47  61
ATOM     61  C   UNL A   1      46.845  32.869  28.016  1.00  0.00     0.058 A 
ATOM     62  C   UNL A   1      46.711  33.814  26.986  1.00  0.00     0.135 A 
ATOM     63  C   UNL A   1      47.310  33.322  29.262  1.00  0.00     0.135 A 
ATOM     64  F   UNL A   1      46.281  33.435  25.772  1.00  0.00    -0.206 F 
ATOM     65  C   UNL A   1      47.024  35.155  27.184  1.00  0.00     0.059 A 
ATOM     66  C   UNL A   1      47.606  34.664  29.489  1.00  0.00     0.059 A 
ATOM     67  F   UNL A   1      47.453  32.463  30.283  1.00  0.00    -0.206 F 
ATOM     68  C   UNL A   1      47.461  35.573  28.442  1.00  0.00     0.060 A 
BRANCH  68  69
ATOM     69  S   UNL A   1      47.819  37.326  28.686  1.00  0.00     0.124 S 
ATOM     70  O   UNL A   1      48.304  37.711  27.364  1.00  0.00    -0.237 OA
ATOM     71  O   UNL A   1      46.513  37.857  29.061  1.00  0.00    -0.237 OA
ATOM     72  O   UNL A   1      48.823  37.327  29.745  1.00  0.00    -0.744 OA
ENDBRANCH  68  69
ENDBRANCH  47  61
BRANCH  48  73
ATOM     73  C   UNL A   1      43.493  23.508  26.811  1.00  0.00     0.058 A 
ATOM     74  C   UNL A   1      43.277  22.963  25.538  1.00  0.00     0.135 A 
ATOM     75  C   UNL A   1      43.250  22.687  27.924  1.00  0.00     0.135 A 
ATOM     76  F   UNL A   1      43.497  23.707  24.443  1.00  0.00    -0.206 F 
ATOM     77  C   UNL A   1      42.817  21.661  25.372  1.00  0.00     0.059 A 
ATOM     78  C   UNL A   1      42.818  21.373  27.784  1.00  0.00     0.059 A 
ATOM     79  F   UNL A   1      43.464  23.154  29.164  1.00  0.00    -0.206 F 
ATOM     80  C   UNL A   1      42.591  20.873  26.503  1.00  0.00     0.060 A 
BRANCH  80  81
ATOM     81  S   UNL A   1      42.018  19.176  26.273  1.00  0.00     0.124 S 
ATOM     82  O   UNL A   1      42.163  18.634  27.618  1.00  0.00    -0.237 OA
ATOM     83  O   UNL A   1      40.649  19.378  25.808  1.00  0.00    -0.237 OA
ATOM     84  O   UNL A   1      42.941  18.643  25.274  1.00  0.00    -0.744 OA
ENDBRANCH  80  81
ENDBRANCH  48  73
BRANCH  60  85
ATOM     85  C   UNL A   1      49.784  26.522  26.348  1.00  0.00     0.058 A 
ATOM     86  C   UNL A   1      50.322  26.660  25.059  1.00  0.00     0.135 A 
ATOM     87  C   UNL A   1      50.606  25.983  27.351  1.00  0.00     0.135 A 
ATOM     88  F   UNL A   1      49.573  27.157  24.063  1.00  0.00    -0.206 F 
ATOM     89  C   UNL A   1      51.630  26.284  24.777  1.00  0.00     0.059 A 
ATOM     90  C   UNL A   1      51.927  25.627  27.096  1.00  0.00     0.059 A 
ATOM     91  F   UNL A   1      50.139  25.835  28.601  1.00  0.00    -0.206 F 
ATOM     92  C   UNL A   1      52.431  25.783  25.806  1.00  0.00     0.060 A 
BRANCH  92  93
ATOM     93  S   UNL A   1      54.153  25.386  25.440  1.00  0.00     0.124 S 
ATOM     94  O   UNL A   1      54.180  23.944  25.670  1.00  0.00    -0.237 OA
ATOM     95  O   UNL A   1      54.277  25.808  24.049  1.00  0.00    -0.237 OA
ATOM     96  O   UNL A   1      54.901  26.188  26.404  1.00  0.00    -0.744 OA
ENDBRANCH  92  93
ENDBRANCH  60  85
ENDBRANCH  34  35
ENDBRANCH  27  29
ENDBRANCH  26  27
ENDBRANCH  25  26
ENDBRANCH  24  25
ENDBRANCH   1  24
TORSDOF 20
ENDMDL
