MODEL 1
REMARK VINA RESULT:      -9.3      0.000      0.000
REMARK SMILES C[N@@H+]1CCC[C@@H](C[NH2+]CC(=O)OCCOCCOC(=O)c2ccc(-c3c4nc(c(-c5c(F)cc(S(=O)(=O)[O-])cc5F)c5ccc([nH]5)c(-c5c(F)cc(S(=O)(=O)[O-])cc5F)c5nc(c(-c6c(F)cc(S(=O)(=O)[O-])cc6F)c6ccc3[nH]6)C=C5)C=C4)cc2)C1
REMARK SMILES IDX 15 1 14 2 13 3 12 4 10 5 11 6 9 7 8 8 7 11 6 12 1 13 2 14
REMARK SMILES IDX 3 15 87 16 4 18 5 19 16 20 17 21 18 22 19 23 20 24 21 25
REMARK SMILES IDX 22 26 86 27 23 28 85 29 24 30 25 31 26 32 79 33 27 34 84 35
REMARK SMILES IDX 78 36 80 37 28 38 83 39 77 40 76 41 29 43 63 44 42 45 62 46
REMARK SMILES IDX 43 47 46 48 61 49 81 50 44 51 45 52 60 54 82 55 47 56 30 57
REMARK SMILES IDX 31 58 40 59 32 60 33 61 39 62 41 63 34 64 35 65 36 66 37 67
REMARK SMILES IDX 38 68 64 69 65 70 74 71 66 72 67 73 73 74 75 75 68 76 69 77
REMARK SMILES IDX 70 78 71 79 72 80 48 81 49 82 58 83 50 84 51 85 57 86 59 87
REMARK SMILES IDX 52 88 53 89 54 90 55 91 56 92
REMARK H PARENT 8 9 8 10 2 17 80 42 46 53
REMARK Flexibility Score: inf
ROOT
ATOM      1  O   UNL A   1      32.231  28.414  26.836  1.00  0.00    -0.374 OA
ENDROOT
BRANCH   1   2
ATOM      2  C   UNL A   1      31.190  27.443  26.843  1.00  0.00     0.202 C 
BRANCH   2   3
ATOM      3  C   UNL A   1      31.220  26.338  25.779  1.00  0.00     0.261 C 
BRANCH   3   4
ATOM      4  O   UNL A   1      30.815  26.762  24.469  1.00  0.00    -0.459 OA
BRANCH   4   5
ATOM      5  C   UNL A   1      31.773  26.704  23.503  1.00  0.00     0.361 C 
ATOM      6  O   UNL A   1      31.594  27.022  22.331  1.00  0.00    -0.245 OA
BRANCH   5   7
ATOM      7  C   UNL A   1      33.114  26.150  23.983  1.00  0.00     0.384 C 
BRANCH   7   8
ATOM      8  N   UNL A   1      33.899  25.325  23.040  1.00  0.00    -0.337 N 
ATOM      9  H   UNL A   1      33.350  25.196  22.190  1.00  0.00     0.346 HD
ATOM     10  H   UNL A   1      34.773  25.819  22.864  1.00  0.00     0.346 HD
BRANCH   8  11
ATOM     11  C   UNL A   1      34.246  24.006  23.572  1.00  0.00     0.270 C 
BRANCH  11  12
ATOM     12  C   UNL A   1      35.272  24.095  24.725  1.00  0.00     0.099 C 
ATOM     13  C   UNL A   1      34.077  21.569  27.312  1.00  0.00     0.332 C 
ATOM     14  N   UNL A   1      34.621  22.076  26.054  1.00  0.00    -0.337 N 
ATOM     15  C   UNL A   1      35.926  21.459  25.777  1.00  0.00     0.262 C 
ATOM     16  C   UNL A   1      34.762  23.540  26.073  1.00  0.00     0.271 C 
ATOM     17  H   UNL A   1      33.962  21.830  25.314  1.00  0.00     0.347 HD
ATOM     18  C   UNL A   1      36.414  21.858  24.388  1.00  0.00     0.062 C 
ATOM     19  C   UNL A   1      36.572  23.374  24.316  1.00  0.00     0.021 C 
ENDBRANCH  11  12
ENDBRANCH   8  11
ENDBRANCH   7   8
ENDBRANCH   5   7
ENDBRANCH   4   5
ENDBRANCH   3   4
ENDBRANCH   2   3
ENDBRANCH   1   2
BRANCH   1  20
ATOM     20  C   UNL A   1      31.856  29.788  26.779  1.00  0.00     0.202 C 
BRANCH  20  21
ATOM     21  C   UNL A   1      32.863  30.837  27.262  1.00  0.00     0.261 C 
BRANCH  21  22
ATOM     22  O   UNL A   1      34.153  30.295  27.572  1.00  0.00    -0.460 OA
BRANCH  22  23
ATOM     23  C   UNL A   1      34.825  30.919  28.572  1.00  0.00     0.338 C 
ATOM     24  O   UNL A   1      34.453  31.852  29.258  1.00  0.00    -0.246 OA
BRANCH  23  25
ATOM     25  C   UNL A   1      36.145  30.287  28.704  1.00  0.00     0.060 A 
ATOM     26  C   UNL A   1      36.577  29.724  29.906  1.00  0.00     0.016 A 
ATOM     27  C   UNL A   1      36.989  30.321  27.603  1.00  0.00     0.016 A 
ATOM     28  C   UNL A   1      37.876  29.204  29.998  1.00  0.00     0.010 A 
ATOM     29  C   UNL A   1      38.236  29.703  27.664  1.00  0.00     0.010 A 
ATOM     30  C   UNL A   1      38.726  29.193  28.879  1.00  0.00    -0.014 A 
BRANCH  30  31
ATOM     31  C   UNL A   1      40.172  28.816  28.969  1.00  0.00     0.031 A 
ATOM     32  C   UNL A   1      41.168  29.868  29.417  1.00  0.00     0.074 A 
ATOM     33  C   UNL A   1      40.619  27.594  28.616  1.00  0.00     0.049 A 
ATOM     34  N   UNL A   1      42.474  29.864  29.352  1.00  0.00    -0.248 NA
ATOM     35  C   UNL A   1      40.606  31.122  29.951  1.00  0.00     0.031 C 
ATOM     36  C   UNL A   1      39.790  26.481  28.151  1.00  0.00     0.029 A 
ATOM     37  N   UNL A   1      41.898  27.086  28.582  1.00  0.00    -0.354 N 
ATOM     38  C   UNL A   1      42.877  31.132  29.762  1.00  0.00     0.074 A 
ATOM     39  C   UNL A   1      41.677  31.898  30.006  1.00  0.00     0.031 C 
ATOM     40  C   UNL A   1      40.575  25.418  27.905  1.00  0.00     0.029 A 
ATOM     41  C   UNL A   1      41.969  25.784  28.140  1.00  0.00     0.049 A 
ATOM     42  H   UNL A   1      42.689  27.606  28.850  1.00  0.00     0.167 HD
ATOM     43  C   UNL A   1      44.129  31.611  29.956  1.00  0.00     0.037 A 
ATOM     44  C   UNL A   1      43.036  24.984  27.933  1.00  0.00     0.037 A 
ATOM     45  C   UNL A   1      45.316  30.810  29.829  1.00  0.00     0.049 A 
ATOM     46  C   UNL A   1      44.422  25.515  28.208  1.00  0.00     0.074 A 
ATOM     47  C   UNL A   1      46.628  31.168  30.084  1.00  0.00     0.029 A 
ATOM     48  N   UNL A   1      45.331  29.478  29.443  1.00  0.00    -0.354 N 
ATOM     49  N   UNL A   1      44.782  26.713  28.604  1.00  0.00    -0.248 NA
ATOM     50  C   UNL A   1      45.546  24.586  28.014  1.00  0.00     0.031 C 
ATOM     51  C   UNL A   1      47.440  30.062  29.824  1.00  0.00     0.029 A 
ATOM     52  C   UNL A   1      46.629  29.000  29.456  1.00  0.00     0.049 A 
ATOM     53  H   UNL A   1      44.536  28.952  29.195  1.00  0.00     0.167 HD
ATOM     54  C   UNL A   1      46.166  26.667  28.749  1.00  0.00     0.074 A 
ATOM     55  C   UNL A   1      46.580  25.327  28.395  1.00  0.00     0.031 C 
ATOM     56  C   UNL A   1      47.016  27.647  29.144  1.00  0.00     0.037 A 
BRANCH  43  57
ATOM     57  C   UNL A   1      44.280  33.057  30.355  1.00  0.00     0.058 A 
ATOM     58  C   UNL A   1      44.301  33.461  31.699  1.00  0.00     0.135 A 
ATOM     59  C   UNL A   1      44.432  34.052  29.374  1.00  0.00     0.135 A 
ATOM     60  F   UNL A   1      44.149  32.557  32.681  1.00  0.00    -0.206 F 
ATOM     61  C   UNL A   1      44.419  34.800  32.057  1.00  0.00     0.059 A 
ATOM     62  C   UNL A   1      44.591  35.394  29.710  1.00  0.00     0.059 A 
ATOM     63  F   UNL A   1      44.427  33.726  28.072  1.00  0.00    -0.206 F 
ATOM     64  C   UNL A   1      44.564  35.760  31.054  1.00  0.00     0.060 A 
BRANCH  64  65
ATOM     65  S   UNL A   1      44.720  37.492  31.538  1.00  0.00     0.124 S 
ATOM     66  O   UNL A   1      46.149  37.720  31.341  1.00  0.00    -0.237 OA
ATOM     67  O   UNL A   1      43.835  38.161  30.590  1.00  0.00    -0.237 OA
ATOM     68  O   UNL A   1      44.269  37.500  32.926  1.00  0.00    -0.744 OA
ENDBRANCH  64  65
ENDBRANCH  43  57
BRANCH  44  69
ATOM     69  C   UNL A   1      42.842  23.582  27.464  1.00  0.00     0.058 A 
ATOM     70  C   UNL A   1      42.964  23.254  26.104  1.00  0.00     0.135 A 
ATOM     71  C   UNL A   1      42.534  22.545  28.357  1.00  0.00     0.135 A 
ATOM     72  F   UNL A   1      43.247  24.211  25.207  1.00  0.00    -0.206 F 
ATOM     73  C   UNL A   1      42.772  21.955  25.644  1.00  0.00     0.059 A 
ATOM     74  C   UNL A   1      42.364  21.231  27.925  1.00  0.00     0.059 A 
ATOM     75  F   UNL A   1      42.417  22.800  29.670  1.00  0.00    -0.206 F 
ATOM     76  C   UNL A   1      42.476  20.948  26.564  1.00  0.00     0.060 A 
BRANCH  76  77
ATOM     77  S   UNL A   1      42.278  19.257  25.962  1.00  0.00     0.124 S 
ATOM     78  O   UNL A   1      43.161  19.252  24.801  1.00  0.00    -0.237 OA
ATOM     79  O   UNL A   1      42.726  18.471  27.108  1.00  0.00    -0.237 OA
ATOM     80  O   UNL A   1      40.850  19.168  25.671  1.00  0.00    -0.744 OA
ENDBRANCH  76  77
ENDBRANCH  44  69
BRANCH  56  81
ATOM     81  C   UNL A   1      48.471  27.304  29.299  1.00  0.00     0.058 A 
ATOM     82  C   UNL A   1      49.409  27.569  28.291  1.00  0.00     0.135 A 
ATOM     83  C   UNL A   1      48.945  26.806  30.524  1.00  0.00     0.135 A 
ATOM     84  F   UNL A   1      49.007  28.041  27.100  1.00  0.00    -0.206 F 
ATOM     85  C   UNL A   1      50.769  27.352  28.492  1.00  0.00     0.059 A 
ATOM     86  C   UNL A   1      50.302  26.606  30.756  1.00  0.00     0.059 A 
ATOM     87  F   UNL A   1      48.089  26.545  31.525  1.00  0.00    -0.206 F 
ATOM     88  C   UNL A   1      51.206  26.880  29.732  1.00  0.00     0.060 A 
BRANCH  88  89
ATOM     89  S   UNL A   1      52.980  26.676  30.003  1.00  0.00     0.124 S 
ATOM     90  O   UNL A   1      53.395  26.026  28.766  1.00  0.00    -0.237 OA
ATOM     91  O   UNL A   1      53.428  28.055  30.178  1.00  0.00    -0.237 OA
ATOM     92  O   UNL A   1      53.047  25.845  31.202  1.00  0.00    -0.744 OA
ENDBRANCH  88  89
ENDBRANCH  56  81
ENDBRANCH  30  31
ENDBRANCH  23  25
ENDBRANCH  22  23
ENDBRANCH  21  22
ENDBRANCH  20  21
ENDBRANCH   1  20
TORSDOF 20
ENDMDL
MODEL 2
REMARK VINA RESULT:      -9.3      2.197      3.239
REMARK SMILES C[N@@H+]1CCC[C@@H](C[NH2+]CC(=O)OCCOCCOC(=O)c2ccc(-c3c4nc(c(-c5c(F)cc(S(=O)(=O)[O-])cc5F)c5ccc([nH]5)c(-c5c(F)cc(S(=O)(=O)[O-])cc5F)c5nc(c(-c6c(F)cc(S(=O)(=O)[O-])cc6F)c6ccc3[nH]6)C=C5)C=C4)cc2)C1
REMARK SMILES IDX 15 1 14 2 13 3 12 4 10 5 11 6 9 7 8 8 7 11 6 12 1 13 2 14
REMARK SMILES IDX 3 15 87 16 4 18 5 19 16 20 17 21 18 22 19 23 20 24 21 25
REMARK SMILES IDX 22 26 86 27 23 28 85 29 24 30 25 31 26 32 79 33 27 34 84 35
REMARK SMILES IDX 78 36 80 37 28 38 83 39 77 40 76 41 29 43 63 44 42 45 62 46
REMARK SMILES IDX 43 47 46 48 61 49 81 50 44 51 45 52 60 54 82 55 47 56 30 57
REMARK SMILES IDX 31 58 40 59 32 60 33 61 39 62 41 63 34 64 35 65 36 66 37 67
REMARK SMILES IDX 38 68 64 69 65 70 74 71 66 72 67 73 73 74 75 75 68 76 69 77
REMARK SMILES IDX 70 78 71 79 72 80 48 81 49 82 58 83 50 84 51 85 57 86 59 87
REMARK SMILES IDX 52 88 53 89 54 90 55 91 56 92
REMARK H PARENT 8 9 8 10 2 17 80 42 46 53
REMARK Flexibility Score: inf
ROOT
ATOM      1  O   UNL A   1      33.060  29.909  27.575  1.00  0.00    -0.374 OA
ENDROOT
BRANCH   1   2
ATOM      2  C   UNL A   1      32.179  29.621  26.494  1.00  0.00     0.202 C 
BRANCH   2   3
ATOM      3  C   UNL A   1      31.460  28.266  26.484  1.00  0.00     0.261 C 
BRANCH   3   4
ATOM      4  O   UNL A   1      32.294  27.148  26.824  1.00  0.00    -0.459 OA
BRANCH   4   5
ATOM      5  C   UNL A   1      32.471  26.218  25.846  1.00  0.00     0.361 C 
ATOM      6  O   UNL A   1      31.579  25.813  25.106  1.00  0.00    -0.245 OA
BRANCH   5   7
ATOM      7  C   UNL A   1      33.891  25.659  25.763  1.00  0.00     0.384 C 
BRANCH   7   8
ATOM      8  N   UNL A   1      34.061  24.271  25.286  1.00  0.00    -0.337 N 
ATOM      9  H   UNL A   1      33.237  23.733  25.557  1.00  0.00     0.346 HD
ATOM     10  H   UNL A   1      34.179  24.311  24.274  1.00  0.00     0.346 HD
BRANCH   8  11
ATOM     11  C   UNL A   1      35.247  23.609  25.834  1.00  0.00     0.270 C 
BRANCH  11  12
ATOM     12  C   UNL A   1      36.403  23.546  24.810  1.00  0.00     0.099 C 
ATOM     13  C   UNL A   1      39.499  22.706  26.864  1.00  0.00     0.332 C 
ATOM     14  N   UNL A   1      38.195  22.524  26.230  1.00  0.00    -0.337 N 
ATOM     15  C   UNL A   1      38.206  21.329  25.374  1.00  0.00     0.262 C 
ATOM     16  C   UNL A   1      37.810  23.698  25.431  1.00  0.00     0.271 C 
ATOM     17  H   UNL A   1      37.506  22.406  26.974  1.00  0.00     0.347 HD
ATOM     18  C   UNL A   1      36.804  21.043  24.847  1.00  0.00     0.062 C 
ATOM     19  C   UNL A   1      36.318  22.227  24.016  1.00  0.00     0.021 C 
ENDBRANCH  11  12
ENDBRANCH   8  11
ENDBRANCH   7   8
ENDBRANCH   5   7
ENDBRANCH   4   5
ENDBRANCH   3   4
ENDBRANCH   2   3
ENDBRANCH   1   2
BRANCH   1  20
ATOM     20  C   UNL A   1      33.662  31.200  27.612  1.00  0.00     0.202 C 
BRANCH  20  21
ATOM     21  C   UNL A   1      35.052  31.335  28.243  1.00  0.00     0.261 C 
BRANCH  21  22
ATOM     22  O   UNL A   1      35.554  30.111  28.795  1.00  0.00    -0.460 OA
BRANCH  22  23
ATOM     23  C   UNL A   1      36.352  30.245  29.884  1.00  0.00     0.338 C 
ATOM     24  O   UNL A   1      36.028  30.525  31.022  1.00  0.00    -0.246 OA
BRANCH  23  25
ATOM     25  C   UNL A   1      37.742  30.010  29.468  1.00  0.00     0.060 A 
ATOM     26  C   UNL A   1      38.119  30.003  28.125  1.00  0.00     0.016 A 
ATOM     27  C   UNL A   1      38.673  29.730  30.458  1.00  0.00     0.016 A 
ATOM     28  C   UNL A   1      39.443  29.697  27.779  1.00  0.00     0.010 A 
ATOM     29  C   UNL A   1      40.011  29.538  30.120  1.00  0.00     0.010 A 
ATOM     30  C   UNL A   1      40.405  29.453  28.773  1.00  0.00    -0.014 A 
BRANCH  30  31
ATOM     31  C   UNL A   1      41.780  28.951  28.459  1.00  0.00     0.031 A 
ATOM     32  C   UNL A   1      42.928  29.941  28.447  1.00  0.00     0.074 A 
ATOM     33  C   UNL A   1      42.018  27.663  28.136  1.00  0.00     0.049 A 
ATOM     34  N   UNL A   1      44.144  29.807  27.985  1.00  0.00    -0.248 NA
ATOM     35  C   UNL A   1      42.641  31.288  28.972  1.00  0.00     0.031 C 
ATOM     36  C   UNL A   1      41.020  26.595  28.088  1.00  0.00     0.029 A 
ATOM     37  N   UNL A   1      43.188  27.035  27.773  1.00  0.00    -0.354 N 
ATOM     38  C   UNL A   1      44.731  31.065  28.094  1.00  0.00     0.074 A 
ATOM     39  C   UNL A   1      43.718  31.961  28.601  1.00  0.00     0.031 C 
ATOM     40  C   UNL A   1      41.620  25.443  27.743  1.00  0.00     0.029 A 
ATOM     41  C   UNL A   1      43.038  25.696  27.492  1.00  0.00     0.049 A 
ATOM     42  H   UNL A   1      44.053  27.501  27.720  1.00  0.00     0.167 HD
ATOM     43  C   UNL A   1      46.007  31.439  27.834  1.00  0.00     0.037 A 
ATOM     44  C   UNL A   1      43.934  24.782  27.066  1.00  0.00     0.037 A 
ATOM     45  C   UNL A   1      47.042  30.520  27.446  1.00  0.00     0.049 A 
ATOM     46  C   UNL A   1      45.365  25.202  26.835  1.00  0.00     0.074 A 
ATOM     47  C   UNL A   1      48.387  30.775  27.240  1.00  0.00     0.029 A 
ATOM     48  N   UNL A   1      46.855  29.162  27.239  1.00  0.00    -0.354 N 
ATOM     49  N   UNL A   1      45.903  26.393  26.952  1.00  0.00    -0.248 NA
ATOM     50  C   UNL A   1      46.312  24.157  26.419  1.00  0.00     0.031 C 
ATOM     51  C   UNL A   1      49.007  29.576  26.879  1.00  0.00     0.029 A 
ATOM     52  C   UNL A   1      48.058  28.565  26.910  1.00  0.00     0.049 A 
ATOM     53  H   UNL A   1      45.992  28.692  27.314  1.00  0.00     0.167 HD
ATOM     54  C   UNL A   1      47.256  26.230  26.669  1.00  0.00     0.074 A 
ATOM     55  C   UNL A   1      47.456  24.828  26.370  1.00  0.00     0.031 C 
ATOM     56  C   UNL A   1      48.245  27.158  26.661  1.00  0.00     0.037 A 
BRANCH  43  57
ATOM     57  C   UNL A   1      46.363  32.896  27.988  1.00  0.00     0.058 A 
ATOM     58  C   UNL A   1      46.193  33.819  26.944  1.00  0.00     0.135 A 
ATOM     59  C   UNL A   1      46.858  33.380  29.210  1.00  0.00     0.135 A 
ATOM     60  F   UNL A   1      45.734  33.413  25.749  1.00  0.00    -0.206 F 
ATOM     61  C   UNL A   1      46.545  35.157  27.088  1.00  0.00     0.059 A 
ATOM     62  C   UNL A   1      47.180  34.723  29.391  1.00  0.00     0.059 A 
ATOM     63  F   UNL A   1      47.036  32.547  30.247  1.00  0.00    -0.206 F 
ATOM     64  C   UNL A   1      47.037  35.600  28.316  1.00  0.00     0.060 A 
BRANCH  64  65
ATOM     65  S   UNL A   1      47.483  37.340  28.487  1.00  0.00     0.124 S 
ATOM     66  O   UNL A   1      47.758  37.706  27.100  1.00  0.00    -0.237 OA
ATOM     67  O   UNL A   1      46.275  37.916  29.066  1.00  0.00    -0.237 OA
ATOM     68  O   UNL A   1      48.645  37.309  29.370  1.00  0.00    -0.744 OA
ENDBRANCH  64  65
ENDBRANCH  43  57
BRANCH  44  69
ATOM     69  C   UNL A   1      43.517  23.366  26.853  1.00  0.00     0.058 A 
ATOM     70  C   UNL A   1      43.365  22.488  27.937  1.00  0.00     0.135 A 
ATOM     71  C   UNL A   1      43.261  22.862  25.568  1.00  0.00     0.135 A 
ATOM     72  F   UNL A   1      43.609  22.918  29.186  1.00  0.00    -0.206 F 
ATOM     73  C   UNL A   1      42.992  21.160  27.758  1.00  0.00     0.059 A 
ATOM     74  C   UNL A   1      42.859  21.543  25.365  1.00  0.00     0.059 A 
ATOM     75  F   UNL A   1      43.378  23.660  24.496  1.00  0.00    -0.206 F 
ATOM     76  C   UNL A   1      42.737  20.697  26.467  1.00  0.00     0.060 A 
BRANCH  76  77
ATOM     77  S   UNL A   1      42.204  18.985  26.250  1.00  0.00     0.124 S 
ATOM     78  O   UNL A   1      43.181  18.492  25.286  1.00  0.00    -0.237 OA
ATOM     79  O   UNL A   1      42.321  18.455  27.606  1.00  0.00    -0.237 OA
ATOM     80  O   UNL A   1      40.838  19.118  25.754  1.00  0.00    -0.744 OA
ENDBRANCH  76  77
ENDBRANCH  44  69
BRANCH  56  81
ATOM     81  C   UNL A   1      49.651  26.695  26.401  1.00  0.00     0.058 A 
ATOM     82  C   UNL A   1      50.440  26.117  27.405  1.00  0.00     0.135 A 
ATOM     83  C   UNL A   1      50.169  26.730  25.095  1.00  0.00     0.135 A 
ATOM     84  F   UNL A   1      49.994  26.064  28.670  1.00  0.00    -0.206 F 
ATOM     85  C   UNL A   1      51.697  25.589  27.124  1.00  0.00     0.059 A 
ATOM     86  C   UNL A   1      51.411  26.185  24.787  1.00  0.00     0.059 A 
ATOM     87  F   UNL A   1      49.447  27.264  24.096  1.00  0.00    -0.206 F 
ATOM     88  C   UNL A   1      52.169  25.619  25.809  1.00  0.00     0.060 A 
BRANCH  88  89
ATOM     89  S   UNL A   1      53.768  24.862  25.446  1.00  0.00     0.124 S 
ATOM     90  O   UNL A   1      54.501  25.114  26.682  1.00  0.00    -0.237 OA
ATOM     91  O   UNL A   1      53.403  23.471  25.196  1.00  0.00    -0.237 OA
ATOM     92  O   UNL A   1      54.235  25.600  24.276  1.00  0.00    -0.744 OA
ENDBRANCH  88  89
ENDBRANCH  56  81
ENDBRANCH  30  31
ENDBRANCH  23  25
ENDBRANCH  22  23
ENDBRANCH  21  22
ENDBRANCH  20  21
ENDBRANCH   1  20
TORSDOF 20
ENDMDL
MODEL 3
REMARK VINA RESULT:      -9.2      2.563      4.331
REMARK SMILES C[N@@H+]1CCC[C@@H](C[NH2+]CC(=O)OCCOCCOC(=O)c2ccc(-c3c4nc(c(-c5c(F)cc(S(=O)(=O)[O-])cc5F)c5ccc([nH]5)c(-c5c(F)cc(S(=O)(=O)[O-])cc5F)c5nc(c(-c6c(F)cc(S(=O)(=O)[O-])cc6F)c6ccc3[nH]6)C=C5)C=C4)cc2)C1
REMARK SMILES IDX 15 1 14 2 13 3 12 4 10 5 11 6 9 7 8 8 7 11 6 12 1 13 2 14
REMARK SMILES IDX 3 15 87 16 4 18 5 19 16 20 17 21 18 22 19 23 20 24 21 25
REMARK SMILES IDX 22 26 86 27 23 28 85 29 24 30 25 31 26 32 79 33 27 34 84 35
REMARK SMILES IDX 78 36 80 37 28 38 83 39 77 40 76 41 29 43 63 44 42 45 62 46
REMARK SMILES IDX 43 47 46 48 61 49 81 50 44 51 45 52 60 54 82 55 47 56 30 57
REMARK SMILES IDX 31 58 40 59 32 60 33 61 39 62 41 63 34 64 35 65 36 66 37 67
REMARK SMILES IDX 38 68 64 69 65 70 74 71 66 72 67 73 73 74 75 75 68 76 69 77
REMARK SMILES IDX 70 78 71 79 72 80 48 81 49 82 58 83 50 84 51 85 57 86 59 87
REMARK SMILES IDX 52 88 53 89 54 90 55 91 56 92
REMARK H PARENT 8 9 8 10 2 17 80 42 46 53
REMARK Flexibility Score: inf
ROOT
ATOM      1  O   UNL A   1      33.300  30.505  27.436  1.00  0.00    -0.374 OA
ENDROOT
BRANCH   1   2
ATOM      2  C   UNL A   1      33.149  29.635  26.319  1.00  0.00     0.202 C 
BRANCH   2   3
ATOM      3  C   UNL A   1      31.806  28.915  26.135  1.00  0.00     0.261 C 
BRANCH   3   4
ATOM      4  O   UNL A   1      31.896  27.482  26.124  1.00  0.00    -0.459 OA
BRANCH   4   5
ATOM      5  C   UNL A   1      31.500  26.871  24.974  1.00  0.00     0.361 C 
ATOM      6  O   UNL A   1      31.967  25.815  24.555  1.00  0.00    -0.245 OA
BRANCH   5   7
ATOM      7  C   UNL A   1      30.438  27.640  24.189  1.00  0.00     0.384 C 
BRANCH   7   8
ATOM      8  N   UNL A   1      30.743  28.011  22.791  1.00  0.00    -0.337 N 
ATOM      9  H   UNL A   1      31.736  27.847  22.623  1.00  0.00     0.346 HD
ATOM     10  H   UNL A   1      30.151  27.438  22.191  1.00  0.00     0.346 HD
BRANCH   8  11
ATOM     11  C   UNL A   1      30.447  29.411  22.484  1.00  0.00     0.270 C 
BRANCH  11  12
ATOM     12  C   UNL A   1      29.086  29.859  23.065  1.00  0.00     0.099 C 
ATOM     13  C   UNL A   1      29.311  33.653  23.304  1.00  0.00     0.332 C 
ATOM     14  N   UNL A   1      29.236  32.330  22.689  1.00  0.00    -0.337 N 
ATOM     15  C   UNL A   1      28.105  32.266  21.751  1.00  0.00     0.262 C 
ATOM     16  C   UNL A   1      29.099  31.268  23.698  1.00  0.00     0.271 C 
ATOM     17  H   UNL A   1      30.109  32.177  22.184  1.00  0.00     0.347 HD
ATOM     18  C   UNL A   1      28.128  30.947  20.986  1.00  0.00     0.062 C 
ATOM     19  C   UNL A   1      28.006  29.785  21.966  1.00  0.00     0.021 C 
ENDBRANCH  11  12
ENDBRANCH   8  11
ENDBRANCH   7   8
ENDBRANCH   5   7
ENDBRANCH   4   5
ENDBRANCH   3   4
ENDBRANCH   2   3
ENDBRANCH   1   2
BRANCH   1  20
ATOM     20  C   UNL A   1      34.579  31.100  27.644  1.00  0.00     0.202 C 
BRANCH  20  21
ATOM     21  C   UNL A   1      34.679  32.287  28.607  1.00  0.00     0.261 C 
BRANCH  21  22
ATOM     22  O   UNL A   1      35.969  32.426  29.214  1.00  0.00    -0.460 OA
BRANCH  22  23
ATOM     23  C   UNL A   1      36.215  31.600  30.263  1.00  0.00     0.338 C 
ATOM     24  O   UNL A   1      35.537  31.428  31.257  1.00  0.00    -0.246 OA
BRANCH  23  25
ATOM     25  C   UNL A   1      37.497  30.922  30.024  1.00  0.00     0.060 A 
ATOM     26  C   UNL A   1      38.382  30.631  31.063  1.00  0.00     0.016 A 
ATOM     27  C   UNL A   1      37.836  30.628  28.711  1.00  0.00     0.016 A 
ATOM     28  C   UNL A   1      39.626  30.053  30.770  1.00  0.00     0.010 A 
ATOM     29  C   UNL A   1      39.023  29.952  28.435  1.00  0.00     0.010 A 
ATOM     30  C   UNL A   1      39.965  29.712  29.450  1.00  0.00    -0.014 A 
BRANCH  30  31
ATOM     31  C   UNL A   1      41.339  29.260  29.062  1.00  0.00     0.031 A 
ATOM     32  C   UNL A   1      42.464  30.276  29.070  1.00  0.00     0.074 A 
ATOM     33  C   UNL A   1      41.593  27.999  28.659  1.00  0.00     0.049 A 
ATOM     34  N   UNL A   1      43.666  30.197  28.561  1.00  0.00    -0.248 NA
ATOM     35  C   UNL A   1      42.166  31.584  29.680  1.00  0.00     0.031 C 
ATOM     36  C   UNL A   1      40.617  26.912  28.582  1.00  0.00     0.029 A 
ATOM     37  N   UNL A   1      42.763  27.420  28.222  1.00  0.00    -0.354 N 
ATOM     38  C   UNL A   1      44.230  31.460  28.722  1.00  0.00     0.074 A 
ATOM     39  C   UNL A   1      43.216  32.302  29.313  1.00  0.00     0.031 C 
ATOM     40  C   UNL A   1      41.230  25.796  28.152  1.00  0.00     0.029 A 
ATOM     41  C   UNL A   1      42.632  26.095  27.869  1.00  0.00     0.049 A 
ATOM     42  H   UNL A   1      43.616  27.908  28.167  1.00  0.00     0.167 HD
ATOM     43  C   UNL A   1      45.488  31.877  28.442  1.00  0.00     0.037 A 
ATOM     44  C   UNL A   1      43.532  25.228  27.362  1.00  0.00     0.037 A 
ATOM     45  C   UNL A   1      46.528  31.006  27.969  1.00  0.00     0.049 A 
ATOM     46  C   UNL A   1      44.946  25.694  27.108  1.00  0.00     0.074 A 
ATOM     47  C   UNL A   1      47.859  31.304  27.734  1.00  0.00     0.029 A 
ATOM     48  N   UNL A   1      46.363  29.658  27.690  1.00  0.00    -0.354 N 
ATOM     49  N   UNL A   1      45.462  26.889  27.277  1.00  0.00    -0.248 NA
ATOM     50  C   UNL A   1      45.900  24.696  26.602  1.00  0.00     0.031 C 
ATOM     51  C   UNL A   1      48.492  30.143  27.284  1.00  0.00     0.029 A 
ATOM     52  C   UNL A   1      47.567  29.110  27.288  1.00  0.00     0.049 A 
ATOM     53  H   UNL A   1      45.514  29.165  27.766  1.00  0.00     0.167 HD
ATOM     54  C   UNL A   1      46.807  26.774  26.939  1.00  0.00     0.074 A 
ATOM     55  C   UNL A   1      47.027  25.396  26.555  1.00  0.00     0.031 C 
ATOM     56  C   UNL A   1      47.775  27.724  26.952  1.00  0.00     0.037 A 
BRANCH  43  57
ATOM     57  C   UNL A   1      45.817  33.331  28.668  1.00  0.00     0.058 A 
ATOM     58  C   UNL A   1      45.635  34.301  27.669  1.00  0.00     0.135 A 
ATOM     59  C   UNL A   1      46.299  33.765  29.914  1.00  0.00     0.135 A 
ATOM     60  F   UNL A   1      45.188  33.945  26.453  1.00  0.00    -0.206 F 
ATOM     61  C   UNL A   1      45.963  35.636  27.879  1.00  0.00     0.059 A 
ATOM     62  C   UNL A   1      46.596  35.103  30.161  1.00  0.00     0.059 A 
ATOM     63  F   UNL A   1      46.488  32.886  30.911  1.00  0.00    -0.206 F 
ATOM     64  C   UNL A   1      46.443  36.028  29.129  1.00  0.00     0.060 A 
BRANCH  64  65
ATOM     65  S   UNL A   1      46.857  37.766  29.385  1.00  0.00     0.124 S 
ATOM     66  O   UNL A   1      45.628  38.424  28.952  1.00  0.00    -0.237 OA
ATOM     67  O   UNL A   1      47.131  37.813  30.818  1.00  0.00    -0.237 OA
ATOM     68  O   UNL A   1      48.016  37.970  28.522  1.00  0.00    -0.744 OA
ENDBRANCH  64  65
ENDBRANCH  43  57
BRANCH  44  69
ATOM     69  C   UNL A   1      43.139  23.818  27.082  1.00  0.00     0.058 A 
ATOM     70  C   UNL A   1      43.123  22.857  28.105  1.00  0.00     0.135 A 
ATOM     71  C   UNL A   1      42.771  23.400  25.794  1.00  0.00     0.135 A 
ATOM     72  F   UNL A   1      43.476  23.202  29.354  1.00  0.00    -0.206 F 
ATOM     73  C   UNL A   1      42.773  21.532  27.861  1.00  0.00     0.059 A 
ATOM     74  C   UNL A   1      42.391  22.086  25.529  1.00  0.00     0.059 A 
ATOM     75  F   UNL A   1      42.757  24.280  24.780  1.00  0.00    -0.206 F 
ATOM     76  C   UNL A   1      42.405  21.157  26.569  1.00  0.00     0.060 A 
BRANCH  76  77
ATOM     77  S   UNL A   1      41.904  19.446  26.274  1.00  0.00     0.124 S 
ATOM     78  O   UNL A   1      42.789  19.066  25.178  1.00  0.00    -0.237 OA
ATOM     79  O   UNL A   1      42.180  18.821  27.564  1.00  0.00    -0.237 OA
ATOM     80  O   UNL A   1      40.490  19.564  25.933  1.00  0.00    -0.744 OA
ENDBRANCH  76  77
ENDBRANCH  44  69
BRANCH  56  81
ATOM     81  C   UNL A   1      49.181  27.309  26.620  1.00  0.00     0.058 A 
ATOM     82  C   UNL A   1      49.670  27.324  25.307  1.00  0.00     0.135 A 
ATOM     83  C   UNL A   1      50.082  27.002  27.654  1.00  0.00     0.135 A 
ATOM     84  F   UNL A   1      48.849  27.606  24.283  1.00  0.00    -0.206 F 
ATOM     85  C   UNL A   1      51.005  27.047  25.027  1.00  0.00     0.059 A 
ATOM     86  C   UNL A   1      51.426  26.748  27.401  1.00  0.00     0.059 A 
ATOM     87  F   UNL A   1      49.666  26.985  28.931  1.00  0.00    -0.206 F 
ATOM     88  C   UNL A   1      51.878  26.771  26.083  1.00  0.00     0.060 A 
BRANCH  88  89
ATOM     89  S   UNL A   1      53.622  26.490  25.713  1.00  0.00     0.124 S 
ATOM     90  O   UNL A   1      53.976  27.715  25.006  1.00  0.00    -0.237 OA
ATOM     91  O   UNL A   1      54.201  26.335  27.045  1.00  0.00    -0.237 OA
ATOM     92  O   UNL A   1      53.606  25.277  24.899  1.00  0.00    -0.744 OA
ENDBRANCH  88  89
ENDBRANCH  56  81
ENDBRANCH  30  31
ENDBRANCH  23  25
ENDBRANCH  22  23
ENDBRANCH  21  22
ENDBRANCH  20  21
ENDBRANCH   1  20
TORSDOF 20
ENDMDL
