MODEL 1
REMARK VINA RESULT:     -11.4      0.000      0.000
REMARK SMILES COc1ccc2c(c1)c(CC(=O)OCCOCCOC(=O)c1ccc(-c3c4nc(c(-c5c(F)cc(S(=O)(=O)[O-])cc5F)c5ccc([nH]5)c(-c5c(F)cc(S(=O)(=O)[O-])cc5F)c5nc(c(-c6c(F)cc(S(=O)(=O)[O-])cc6F)c6ccc3[nH]6)C=C5)C=C4)cc1)c(C(F)(F)F)n2C(=O)c1ccc(Cl)cc1
REMARK SMILES IDX 16 1 15 2 14 3 13 4 11 5 12 6 10 7 9 8 3 9 4 10 8 11 5 12
REMARK SMILES IDX 7 13 6 14 93 15 88 16 2 17 1 18 94 19 95 20 96 21 97 22
REMARK SMILES IDX 102 23 98 24 101 25 99 26 100 27 89 28 90 29 91 30 92 31
REMARK SMILES IDX 17 32 18 33 19 34 20 35 21 36 22 37 23 38 87 39 24 40 86 41
REMARK SMILES IDX 25 42 26 43 27 44 80 45 28 46 85 47 79 48 81 49 29 50 84 51
REMARK SMILES IDX 78 52 77 53 30 55 64 56 43 57 63 58 44 59 47 60 62 61 82 62
REMARK SMILES IDX 45 63 46 64 61 66 83 67 48 68 31 69 32 70 41 71 33 72 34 73
REMARK SMILES IDX 40 74 42 75 35 76 36 77 37 78 38 79 39 80 65 81 66 82 75 83
REMARK SMILES IDX 67 84 68 85 74 86 76 87 69 88 70 89 71 90 72 91 73 92 49 93
REMARK SMILES IDX 50 94 59 95 51 96 52 97 58 98 60 99 53 100 54 101 55 102
REMARK SMILES IDX 56 103 57 104
REMARK H PARENT 81 54 47 65
REMARK Flexibility Score: inf
ROOT
ATOM      1  O   UNL A   1      35.198  21.067  24.423  1.00  0.00    -0.374 OA
ENDROOT
BRANCH   1   2
ATOM      2  C   UNL A   1      34.254  22.125  24.374  1.00  0.00     0.202 C 
BRANCH   2   3
ATOM      3  C   UNL A   1      34.647  23.556  24.782  1.00  0.00     0.261 C 
BRANCH   3   4
ATOM      4  O   UNL A   1      34.461  23.854  26.178  1.00  0.00    -0.463 OA
BRANCH   4   5
ATOM      5  C   UNL A   1      33.273  23.430  26.683  1.00  0.00     0.310 C 
ATOM      6  O   UNL A   1      33.077  22.305  27.137  1.00  0.00    -0.252 OA
BRANCH   5   7
ATOM      7  C   UNL A   1      32.155  24.447  26.668  1.00  0.00     0.161 C 
BRANCH   7   8
ATOM      8  C   UNL A   1      32.166  25.574  25.655  1.00  0.00     0.002 A 
ATOM      9  C   UNL A   1      33.833  28.816  26.837  1.00  0.00     0.119 A 
ATOM     10  C   UNL A   1      33.587  29.538  25.687  1.00  0.00     0.048 A 
ATOM     11  C   UNL A   1      33.299  27.529  26.956  1.00  0.00     0.057 A 
ATOM     12  C   UNL A   1      32.848  28.975  24.641  1.00  0.00     0.031 A 
ATOM     13  C   UNL A   1      32.659  26.892  25.862  1.00  0.00     0.008 A 
ATOM     14  C   UNL A   1      32.417  27.630  24.700  1.00  0.00     0.057 A 
ATOM     15  N   UNL A   1      31.679  26.820  23.809  1.00  0.00    -0.271 N 
ATOM     16  C   UNL A   1      31.564  25.550  24.394  1.00  0.00     0.135 A 
BRANCH   9  17
ATOM     17  O   UNL A   1      34.627  29.210  27.880  1.00  0.00    -0.497 OA
ATOM     18  C   UNL A   1      35.664  30.148  27.609  1.00  0.00     0.278 C 
ENDBRANCH   9  17
BRANCH  15  19
ATOM     19  C   UNL A   1      31.078  27.273  22.597  1.00  0.00     0.262 C 
ATOM     20  O   UNL A   1      31.265  26.628  21.570  1.00  0.00    -0.268 OA
BRANCH  19  21
ATOM     21  C   UNL A   1      30.114  28.383  22.463  1.00  0.00     0.040 A 
ATOM     22  C   UNL A   1      30.443  29.575  21.807  1.00  0.00     0.015 A 
ATOM     23  C   UNL A   1      28.854  28.218  23.054  1.00  0.00     0.015 A 
ATOM     24  C   UNL A   1      29.535  30.642  21.835  1.00  0.00     0.021 A 
ATOM     25  C   UNL A   1      27.949  29.280  23.067  1.00  0.00     0.021 A 
ATOM     26  C   UNL A   1      28.303  30.495  22.479  1.00  0.00     0.041 A 
ATOM     27  Cl  UNL A   1      27.221  31.829  22.573  1.00  0.00    -0.084 Cl
ENDBRANCH  19  21
ENDBRANCH  15  19
BRANCH  16  28
ATOM     28  C   UNL A   1      30.862  24.353  23.819  1.00  0.00     0.432 C 
ATOM     29  F   UNL A   1      29.638  24.732  23.361  1.00  0.00    -0.165 F 
ATOM     30  F   UNL A   1      31.545  23.899  22.733  1.00  0.00    -0.165 F 
ATOM     31  F   UNL A   1      30.635  23.299  24.619  1.00  0.00    -0.165 F 
ENDBRANCH  16  28
ENDBRANCH   7   8
ENDBRANCH   5   7
ENDBRANCH   4   5
ENDBRANCH   3   4
ENDBRANCH   2   3
ENDBRANCH   1   2
BRANCH   1  32
ATOM     32  C   UNL A   1      36.246  21.184  25.373  1.00  0.00     0.202 C 
BRANCH  32  33
ATOM     33  C   UNL A   1      37.627  21.686  24.910  1.00  0.00     0.261 C 
BRANCH  33  34
ATOM     34  O   UNL A   1      38.175  22.690  25.763  1.00  0.00    -0.460 OA
BRANCH  34  35
ATOM     35  C   UNL A   1      39.357  22.340  26.347  1.00  0.00     0.338 C 
ATOM     36  O   UNL A   1      39.945  21.288  26.269  1.00  0.00    -0.246 OA
BRANCH  35  37
ATOM     37  C   UNL A   1      39.946  23.638  26.718  1.00  0.00     0.060 A 
ATOM     38  C   UNL A   1      41.210  23.679  27.318  1.00  0.00     0.016 A 
ATOM     39  C   UNL A   1      39.028  24.690  26.847  1.00  0.00     0.016 A 
ATOM     40  C   UNL A   1      41.513  24.743  28.152  1.00  0.00     0.010 A 
ATOM     41  C   UNL A   1      39.317  25.723  27.722  1.00  0.00     0.010 A 
ATOM     42  C   UNL A   1      40.541  25.724  28.402  1.00  0.00    -0.014 A 
BRANCH  42  43
ATOM     43  C   UNL A   1      40.928  26.902  29.173  1.00  0.00     0.031 A 
ATOM     44  C   UNL A   1      42.073  27.599  28.528  1.00  0.00     0.074 A 
ATOM     45  C   UNL A   1      40.240  27.413  30.214  1.00  0.00     0.049 A 
ATOM     46  N   UNL A   1      43.269  27.768  28.990  1.00  0.00    -0.248 NA
ATOM     47  C   UNL A   1      41.929  27.952  27.100  1.00  0.00     0.031 C 
ATOM     48  C   UNL A   1      38.980  26.954  30.786  1.00  0.00     0.029 A 
ATOM     49  N   UNL A   1      40.482  28.553  30.925  1.00  0.00    -0.354 N 
ATOM     50  C   UNL A   1      43.949  28.455  27.990  1.00  0.00     0.074 A 
ATOM     51  C   UNL A   1      43.172  28.315  26.790  1.00  0.00     0.031 C 
ATOM     52  C   UNL A   1      38.448  27.912  31.573  1.00  0.00     0.029 A 
ATOM     53  C   UNL A   1      39.381  29.015  31.651  1.00  0.00     0.049 A 
ATOM     54  H   UNL A   1      41.355  29.008  30.927  1.00  0.00     0.167 HD
ATOM     55  C   UNL A   1      44.947  29.333  28.273  1.00  0.00     0.037 A 
ATOM     56  C   UNL A   1      39.227  30.260  32.173  1.00  0.00     0.037 A 
ATOM     57  C   UNL A   1      45.487  29.118  29.587  1.00  0.00     0.049 A 
ATOM     58  C   UNL A   1      40.598  30.829  32.307  1.00  0.00     0.074 A 
ATOM     59  C   UNL A   1      46.093  28.042  30.208  1.00  0.00     0.029 A 
ATOM     60  N   UNL A   1      45.077  29.951  30.600  1.00  0.00    -0.354 N 
ATOM     61  N   UNL A   1      41.503  30.333  33.111  1.00  0.00    -0.248 NA
ATOM     62  C   UNL A   1      41.116  31.586  31.176  1.00  0.00     0.031 C 
ATOM     63  C   UNL A   1      45.575  28.042  31.533  1.00  0.00     0.029 A 
ATOM     64  C   UNL A   1      44.746  29.157  31.671  1.00  0.00     0.049 A 
ATOM     65  H   UNL A   1      45.029  30.934  30.565  1.00  0.00     0.167 HD
ATOM     66  C   UNL A   1      42.684  30.352  32.380  1.00  0.00     0.074 A 
ATOM     67  C   UNL A   1      42.387  31.174  31.206  1.00  0.00     0.031 C 
ATOM     68  C   UNL A   1      43.701  29.473  32.623  1.00  0.00     0.037 A 
BRANCH  55  69
ATOM     69  C   UNL A   1      45.167  30.593  27.476  1.00  0.00     0.058 A 
ATOM     70  C   UNL A   1      46.442  30.880  26.960  1.00  0.00     0.135 A 
ATOM     71  C   UNL A   1      44.225  31.647  27.403  1.00  0.00     0.135 A 
ATOM     72  F   UNL A   1      47.422  29.965  27.015  1.00  0.00    -0.206 F 
ATOM     73  C   UNL A   1      46.764  32.132  26.435  1.00  0.00     0.059 A 
ATOM     74  C   UNL A   1      44.503  32.876  26.824  1.00  0.00     0.059 A 
ATOM     75  F   UNL A   1      43.017  31.572  27.976  1.00  0.00    -0.206 F 
ATOM     76  C   UNL A   1      45.786  33.123  26.374  1.00  0.00     0.060 A 
BRANCH  76  77
ATOM     77  S   UNL A   1      46.216  34.762  25.768  1.00  0.00     0.124 S 
ATOM     78  O   UNL A   1      45.063  35.077  24.933  1.00  0.00    -0.237 OA
ATOM     79  O   UNL A   1      46.337  35.519  27.010  1.00  0.00    -0.237 OA
ATOM     80  O   UNL A   1      47.470  34.538  25.053  1.00  0.00    -0.744 OA
ENDBRANCH  76  77
ENDBRANCH  55  69
BRANCH  56  81
ATOM     81  C   UNL A   1      37.978  31.081  32.124  1.00  0.00     0.058 A 
ATOM     82  C   UNL A   1      37.310  31.511  33.287  1.00  0.00     0.135 A 
ATOM     83  C   UNL A   1      37.531  31.667  30.918  1.00  0.00     0.135 A 
ATOM     84  F   UNL A   1      37.685  31.045  34.488  1.00  0.00    -0.206 F 
ATOM     85  C   UNL A   1      36.279  32.466  33.254  1.00  0.00     0.059 A 
ATOM     86  C   UNL A   1      36.503  32.604  30.858  1.00  0.00     0.059 A 
ATOM     87  F   UNL A   1      38.144  31.412  29.752  1.00  0.00    -0.206 F 
ATOM     88  C   UNL A   1      35.891  33.017  32.032  1.00  0.00     0.060 A 
BRANCH  88  89
ATOM     89  S   UNL A   1      34.653  34.337  31.980  1.00  0.00     0.124 S 
ATOM     90  O   UNL A   1      34.457  34.515  30.546  1.00  0.00    -0.237 OA
ATOM     91  O   UNL A   1      33.539  33.741  32.709  1.00  0.00    -0.237 OA
ATOM     92  O   UNL A   1      35.314  35.450  32.660  1.00  0.00    -0.744 OA
ENDBRANCH  88  89
ENDBRANCH  56  81
BRANCH  68  93
ATOM     93  C   UNL A   1      43.632  28.584  33.844  1.00  0.00     0.058 A 
ATOM     94  C   UNL A   1      43.970  29.004  35.144  1.00  0.00     0.135 A 
ATOM     95  C   UNL A   1      42.980  27.347  33.724  1.00  0.00     0.135 A 
ATOM     96  F   UNL A   1      44.504  30.213  35.358  1.00  0.00    -0.206 F 
ATOM     97  C   UNL A   1      43.684  28.224  36.269  1.00  0.00     0.059 A 
ATOM     98  C   UNL A   1      42.657  26.568  34.834  1.00  0.00     0.059 A 
ATOM     99  F   UNL A   1      42.574  26.917  32.518  1.00  0.00    -0.206 F 
ATOM    100  C   UNL A   1      43.015  27.011  36.105  1.00  0.00     0.060 A 
BRANCH 100 101
ATOM    101  S   UNL A   1      42.545  26.057  37.565  1.00  0.00     0.124 S 
ATOM    102  O   UNL A   1      43.413  26.619  38.594  1.00  0.00    -0.237 OA
ATOM    103  O   UNL A   1      41.123  26.365  37.698  1.00  0.00    -0.237 OA
ATOM    104  O   UNL A   1      42.841  24.678  37.185  1.00  0.00    -0.744 OA
ENDBRANCH 100 101
ENDBRANCH  68  93
ENDBRANCH  42  43
ENDBRANCH  35  37
ENDBRANCH  34  35
ENDBRANCH  33  34
ENDBRANCH  32  33
ENDBRANCH   1  32
TORSDOF 22
ENDMDL
MODEL 2
REMARK VINA RESULT:     -10.9      1.936      2.993
REMARK SMILES COc1ccc2c(c1)c(CC(=O)OCCOCCOC(=O)c1ccc(-c3c4nc(c(-c5c(F)cc(S(=O)(=O)[O-])cc5F)c5ccc([nH]5)c(-c5c(F)cc(S(=O)(=O)[O-])cc5F)c5nc(c(-c6c(F)cc(S(=O)(=O)[O-])cc6F)c6ccc3[nH]6)C=C5)C=C4)cc1)c(C(F)(F)F)n2C(=O)c1ccc(Cl)cc1
REMARK SMILES IDX 16 1 15 2 14 3 13 4 11 5 12 6 10 7 9 8 3 9 4 10 8 11 5 12
REMARK SMILES IDX 7 13 6 14 93 15 88 16 2 17 1 18 94 19 95 20 96 21 97 22
REMARK SMILES IDX 102 23 98 24 101 25 99 26 100 27 89 28 90 29 91 30 92 31
REMARK SMILES IDX 17 32 18 33 19 34 20 35 21 36 22 37 23 38 87 39 24 40 86 41
REMARK SMILES IDX 25 42 26 43 27 44 80 45 28 46 85 47 79 48 81 49 29 50 84 51
REMARK SMILES IDX 78 52 77 53 30 55 64 56 43 57 63 58 44 59 47 60 62 61 82 62
REMARK SMILES IDX 45 63 46 64 61 66 83 67 48 68 31 69 32 70 41 71 33 72 34 73
REMARK SMILES IDX 40 74 42 75 35 76 36 77 37 78 38 79 39 80 65 81 66 82 75 83
REMARK SMILES IDX 67 84 68 85 74 86 76 87 69 88 70 89 71 90 72 91 73 92 49 93
REMARK SMILES IDX 50 94 59 95 51 96 52 97 58 98 60 99 53 100 54 101 55 102
REMARK SMILES IDX 56 103 57 104
REMARK H PARENT 81 54 47 65
REMARK Flexibility Score: inf
ROOT
ATOM      1  O   UNL A   1      37.799  21.214  25.212  1.00  0.00    -0.374 OA
ENDROOT
BRANCH   1   2
ATOM      2  C   UNL A   1      37.272  21.873  24.071  1.00  0.00     0.202 C 
BRANCH   2   3
ATOM      3  C   UNL A   1      35.770  22.191  23.963  1.00  0.00     0.261 C 
BRANCH   3   4
ATOM      4  O   UNL A   1      35.458  23.340  23.155  1.00  0.00    -0.463 OA
BRANCH   4   5
ATOM      5  C   UNL A   1      35.013  24.412  23.862  1.00  0.00     0.310 C 
ATOM      6  O   UNL A   1      35.336  24.657  25.022  1.00  0.00    -0.252 OA
BRANCH   5   7
ATOM      7  C   UNL A   1      34.069  25.335  23.127  1.00  0.00     0.161 C 
BRANCH   7   8
ATOM      8  C   UNL A   1      33.046  26.146  23.896  1.00  0.00     0.002 A 
ATOM      9  C   UNL A   1      30.601  24.098  26.022  1.00  0.00     0.119 A 
ATOM     10  C   UNL A   1      29.867  25.173  26.479  1.00  0.00     0.048 A 
ATOM     11  C   UNL A   1      31.605  24.320  25.073  1.00  0.00     0.057 A 
ATOM     12  C   UNL A   1      30.147  26.467  26.029  1.00  0.00     0.031 A 
ATOM     13  C   UNL A   1      31.991  25.632  24.700  1.00  0.00     0.008 A 
ATOM     14  C   UNL A   1      31.243  26.715  25.172  1.00  0.00     0.057 A 
ATOM     15  N   UNL A   1      31.751  27.893  24.581  1.00  0.00    -0.271 N 
ATOM     16  C   UNL A   1      32.879  27.532  23.829  1.00  0.00     0.135 A 
BRANCH   9  17
ATOM     17  O   UNL A   1      30.498  22.807  26.461  1.00  0.00    -0.497 OA
ATOM     18  C   UNL A   1      31.032  21.778  25.634  1.00  0.00     0.278 C 
ENDBRANCH   9  17
BRANCH  15  19
ATOM     19  C   UNL A   1      31.139  29.179  24.662  1.00  0.00     0.262 C 
ATOM     20  O   UNL A   1      31.459  29.927  25.580  1.00  0.00    -0.268 OA
BRANCH  19  21
ATOM     21  C   UNL A   1      30.244  29.784  23.656  1.00  0.00     0.040 A 
ATOM     22  C   UNL A   1      30.121  29.261  22.364  1.00  0.00     0.015 A 
ATOM     23  C   UNL A   1      29.537  30.935  24.030  1.00  0.00     0.015 A 
ATOM     24  C   UNL A   1      29.364  29.959  21.414  1.00  0.00     0.021 A 
ATOM     25  C   UNL A   1      28.775  31.620  23.083  1.00  0.00     0.021 A 
ATOM     26  C   UNL A   1      28.710  31.142  21.774  1.00  0.00     0.041 A 
ATOM     27  Cl  UNL A   1      27.840  32.034  20.588  1.00  0.00    -0.084 Cl
ENDBRANCH  19  21
ENDBRANCH  15  19
BRANCH  16  28
ATOM     28  C   UNL A   1      33.753  28.448  23.021  1.00  0.00     0.432 C 
ATOM     29  F   UNL A   1      34.968  28.554  23.626  1.00  0.00    -0.165 F 
ATOM     30  F   UNL A   1      33.989  27.897  21.800  1.00  0.00    -0.165 F 
ATOM     31  F   UNL A   1      33.343  29.711  22.819  1.00  0.00    -0.165 F 
ENDBRANCH  16  28
ENDBRANCH   7   8
ENDBRANCH   5   7
ENDBRANCH   4   5
ENDBRANCH   3   4
ENDBRANCH   2   3
ENDBRANCH   1   2
BRANCH   1  32
ATOM     32  C   UNL A   1      38.584  21.995  26.100  1.00  0.00     0.202 C 
BRANCH  32  33
ATOM     33  C   UNL A   1      39.985  21.497  26.499  1.00  0.00     0.261 C 
BRANCH  33  34
ATOM     34  O   UNL A   1      40.974  21.742  25.501  1.00  0.00    -0.460 OA
BRANCH  34  35
ATOM     35  C   UNL A   1      42.254  21.509  25.913  1.00  0.00     0.338 C 
ATOM     36  O   UNL A   1      42.991  20.611  25.583  1.00  0.00    -0.246 OA
BRANCH  35  37
ATOM     37  C   UNL A   1      42.663  22.800  26.491  1.00  0.00     0.060 A 
ATOM     38  C   UNL A   1      43.062  22.865  27.830  1.00  0.00     0.016 A 
ATOM     39  C   UNL A   1      42.209  23.931  25.794  1.00  0.00     0.016 A 
ATOM     40  C   UNL A   1      42.896  24.059  28.514  1.00  0.00     0.010 A 
ATOM     41  C   UNL A   1      41.998  25.105  26.497  1.00  0.00     0.010 A 
ATOM     42  C   UNL A   1      42.303  25.151  27.863  1.00  0.00    -0.014 A 
BRANCH  42  43
ATOM     43  C   UNL A   1      42.264  26.434  28.559  1.00  0.00     0.031 A 
ATOM     44  C   UNL A   1      43.439  27.269  28.188  1.00  0.00     0.074 A 
ATOM     45  C   UNL A   1      41.227  26.895  29.286  1.00  0.00     0.049 A 
ATOM     46  N   UNL A   1      44.400  27.679  28.950  1.00  0.00    -0.248 NA
ATOM     47  C   UNL A   1      43.687  27.481  26.747  1.00  0.00     0.031 C 
ATOM     48  C   UNL A   1      39.932  26.269  29.524  1.00  0.00     0.029 A 
ATOM     49  N   UNL A   1      41.074  28.111  29.888  1.00  0.00    -0.354 N 
ATOM     50  C   UNL A   1      45.246  28.395  28.110  1.00  0.00     0.074 A 
ATOM     51  C   UNL A   1      44.899  28.031  26.764  1.00  0.00     0.031 C 
ATOM     52  C   UNL A   1      39.054  27.177  29.998  1.00  0.00     0.029 A 
ATOM     53  C   UNL A   1      39.751  28.428  30.203  1.00  0.00     0.049 A 
ATOM     54  H   UNL A   1      41.830  28.710  30.084  1.00  0.00     0.167 HD
ATOM     55  C   UNL A   1      45.973  29.454  28.556  1.00  0.00     0.037 A 
ATOM     56  C   UNL A   1      39.267  29.664  30.499  1.00  0.00     0.037 A 
ATOM     57  C   UNL A   1      46.113  29.437  29.986  1.00  0.00     0.049 A 
ATOM     58  C   UNL A   1      40.436  30.472  30.950  1.00  0.00     0.074 A 
ATOM     59  C   UNL A   1      46.650  28.534  30.884  1.00  0.00     0.029 A 
ATOM     60  N   UNL A   1      45.300  30.261  30.726  1.00  0.00    -0.354 N 
ATOM     61  N   UNL A   1      41.116  30.203  32.035  1.00  0.00    -0.248 NA
ATOM     62  C   UNL A   1      41.160  31.218  29.930  1.00  0.00     0.031 C 
ATOM     63  C   UNL A   1      45.759  28.545  31.993  1.00  0.00     0.029 A 
ATOM     64  C   UNL A   1      44.776  29.505  31.746  1.00  0.00     0.049 A 
ATOM     65  H   UNL A   1      45.124  31.215  30.556  1.00  0.00     0.167 HD
ATOM     66  C   UNL A   1      42.447  30.372  31.677  1.00  0.00     0.074 A 
ATOM     67  C   UNL A   1      42.407  31.038  30.375  1.00  0.00     0.031 C 
ATOM     68  C   UNL A   1      43.457  29.705  32.311  1.00  0.00     0.037 A 
BRANCH  55  69
ATOM     69  C   UNL A   1      46.242  30.668  27.706  1.00  0.00     0.058 A 
ATOM     70  C   UNL A   1      47.562  31.114  27.519  1.00  0.00     0.135 A 
ATOM     71  C   UNL A   1      45.229  31.550  27.259  1.00  0.00     0.135 A 
ATOM     72  F   UNL A   1      48.598  30.372  27.942  1.00  0.00    -0.206 F 
ATOM     73  C   UNL A   1      47.852  32.357  26.956  1.00  0.00     0.059 A 
ATOM     74  C   UNL A   1      45.495  32.760  26.636  1.00  0.00     0.059 A 
ATOM     75  F   UNL A   1      43.929  31.329  27.494  1.00  0.00    -0.206 F 
ATOM     76  C   UNL A   1      46.809  33.173  26.520  1.00  0.00     0.060 A 
BRANCH  76  77
ATOM     77  S   UNL A   1      47.173  34.808  25.864  1.00  0.00     0.124 S 
ATOM     78  O   UNL A   1      48.547  34.638  25.402  1.00  0.00    -0.237 OA
ATOM     79  O   UNL A   1      46.159  34.948  24.825  1.00  0.00    -0.237 OA
ATOM     80  O   UNL A   1      47.001  35.682  27.022  1.00  0.00    -0.744 OA
ENDBRANCH  76  77
ENDBRANCH  55  69
BRANCH  56  81
ATOM     81  C   UNL A   1      37.988  30.248  29.991  1.00  0.00     0.058 A 
ATOM     82  C   UNL A   1      37.053  30.871  30.839  1.00  0.00     0.135 A 
ATOM     83  C   UNL A   1      37.757  30.415  28.607  1.00  0.00     0.135 A 
ATOM     84  F   UNL A   1      37.205  30.806  32.170  1.00  0.00    -0.206 F 
ATOM     85  C   UNL A   1      35.970  31.620  30.345  1.00  0.00     0.059 A 
ATOM     86  C   UNL A   1      36.684  31.140  28.094  1.00  0.00     0.059 A 
ATOM     87  F   UNL A   1      38.622  29.949  27.695  1.00  0.00    -0.206 F 
ATOM     88  C   UNL A   1      35.802  31.758  28.966  1.00  0.00     0.060 A 
BRANCH  88  89
ATOM     89  S   UNL A   1      34.489  32.818  28.312  1.00  0.00     0.124 S 
ATOM     90  O   UNL A   1      35.232  33.723  27.442  1.00  0.00    -0.237 OA
ATOM     91  O   UNL A   1      33.622  31.855  27.642  1.00  0.00    -0.237 OA
ATOM     92  O   UNL A   1      33.920  33.435  29.509  1.00  0.00    -0.744 OA
ENDBRANCH  88  89
ENDBRANCH  56  81
BRANCH  68  93
ATOM     93  C   UNL A   1      43.149  28.914  33.561  1.00  0.00     0.058 A 
ATOM     94  C   UNL A   1      42.607  27.615  33.557  1.00  0.00     0.135 A 
ATOM     95  C   UNL A   1      43.639  29.395  34.785  1.00  0.00     0.135 A 
ATOM     96  F   UNL A   1      42.207  27.040  32.415  1.00  0.00    -0.206 F 
ATOM     97  C   UNL A   1      42.543  26.838  34.719  1.00  0.00     0.059 A 
ATOM     98  C   UNL A   1      43.615  28.626  35.947  1.00  0.00     0.059 A 
ATOM     99  F   UNL A   1      44.227  30.601  34.845  1.00  0.00    -0.206 F 
ATOM    100  C   UNL A   1      43.062  27.348  35.908  1.00  0.00     0.060 A 
BRANCH 100 101
ATOM    101  S   UNL A   1      43.084  26.304  37.383  1.00  0.00     0.124 S 
ATOM    102  O   UNL A   1      43.926  27.073  38.292  1.00  0.00    -0.237 OA
ATOM    103  O   UNL A   1      41.669  26.231  37.738  1.00  0.00    -0.237 OA
ATOM    104  O   UNL A   1      43.663  25.050  36.907  1.00  0.00    -0.744 OA
ENDBRANCH 100 101
ENDBRANCH  68  93
ENDBRANCH  42  43
ENDBRANCH  35  37
ENDBRANCH  34  35
ENDBRANCH  33  34
ENDBRANCH  32  33
ENDBRANCH   1  32
TORSDOF 22
ENDMDL
MODEL 3
REMARK VINA RESULT:     -10.9      2.853      9.102
REMARK SMILES COc1ccc2c(c1)c(CC(=O)OCCOCCOC(=O)c1ccc(-c3c4nc(c(-c5c(F)cc(S(=O)(=O)[O-])cc5F)c5ccc([nH]5)c(-c5c(F)cc(S(=O)(=O)[O-])cc5F)c5nc(c(-c6c(F)cc(S(=O)(=O)[O-])cc6F)c6ccc3[nH]6)C=C5)C=C4)cc1)c(C(F)(F)F)n2C(=O)c1ccc(Cl)cc1
REMARK SMILES IDX 16 1 15 2 14 3 13 4 11 5 12 6 10 7 9 8 3 9 4 10 8 11 5 12
REMARK SMILES IDX 7 13 6 14 93 15 88 16 2 17 1 18 94 19 95 20 96 21 97 22
REMARK SMILES IDX 102 23 98 24 101 25 99 26 100 27 89 28 90 29 91 30 92 31
REMARK SMILES IDX 17 32 18 33 19 34 20 35 21 36 22 37 23 38 87 39 24 40 86 41
REMARK SMILES IDX 25 42 26 43 27 44 80 45 28 46 85 47 79 48 81 49 29 50 84 51
REMARK SMILES IDX 78 52 77 53 30 55 64 56 43 57 63 58 44 59 47 60 62 61 82 62
REMARK SMILES IDX 45 63 46 64 61 66 83 67 48 68 31 69 32 70 41 71 33 72 34 73
REMARK SMILES IDX 40 74 42 75 35 76 36 77 37 78 38 79 39 80 65 81 66 82 75 83
REMARK SMILES IDX 67 84 68 85 74 86 76 87 69 88 70 89 71 90 72 91 73 92 49 93
REMARK SMILES IDX 50 94 59 95 51 96 52 97 58 98 60 99 53 100 54 101 55 102
REMARK SMILES IDX 56 103 57 104
REMARK H PARENT 81 54 47 65
REMARK Flexibility Score: inf
ROOT
ATOM      1  O   UNL A   1      32.272  33.460  27.005  1.00  0.00    -0.374 OA
ENDROOT
BRANCH   1   2
ATOM      2  C   UNL A   1      31.519  32.263  27.118  1.00  0.00     0.202 C 
BRANCH   2   3
ATOM      3  C   UNL A   1      32.198  30.886  27.010  1.00  0.00     0.261 C 
BRANCH   3   4
ATOM      4  O   UNL A   1      31.326  29.767  27.250  1.00  0.00    -0.463 OA
BRANCH   4   5
ATOM      5  C   UNL A   1      31.976  28.592  27.459  1.00  0.00     0.310 C 
ATOM      6  O   UNL A   1      31.705  27.802  28.360  1.00  0.00    -0.252 OA
BRANCH   5   7
ATOM      7  C   UNL A   1      33.093  28.281  26.490  1.00  0.00     0.161 C 
BRANCH   7   8
ATOM      8  C   UNL A   1      32.798  27.539  25.202  1.00  0.00     0.002 A 
ATOM      9  C   UNL A   1      30.147  29.156  22.956  1.00  0.00     0.119 A 
ATOM     10  C   UNL A   1      30.163  28.179  21.981  1.00  0.00     0.048 A 
ATOM     11  C   UNL A   1      30.909  28.968  24.114  1.00  0.00     0.057 A 
ATOM     12  C   UNL A   1      30.957  27.038  22.133  1.00  0.00     0.031 A 
ATOM     13  C   UNL A   1      31.817  27.886  24.232  1.00  0.00     0.008 A 
ATOM     14  C   UNL A   1      31.828  26.904  23.238  1.00  0.00     0.057 A 
ATOM     15  N   UNL A   1      32.727  25.887  23.632  1.00  0.00    -0.271 N 
ATOM     16  C   UNL A   1      33.341  26.308  24.821  1.00  0.00     0.135 A 
BRANCH   9  17
ATOM     17  O   UNL A   1      29.501  30.359  22.879  1.00  0.00    -0.497 OA
ATOM     18  C   UNL A   1      28.081  30.360  22.988  1.00  0.00     0.278 C 
ENDBRANCH   9  17
BRANCH  15  19
ATOM     19  C   UNL A   1      32.876  24.628  22.979  1.00  0.00     0.262 C 
ATOM     20  O   UNL A   1      33.150  24.612  21.784  1.00  0.00    -0.268 OA
BRANCH  19  21
ATOM     21  C   UNL A   1      32.878  23.303  23.631  1.00  0.00     0.040 A 
ATOM     22  C   UNL A   1      33.964  22.427  23.526  1.00  0.00     0.015 A 
ATOM     23  C   UNL A   1      31.727  22.930  24.339  1.00  0.00     0.015 A 
ATOM     24  C   UNL A   1      33.849  21.132  24.049  1.00  0.00     0.021 A 
ATOM     25  C   UNL A   1      31.623  21.643  24.868  1.00  0.00     0.021 A 
ATOM     26  C   UNL A   1      32.675  20.743  24.700  1.00  0.00     0.041 A 
ATOM     27  Cl  UNL A   1      32.510  19.130  25.278  1.00  0.00    -0.084 Cl
ENDBRANCH  19  21
ENDBRANCH  15  19
BRANCH  16  28
ATOM     28  C   UNL A   1      34.371  25.559  25.617  1.00  0.00     0.432 C 
ATOM     29  F   UNL A   1      35.029  26.432  26.428  1.00  0.00    -0.165 F 
ATOM     30  F   UNL A   1      33.755  24.671  26.444  1.00  0.00    -0.165 F 
ATOM     31  F   UNL A   1      35.331  24.893  24.955  1.00  0.00    -0.165 F 
ENDBRANCH  16  28
ENDBRANCH   7   8
ENDBRANCH   5   7
ENDBRANCH   4   5
ENDBRANCH   3   4
ENDBRANCH   2   3
ENDBRANCH   1   2
BRANCH   1  32
ATOM     32  C   UNL A   1      32.914  33.929  28.182  1.00  0.00     0.202 C 
BRANCH  32  33
ATOM     33  C   UNL A   1      34.357  33.480  28.480  1.00  0.00     0.261 C 
BRANCH  33  34
ATOM     34  O   UNL A   1      34.436  32.473  29.487  1.00  0.00    -0.460 OA
BRANCH  34  35
ATOM     35  C   UNL A   1      34.700  32.953  30.736  1.00  0.00     0.338 C 
ATOM     36  O   UNL A   1      33.938  33.488  31.506  1.00  0.00    -0.246 OA
BRANCH  35  37
ATOM     37  C   UNL A   1      35.969  32.295  31.089  1.00  0.00     0.060 A 
ATOM     38  C   UNL A   1      37.150  33.045  31.133  1.00  0.00     0.016 A 
ATOM     39  C   UNL A   1      35.980  30.902  30.925  1.00  0.00     0.016 A 
ATOM     40  C   UNL A   1      38.354  32.401  30.897  1.00  0.00     0.010 A 
ATOM     41  C   UNL A   1      37.180  30.274  30.639  1.00  0.00     0.010 A 
ATOM     42  C   UNL A   1      38.355  31.033  30.585  1.00  0.00    -0.014 A 
BRANCH  42  43
ATOM     43  C   UNL A   1      39.641  30.350  30.474  1.00  0.00     0.031 A 
ATOM     44  C   UNL A   1      40.303  30.259  31.804  1.00  0.00     0.074 A 
ATOM     45  C   UNL A   1      40.095  29.715  29.375  1.00  0.00     0.049 A 
ATOM     46  N   UNL A   1      41.416  30.800  32.181  1.00  0.00    -0.248 NA
ATOM     47  C   UNL A   1      39.515  29.680  32.911  1.00  0.00     0.031 C 
ATOM     48  C   UNL A   1      39.432  29.534  28.089  1.00  0.00     0.029 A 
ATOM     49  N   UNL A   1      41.234  28.980  29.218  1.00  0.00    -0.354 N 
ATOM     50  C   UNL A   1      41.566  30.426  33.512  1.00  0.00     0.074 A 
ATOM     51  C   UNL A   1      40.280  29.969  33.962  1.00  0.00     0.031 C 
ATOM     52  C   UNL A   1      40.045  28.565  27.379  1.00  0.00     0.029 A 
ATOM     53  C   UNL A   1      41.214  28.127  28.112  1.00  0.00     0.049 A 
ATOM     54  H   UNL A   1      42.003  29.046  29.830  1.00  0.00     0.167 HD
ATOM     55  C   UNL A   1      42.790  30.240  34.073  1.00  0.00     0.037 A 
ATOM     56  C   UNL A   1      42.042  27.071  27.893  1.00  0.00     0.037 A 
ATOM     57  C   UNL A   1      43.824  30.891  33.317  1.00  0.00     0.049 A 
ATOM     58  C   UNL A   1      43.258  27.318  28.719  1.00  0.00     0.074 A 
ATOM     59  C   UNL A   1      44.058  32.202  32.947  1.00  0.00     0.029 A 
ATOM     60  N   UNL A   1      44.591  30.123  32.474  1.00  0.00    -0.354 N 
ATOM     61  N   UNL A   1      44.073  28.321  28.511  1.00  0.00    -0.248 NA
ATOM     62  C   UNL A   1      43.261  26.783  30.073  1.00  0.00     0.031 C 
ATOM     63  C   UNL A   1      44.542  32.127  31.611  1.00  0.00     0.029 A 
ATOM     64  C   UNL A   1      44.650  30.778  31.268  1.00  0.00     0.049 A 
ATOM     65  H   UNL A   1      45.018  29.263  32.694  1.00  0.00     0.167 HD
ATOM     66  C   UNL A   1      44.374  28.808  29.776  1.00  0.00     0.074 A 
ATOM     67  C   UNL A   1      43.873  27.791  30.702  1.00  0.00     0.031 C 
ATOM     68  C   UNL A   1      44.731  30.110  29.985  1.00  0.00     0.037 A 
BRANCH  55  69
ATOM     69  C   UNL A   1      43.055  29.175  35.104  1.00  0.00     0.058 A 
ATOM     70  C   UNL A   1      43.579  29.531  36.360  1.00  0.00     0.135 A 
ATOM     71  C   UNL A   1      43.036  27.789  34.821  1.00  0.00     0.135 A 
ATOM     72  F   UNL A   1      43.679  30.822  36.715  1.00  0.00    -0.206 F 
ATOM     73  C   UNL A   1      44.072  28.581  37.254  1.00  0.00     0.059 A 
ATOM     74  C   UNL A   1      43.459  26.822  35.721  1.00  0.00     0.059 A 
ATOM     75  F   UNL A   1      42.698  27.307  33.617  1.00  0.00    -0.206 F 
ATOM     76  C   UNL A   1      44.008  27.228  36.922  1.00  0.00     0.060 A 
BRANCH  76  77
ATOM     77  S   UNL A   1      44.712  26.005  38.038  1.00  0.00     0.124 S 
ATOM     78  O   UNL A   1      46.141  26.205  37.826  1.00  0.00    -0.237 OA
ATOM     79  O   UNL A   1      44.186  26.437  39.328  1.00  0.00    -0.237 OA
ATOM     80  O   UNL A   1      44.172  24.743  37.538  1.00  0.00    -0.744 OA
ENDBRANCH  76  77
ENDBRANCH  55  69
BRANCH  56  81
ATOM     81  C   UNL A   1      41.630  25.727  27.384  1.00  0.00     0.058 A 
ATOM     82  C   UNL A   1      42.415  24.990  26.477  1.00  0.00     0.135 A 
ATOM     83  C   UNL A   1      40.551  25.021  27.964  1.00  0.00     0.135 A 
ATOM     84  F   UNL A   1      43.487  25.556  25.902  1.00  0.00    -0.206 F 
ATOM     85  C   UNL A   1      42.153  23.642  26.177  1.00  0.00     0.059 A 
ATOM     86  C   UNL A   1      40.263  23.690  27.671  1.00  0.00     0.059 A 
ATOM     87  F   UNL A   1      39.783  25.580  28.911  1.00  0.00    -0.206 F 
ATOM     88  C   UNL A   1      41.079  22.997  26.791  1.00  0.00     0.060 A 
BRANCH  88  89
ATOM     89  S   UNL A   1      40.799  21.230  26.514  1.00  0.00     0.124 S 
ATOM     90  O   UNL A   1      39.514  21.229  25.824  1.00  0.00    -0.237 OA
ATOM     91  O   UNL A   1      41.957  20.859  25.708  1.00  0.00    -0.237 OA
ATOM     92  O   UNL A   1      40.780  20.672  27.864  1.00  0.00    -0.744 OA
ENDBRANCH  88  89
ENDBRANCH  56  81
BRANCH  68  93
ATOM     93  C   UNL A   1      44.999  31.002  28.795  1.00  0.00     0.058 A 
ATOM     94  C   UNL A   1      44.005  31.735  28.119  1.00  0.00     0.135 A 
ATOM     95  C   UNL A   1      46.334  31.304  28.483  1.00  0.00     0.135 A 
ATOM     96  F   UNL A   1      42.710  31.580  28.426  1.00  0.00    -0.206 F 
ATOM     97  C   UNL A   1      44.324  32.711  27.170  1.00  0.00     0.059 A 
ATOM     98  C   UNL A   1      46.675  32.295  27.564  1.00  0.00     0.059 A 
ATOM     99  F   UNL A   1      47.332  30.687  29.137  1.00  0.00    -0.206 F 
ATOM    100  C   UNL A   1      45.664  32.993  26.908  1.00  0.00     0.060 A 
BRANCH 100 101
ATOM    101  S   UNL A   1      46.078  34.332  25.766  1.00  0.00     0.124 S 
ATOM    102  O   UNL A   1      45.216  34.041  24.626  1.00  0.00    -0.237 OA
ATOM    103  O   UNL A   1      45.730  35.522  26.538  1.00  0.00    -0.237 OA
ATOM    104  O   UNL A   1      47.508  34.150  25.529  1.00  0.00    -0.744 OA
ENDBRANCH 100 101
ENDBRANCH  68  93
ENDBRANCH  42  43
ENDBRANCH  35  37
ENDBRANCH  34  35
ENDBRANCH  33  34
ENDBRANCH  32  33
ENDBRANCH   1  32
TORSDOF 22
ENDMDL
