MODEL 1
REMARK VINA RESULT:      -9.8      0.000      0.000
REMARK SMILES C=CCN(CC(=O)OCCOCCOC(=O)c1ccc(-c2c3nc(c(-c4c(F)cc(S(=O)(=O)[O-])cc4F)c4ccc([nH]4)c(-c4c(F)cc(S(=O)(=O)[O-])cc4F)c4nc(c(-c5c(F)cc(S(=O)(=O)[O-])cc5F)c5ccc2[nH]5)C=C4)C=C3)cc1)C(=O)c1cc(OC)ccc1Br
REMARK SMILES IDX 10 1 9 2 8 3 6 4 7 5 5 6 4 7 3 8 2 9 1 10 83 11 84 12 85 13
REMARK SMILES IDX 86 14 92 15 87 16 91 17 93 18 90 19 88 20 89 21 11 22 12 23
REMARK SMILES IDX 13 24 14 25 15 26 16 27 17 28 18 29 82 30 19 31 81 32 20 33
REMARK SMILES IDX 21 34 22 35 75 36 23 37 80 38 74 39 76 40 24 41 79 42 73 43
REMARK SMILES IDX 72 44 25 46 59 47 38 48 58 49 39 50 42 51 57 52 77 53 40 54
REMARK SMILES IDX 41 55 56 57 78 58 43 59 26 60 27 61 36 62 28 63 29 64 35 65
REMARK SMILES IDX 37 66 30 67 31 68 32 69 33 70 34 71 60 72 61 73 70 74 62 75
REMARK SMILES IDX 63 76 69 77 71 78 64 79 65 80 66 81 67 82 68 83 44 84 45 85
REMARK SMILES IDX 54 86 46 87 47 88 53 89 55 90 48 91 49 92 50 93 51 94 52 95
REMARK H PARENT 76 45 42 56
REMARK Flexibility Score: inf
ROOT
ATOM      1  C   UNL A   1      33.228  31.068  27.323  1.00  0.00     0.202 C 
ENDROOT
BRANCH   1   2
ATOM      2  C   UNL A   1      33.083  29.732  26.543  1.00  0.00     0.261 C 
BRANCH   2   3
ATOM      3  O   UNL A   1      31.698  29.246  26.423  1.00  0.00    -0.462 OA
BRANCH   3   4
ATOM      4  C   UNL A   1      31.423  28.063  27.041  1.00  0.00     0.325 C 
ATOM      5  O   UNL A   1      31.568  27.905  28.254  1.00  0.00    -0.250 OA
BRANCH   4   6
ATOM      6  C   UNL A   1      30.971  26.842  26.161  1.00  0.00     0.242 C 
BRANCH   6   7
ATOM      7  N   UNL A   1      31.246  26.440  24.745  1.00  0.00    -0.324 N 
BRANCH   7   8
ATOM      8  C   UNL A   1      30.129  25.831  24.013  1.00  0.00     0.147 C 
BRANCH   8   9
ATOM      9  C   UNL A   1      29.071  26.817  23.623  1.00  0.00    -0.014 C 
ATOM     10  C   UNL A   1      29.335  28.058  23.185  1.00  0.00     0.006 C 
ENDBRANCH   8   9
ENDBRANCH   7   8
BRANCH   7  11
ATOM     11  C   UNL A   1      32.518  26.577  24.105  1.00  0.00     0.255 C 
ATOM     12  O   UNL A   1      32.996  27.628  23.689  1.00  0.00    -0.269 OA
BRANCH  11  13
ATOM     13  C   UNL A   1      33.322  25.355  23.846  1.00  0.00     0.057 A 
ATOM     14  C   UNL A   1      34.571  25.042  24.398  1.00  0.00     0.061 A 
ATOM     15  C   UNL A   1      32.923  24.595  22.775  1.00  0.00     0.031 A 
ATOM     16  C   UNL A   1      35.196  23.832  24.046  1.00  0.00     0.119 A 
ATOM     17  C   UNL A   1      33.305  23.266  22.718  1.00  0.00     0.020 A 
ATOM     18  Br  UNL A   1      32.696  25.626  21.158  1.00  0.00    -0.050 Br
ATOM     19  C   UNL A   1      34.466  22.878  23.352  1.00  0.00     0.047 A 
BRANCH  16  20
ATOM     20  O   UNL A   1      36.507  23.642  24.393  1.00  0.00    -0.497 OA
ATOM     21  C   UNL A   1      36.855  22.271  24.655  1.00  0.00     0.278 C 
ENDBRANCH  16  20
ENDBRANCH  11  13
ENDBRANCH   7  11
ENDBRANCH   6   7
ENDBRANCH   4   6
ENDBRANCH   3   4
ENDBRANCH   2   3
ENDBRANCH   1   2
BRANCH   1  22
ATOM     22  O   UNL A   1      34.575  31.433  27.700  1.00  0.00    -0.374 OA
BRANCH  22  23
ATOM     23  C   UNL A   1      34.648  32.257  28.854  1.00  0.00     0.202 C 
BRANCH  23  24
ATOM     24  C   UNL A   1      35.517  31.728  30.006  1.00  0.00     0.261 C 
BRANCH  24  25
ATOM     25  O   UNL A   1      36.085  30.475  29.629  1.00  0.00    -0.460 OA
BRANCH  25  26
ATOM     26  C   UNL A   1      36.810  29.898  30.599  1.00  0.00     0.338 C 
ATOM     27  O   UNL A   1      36.395  29.221  31.529  1.00  0.00    -0.246 OA
BRANCH  26  28
ATOM     28  C   UNL A   1      38.219  29.960  30.204  1.00  0.00     0.060 A 
ATOM     29  C   UNL A   1      38.441  30.071  28.832  1.00  0.00     0.016 A 
ATOM     30  C   UNL A   1      39.281  29.885  31.112  1.00  0.00     0.016 A 
ATOM     31  C   UNL A   1      39.728  29.965  28.344  1.00  0.00     0.010 A 
ATOM     32  C   UNL A   1      40.584  29.792  30.616  1.00  0.00     0.010 A 
ATOM     33  C   UNL A   1      40.797  29.758  29.227  1.00  0.00    -0.014 A 
BRANCH  33  34
ATOM     34  C   UNL A   1      42.068  29.294  28.629  1.00  0.00     0.031 A 
ATOM     35  C   UNL A   1      43.241  30.236  28.615  1.00  0.00     0.074 A 
ATOM     36  C   UNL A   1      42.212  28.000  28.294  1.00  0.00     0.049 A 
ATOM     37  N   UNL A   1      44.488  29.998  28.308  1.00  0.00    -0.248 NA
ATOM     38  C   UNL A   1      42.980  31.628  29.020  1.00  0.00     0.031 C 
ATOM     39  C   UNL A   1      41.146  26.997  28.340  1.00  0.00     0.029 A 
ATOM     40  N   UNL A   1      43.317  27.299  27.893  1.00  0.00    -0.354 N 
ATOM     41  C   UNL A   1      45.158  31.204  28.486  1.00  0.00     0.074 A 
ATOM     42  C   UNL A   1      44.175  32.182  28.889  1.00  0.00     0.031 C 
ATOM     43  C   UNL A   1      41.658  25.802  28.003  1.00  0.00     0.029 A 
ATOM     44  C   UNL A   1      43.075  25.963  27.685  1.00  0.00     0.049 A 
ATOM     45  H   UNL A   1      44.202  27.713  27.765  1.00  0.00     0.167 HD
ATOM     46  C   UNL A   1      46.478  31.464  28.339  1.00  0.00     0.037 A 
ATOM     47  C   UNL A   1      43.905  24.985  27.276  1.00  0.00     0.037 A 
ATOM     48  C   UNL A   1      47.444  30.473  27.942  1.00  0.00     0.049 A 
ATOM     49  C   UNL A   1      45.354  25.317  27.045  1.00  0.00     0.074 A 
ATOM     50  C   UNL A   1      48.806  30.623  27.761  1.00  0.00     0.029 A 
ATOM     51  N   UNL A   1      47.145  29.148  27.656  1.00  0.00    -0.354 N 
ATOM     52  N   UNL A   1      45.977  26.459  27.225  1.00  0.00    -0.248 NA
ATOM     53  C   UNL A   1      46.216  24.231  26.562  1.00  0.00     0.031 C 
ATOM     54  C   UNL A   1      49.321  29.407  27.304  1.00  0.00     0.029 A 
ATOM     55  C   UNL A   1      48.293  28.477  27.267  1.00  0.00     0.049 A 
ATOM     56  H   UNL A   1      46.250  28.744  27.722  1.00  0.00     0.167 HD
ATOM     57  C   UNL A   1      47.308  26.224  26.897  1.00  0.00     0.074 A 
ATOM     58  C   UNL A   1      47.402  24.826  26.526  1.00  0.00     0.031 C 
ATOM     59  C   UNL A   1      48.358  27.084  26.902  1.00  0.00     0.037 A 
BRANCH  46  60
ATOM     60  C   UNL A   1      46.946  32.876  28.568  1.00  0.00     0.058 A 
ATOM     61  C   UNL A   1      46.986  33.828  27.536  1.00  0.00     0.135 A 
ATOM     62  C   UNL A   1      47.336  33.291  29.853  1.00  0.00     0.135 A 
ATOM     63  F   UNL A   1      46.645  33.483  26.284  1.00  0.00    -0.206 F 
ATOM     64  C   UNL A   1      47.415  35.133  27.765  1.00  0.00     0.059 A 
ATOM     65  C   UNL A   1      47.740  34.597  30.110  1.00  0.00     0.059 A 
ATOM     66  F   UNL A   1      47.326  32.421  30.876  1.00  0.00    -0.206 F 
ATOM     67  C   UNL A   1      47.789  35.509  29.057  1.00  0.00     0.060 A 
BRANCH  67  68
ATOM     68  S   UNL A   1      48.332  37.207  29.340  1.00  0.00     0.124 S 
ATOM     69  O   UNL A   1      48.945  37.535  28.057  1.00  0.00    -0.237 OA
ATOM     70  O   UNL A   1      47.077  37.890  29.635  1.00  0.00    -0.237 OA
ATOM     71  O   UNL A   1      49.256  37.087  30.464  1.00  0.00    -0.744 OA
ENDBRANCH  67  68
ENDBRANCH  46  60
BRANCH  47  72
ATOM     72  C   UNL A   1      43.374  23.615  27.038  1.00  0.00     0.058 A 
ATOM     73  C   UNL A   1      43.166  23.118  25.744  1.00  0.00     0.135 A 
ATOM     74  C   UNL A   1      43.075  22.768  28.119  1.00  0.00     0.135 A 
ATOM     75  F   UNL A   1      43.429  23.889  24.678  1.00  0.00    -0.206 F 
ATOM     76  C   UNL A   1      42.668  21.837  25.528  1.00  0.00     0.059 A 
ATOM     77  C   UNL A   1      42.605  21.474  27.928  1.00  0.00     0.059 A 
ATOM     78  F   UNL A   1      43.267  23.189  29.379  1.00  0.00    -0.206 F 
ATOM     79  C   UNL A   1      42.395  21.020  26.627  1.00  0.00     0.060 A 
BRANCH  79  80
ATOM     80  S   UNL A   1      41.794  19.342  26.338  1.00  0.00     0.124 S 
ATOM     81  O   UNL A   1      40.353  19.552  26.276  1.00  0.00    -0.237 OA
ATOM     82  O   UNL A   1      42.445  18.999  25.077  1.00  0.00    -0.237 OA
ATOM     83  O   UNL A   1      42.276  18.608  27.503  1.00  0.00    -0.744 OA
ENDBRANCH  79  80
ENDBRANCH  47  72
BRANCH  59  84
ATOM     84  C   UNL A   1      49.703  26.530  26.519  1.00  0.00     0.058 A 
ATOM     85  C   UNL A   1      50.165  26.557  25.194  1.00  0.00     0.135 A 
ATOM     86  C   UNL A   1      50.563  26.013  27.503  1.00  0.00     0.135 A 
ATOM     87  F   UNL A   1      49.381  27.034  24.215  1.00  0.00    -0.206 F 
ATOM     88  C   UNL A   1      51.422  26.066  24.853  1.00  0.00     0.059 A 
ATOM     89  C   UNL A   1      51.836  25.549  27.190  1.00  0.00     0.059 A 
ATOM     90  F   UNL A   1      50.177  25.976  28.789  1.00  0.00    -0.206 F 
ATOM     91  C   UNL A   1      52.250  25.567  25.860  1.00  0.00     0.060 A 
BRANCH  91  92
ATOM     92  S   UNL A   1      53.889  24.961  25.406  1.00  0.00     0.124 S 
ATOM     93  O   UNL A   1      53.607  23.565  25.086  1.00  0.00    -0.237 OA
ATOM     94  O   UNL A   1      54.233  25.814  24.273  1.00  0.00    -0.237 OA
ATOM     95  O   UNL A   1      54.680  25.181  26.613  1.00  0.00    -0.744 OA
ENDBRANCH  91  92
ENDBRANCH  59  84
ENDBRANCH  33  34
ENDBRANCH  26  28
ENDBRANCH  25  26
ENDBRANCH  24  25
ENDBRANCH  23  24
ENDBRANCH  22  23
ENDBRANCH   1  22
TORSDOF 23
ENDMDL
MODEL 2
REMARK VINA RESULT:      -9.7      2.724      8.813
REMARK SMILES C=CCN(CC(=O)OCCOCCOC(=O)c1ccc(-c2c3nc(c(-c4c(F)cc(S(=O)(=O)[O-])cc4F)c4ccc([nH]4)c(-c4c(F)cc(S(=O)(=O)[O-])cc4F)c4nc(c(-c5c(F)cc(S(=O)(=O)[O-])cc5F)c5ccc2[nH]5)C=C4)C=C3)cc1)C(=O)c1cc(OC)ccc1Br
REMARK SMILES IDX 10 1 9 2 8 3 6 4 7 5 5 6 4 7 3 8 2 9 1 10 83 11 84 12 85 13
REMARK SMILES IDX 86 14 92 15 87 16 91 17 93 18 90 19 88 20 89 21 11 22 12 23
REMARK SMILES IDX 13 24 14 25 15 26 16 27 17 28 18 29 82 30 19 31 81 32 20 33
REMARK SMILES IDX 21 34 22 35 75 36 23 37 80 38 74 39 76 40 24 41 79 42 73 43
REMARK SMILES IDX 72 44 25 46 59 47 38 48 58 49 39 50 42 51 57 52 77 53 40 54
REMARK SMILES IDX 41 55 56 57 78 58 43 59 26 60 27 61 36 62 28 63 29 64 35 65
REMARK SMILES IDX 37 66 30 67 31 68 32 69 33 70 34 71 60 72 61 73 70 74 62 75
REMARK SMILES IDX 63 76 69 77 71 78 64 79 65 80 66 81 67 82 68 83 44 84 45 85
REMARK SMILES IDX 54 86 46 87 47 88 53 89 55 90 48 91 49 92 50 93 51 94 52 95
REMARK H PARENT 76 45 42 56
REMARK Flexibility Score: inf
ROOT
ATOM      1  C   UNL A   1      30.731  29.899  24.423  1.00  0.00     0.202 C 
ENDROOT
BRANCH   1   2
ATOM      2  C   UNL A   1      30.683  29.347  22.971  1.00  0.00     0.261 C 
BRANCH   2   3
ATOM      3  O   UNL A   1      31.094  27.939  22.844  1.00  0.00    -0.462 OA
BRANCH   3   4
ATOM      4  C   UNL A   1      32.437  27.706  22.832  1.00  0.00     0.325 C 
ATOM      5  O   UNL A   1      33.239  28.510  22.355  1.00  0.00    -0.250 OA
BRANCH   4   6
ATOM      6  C   UNL A   1      32.968  26.335  23.388  1.00  0.00     0.242 C 
BRANCH   6   7
ATOM      7  N   UNL A   1      32.342  25.247  24.204  1.00  0.00    -0.324 N 
BRANCH   7   8
ATOM      8  C   UNL A   1      31.498  24.293  23.475  1.00  0.00     0.147 C 
BRANCH   8   9
ATOM      9  C   UNL A   1      32.283  23.260  22.729  1.00  0.00    -0.014 C 
ATOM     10  C   UNL A   1      32.149  21.938  22.923  1.00  0.00     0.006 C 
ENDBRANCH   8   9
ENDBRANCH   7   8
BRANCH   7  11
ATOM     11  C   UNL A   1      32.488  25.123  25.622  1.00  0.00     0.255 C 
ATOM     12  O   UNL A   1      32.172  25.975  26.447  1.00  0.00    -0.269 OA
BRANCH  11  13
ATOM     13  C   UNL A   1      33.134  23.904  26.169  1.00  0.00     0.057 A 
ATOM     14  C   UNL A   1      34.270  23.260  25.662  1.00  0.00     0.061 A 
ATOM     15  C   UNL A   1      32.402  23.204  27.095  1.00  0.00     0.031 A 
ATOM     16  C   UNL A   1      34.757  22.110  26.310  1.00  0.00     0.119 A 
ATOM     17  C   UNL A   1      33.058  22.345  27.959  1.00  0.00     0.020 A 
ATOM     18  Br  UNL A   1      30.602  22.823  26.505  1.00  0.00    -0.050 Br
ATOM     19  C   UNL A   1      34.248  21.778  27.558  1.00  0.00     0.047 A 
BRANCH  16  20
ATOM     20  O   UNL A   1      35.710  21.352  25.683  1.00  0.00    -0.497 OA
ATOM     21  C   UNL A   1      37.045  21.876  25.789  1.00  0.00     0.278 C 
ENDBRANCH  16  20
ENDBRANCH  11  13
ENDBRANCH   7  11
ENDBRANCH   6   7
ENDBRANCH   4   6
ENDBRANCH   3   4
ENDBRANCH   2   3
ENDBRANCH   1   2
BRANCH   1  22
ATOM     22  O   UNL A   1      31.601  29.192  25.336  1.00  0.00    -0.374 OA
BRANCH  22  23
ATOM     23  C   UNL A   1      31.674  29.773  26.629  1.00  0.00     0.202 C 
BRANCH  23  24
ATOM     24  C   UNL A   1      32.888  30.677  26.895  1.00  0.00     0.261 C 
BRANCH  24  25
ATOM     25  O   UNL A   1      33.797  30.000  27.762  1.00  0.00    -0.460 OA
BRANCH  25  26
ATOM     26  C   UNL A   1      34.683  30.813  28.355  1.00  0.00     0.338 C 
ATOM     27  O   UNL A   1      34.446  31.842  28.973  1.00  0.00    -0.246 OA
BRANCH  26  28
ATOM     28  C   UNL A   1      35.971  30.117  28.401  1.00  0.00     0.060 A 
ATOM     29  C   UNL A   1      36.311  29.591  29.647  1.00  0.00     0.016 A 
ATOM     30  C   UNL A   1      36.828  30.001  27.301  1.00  0.00     0.016 A 
ATOM     31  C   UNL A   1      37.574  29.068  29.840  1.00  0.00     0.010 A 
ATOM     32  C   UNL A   1      38.101  29.458  27.495  1.00  0.00     0.010 A 
ATOM     33  C   UNL A   1      38.497  29.061  28.784  1.00  0.00    -0.014 A 
BRANCH  33  34
ATOM     34  C   UNL A   1      39.913  28.835  29.146  1.00  0.00     0.031 A 
ATOM     35  C   UNL A   1      40.553  27.529  28.761  1.00  0.00     0.074 A 
ATOM     36  C   UNL A   1      40.648  29.854  29.625  1.00  0.00     0.049 A 
ATOM     37  N   UNL A   1      41.810  27.177  28.814  1.00  0.00    -0.248 NA
ATOM     38  C   UNL A   1      39.662  26.485  28.225  1.00  0.00     0.031 C 
ATOM     39  C   UNL A   1      40.125  31.179  29.965  1.00  0.00     0.029 A 
ATOM     40  N   UNL A   1      41.991  29.949  29.869  1.00  0.00    -0.354 N 
ATOM     41  C   UNL A   1      41.861  25.879  28.318  1.00  0.00     0.074 A 
ATOM     42  C   UNL A   1      40.506  25.488  28.005  1.00  0.00     0.031 C 
ATOM     43  C   UNL A   1      41.145  31.963  30.350  1.00  0.00     0.029 A 
ATOM     44  C   UNL A   1      42.382  31.187  30.318  1.00  0.00     0.049 A 
ATOM     45  H   UNL A   1      42.618  29.201  29.735  1.00  0.00     0.167 HD
ATOM     46  C   UNL A   1      42.944  25.091  28.128  1.00  0.00     0.037 A 
ATOM     47  C   UNL A   1      43.601  31.636  30.672  1.00  0.00     0.037 A 
ATOM     48  C   UNL A   1      44.289  25.500  28.442  1.00  0.00     0.049 A 
ATOM     49  C   UNL A   1      44.781  30.713  30.524  1.00  0.00     0.074 A 
ATOM     50  C   UNL A   1      45.463  24.786  28.292  1.00  0.00     0.029 A 
ATOM     51  N   UNL A   1      44.636  26.733  28.977  1.00  0.00    -0.354 N 
ATOM     52  N   UNL A   1      44.817  29.491  30.045  1.00  0.00    -0.248 NA
ATOM     53  C   UNL A   1      46.086  31.229  30.957  1.00  0.00     0.031 C 
ATOM     54  C   UNL A   1      46.511  25.561  28.795  1.00  0.00     0.029 A 
ATOM     55  C   UNL A   1      46.002  26.788  29.196  1.00  0.00     0.049 A 
ATOM     56  H   UNL A   1      44.004  27.462  29.172  1.00  0.00     0.167 HD
ATOM     57  C   UNL A   1      46.150  29.100  30.100  1.00  0.00     0.074 A 
ATOM     58  C   UNL A   1      46.890  30.222  30.641  1.00  0.00     0.031 C 
ATOM     59  C   UNL A   1      46.714  27.919  29.736  1.00  0.00     0.037 A 
BRANCH  46  60
ATOM     60  C   UNL A   1      42.719  23.701  27.597  1.00  0.00     0.058 A 
ATOM     61  C   UNL A   1      42.714  23.416  26.222  1.00  0.00     0.135 A 
ATOM     62  C   UNL A   1      42.532  22.627  28.485  1.00  0.00     0.135 A 
ATOM     63  F   UNL A   1      42.865  24.405  25.326  1.00  0.00    -0.206 F 
ATOM     64  C   UNL A   1      42.510  22.124  25.746  1.00  0.00     0.059 A 
ATOM     65  C   UNL A   1      42.357  21.324  28.032  1.00  0.00     0.059 A 
ATOM     66  F   UNL A   1      42.520  22.842  29.810  1.00  0.00    -0.206 F 
ATOM     67  C   UNL A   1      42.334  21.083  26.660  1.00  0.00     0.060 A 
BRANCH  67  68
ATOM     68  S   UNL A   1      42.084  19.410  26.028  1.00  0.00     0.124 S 
ATOM     69  O   UNL A   1      42.947  19.411  24.851  1.00  0.00    -0.237 OA
ATOM     70  O   UNL A   1      42.535  18.586  27.143  1.00  0.00    -0.237 OA
ATOM     71  O   UNL A   1      40.651  19.361  25.754  1.00  0.00    -0.744 OA
ENDBRANCH  67  68
ENDBRANCH  46  60
BRANCH  47  72
ATOM     72  C   UNL A   1      43.754  33.011  31.218  1.00  0.00     0.058 A 
ATOM     73  C   UNL A   1      43.652  33.275  32.591  1.00  0.00     0.135 A 
ATOM     74  C   UNL A   1      44.018  34.094  30.364  1.00  0.00     0.135 A 
ATOM     75  F   UNL A   1      43.394  32.277  33.450  1.00  0.00    -0.206 F 
ATOM     76  C   UNL A   1      43.794  34.564  33.097  1.00  0.00     0.059 A 
ATOM     77  C   UNL A   1      44.193  35.385  30.848  1.00  0.00     0.059 A 
ATOM     78  F   UNL A   1      44.137  33.895  29.041  1.00  0.00    -0.206 F 
ATOM     79  C   UNL A   1      44.069  35.612  32.217  1.00  0.00     0.060 A 
BRANCH  79  80
ATOM     80  S   UNL A   1      44.300  37.274  32.886  1.00  0.00     0.124 S 
ATOM     81  O   UNL A   1      45.613  37.160  33.509  1.00  0.00    -0.237 OA
ATOM     82  O   UNL A   1      44.232  38.098  31.682  1.00  0.00    -0.237 OA
ATOM     83  O   UNL A   1      43.176  37.425  33.803  1.00  0.00    -0.744 OA
ENDBRANCH  79  80
ENDBRANCH  47  72
BRANCH  59  84
ATOM     84  C   UNL A   1      48.205  27.792  29.887  1.00  0.00     0.058 A 
ATOM     85  C   UNL A   1      49.084  28.114  28.842  1.00  0.00     0.135 A 
ATOM     86  C   UNL A   1      48.762  27.395  31.114  1.00  0.00     0.135 A 
ATOM     87  F   UNL A   1      48.604  28.494  27.647  1.00  0.00    -0.206 F 
ATOM     88  C   UNL A   1      50.463  28.019  28.998  1.00  0.00     0.059 A 
ATOM     89  C   UNL A   1      50.139  27.326  31.302  1.00  0.00     0.059 A 
ATOM     90  F   UNL A   1      47.967  27.088  32.151  1.00  0.00    -0.206 F 
ATOM     91  C   UNL A   1      50.980  27.627  30.234  1.00  0.00     0.060 A 
BRANCH  91  92
ATOM     92  S   UNL A   1      52.772  27.537  30.430  1.00  0.00     0.124 S 
ATOM     93  O   UNL A   1      52.894  27.133  31.827  1.00  0.00    -0.237 OA
ATOM     94  O   UNL A   1      53.142  26.527  29.443  1.00  0.00    -0.237 OA
ATOM     95  O   UNL A   1      53.217  28.894  30.128  1.00  0.00    -0.744 OA
ENDBRANCH  91  92
ENDBRANCH  59  84
ENDBRANCH  33  34
ENDBRANCH  26  28
ENDBRANCH  25  26
ENDBRANCH  24  25
ENDBRANCH  23  24
ENDBRANCH  22  23
ENDBRANCH   1  22
TORSDOF 23
ENDMDL
MODEL 3
REMARK VINA RESULT:      -9.7      1.124      2.721
REMARK SMILES C=CCN(CC(=O)OCCOCCOC(=O)c1ccc(-c2c3nc(c(-c4c(F)cc(S(=O)(=O)[O-])cc4F)c4ccc([nH]4)c(-c4c(F)cc(S(=O)(=O)[O-])cc4F)c4nc(c(-c5c(F)cc(S(=O)(=O)[O-])cc5F)c5ccc2[nH]5)C=C4)C=C3)cc1)C(=O)c1cc(OC)ccc1Br
REMARK SMILES IDX 10 1 9 2 8 3 6 4 7 5 5 6 4 7 3 8 2 9 1 10 83 11 84 12 85 13
REMARK SMILES IDX 86 14 92 15 87 16 91 17 93 18 90 19 88 20 89 21 11 22 12 23
REMARK SMILES IDX 13 24 14 25 15 26 16 27 17 28 18 29 82 30 19 31 81 32 20 33
REMARK SMILES IDX 21 34 22 35 75 36 23 37 80 38 74 39 76 40 24 41 79 42 73 43
REMARK SMILES IDX 72 44 25 46 59 47 38 48 58 49 39 50 42 51 57 52 77 53 40 54
REMARK SMILES IDX 41 55 56 57 78 58 43 59 26 60 27 61 36 62 28 63 29 64 35 65
REMARK SMILES IDX 37 66 30 67 31 68 32 69 33 70 34 71 60 72 61 73 70 74 62 75
REMARK SMILES IDX 63 76 69 77 71 78 64 79 65 80 66 81 67 82 68 83 44 84 45 85
REMARK SMILES IDX 54 86 46 87 47 88 53 89 55 90 48 91 49 92 50 93 51 94 52 95
REMARK H PARENT 76 45 42 56
REMARK Flexibility Score: inf
ROOT
ATOM      1  C   UNL A   1      32.903  30.439  26.970  1.00  0.00     0.202 C 
ENDROOT
BRANCH   1   2
ATOM      2  C   UNL A   1      32.532  29.555  25.747  1.00  0.00     0.261 C 
BRANCH   2   3
ATOM      3  O   UNL A   1      31.296  28.772  25.917  1.00  0.00    -0.462 OA
BRANCH   3   4
ATOM      4  C   UNL A   1      31.331  27.799  26.871  1.00  0.00     0.325 C 
ATOM      5  O   UNL A   1      31.600  28.043  28.048  1.00  0.00    -0.250 OA
BRANCH   4   6
ATOM      6  C   UNL A   1      31.082  26.309  26.437  1.00  0.00     0.242 C 
BRANCH   6   7
ATOM      7  N   UNL A   1      31.287  25.568  25.152  1.00  0.00    -0.324 N 
BRANCH   7   8
ATOM      8  C   UNL A   1      32.480  24.717  25.075  1.00  0.00     0.147 C 
BRANCH   8   9
ATOM      9  C   UNL A   1      33.739  25.431  25.461  1.00  0.00    -0.014 C 
ATOM     10  C   UNL A   1      34.312  26.388  24.714  1.00  0.00     0.006 C 
ENDBRANCH   8   9
ENDBRANCH   7   8
BRANCH   7  11
ATOM     11  C   UNL A   1      30.424  25.679  24.016  1.00  0.00     0.255 C 
ATOM     12  O   UNL A   1      29.824  24.750  23.484  1.00  0.00    -0.269 OA
BRANCH  11  13
ATOM     13  C   UNL A   1      30.275  27.003  23.360  1.00  0.00     0.057 A 
ATOM     14  C   UNL A   1      29.085  27.721  23.186  1.00  0.00     0.061 A 
ATOM     15  C   UNL A   1      31.357  27.435  22.635  1.00  0.00     0.031 A 
ATOM     16  C   UNL A   1      29.123  28.972  22.542  1.00  0.00     0.119 A 
ATOM     17  C   UNL A   1      31.488  28.786  22.368  1.00  0.00     0.020 A 
ATOM     18  Br  UNL A   1      32.005  26.114  21.382  1.00  0.00    -0.050 Br
ATOM     19  C   UNL A   1      30.354  29.566  22.307  1.00  0.00     0.047 A 
BRANCH  16  20
ATOM     20  O   UNL A   1      27.943  29.554  22.161  1.00  0.00    -0.497 OA
ATOM     21  C   UNL A   1      28.068  30.478  21.066  1.00  0.00     0.278 C 
ENDBRANCH  16  20
ENDBRANCH  11  13
ENDBRANCH   7  11
ENDBRANCH   6   7
ENDBRANCH   4   6
ENDBRANCH   3   4
ENDBRANCH   2   3
ENDBRANCH   1   2
BRANCH   1  22
ATOM     22  O   UNL A   1      34.294  30.417  27.363  1.00  0.00    -0.374 OA
BRANCH  22  23
ATOM     23  C   UNL A   1      34.710  31.572  28.075  1.00  0.00     0.202 C 
BRANCH  23  24
ATOM     24  C   UNL A   1      35.439  31.319  29.403  1.00  0.00     0.261 C 
BRANCH  24  25
ATOM     25  O   UNL A   1      36.083  30.047  29.351  1.00  0.00    -0.460 OA
BRANCH  25  26
ATOM     26  C   UNL A   1      36.827  29.775  30.433  1.00  0.00     0.338 C 
ATOM     27  O   UNL A   1      36.445  29.303  31.495  1.00  0.00    -0.246 OA
BRANCH  26  28
ATOM     28  C   UNL A   1      38.236  29.858  30.042  1.00  0.00     0.060 A 
ATOM     29  C   UNL A   1      38.460  29.955  28.669  1.00  0.00     0.016 A 
ATOM     30  C   UNL A   1      39.297  29.815  30.953  1.00  0.00     0.016 A 
ATOM     31  C   UNL A   1      39.750  29.867  28.185  1.00  0.00     0.010 A 
ATOM     32  C   UNL A   1      40.603  29.740  30.461  1.00  0.00     0.010 A 
ATOM     33  C   UNL A   1      40.820  29.691  29.073  1.00  0.00    -0.014 A 
BRANCH  33  34
ATOM     34  C   UNL A   1      42.101  29.243  28.485  1.00  0.00     0.031 A 
ATOM     35  C   UNL A   1      43.256  30.207  28.460  1.00  0.00     0.074 A 
ATOM     36  C   UNL A   1      42.272  27.947  28.170  1.00  0.00     0.049 A 
ATOM     37  N   UNL A   1      44.508  29.989  28.159  1.00  0.00    -0.248 NA
ATOM     38  C   UNL A   1      42.967  31.600  28.844  1.00  0.00     0.031 C 
ATOM     39  C   UNL A   1      41.225  26.924  28.228  1.00  0.00     0.029 A 
ATOM     40  N   UNL A   1      43.391  27.262  27.782  1.00  0.00    -0.354 N 
ATOM     41  C   UNL A   1      45.154  31.210  28.321  1.00  0.00     0.074 A 
ATOM     42  C   UNL A   1      44.152  32.175  28.707  1.00  0.00     0.031 C 
ATOM     43  C   UNL A   1      41.761  25.735  27.911  1.00  0.00     0.029 A 
ATOM     44  C   UNL A   1      43.175  25.918  27.593  1.00  0.00     0.049 A 
ATOM     45  H   UNL A   1      44.267  27.691  27.650  1.00  0.00     0.167 HD
ATOM     46  C   UNL A   1      46.469  31.494  28.173  1.00  0.00     0.037 A 
ATOM     47  C   UNL A   1      44.024  24.951  27.200  1.00  0.00     0.037 A 
ATOM     48  C   UNL A   1      47.455  30.516  27.792  1.00  0.00     0.049 A 
ATOM     49  C   UNL A   1      45.468  25.308  26.967  1.00  0.00     0.074 A 
ATOM     50  C   UNL A   1      48.815  30.690  27.611  1.00  0.00     0.029 A 
ATOM     51  N   UNL A   1      47.183  29.181  27.525  1.00  0.00    -0.354 N 
ATOM     52  N   UNL A   1      46.068  26.464  27.132  1.00  0.00    -0.248 NA
ATOM     53  C   UNL A   1      46.352  24.232  26.502  1.00  0.00     0.031 C 
ATOM     54  C   UNL A   1      49.354  29.477  27.174  1.00  0.00     0.029 A 
ATOM     55  C   UNL A   1      48.344  28.527  27.148  1.00  0.00     0.049 A 
ATOM     56  H   UNL A   1      46.296  28.761  27.595  1.00  0.00     0.167 HD
ATOM     57  C   UNL A   1      47.404  26.250  26.810  1.00  0.00     0.074 A 
ATOM     58  C   UNL A   1      47.526  24.848  26.460  1.00  0.00     0.031 C 
ATOM     59  C   UNL A   1      48.438  27.130  26.804  1.00  0.00     0.037 A 
BRANCH  46  60
ATOM     60  C   UNL A   1      46.909  32.918  28.381  1.00  0.00     0.058 A 
ATOM     61  C   UNL A   1      46.932  33.856  27.336  1.00  0.00     0.135 A 
ATOM     62  C   UNL A   1      47.290  33.359  29.660  1.00  0.00     0.135 A 
ATOM     63  F   UNL A   1      46.600  33.486  26.089  1.00  0.00    -0.206 F 
ATOM     64  C   UNL A   1      47.335  35.171  27.546  1.00  0.00     0.059 A 
ATOM     65  C   UNL A   1      47.668  34.677  29.899  1.00  0.00     0.059 A 
ATOM     66  F   UNL A   1      47.295  32.504  30.696  1.00  0.00    -0.206 F 
ATOM     67  C   UNL A   1      47.700  35.573  28.833  1.00  0.00     0.060 A 
BRANCH  67  68
ATOM     68  S   UNL A   1      48.209  37.286  29.092  1.00  0.00     0.124 S 
ATOM     69  O   UNL A   1      49.613  37.121  29.456  1.00  0.00    -0.237 OA
ATOM     70  O   UNL A   1      47.961  37.885  27.785  1.00  0.00    -0.237 OA
ATOM     71  O   UNL A   1      47.333  37.743  30.165  1.00  0.00    -0.744 OA
ENDBRANCH  67  68
ENDBRANCH  46  60
BRANCH  47  72
ATOM     72  C   UNL A   1      43.521  23.568  26.982  1.00  0.00     0.058 A 
ATOM     73  C   UNL A   1      43.370  22.661  28.040  1.00  0.00     0.135 A 
ATOM     74  C   UNL A   1      43.169  23.131  25.694  1.00  0.00     0.135 A 
ATOM     75  F   UNL A   1      43.699  23.026  29.289  1.00  0.00    -0.206 F 
ATOM     76  C   UNL A   1      42.901  21.368  27.830  1.00  0.00     0.059 A 
ATOM     77  C   UNL A   1      42.670  21.855  25.463  1.00  0.00     0.059 A 
ATOM     78  F   UNL A   1      43.283  23.963  24.646  1.00  0.00    -0.206 F 
ATOM     79  C   UNL A   1      42.549  20.976  26.537  1.00  0.00     0.060 A 
BRANCH  79  80
ATOM     80  S   UNL A   1      41.896  19.312  26.279  1.00  0.00     0.124 S 
ATOM     81  O   UNL A   1      40.465  19.572  26.168  1.00  0.00    -0.237 OA
ATOM     82  O   UNL A   1      42.570  18.908  25.049  1.00  0.00    -0.237 OA
ATOM     83  O   UNL A   1      42.316  18.596  27.479  1.00  0.00    -0.744 OA
ENDBRANCH  79  80
ENDBRANCH  47  72
BRANCH  59  84
ATOM     84  C   UNL A   1      49.794  26.596  26.433  1.00  0.00     0.058 A 
ATOM     85  C   UNL A   1      50.264  26.627  25.111  1.00  0.00     0.135 A 
ATOM     86  C   UNL A   1      50.655  26.098  27.425  1.00  0.00     0.135 A 
ATOM     87  F   UNL A   1      49.479  27.088  24.125  1.00  0.00    -0.206 F 
ATOM     88  C   UNL A   1      51.531  26.155  24.780  1.00  0.00     0.059 A 
ATOM     89  C   UNL A   1      51.938  25.653  27.121  1.00  0.00     0.059 A 
ATOM     90  F   UNL A   1      50.261  26.059  28.707  1.00  0.00    -0.206 F 
ATOM     91  C   UNL A   1      52.361  25.673  25.794  1.00  0.00     0.060 A 
BRANCH  91  92
ATOM     92  S   UNL A   1      54.012  25.093  25.354  1.00  0.00     0.124 S 
ATOM     93  O   UNL A   1      54.698  25.156  26.640  1.00  0.00    -0.237 OA
ATOM     94  O   UNL A   1      53.744  23.751  24.843  1.00  0.00    -0.237 OA
ATOM     95  O   UNL A   1      54.459  26.059  24.356  1.00  0.00    -0.744 OA
ENDBRANCH  91  92
ENDBRANCH  59  84
ENDBRANCH  33  34
ENDBRANCH  26  28
ENDBRANCH  25  26
ENDBRANCH  24  25
ENDBRANCH  23  24
ENDBRANCH  22  23
ENDBRANCH   1  22
TORSDOF 23
ENDMDL
