MODEL 1
REMARK VINA RESULT:      -9.1      0.000      0.000
REMARK SMILES CCOCC[C@@H]1CCC[C@@]1([NH2+]C1CC1)C(=O)OCCOCCOC(=O)c1ccc(-c2c3nc(c(-c4c(F)cc(S(=O)(=O)[O-])cc4F)c4ccc([nH]4)c(-c4c(F)cc(S(=O)(=O)[O-])cc4F)c4nc(c(-c5c(F)cc(S(=O)(=O)[O-])cc5F)c5ccc2[nH]5)C=C4)C=C3)cc1
REMARK SMILES IDX 19 1 18 2 17 3 15 4 16 5 10 6 6 7 7 8 8 9 9 10 5 11 4 12
REMARK SMILES IDX 3 13 2 14 1 15 11 16 12 19 13 20 14 21 20 22 21 23 22 24
REMARK SMILES IDX 23 25 24 26 25 27 26 28 27 29 91 30 28 31 90 32 29 33 30 34
REMARK SMILES IDX 31 35 84 36 32 37 89 38 83 39 85 40 33 41 88 42 82 43 81 44
REMARK SMILES IDX 34 46 68 47 47 48 67 49 48 50 51 51 66 52 86 53 49 54 50 55
REMARK SMILES IDX 65 57 87 58 52 59 35 60 36 61 45 62 37 63 38 64 44 65 46 66
REMARK SMILES IDX 39 67 40 68 41 69 42 70 43 71 69 72 70 73 79 74 71 75 72 76
REMARK SMILES IDX 78 77 80 78 73 79 74 80 75 81 76 82 77 83 53 84 54 85 63 86
REMARK SMILES IDX 55 87 56 88 62 89 64 90 57 91 58 92 59 93 60 94 61 95
REMARK H PARENT 11 17 11 18 85 45 51 56
REMARK Flexibility Score: inf
ROOT
ATOM      1  C   UNL A   1      34.540  22.153  24.943  1.00  0.00     0.202 C 
ENDROOT
BRANCH   1   2
ATOM      2  C   UNL A   1      33.935  23.134  23.936  1.00  0.00     0.261 C 
BRANCH   2   3
ATOM      3  O   UNL A   1      33.896  24.449  24.518  1.00  0.00    -0.459 OA
BRANCH   3   4
ATOM      4  C   UNL A   1      32.684  25.019  24.722  1.00  0.00     0.368 C 
ATOM      5  O   UNL A   1      31.817  24.517  25.434  1.00  0.00    -0.245 OA
BRANCH   4   6
ATOM      6  C   UNL A   1      32.551  26.439  24.105  1.00  0.00     0.197 C 
ATOM      7  C   UNL A   1      33.737  27.294  24.664  1.00  0.00     0.065 C 
ATOM      8  C   UNL A   1      33.940  28.423  23.649  1.00  0.00     0.011 C 
ATOM      9  C   UNL A   1      33.435  27.865  22.315  1.00  0.00     0.008 C 
ATOM     10  C   UNL A   1      32.922  26.454  22.606  1.00  0.00     0.081 C 
BRANCH   7  11
ATOM     11  C   UNL A   1      33.686  27.600  26.179  1.00  0.00     0.039 C 
BRANCH  11  12
ATOM     12  C   UNL A   1      33.944  29.025  26.666  1.00  0.00     0.160 C 
BRANCH  12  13
ATOM     13  O   UNL A   1      32.763  29.725  27.049  1.00  0.00    -0.382 OA
BRANCH  13  14
ATOM     14  C   UNL A   1      32.077  30.430  26.017  1.00  0.00     0.156 C 
ATOM     15  C   UNL A   1      31.343  31.663  26.518  1.00  0.00     0.035 C 
ENDBRANCH  13  14
ENDBRANCH  12  13
ENDBRANCH  11  12
ENDBRANCH   7  11
BRANCH   6  16
ATOM     16  N   UNL A   1      31.253  27.132  24.321  1.00  0.00    -0.329 N 
ATOM     17  H   UNL A   1      31.456  28.126  24.425  1.00  0.00     0.347 HD
ATOM     18  H   UNL A   1      30.855  26.668  25.138  1.00  0.00     0.347 HD
BRANCH  16  19
ATOM     19  C   UNL A   1      30.211  27.006  23.288  1.00  0.00     0.183 C 
ATOM     20  C   UNL A   1      28.776  26.851  23.721  1.00  0.00     0.071 C 
ATOM     21  C   UNL A   1      29.234  28.145  23.126  1.00  0.00     0.071 C 
ENDBRANCH  16  19
ENDBRANCH   6  16
ENDBRANCH   4   6
ENDBRANCH   3   4
ENDBRANCH   2   3
ENDBRANCH   1   2
BRANCH   1  22
ATOM     22  O   UNL A   1      35.971  22.138  24.985  1.00  0.00    -0.374 OA
BRANCH  22  23
ATOM     23  C   UNL A   1      36.594  20.856  24.971  1.00  0.00     0.202 C 
BRANCH  23  24
ATOM     24  C   UNL A   1      38.107  20.855  25.185  1.00  0.00     0.261 C 
BRANCH  24  25
ATOM     25  O   UNL A   1      38.557  22.137  25.661  1.00  0.00    -0.460 OA
BRANCH  25  26
ATOM     26  C   UNL A   1      39.714  22.093  26.366  1.00  0.00     0.338 C 
ATOM     27  O   UNL A   1      40.538  21.196  26.362  1.00  0.00    -0.246 OA
BRANCH  26  28
ATOM     28  C   UNL A   1      39.944  23.383  27.046  1.00  0.00     0.060 A 
ATOM     29  C   UNL A   1      39.407  24.528  26.442  1.00  0.00     0.016 A 
ATOM     30  C   UNL A   1      40.731  23.494  28.195  1.00  0.00     0.016 A 
ATOM     31  C   UNL A   1      39.720  25.791  26.934  1.00  0.00     0.010 A 
ATOM     32  C   UNL A   1      41.050  24.763  28.685  1.00  0.00     0.010 A 
ATOM     33  C   UNL A   1      40.587  25.916  28.026  1.00  0.00    -0.014 A 
BRANCH  33  34
ATOM     34  C   UNL A   1      41.176  27.239  28.340  1.00  0.00     0.031 A 
ATOM     35  C   UNL A   1      42.657  27.428  28.138  1.00  0.00     0.074 A 
ATOM     36  C   UNL A   1      40.411  28.262  28.758  1.00  0.00     0.049 A 
ATOM     37  N   UNL A   1      43.409  28.458  28.421  1.00  0.00    -0.248 NA
ATOM     38  C   UNL A   1      43.386  26.298  27.536  1.00  0.00     0.031 C 
ATOM     39  C   UNL A   1      38.959  28.220  28.928  1.00  0.00     0.029 A 
ATOM     40  N   UNL A   1      40.755  29.540  29.123  1.00  0.00    -0.354 N 
ATOM     41  C   UNL A   1      44.698  28.099  28.045  1.00  0.00     0.074 A 
ATOM     42  C   UNL A   1      44.633  26.748  27.537  1.00  0.00     0.031 C 
ATOM     43  C   UNL A   1      38.539  29.415  29.378  1.00  0.00     0.029 A 
ATOM     44  C   UNL A   1      39.693  30.293  29.562  1.00  0.00     0.049 A 
ATOM     45  H   UNL A   1      41.677  29.884  29.074  1.00  0.00     0.167 HD
ATOM     46  C   UNL A   1      45.833  28.833  28.112  1.00  0.00     0.037 A 
ATOM     47  C   UNL A   1      39.664  31.537  30.079  1.00  0.00     0.037 A 
ATOM     48  C   UNL A   1      45.890  30.180  28.610  1.00  0.00     0.049 A 
ATOM     49  C   UNL A   1      40.952  32.312  30.211  1.00  0.00     0.074 A 
ATOM     50  C   UNL A   1      46.993  31.007  28.734  1.00  0.00     0.029 A 
ATOM     51  N   UNL A   1      44.795  30.902  29.063  1.00  0.00    -0.354 N 
ATOM     52  N   UNL A   1      42.168  31.953  29.870  1.00  0.00    -0.248 NA
ATOM     53  C   UNL A   1      40.867  33.656  30.800  1.00  0.00     0.031 C 
ATOM     54  C   UNL A   1      46.570  32.217  29.295  1.00  0.00     0.029 A 
ATOM     55  C   UNL A   1      45.197  32.160  29.475  1.00  0.00     0.049 A 
ATOM     56  H   UNL A   1      43.869  30.568  29.086  1.00  0.00     0.167 HD
ATOM     57  C   UNL A   1      42.983  33.042  30.165  1.00  0.00     0.074 A 
ATOM     58  C   UNL A   1      42.125  34.070  30.716  1.00  0.00     0.031 C 
ATOM     59  C   UNL A   1      44.320  33.181  29.989  1.00  0.00     0.037 A 
BRANCH  46  60
ATOM     60  C   UNL A   1      47.112  28.186  27.658  1.00  0.00     0.058 A 
ATOM     61  C   UNL A   1      47.925  27.461  28.541  1.00  0.00     0.135 A 
ATOM     62  C   UNL A   1      47.508  28.263  26.314  1.00  0.00     0.135 A 
ATOM     63  F   UNL A   1      47.602  27.373  29.841  1.00  0.00    -0.206 F 
ATOM     64  C   UNL A   1      49.099  26.849  28.112  1.00  0.00     0.059 A 
ATOM     65  C   UNL A   1      48.664  27.640  25.856  1.00  0.00     0.059 A 
ATOM     66  F   UNL A   1      46.768  28.950  25.428  1.00  0.00    -0.206 F 
ATOM     67  C   UNL A   1      49.460  26.945  26.766  1.00  0.00     0.060 A 
BRANCH  67  68
ATOM     68  S   UNL A   1      50.981  26.139  26.220  1.00  0.00     0.124 S 
ATOM     69  O   UNL A   1      50.864  24.834  26.863  1.00  0.00    -0.237 OA
ATOM     70  O   UNL A   1      50.835  26.145  24.768  1.00  0.00    -0.237 OA
ATOM     71  O   UNL A   1      52.032  27.005  26.745  1.00  0.00    -0.744 OA
ENDBRANCH  67  68
ENDBRANCH  46  60
BRANCH  47  72
ATOM     72  C   UNL A   1      38.377  32.127  30.532  1.00  0.00     0.058 A 
ATOM     73  C   UNL A   1      37.862  31.852  31.808  1.00  0.00     0.135 A 
ATOM     74  C   UNL A   1      37.627  32.964  29.691  1.00  0.00     0.135 A 
ATOM     75  F   UNL A   1      38.536  31.048  32.644  1.00  0.00    -0.206 F 
ATOM     76  C   UNL A   1      36.641  32.371  32.228  1.00  0.00     0.059 A 
ATOM     77  C   UNL A   1      36.416  33.515  30.098  1.00  0.00     0.059 A 
ATOM     78  F   UNL A   1      38.080  33.267  28.464  1.00  0.00    -0.206 F 
ATOM     79  C   UNL A   1      35.924  33.200  31.364  1.00  0.00     0.060 A 
BRANCH  79  80
ATOM     80  S   UNL A   1      34.354  33.894  31.928  1.00  0.00     0.124 S 
ATOM     81  O   UNL A   1      34.806  35.039  32.710  1.00  0.00    -0.237 OA
ATOM     82  O   UNL A   1      33.685  34.203  30.669  1.00  0.00    -0.237 OA
ATOM     83  O   UNL A   1      33.762  32.801  32.693  1.00  0.00    -0.744 OA
ENDBRANCH  79  80
ENDBRANCH  47  72
BRANCH  59  84
ATOM     84  C   UNL A   1      44.940  34.507  30.329  1.00  0.00     0.058 A 
ATOM     85  C   UNL A   1      45.496  34.763  31.591  1.00  0.00     0.135 A 
ATOM     86  C   UNL A   1      45.062  35.500  29.342  1.00  0.00     0.135 A 
ATOM     87  F   UNL A   1      45.401  33.849  32.569  1.00  0.00    -0.206 F 
ATOM     88  C   UNL A   1      46.148  35.962  31.865  1.00  0.00     0.059 A 
ATOM     89  C   UNL A   1      45.728  36.696  29.588  1.00  0.00     0.059 A 
ATOM     90  F   UNL A   1      44.554  35.299  28.115  1.00  0.00    -0.206 F 
ATOM     91  C   UNL A   1      46.265  36.918  30.855  1.00  0.00     0.060 A 
BRANCH  91  92
ATOM     92  S   UNL A   1      47.172  38.441  31.203  1.00  0.00     0.124 S 
ATOM     93  O   UNL A   1      48.541  37.949  31.317  1.00  0.00    -0.237 OA
ATOM     94  O   UNL A   1      46.886  39.253  30.024  1.00  0.00    -0.237 OA
ATOM     95  O   UNL A   1      46.570  38.919  32.445  1.00  0.00    -0.744 OA
ENDBRANCH  91  92
ENDBRANCH  59  84
ENDBRANCH  33  34
ENDBRANCH  26  28
ENDBRANCH  25  26
ENDBRANCH  24  25
ENDBRANCH  23  24
ENDBRANCH  22  23
ENDBRANCH   1  22
TORSDOF 23
ENDMDL
MODEL 2
REMARK VINA RESULT:      -9.0      3.192      9.194
REMARK SMILES CCOCC[C@@H]1CCC[C@@]1([NH2+]C1CC1)C(=O)OCCOCCOC(=O)c1ccc(-c2c3nc(c(-c4c(F)cc(S(=O)(=O)[O-])cc4F)c4ccc([nH]4)c(-c4c(F)cc(S(=O)(=O)[O-])cc4F)c4nc(c(-c5c(F)cc(S(=O)(=O)[O-])cc5F)c5ccc2[nH]5)C=C4)C=C3)cc1
REMARK SMILES IDX 19 1 18 2 17 3 15 4 16 5 10 6 6 7 7 8 8 9 9 10 5 11 4 12
REMARK SMILES IDX 3 13 2 14 1 15 11 16 12 19 13 20 14 21 20 22 21 23 22 24
REMARK SMILES IDX 23 25 24 26 25 27 26 28 27 29 91 30 28 31 90 32 29 33 30 34
REMARK SMILES IDX 31 35 84 36 32 37 89 38 83 39 85 40 33 41 88 42 82 43 81 44
REMARK SMILES IDX 34 46 68 47 47 48 67 49 48 50 51 51 66 52 86 53 49 54 50 55
REMARK SMILES IDX 65 57 87 58 52 59 35 60 36 61 45 62 37 63 38 64 44 65 46 66
REMARK SMILES IDX 39 67 40 68 41 69 42 70 43 71 69 72 70 73 79 74 71 75 72 76
REMARK SMILES IDX 78 77 80 78 73 79 74 80 75 81 76 82 77 83 53 84 54 85 63 86
REMARK SMILES IDX 55 87 56 88 62 89 64 90 57 91 58 92 59 93 60 94 61 95
REMARK H PARENT 11 17 11 18 85 45 51 56
REMARK Flexibility Score: inf
ROOT
ATOM      1  C   UNL A   1      34.342  29.470  26.855  1.00  0.00     0.202 C 
ENDROOT
BRANCH   1   2
ATOM      2  C   UNL A   1      32.821  29.590  26.732  1.00  0.00     0.261 C 
BRANCH   2   3
ATOM      3  O   UNL A   1      32.346  28.632  25.770  1.00  0.00    -0.459 OA
BRANCH   3   4
ATOM      4  C   UNL A   1      31.783  27.491  26.232  1.00  0.00     0.368 C 
ATOM      5  O   UNL A   1      31.143  27.434  27.280  1.00  0.00    -0.245 OA
BRANCH   4   6
ATOM      6  C   UNL A   1      31.884  26.299  25.239  1.00  0.00     0.197 C 
ATOM      7  C   UNL A   1      31.748  26.892  23.798  1.00  0.00     0.065 C 
ATOM      8  C   UNL A   1      32.416  25.871  22.872  1.00  0.00     0.011 C 
ATOM      9  C   UNL A   1      33.452  25.151  23.741  1.00  0.00     0.008 C 
ATOM     10  C   UNL A   1      33.322  25.747  25.144  1.00  0.00     0.081 C 
BRANCH   7  11
ATOM     11  C   UNL A   1      30.363  27.484  23.444  1.00  0.00     0.039 C 
BRANCH  11  12
ATOM     12  C   UNL A   1      30.275  28.900  22.878  1.00  0.00     0.160 C 
BRANCH  12  13
ATOM     13  O   UNL A   1      29.161  29.645  23.363  1.00  0.00    -0.382 OA
BRANCH  13  14
ATOM     14  C   UNL A   1      27.983  29.626  22.560  1.00  0.00     0.156 C 
ATOM     15  C   UNL A   1      28.084  30.508  21.327  1.00  0.00     0.035 C 
ENDBRANCH  13  14
ENDBRANCH  12  13
ENDBRANCH  11  12
ENDBRANCH   7  11
BRANCH   6  16
ATOM     16  N   UNL A   1      30.918  25.187  25.446  1.00  0.00    -0.329 N 
ATOM     17  H   UNL A   1      30.694  24.809  24.526  1.00  0.00     0.347 HD
ATOM     18  H   UNL A   1      30.146  25.617  25.954  1.00  0.00     0.347 HD
BRANCH  16  19
ATOM     19  C   UNL A   1      31.325  24.054  26.294  1.00  0.00     0.183 C 
ATOM     20  C   UNL A   1      30.261  23.133  26.833  1.00  0.00     0.071 C 
ATOM     21  C   UNL A   1      31.164  22.660  25.738  1.00  0.00     0.071 C 
ENDBRANCH  16  19
ENDBRANCH   6  16
ENDBRANCH   4   6
ENDBRANCH   3   4
ENDBRANCH   2   3
ENDBRANCH   1   2
BRANCH   1  22
ATOM     22  O   UNL A   1      34.880  29.897  28.111  1.00  0.00    -0.374 OA
BRANCH  22  23
ATOM     23  C   UNL A   1      34.790  31.290  28.400  1.00  0.00     0.202 C 
BRANCH  23  24
ATOM     24  C   UNL A   1      36.062  31.932  28.954  1.00  0.00     0.261 C 
BRANCH  24  25
ATOM     25  O   UNL A   1      36.212  31.643  30.356  1.00  0.00    -0.460 OA
BRANCH  25  26
ATOM     26  C   UNL A   1      36.765  30.434  30.618  1.00  0.00     0.338 C 
ATOM     27  O   UNL A   1      36.201  29.457  31.079  1.00  0.00    -0.246 OA
BRANCH  26  28
ATOM     28  C   UNL A   1      38.152  30.388  30.112  1.00  0.00     0.060 A 
ATOM     29  C   UNL A   1      38.333  29.972  28.787  1.00  0.00     0.016 A 
ATOM     30  C   UNL A   1      39.255  30.658  30.926  1.00  0.00     0.016 A 
ATOM     31  C   UNL A   1      39.615  29.747  28.293  1.00  0.00     0.010 A 
ATOM     32  C   UNL A   1      40.541  30.426  30.432  1.00  0.00     0.010 A 
ATOM     33  C   UNL A   1      40.723  29.922  29.131  1.00  0.00    -0.014 A 
BRANCH  33  34
ATOM     34  C   UNL A   1      42.038  29.376  28.723  1.00  0.00     0.031 A 
ATOM     35  C   UNL A   1      43.217  30.313  28.676  1.00  0.00     0.074 A 
ATOM     36  C   UNL A   1      42.195  28.071  28.439  1.00  0.00     0.049 A 
ATOM     37  N   UNL A   1      44.439  30.089  28.273  1.00  0.00    -0.248 NA
ATOM     38  C   UNL A   1      42.981  31.688  29.148  1.00  0.00     0.031 C 
ATOM     39  C   UNL A   1      41.144  27.056  28.513  1.00  0.00     0.029 A 
ATOM     40  N   UNL A   1      43.303  27.378  28.022  1.00  0.00    -0.354 N 
ATOM     41  C   UNL A   1      45.114  31.295  28.428  1.00  0.00     0.074 A 
ATOM     42  C   UNL A   1      44.161  32.254  28.940  1.00  0.00     0.031 C 
ATOM     43  C   UNL A   1      41.658  25.871  28.140  1.00  0.00     0.029 A 
ATOM     44  C   UNL A   1      43.060  26.050  27.767  1.00  0.00     0.049 A 
ATOM     45  H   UNL A   1      44.191  27.794  27.918  1.00  0.00     0.167 HD
ATOM     46  C   UNL A   1      46.414  31.575  28.173  1.00  0.00     0.037 A 
ATOM     47  C   UNL A   1      43.871  25.099  27.262  1.00  0.00     0.037 A 
ATOM     48  C   UNL A   1      47.359  30.615  27.673  1.00  0.00     0.049 A 
ATOM     49  C   UNL A   1      45.297  25.451  26.917  1.00  0.00     0.074 A 
ATOM     50  C   UNL A   1      48.696  30.800  27.368  1.00  0.00     0.029 A 
ATOM     51  N   UNL A   1      47.068  29.284  27.409  1.00  0.00    -0.354 N 
ATOM     52  N   UNL A   1      45.917  26.600  27.051  1.00  0.00    -0.248 NA
ATOM     53  C   UNL A   1      46.131  24.381  26.352  1.00  0.00     0.031 C 
ATOM     54  C   UNL A   1      49.205  29.590  26.885  1.00  0.00     0.029 A 
ATOM     55  C   UNL A   1      48.197  28.639  26.936  1.00  0.00     0.049 A 
ATOM     56  H   UNL A   1      46.189  28.861  27.541  1.00  0.00     0.167 HD
ATOM     57  C   UNL A   1      47.224  26.378  26.625  1.00  0.00     0.074 A 
ATOM     58  C   UNL A   1      47.304  24.989  26.224  1.00  0.00     0.031 C 
ATOM     59  C   UNL A   1      48.264  27.246  26.575  1.00  0.00     0.037 A 
BRANCH  46  60
ATOM     60  C   UNL A   1      46.884  32.983  28.408  1.00  0.00     0.058 A 
ATOM     61  C   UNL A   1      47.429  33.383  29.637  1.00  0.00     0.135 A 
ATOM     62  C   UNL A   1      46.819  33.935  27.379  1.00  0.00     0.135 A 
ATOM     63  F   UNL A   1      47.495  32.517  30.662  1.00  0.00    -0.206 F 
ATOM     64  C   UNL A   1      47.878  34.683  29.845  1.00  0.00     0.059 A 
ATOM     65  C   UNL A   1      47.283  35.234  27.555  1.00  0.00     0.059 A 
ATOM     66  F   UNL A   1      46.300  33.606  26.185  1.00  0.00    -0.206 F 
ATOM     67  C   UNL A   1      47.800  35.603  28.796  1.00  0.00     0.060 A 
BRANCH  67  68
ATOM     68  S   UNL A   1      48.394  37.284  29.076  1.00  0.00     0.124 S 
ATOM     69  O   UNL A   1      49.240  37.491  27.904  1.00  0.00    -0.237 OA
ATOM     70  O   UNL A   1      47.155  38.054  29.106  1.00  0.00    -0.237 OA
ATOM     71  O   UNL A   1      49.100  37.188  30.349  1.00  0.00    -0.744 OA
ENDBRANCH  67  68
ENDBRANCH  46  60
BRANCH  47  72
ATOM     72  C   UNL A   1      43.353  23.724  27.029  1.00  0.00     0.058 A 
ATOM     73  C   UNL A   1      43.235  22.807  28.084  1.00  0.00     0.135 A 
ATOM     74  C   UNL A   1      42.983  23.296  25.745  1.00  0.00     0.135 A 
ATOM     75  F   UNL A   1      43.588  23.165  29.327  1.00  0.00    -0.206 F 
ATOM     76  C   UNL A   1      42.786  21.507  27.871  1.00  0.00     0.059 A 
ATOM     77  C   UNL A   1      42.507  22.010  25.512  1.00  0.00     0.059 A 
ATOM     78  F   UNL A   1      43.068  24.139  24.704  1.00  0.00    -0.206 F 
ATOM     79  C   UNL A   1      42.425  21.117  26.580  1.00  0.00     0.060 A 
BRANCH  79  80
ATOM     80  S   UNL A   1      41.814  19.438  26.317  1.00  0.00     0.124 S 
ATOM     81  O   UNL A   1      42.245  18.776  27.543  1.00  0.00    -0.237 OA
ATOM     82  O   UNL A   1      40.377  19.652  26.177  1.00  0.00    -0.237 OA
ATOM     83  O   UNL A   1      42.499  19.020  25.098  1.00  0.00    -0.744 OA
ENDBRANCH  79  80
ENDBRANCH  47  72
BRANCH  59  84
ATOM     84  C   UNL A   1      49.601  26.716  26.138  1.00  0.00     0.058 A 
ATOM     85  C   UNL A   1      50.082  26.906  24.834  1.00  0.00     0.135 A 
ATOM     86  C   UNL A   1      50.449  26.093  27.068  1.00  0.00     0.135 A 
ATOM     87  F   UNL A   1      49.308  27.492  23.907  1.00  0.00    -0.206 F 
ATOM     88  C   UNL A   1      51.358  26.492  24.466  1.00  0.00     0.059 A 
ATOM     89  C   UNL A   1      51.736  25.690  26.727  1.00  0.00     0.059 A 
ATOM     90  F   UNL A   1      50.038  25.896  28.332  1.00  0.00    -0.206 F 
ATOM     91  C   UNL A   1      52.180  25.891  25.421  1.00  0.00     0.060 A 
BRANCH  91  92
ATOM     92  S   UNL A   1      53.858  25.419  24.949  1.00  0.00     0.124 S 
ATOM     93  O   UNL A   1      53.778  23.963  24.994  1.00  0.00    -0.237 OA
ATOM     94  O   UNL A   1      53.986  26.005  23.618  1.00  0.00    -0.237 OA
ATOM     95  O   UNL A   1      54.688  26.037  25.980  1.00  0.00    -0.744 OA
ENDBRANCH  91  92
ENDBRANCH  59  84
ENDBRANCH  33  34
ENDBRANCH  26  28
ENDBRANCH  25  26
ENDBRANCH  24  25
ENDBRANCH  23  24
ENDBRANCH  22  23
ENDBRANCH   1  22
TORSDOF 23
ENDMDL
MODEL 3
REMARK VINA RESULT:      -9.0      2.829      4.702
REMARK SMILES CCOCC[C@@H]1CCC[C@@]1([NH2+]C1CC1)C(=O)OCCOCCOC(=O)c1ccc(-c2c3nc(c(-c4c(F)cc(S(=O)(=O)[O-])cc4F)c4ccc([nH]4)c(-c4c(F)cc(S(=O)(=O)[O-])cc4F)c4nc(c(-c5c(F)cc(S(=O)(=O)[O-])cc5F)c5ccc2[nH]5)C=C4)C=C3)cc1
REMARK SMILES IDX 19 1 18 2 17 3 15 4 16 5 10 6 6 7 7 8 8 9 9 10 5 11 4 12
REMARK SMILES IDX 3 13 2 14 1 15 11 16 12 19 13 20 14 21 20 22 21 23 22 24
REMARK SMILES IDX 23 25 24 26 25 27 26 28 27 29 91 30 28 31 90 32 29 33 30 34
REMARK SMILES IDX 31 35 84 36 32 37 89 38 83 39 85 40 33 41 88 42 82 43 81 44
REMARK SMILES IDX 34 46 68 47 47 48 67 49 48 50 51 51 66 52 86 53 49 54 50 55
REMARK SMILES IDX 65 57 87 58 52 59 35 60 36 61 45 62 37 63 38 64 44 65 46 66
REMARK SMILES IDX 39 67 40 68 41 69 42 70 43 71 69 72 70 73 79 74 71 75 72 76
REMARK SMILES IDX 78 77 80 78 73 79 74 80 75 81 76 82 77 83 53 84 54 85 63 86
REMARK SMILES IDX 55 87 56 88 62 89 64 90 57 91 58 92 59 93 60 94 61 95
REMARK H PARENT 11 17 11 18 85 45 51 56
REMARK Flexibility Score: inf
ROOT
ATOM      1  C   UNL A   1      38.775  22.806  26.491  1.00  0.00     0.202 C 
ENDROOT
BRANCH   1   2
ATOM      2  C   UNL A   1      37.865  23.980  26.119  1.00  0.00     0.261 C 
BRANCH   2   3
ATOM      3  O   UNL A   1      36.509  23.513  26.006  1.00  0.00    -0.459 OA
BRANCH   3   4
ATOM      4  C   UNL A   1      35.924  23.546  24.785  1.00  0.00     0.368 C 
ATOM      5  O   UNL A   1      36.535  23.329  23.741  1.00  0.00    -0.245 OA
BRANCH   4   6
ATOM      6  C   UNL A   1      34.380  23.726  24.838  1.00  0.00     0.197 C 
ATOM      7  C   UNL A   1      33.791  22.431  25.488  1.00  0.00     0.065 C 
ATOM      8  C   UNL A   1      32.431  22.843  26.059  1.00  0.00     0.011 C 
ATOM      9  C   UNL A   1      32.552  24.342  26.354  1.00  0.00     0.008 C 
ATOM     10  C   UNL A   1      33.956  24.755  25.909  1.00  0.00     0.081 C 
BRANCH   7  11
ATOM     11  C   UNL A   1      33.931  21.138  24.651  1.00  0.00     0.039 C 
BRANCH  11  12
ATOM     12  C   UNL A   1      32.682  20.490  24.055  1.00  0.00     0.160 C 
BRANCH  12  13
ATOM     13  O   UNL A   1      32.170  19.409  24.828  1.00  0.00    -0.382 OA
BRANCH  13  14
ATOM     14  C   UNL A   1      32.382  18.098  24.310  1.00  0.00     0.156 C 
ATOM     15  C   UNL A   1      33.444  17.319  25.067  1.00  0.00     0.035 C 
ENDBRANCH  13  14
ENDBRANCH  12  13
ENDBRANCH  11  12
ENDBRANCH   7  11
BRANCH   6  16
ATOM     16  N   UNL A   1      33.708  24.022  23.545  1.00  0.00    -0.329 N 
ATOM     17  H   UNL A   1      32.793  23.572  23.573  1.00  0.00     0.347 HD
ATOM     18  H   UNL A   1      34.357  23.674  22.840  1.00  0.00     0.347 HD
BRANCH  16  19
ATOM     19  C   UNL A   1      33.490  25.430  23.174  1.00  0.00     0.183 C 
ATOM     20  C   UNL A   1      33.171  25.761  21.739  1.00  0.00     0.071 C 
ATOM     21  C   UNL A   1      32.096  25.849  22.776  1.00  0.00     0.071 C 
ENDBRANCH  16  19
ENDBRANCH   6  16
ENDBRANCH   4   6
ENDBRANCH   3   4
ENDBRANCH   2   3
ENDBRANCH   1   2
BRANCH   1  22
ATOM     22  O   UNL A   1      39.104  21.932  25.406  1.00  0.00    -0.374 OA
BRANCH  22  23
ATOM     23  C   UNL A   1      38.638  20.589  25.508  1.00  0.00     0.202 C 
BRANCH  23  24
ATOM     24  C   UNL A   1      39.664  19.571  26.006  1.00  0.00     0.261 C 
BRANCH  24  25
ATOM     25  O   UNL A   1      40.871  19.637  25.225  1.00  0.00    -0.460 OA
BRANCH  25  26
ATOM     26  C   UNL A   1      41.995  19.317  25.910  1.00  0.00     0.338 C 
ATOM     27  O   UNL A   1      42.419  18.198  26.139  1.00  0.00    -0.246 OA
BRANCH  26  28
ATOM     28  C   UNL A   1      42.763  20.539  26.226  1.00  0.00     0.060 A 
ATOM     29  C   UNL A   1      42.581  21.095  27.499  1.00  0.00     0.016 A 
ATOM     30  C   UNL A   1      43.573  21.178  25.284  1.00  0.00     0.016 A 
ATOM     31  C   UNL A   1      43.141  22.331  27.809  1.00  0.00     0.010 A 
ATOM     32  C   UNL A   1      44.131  22.422  25.594  1.00  0.00     0.010 A 
ATOM     33  C   UNL A   1      43.874  23.024  26.840  1.00  0.00    -0.014 A 
BRANCH  33  34
ATOM     34  C   UNL A   1      44.186  24.458  27.049  1.00  0.00     0.031 A 
ATOM     35  C   UNL A   1      45.617  24.906  26.908  1.00  0.00     0.074 A 
ATOM     36  C   UNL A   1      43.217  25.350  27.319  1.00  0.00     0.049 A 
ATOM     37  N   UNL A   1      46.144  26.082  27.124  1.00  0.00    -0.248 NA
ATOM     38  C   UNL A   1      46.583  23.887  26.465  1.00  0.00     0.031 C 
ATOM     39  C   UNL A   1      41.789  25.047  27.414  1.00  0.00     0.029 A 
ATOM     40  N   UNL A   1      43.293  26.697  27.569  1.00  0.00    -0.354 N 
ATOM     41  C   UNL A   1      47.501  25.942  26.857  1.00  0.00     0.074 A 
ATOM     42  C   UNL A   1      47.722  24.563  26.486  1.00  0.00     0.031 C 
ATOM     43  C   UNL A   1      41.125  26.177  27.716  1.00  0.00     0.029 A 
ATOM     44  C   UNL A   1      42.082  27.271  27.871  1.00  0.00     0.049 A 
ATOM     45  H   UNL A   1      44.137  27.205  27.534  1.00  0.00     0.167 HD
ATOM     46  C   UNL A   1      48.474  26.882  26.909  1.00  0.00     0.037 A 
ATOM     47  C   UNL A   1      41.787  28.529  28.257  1.00  0.00     0.037 A 
ATOM     48  C   UNL A   1      48.246  28.255  27.270  1.00  0.00     0.049 A 
ATOM     49  C   UNL A   1      42.898  29.543  28.378  1.00  0.00     0.074 A 
ATOM     50  C   UNL A   1      49.165  29.284  27.367  1.00  0.00     0.029 A 
ATOM     51  N   UNL A   1      47.006  28.792  27.587  1.00  0.00    -0.354 N 
ATOM     52  N   UNL A   1      44.180  29.393  28.141  1.00  0.00    -0.248 NA
ATOM     53  C   UNL A   1      42.524  30.894  28.821  1.00  0.00     0.031 C 
ATOM     54  C   UNL A   1      48.487  30.437  27.779  1.00  0.00     0.029 A 
ATOM     55  C   UNL A   1      47.139  30.136  27.890  1.00  0.00     0.049 A 
ATOM     56  H   UNL A   1      46.158  28.292  27.594  1.00  0.00     0.167 HD
ATOM     57  C   UNL A   1      44.757  30.640  28.366  1.00  0.00     0.074 A 
ATOM     58  C   UNL A   1      43.687  31.531  28.763  1.00  0.00     0.031 C 
ATOM     59  C   UNL A   1      46.054  31.014  28.250  1.00  0.00     0.037 A 
BRANCH  46  60
ATOM     60  C   UNL A   1      49.879  26.452  26.592  1.00  0.00     0.058 A 
ATOM     61  C   UNL A   1      50.766  26.037  27.596  1.00  0.00     0.135 A 
ATOM     62  C   UNL A   1      50.330  26.421  25.264  1.00  0.00     0.135 A 
ATOM     63  F   UNL A   1      50.392  26.066  28.885  1.00  0.00    -0.206 F 
ATOM     64  C   UNL A   1      52.060  25.623  27.295  1.00  0.00     0.059 A 
ATOM     65  C   UNL A   1      51.610  25.989  24.937  1.00  0.00     0.059 A 
ATOM     66  F   UNL A   1      49.521  26.814  24.265  1.00  0.00    -0.206 F 
ATOM     67  C   UNL A   1      52.473  25.603  25.961  1.00  0.00     0.060 A 
BRANCH  67  68
ATOM     68  S   UNL A   1      54.152  25.056  25.584  1.00  0.00     0.124 S 
ATOM     69  O   UNL A   1      54.635  26.153  24.752  1.00  0.00    -0.237 OA
ATOM     70  O   UNL A   1      54.754  24.954  26.910  1.00  0.00    -0.237 OA
ATOM     71  O   UNL A   1      53.948  23.787  24.893  1.00  0.00    -0.744 OA
ENDBRANCH  67  68
ENDBRANCH  46  60
BRANCH  47  72
ATOM     72  C   UNL A   1      40.384  28.901  28.578  1.00  0.00     0.058 A 
ATOM     73  C   UNL A   1      39.492  29.301  27.571  1.00  0.00     0.135 A 
ATOM     74  C   UNL A   1      39.912  28.882  29.899  1.00  0.00     0.135 A 
ATOM     75  F   UNL A   1      39.899  29.348  26.294  1.00  0.00    -0.206 F 
ATOM     76  C   UNL A   1      38.187  29.686  27.866  1.00  0.00     0.059 A 
ATOM     77  C   UNL A   1      38.605  29.237  30.216  1.00  0.00     0.059 A 
ATOM     78  F   UNL A   1      40.723  28.497  30.898  1.00  0.00    -0.206 F 
ATOM     79  C   UNL A   1      37.753  29.652  29.192  1.00  0.00     0.060 A 
BRANCH  79  80
ATOM     80  S   UNL A   1      36.049  30.124  29.562  1.00  0.00     0.124 S 
ATOM     81  O   UNL A   1      35.883  29.584  30.907  1.00  0.00    -0.237 OA
ATOM     82  O   UNL A   1      36.104  31.578  29.459  1.00  0.00    -0.237 OA
ATOM     83  O   UNL A   1      35.284  29.456  28.514  1.00  0.00    -0.744 OA
ENDBRANCH  79  80
ENDBRANCH  47  72
BRANCH  59  84
ATOM     84  C   UNL A   1      46.393  32.459  28.485  1.00  0.00     0.058 A 
ATOM     85  C   UNL A   1      46.822  32.924  29.736  1.00  0.00     0.135 A 
ATOM     86  C   UNL A   1      46.379  33.368  27.414  1.00  0.00     0.135 A 
ATOM     87  F   UNL A   1      46.849  32.096  30.792  1.00  0.00    -0.206 F 
ATOM     88  C   UNL A   1      47.220  34.245  29.920  1.00  0.00     0.059 A 
ATOM     89  C   UNL A   1      46.793  34.687  27.570  1.00  0.00     0.059 A 
ATOM     90  F   UNL A   1      45.986  32.968  26.193  1.00  0.00    -0.206 F 
ATOM     91  C   UNL A   1      47.209  35.116  28.829  1.00  0.00     0.060 A 
BRANCH  91  92
ATOM     92  S   UNL A   1      47.792  36.809  29.065  1.00  0.00     0.124 S 
ATOM     93  O   UNL A   1      48.829  36.627  30.075  1.00  0.00    -0.237 OA
ATOM     94  O   UNL A   1      48.263  37.167  27.730  1.00  0.00    -0.237 OA
ATOM     95  O   UNL A   1      46.597  37.521  29.511  1.00  0.00    -0.744 OA
ENDBRANCH  91  92
ENDBRANCH  59  84
ENDBRANCH  33  34
ENDBRANCH  26  28
ENDBRANCH  25  26
ENDBRANCH  24  25
ENDBRANCH  23  24
ENDBRANCH  22  23
ENDBRANCH   1  22
TORSDOF 23
ENDMDL
