MODEL 1
REMARK VINA RESULT:      -9.1      0.000      0.000
REMARK SMILES COC(=O)[C@@H]1[C@@H](NC(=O)COCC(=O)OCCOCCOC(=O)c2ccc(-c3c4nc(c(-c5c(F)cc(S(=O)(=O)[O-])cc5F)c5ccc([nH]5)c(-c5c(F)cc(S(=O)(=O)[O-])cc5F)c5nc(c(-c6c(F)cc(S(=O)(=O)[O-])cc6F)c6ccc3[nH]6)C=C5)C=C4)cc2)CCN1C(C)=O
REMARK SMILES IDX 16 1 15 2 13 3 14 4 12 5 11 6 10 7 8 8 7 9 9 11 6 12 5 13
REMARK SMILES IDX 92 14 90 15 91 16 3 17 4 18 2 19 1 20 93 21 94 22 95 23
REMARK SMILES IDX 17 24 18 25 19 26 20 27 21 28 22 29 23 30 24 31 25 32 89 33
REMARK SMILES IDX 26 34 88 35 27 36 28 37 29 38 82 39 30 40 87 41 81 42 83 43
REMARK SMILES IDX 31 44 86 45 80 46 79 47 32 49 66 50 45 51 65 52 46 53 49 54
REMARK SMILES IDX 64 55 84 56 47 57 48 58 63 60 85 61 50 62 33 63 34 64 43 65
REMARK SMILES IDX 35 66 36 67 42 68 44 69 37 70 38 71 39 72 40 73 41 74 67 75
REMARK SMILES IDX 68 76 77 77 69 78 70 79 76 80 78 81 71 82 72 83 73 84 74 85
REMARK SMILES IDX 75 86 51 87 52 88 61 89 53 90 54 91 60 92 62 93 55 94 56 95
REMARK SMILES IDX 57 96 58 97 59 98
REMARK H PARENT 7 10 83 48 49 59
REMARK Flexibility Score: inf
ROOT
ATOM      1  C   UNL A   1      34.760  34.858  33.783  1.00  0.00     0.261 C 
ENDROOT
BRANCH   1   2
ATOM      2  O   UNL A   1      34.996  36.262  33.570  1.00  0.00    -0.462 OA
BRANCH   2   3
ATOM      3  C   UNL A   1      34.113  36.896  32.755  1.00  0.00     0.332 C 
ATOM      4  O   UNL A   1      33.749  38.061  32.872  1.00  0.00    -0.250 OA
BRANCH   3   5
ATOM      5  C   UNL A   1      33.552  35.970  31.674  1.00  0.00     0.283 C 
BRANCH   5   6
ATOM      6  O   UNL A   1      32.556  36.388  30.759  1.00  0.00    -0.360 OA
BRANCH   6   7
ATOM      7  C   UNL A   1      32.557  35.750  29.493  1.00  0.00     0.260 C 
BRANCH   7   8
ATOM      8  C   UNL A   1      33.754  35.944  28.547  1.00  0.00     0.246 C 
ATOM      9  N   UNL A   1      34.382  34.859  28.001  1.00  0.00    -0.349 N 
ATOM     10  H   UNL A   1      34.976  35.055  27.241  1.00  0.00     0.163 HD
ATOM     11  O   UNL A   1      34.139  37.071  28.232  1.00  0.00    -0.272 OA
BRANCH   9  12
ATOM     12  C   UNL A   1      34.297  33.453  28.385  1.00  0.00     0.118 C 
ATOM     13  C   UNL A   1      35.652  32.699  28.316  1.00  0.00     0.217 C 
ATOM     14  N   UNL A   1      35.256  31.294  28.155  1.00  0.00    -0.327 N 
ATOM     15  C   UNL A   1      33.419  32.594  27.476  1.00  0.00     0.049 C 
ATOM     16  C   UNL A   1      33.871  31.175  27.750  1.00  0.00     0.122 C 
BRANCH  13  17
ATOM     17  C   UNL A   1      36.465  33.077  29.556  1.00  0.00     0.330 C 
ATOM     18  O   UNL A   1      35.934  33.418  30.610  1.00  0.00    -0.250 OA
BRANCH  17  19
ATOM     19  O   UNL A   1      37.804  32.916  29.386  1.00  0.00    -0.467 OA
ATOM     20  C   UNL A   1      38.597  33.746  30.234  1.00  0.00     0.282 C 
ENDBRANCH  17  19
ENDBRANCH  13  17
BRANCH  14  21
ATOM     21  C   UNL A   1      36.185  30.280  28.108  1.00  0.00     0.220 C 
ATOM     22  C   UNL A   1      36.448  29.540  29.398  1.00  0.00     0.114 C 
ATOM     23  O   UNL A   1      36.835  30.038  27.092  1.00  0.00    -0.275 OA
ENDBRANCH  14  21
ENDBRANCH   9  12
ENDBRANCH   7   8
ENDBRANCH   6   7
ENDBRANCH   5   6
ENDBRANCH   3   5
ENDBRANCH   2   3
ENDBRANCH   1   2
BRANCH   1  24
ATOM     24  C   UNL A   1      36.075  34.090  33.908  1.00  0.00     0.202 C 
BRANCH  24  25
ATOM     25  O   UNL A   1      36.120  33.099  34.935  1.00  0.00    -0.374 OA
BRANCH  25  26
ATOM     26  C   UNL A   1      37.354  32.399  35.097  1.00  0.00     0.202 C 
BRANCH  26  27
ATOM     27  C   UNL A   1      37.768  31.501  33.921  1.00  0.00     0.261 C 
BRANCH  27  28
ATOM     28  O   UNL A   1      38.088  30.161  34.349  1.00  0.00    -0.460 OA
BRANCH  28  29
ATOM     29  C   UNL A   1      38.210  29.258  33.343  1.00  0.00     0.338 C 
ATOM     30  O   UNL A   1      37.358  28.482  32.946  1.00  0.00    -0.246 OA
BRANCH  29  31
ATOM     31  C   UNL A   1      39.488  29.454  32.625  1.00  0.00     0.060 A 
ATOM     32  C   UNL A   1      39.413  29.866  31.287  1.00  0.00     0.016 A 
ATOM     33  C   UNL A   1      40.722  29.156  33.204  1.00  0.00     0.016 A 
ATOM     34  C   UNL A   1      40.564  29.917  30.502  1.00  0.00     0.010 A 
ATOM     35  C   UNL A   1      41.876  29.197  32.410  1.00  0.00     0.010 A 
ATOM     36  C   UNL A   1      41.795  29.533  31.046  1.00  0.00    -0.014 A 
BRANCH  36  37
ATOM     37  C   UNL A   1      42.948  29.280  30.145  1.00  0.00     0.031 A 
ATOM     38  C   UNL A   1      42.999  27.968  29.405  1.00  0.00     0.074 A 
ATOM     39  C   UNL A   1      43.913  30.198  29.957  1.00  0.00     0.049 A 
ATOM     40  N   UNL A   1      43.942  27.480  28.642  1.00  0.00    -0.248 NA
ATOM     41  C   UNL A   1      41.826  27.089  29.547  1.00  0.00     0.031 C 
ATOM     42  C   UNL A   1      43.943  31.529  30.558  1.00  0.00     0.029 A 
ATOM     43  N   UNL A   1      45.064  30.140  29.210  1.00  0.00    -0.354 N 
ATOM     44  C   UNL A   1      43.487  26.233  28.230  1.00  0.00     0.074 A 
ATOM     45  C   UNL A   1      42.192  26.030  28.840  1.00  0.00     0.031 C 
ATOM     46  C   UNL A   1      45.068  32.156  30.172  1.00  0.00     0.029 A 
ATOM     47  C   UNL A   1      45.856  31.258  29.329  1.00  0.00     0.049 A 
ATOM     48  H   UNL A   1      45.301  29.371  28.643  1.00  0.00     0.167 HD
ATOM     49  C   UNL A   1      44.093  25.338  27.414  1.00  0.00     0.037 A 
ATOM     50  C   UNL A   1      47.088  31.511  28.842  1.00  0.00     0.037 A 
ATOM     51  C   UNL A   1      45.376  25.549  26.800  1.00  0.00     0.049 A 
ATOM     52  C   UNL A   1      47.777  30.472  27.993  1.00  0.00     0.074 A 
ATOM     53  C   UNL A   1      46.076  24.704  25.957  1.00  0.00     0.029 A 
ATOM     54  N   UNL A   1      46.151  26.687  26.961  1.00  0.00    -0.354 N 
ATOM     55  N   UNL A   1      47.341  29.292  27.620  1.00  0.00    -0.248 NA
ATOM     56  C   UNL A   1      49.125  30.795  27.500  1.00  0.00     0.031 C 
ATOM     57  C   UNL A   1      47.294  25.312  25.644  1.00  0.00     0.029 A 
ATOM     58  C   UNL A   1      47.330  26.559  26.249  1.00  0.00     0.049 A 
ATOM     59  H   UNL A   1      45.901  27.470  27.503  1.00  0.00     0.167 HD
ATOM     60  C   UNL A   1      48.342  28.750  26.820  1.00  0.00     0.074 A 
ATOM     61  C   UNL A   1      49.411  29.727  26.767  1.00  0.00     0.031 C 
ATOM     62  C   UNL A   1      48.370  27.555  26.180  1.00  0.00     0.037 A 
BRANCH  49  63
ATOM     63  C   UNL A   1      43.389  24.033  27.167  1.00  0.00     0.058 A 
ATOM     64  C   UNL A   1      42.654  23.796  25.996  1.00  0.00     0.135 A 
ATOM     65  C   UNL A   1      43.479  22.993  28.106  1.00  0.00     0.135 A 
ATOM     66  F   UNL A   1      42.520  24.764  25.074  1.00  0.00    -0.206 F 
ATOM     67  C   UNL A   1      42.010  22.583  25.774  1.00  0.00     0.059 A 
ATOM     68  C   UNL A   1      42.866  21.762  27.895  1.00  0.00     0.059 A 
ATOM     69  F   UNL A   1      44.168  23.167  29.245  1.00  0.00    -0.206 F 
ATOM     70  C   UNL A   1      42.121  21.572  26.731  1.00  0.00     0.060 A 
BRANCH  70  71
ATOM     71  S   UNL A   1      41.281  20.002  26.432  1.00  0.00     0.124 S 
ATOM     72  O   UNL A   1      39.942  20.455  26.067  1.00  0.00    -0.237 OA
ATOM     73  O   UNL A   1      42.072  19.425  25.351  1.00  0.00    -0.237 OA
ATOM     74  O   UNL A   1      41.382  19.313  27.716  1.00  0.00    -0.744 OA
ENDBRANCH  70  71
ENDBRANCH  49  63
BRANCH  50  75
ATOM     75  C   UNL A   1      47.763  32.797  29.164  1.00  0.00     0.058 A 
ATOM     76  C   UNL A   1      48.546  32.940  30.318  1.00  0.00     0.135 A 
ATOM     77  C   UNL A   1      47.638  33.911  28.318  1.00  0.00     0.135 A 
ATOM     78  F   UNL A   1      48.685  31.910  31.165  1.00  0.00    -0.206 F 
ATOM     79  C   UNL A   1      49.174  34.142  30.629  1.00  0.00     0.059 A 
ATOM     80  C   UNL A   1      48.275  35.116  28.594  1.00  0.00     0.059 A 
ATOM     81  F   UNL A   1      46.906  33.825  27.196  1.00  0.00    -0.206 F 
ATOM     82  C   UNL A   1      49.035  35.225  29.758  1.00  0.00     0.060 A 
BRANCH  82  83
ATOM     83  S   UNL A   1      49.894  36.767  30.143  1.00  0.00     0.124 S 
ATOM     84  O   UNL A   1      49.347  37.089  31.455  1.00  0.00    -0.237 OA
ATOM     85  O   UNL A   1      51.293  36.352  30.117  1.00  0.00    -0.237 OA
ATOM     86  O   UNL A   1      49.492  37.654  29.056  1.00  0.00    -0.744 OA
ENDBRANCH  82  83
ENDBRANCH  50  75
BRANCH  62  87
ATOM     87  C   UNL A   1      49.556  27.243  25.310  1.00  0.00     0.058 A 
ATOM     88  C   UNL A   1      49.545  27.483  23.929  1.00  0.00     0.135 A 
ATOM     89  C   UNL A   1      50.758  26.807  25.893  1.00  0.00     0.135 A 
ATOM     90  F   UNL A   1      48.421  27.896  23.322  1.00  0.00    -0.206 F 
ATOM     91  C   UNL A   1      50.687  27.304  23.154  1.00  0.00     0.059 A 
ATOM     92  C   UNL A   1      51.917  26.643  25.141  1.00  0.00     0.059 A 
ATOM     93  F   UNL A   1      50.822  26.571  27.213  1.00  0.00    -0.206 F 
ATOM     94  C   UNL A   1      51.871  26.895  23.770  1.00  0.00     0.060 A 
BRANCH  94  95
ATOM     95  S   UNL A   1      53.366  26.748  22.768  1.00  0.00     0.124 S 
ATOM     96  O   UNL A   1      54.241  25.988  23.654  1.00  0.00    -0.237 OA
ATOM     97  O   UNL A   1      52.883  26.036  21.589  1.00  0.00    -0.237 OA
ATOM     98  O   UNL A   1      53.758  28.136  22.537  1.00  0.00    -0.744 OA
ENDBRANCH  94  95
ENDBRANCH  62  87
ENDBRANCH  36  37
ENDBRANCH  29  31
ENDBRANCH  28  29
ENDBRANCH  27  28
ENDBRANCH  26  27
ENDBRANCH  25  26
ENDBRANCH  24  25
ENDBRANCH   1  24
TORSDOF 24
ENDMDL
MODEL 2
REMARK VINA RESULT:      -8.9      6.155     12.268
REMARK SMILES COC(=O)[C@@H]1[C@@H](NC(=O)COCC(=O)OCCOCCOC(=O)c2ccc(-c3c4nc(c(-c5c(F)cc(S(=O)(=O)[O-])cc5F)c5ccc([nH]5)c(-c5c(F)cc(S(=O)(=O)[O-])cc5F)c5nc(c(-c6c(F)cc(S(=O)(=O)[O-])cc6F)c6ccc3[nH]6)C=C5)C=C4)cc2)CCN1C(C)=O
REMARK SMILES IDX 16 1 15 2 13 3 14 4 12 5 11 6 10 7 8 8 7 9 9 11 6 12 5 13
REMARK SMILES IDX 92 14 90 15 91 16 3 17 4 18 2 19 1 20 93 21 94 22 95 23
REMARK SMILES IDX 17 24 18 25 19 26 20 27 21 28 22 29 23 30 24 31 25 32 89 33
REMARK SMILES IDX 26 34 88 35 27 36 28 37 29 38 82 39 30 40 87 41 81 42 83 43
REMARK SMILES IDX 31 44 86 45 80 46 79 47 32 49 66 50 45 51 65 52 46 53 49 54
REMARK SMILES IDX 64 55 84 56 47 57 48 58 63 60 85 61 50 62 33 63 34 64 43 65
REMARK SMILES IDX 35 66 36 67 42 68 44 69 37 70 38 71 39 72 40 73 41 74 67 75
REMARK SMILES IDX 68 76 77 77 69 78 70 79 76 80 78 81 71 82 72 83 73 84 74 85
REMARK SMILES IDX 75 86 51 87 52 88 61 89 53 90 54 91 60 92 62 93 55 94 56 95
REMARK SMILES IDX 57 96 58 97 59 98
REMARK H PARENT 7 10 83 48 49 59
REMARK Flexibility Score: inf
ROOT
ATOM      1  C   UNL A   1      33.892  28.475  25.597  1.00  0.00     0.261 C 
ENDROOT
BRANCH   1   2
ATOM      2  O   UNL A   1      33.278  29.357  24.639  1.00  0.00    -0.462 OA
BRANCH   2   3
ATOM      3  C   UNL A   1      31.922  29.305  24.569  1.00  0.00     0.332 C 
ATOM      4  O   UNL A   1      31.150  29.967  25.254  1.00  0.00    -0.250 OA
BRANCH   3   5
ATOM      5  C   UNL A   1      31.431  28.266  23.560  1.00  0.00     0.283 C 
BRANCH   5   6
ATOM      6  O   UNL A   1      30.469  27.280  23.890  1.00  0.00    -0.360 OA
BRANCH   6   7
ATOM      7  C   UNL A   1      30.970  25.992  24.202  1.00  0.00     0.260 C 
BRANCH   7   8
ATOM      8  C   UNL A   1      31.166  25.590  25.674  1.00  0.00     0.246 C 
ATOM      9  N   UNL A   1      32.281  24.897  26.056  1.00  0.00    -0.349 N 
ATOM     10  H   UNL A   1      32.453  24.876  27.024  1.00  0.00     0.163 HD
ATOM     11  O   UNL A   1      30.351  25.919  26.537  1.00  0.00    -0.272 OA
BRANCH   9  12
ATOM     12  C   UNL A   1      33.252  24.183  25.230  1.00  0.00     0.118 C 
ATOM     13  C   UNL A   1      33.332  22.661  25.526  1.00  0.00     0.217 C 
ATOM     14  N   UNL A   1      34.677  22.292  25.068  1.00  0.00    -0.327 N 
ATOM     15  C   UNL A   1      34.703  24.614  25.434  1.00  0.00     0.049 C 
ATOM     16  C   UNL A   1      35.517  23.458  24.892  1.00  0.00     0.122 C 
BRANCH  13  17
ATOM     17  C   UNL A   1      32.135  21.987  24.853  1.00  0.00     0.330 C 
ATOM     18  O   UNL A   1      31.395  21.212  25.454  1.00  0.00    -0.250 OA
BRANCH  17  19
ATOM     19  O   UNL A   1      31.942  22.398  23.572  1.00  0.00    -0.467 OA
ATOM     20  C   UNL A   1      32.146  21.371  22.600  1.00  0.00     0.282 C 
ENDBRANCH  17  19
ENDBRANCH  13  17
BRANCH  14  21
ATOM     21  C   UNL A   1      35.126  20.992  25.109  1.00  0.00     0.220 C 
ATOM     22  C   UNL A   1      36.609  20.779  24.927  1.00  0.00     0.114 C 
ATOM     23  O   UNL A   1      34.353  20.038  25.202  1.00  0.00    -0.275 OA
ENDBRANCH  14  21
ENDBRANCH   9  12
ENDBRANCH   7   8
ENDBRANCH   6   7
ENDBRANCH   5   6
ENDBRANCH   3   5
ENDBRANCH   2   3
ENDBRANCH   1   2
BRANCH   1  24
ATOM     24  C   UNL A   1      34.294  29.230  26.864  1.00  0.00     0.202 C 
BRANCH  24  25
ATOM     25  O   UNL A   1      34.180  30.652  26.800  1.00  0.00    -0.374 OA
BRANCH  25  26
ATOM     26  C   UNL A   1      33.219  31.257  27.666  1.00  0.00     0.202 C 
BRANCH  26  27
ATOM     27  C   UNL A   1      32.671  32.617  27.206  1.00  0.00     0.261 C 
BRANCH  27  28
ATOM     28  O   UNL A   1      33.641  33.673  27.366  1.00  0.00    -0.460 OA
BRANCH  28  29
ATOM     29  C   UNL A   1      33.498  34.407  28.499  1.00  0.00     0.338 C 
ATOM     30  O   UNL A   1      32.561  35.132  28.789  1.00  0.00    -0.246 OA
BRANCH  29  31
ATOM     31  C   UNL A   1      34.563  34.075  29.468  1.00  0.00     0.060 A 
ATOM     32  C   UNL A   1      35.888  34.296  29.063  1.00  0.00     0.016 A 
ATOM     33  C   UNL A   1      34.293  33.477  30.699  1.00  0.00     0.016 A 
ATOM     34  C   UNL A   1      36.948  33.860  29.856  1.00  0.00     0.010 A 
ATOM     35  C   UNL A   1      35.359  33.030  31.490  1.00  0.00     0.010 A 
ATOM     36  C   UNL A   1      36.688  33.179  31.051  1.00  0.00    -0.014 A 
BRANCH  36  37
ATOM     37  C   UNL A   1      37.785  32.440  31.727  1.00  0.00     0.031 A 
ATOM     38  C   UNL A   1      38.226  32.909  33.090  1.00  0.00     0.074 A 
ATOM     39  C   UNL A   1      38.360  31.361  31.167  1.00  0.00     0.049 A 
ATOM     40  N   UNL A   1      39.217  32.491  33.832  1.00  0.00    -0.248 NA
ATOM     41  C   UNL A   1      37.439  33.997  33.694  1.00  0.00     0.031 C 
ATOM     42  C   UNL A   1      37.978  30.766  29.888  1.00  0.00     0.029 A 
ATOM     43  N   UNL A   1      39.400  30.578  31.604  1.00  0.00    -0.354 N 
ATOM     44  C   UNL A   1      39.187  33.275  34.980  1.00  0.00     0.074 A 
ATOM     45  C   UNL A   1      38.090  34.206  34.829  1.00  0.00     0.031 C 
ATOM     46  C   UNL A   1      38.787  29.723  29.633  1.00  0.00     0.029 A 
ATOM     47  C   UNL A   1      39.768  29.599  30.711  1.00  0.00     0.049 A 
ATOM     48  H   UNL A   1      39.842  30.705  32.475  1.00  0.00     0.167 HD
ATOM     49  C   UNL A   1      39.998  33.223  36.062  1.00  0.00     0.037 A 
ATOM     50  C   UNL A   1      40.797  28.729  30.745  1.00  0.00     0.037 A 
ATOM     51  C   UNL A   1      41.080  32.288  36.212  1.00  0.00     0.049 A 
ATOM     52  C   UNL A   1      41.733  28.733  31.927  1.00  0.00     0.074 A 
ATOM     53  C   UNL A   1      41.960  32.153  37.271  1.00  0.00     0.029 A 
ATOM     54  N   UNL A   1      41.429  31.326  35.277  1.00  0.00    -0.354 N 
ATOM     55  N   UNL A   1      41.701  29.487  33.000  1.00  0.00    -0.248 NA
ATOM     56  C   UNL A   1      42.847  27.772  31.905  1.00  0.00     0.031 C 
ATOM     57  C   UNL A   1      42.868  31.139  36.957  1.00  0.00     0.029 A 
ATOM     58  C   UNL A   1      42.521  30.606  35.726  1.00  0.00     0.049 A 
ATOM     59  H   UNL A   1      40.968  31.177  34.419  1.00  0.00     0.167 HD
ATOM     60  C   UNL A   1      42.762  29.066  33.796  1.00  0.00     0.074 A 
ATOM     61  C   UNL A   1      43.424  27.996  33.079  1.00  0.00     0.031 C 
ATOM     62  C   UNL A   1      43.149  29.520  35.014  1.00  0.00     0.037 A 
BRANCH  49  63
ATOM     63  C   UNL A   1      39.767  34.229  37.155  1.00  0.00     0.058 A 
ATOM     64  C   UNL A   1      40.209  35.556  37.047  1.00  0.00     0.135 A 
ATOM     65  C   UNL A   1      39.064  33.864  38.314  1.00  0.00     0.135 A 
ATOM     66  F   UNL A   1      40.903  35.953  35.968  1.00  0.00    -0.206 F 
ATOM     67  C   UNL A   1      39.985  36.481  38.062  1.00  0.00     0.059 A 
ATOM     68  C   UNL A   1      38.805  34.778  39.331  1.00  0.00     0.059 A 
ATOM     69  F   UNL A   1      38.620  32.606  38.469  1.00  0.00    -0.206 F 
ATOM     70  C   UNL A   1      39.284  36.082  39.201  1.00  0.00     0.060 A 
BRANCH  70  71
ATOM     71  S   UNL A   1      39.000  37.291  40.511  1.00  0.00     0.124 S 
ATOM     72  O   UNL A   1      38.250  36.498  41.480  1.00  0.00    -0.237 OA
ATOM     73  O   UNL A   1      40.358  37.652  40.903  1.00  0.00    -0.237 OA
ATOM     74  O   UNL A   1      38.243  38.346  39.842  1.00  0.00    -0.744 OA
ENDBRANCH  70  71
ENDBRANCH  49  63
BRANCH  50  75
ATOM     75  C   UNL A   1      41.014  27.791  29.609  1.00  0.00     0.058 A 
ATOM     76  C   UNL A   1      42.087  27.956  28.723  1.00  0.00     0.135 A 
ATOM     77  C   UNL A   1      40.147  26.708  29.391  1.00  0.00     0.135 A 
ATOM     78  F   UNL A   1      42.935  28.983  28.881  1.00  0.00    -0.206 F 
ATOM     79  C   UNL A   1      42.291  27.088  27.655  1.00  0.00     0.059 A 
ATOM     80  C   UNL A   1      40.343  25.812  28.345  1.00  0.00     0.059 A 
ATOM     81  F   UNL A   1      39.107  26.501  30.215  1.00  0.00    -0.206 F 
ATOM     82  C   UNL A   1      41.414  26.016  27.476  1.00  0.00     0.060 A 
BRANCH  82  83
ATOM     83  S   UNL A   1      41.715  24.864  26.117  1.00  0.00     0.124 S 
ATOM     84  O   UNL A   1      40.782  23.788  26.432  1.00  0.00    -0.237 OA
ATOM     85  O   UNL A   1      41.387  25.676  24.950  1.00  0.00    -0.237 OA
ATOM     86  O   UNL A   1      43.129  24.535  26.265  1.00  0.00    -0.744 OA
ENDBRANCH  82  83
ENDBRANCH  50  75
BRANCH  62  87
ATOM     87  C   UNL A   1      44.299  28.833  35.695  1.00  0.00     0.058 A 
ATOM     88  C   UNL A   1      45.616  29.298  35.574  1.00  0.00     0.135 A 
ATOM     89  C   UNL A   1      44.057  27.763  36.574  1.00  0.00     0.135 A 
ATOM     90  F   UNL A   1      45.902  30.314  34.744  1.00  0.00    -0.206 F 
ATOM     91  C   UNL A   1      46.655  28.728  36.304  1.00  0.00     0.059 A 
ATOM     92  C   UNL A   1      45.076  27.194  37.330  1.00  0.00     0.059 A 
ATOM     93  F   UNL A   1      42.811  27.287  36.730  1.00  0.00    -0.206 F 
ATOM     94  C   UNL A   1      46.373  27.684  37.187  1.00  0.00     0.060 A 
BRANCH  94  95
ATOM     95  S   UNL A   1      47.715  27.010  38.191  1.00  0.00     0.124 S 
ATOM     96  O   UNL A   1      46.986  26.467  39.331  1.00  0.00    -0.237 OA
ATOM     97  O   UNL A   1      48.313  26.026  37.293  1.00  0.00    -0.237 OA
ATOM     98  O   UNL A   1      48.547  28.177  38.475  1.00  0.00    -0.744 OA
ENDBRANCH  94  95
ENDBRANCH  62  87
ENDBRANCH  36  37
ENDBRANCH  29  31
ENDBRANCH  28  29
ENDBRANCH  27  28
ENDBRANCH  26  27
ENDBRANCH  25  26
ENDBRANCH  24  25
ENDBRANCH   1  24
TORSDOF 24
ENDMDL
MODEL 3
REMARK VINA RESULT:      -8.7      3.689      9.666
REMARK SMILES COC(=O)[C@@H]1[C@@H](NC(=O)COCC(=O)OCCOCCOC(=O)c2ccc(-c3c4nc(c(-c5c(F)cc(S(=O)(=O)[O-])cc5F)c5ccc([nH]5)c(-c5c(F)cc(S(=O)(=O)[O-])cc5F)c5nc(c(-c6c(F)cc(S(=O)(=O)[O-])cc6F)c6ccc3[nH]6)C=C5)C=C4)cc2)CCN1C(C)=O
REMARK SMILES IDX 16 1 15 2 13 3 14 4 12 5 11 6 10 7 8 8 7 9 9 11 6 12 5 13
REMARK SMILES IDX 92 14 90 15 91 16 3 17 4 18 2 19 1 20 93 21 94 22 95 23
REMARK SMILES IDX 17 24 18 25 19 26 20 27 21 28 22 29 23 30 24 31 25 32 89 33
REMARK SMILES IDX 26 34 88 35 27 36 28 37 29 38 82 39 30 40 87 41 81 42 83 43
REMARK SMILES IDX 31 44 86 45 80 46 79 47 32 49 66 50 45 51 65 52 46 53 49 54
REMARK SMILES IDX 64 55 84 56 47 57 48 58 63 60 85 61 50 62 33 63 34 64 43 65
REMARK SMILES IDX 35 66 36 67 42 68 44 69 37 70 38 71 39 72 40 73 41 74 67 75
REMARK SMILES IDX 68 76 77 77 69 78 70 79 76 80 78 81 71 82 72 83 73 84 74 85
REMARK SMILES IDX 75 86 51 87 52 88 61 89 53 90 54 91 60 92 62 93 55 94 56 95
REMARK SMILES IDX 57 96 58 97 59 98
REMARK H PARENT 7 10 83 48 49 59
REMARK Flexibility Score: inf
ROOT
ATOM      1  C   UNL A   1      33.792  31.152  27.075  1.00  0.00     0.261 C 
ENDROOT
BRANCH   1   2
ATOM      2  O   UNL A   1      32.916  30.010  27.136  1.00  0.00    -0.462 OA
BRANCH   2   3
ATOM      3  C   UNL A   1      31.868  30.019  26.272  1.00  0.00     0.332 C 
ATOM      4  O   UNL A   1      31.371  31.021  25.769  1.00  0.00    -0.250 OA
BRANCH   3   5
ATOM      5  C   UNL A   1      31.312  28.617  26.018  1.00  0.00     0.283 C 
BRANCH   5   6
ATOM      6  O   UNL A   1      31.524  27.542  26.916  1.00  0.00    -0.360 OA
BRANCH   6   7
ATOM      7  C   UNL A   1      31.846  26.290  26.334  1.00  0.00     0.260 C 
BRANCH   7   8
ATOM      8  C   UNL A   1      33.238  26.077  25.714  1.00  0.00     0.246 C 
ATOM      9  N   UNL A   1      33.466  25.014  24.886  1.00  0.00    -0.349 N 
ATOM     10  H   UNL A   1      34.291  25.066  24.352  1.00  0.00     0.163 HD
ATOM     11  O   UNL A   1      34.152  26.877  25.917  1.00  0.00    -0.272 OA
BRANCH   9  12
ATOM     12  C   UNL A   1      32.661  23.812  24.681  1.00  0.00     0.118 C 
ATOM     13  C   UNL A   1      33.239  22.544  25.363  1.00  0.00     0.217 C 
ATOM     14  N   UNL A   1      32.664  21.441  24.583  1.00  0.00    -0.327 N 
ATOM     15  C   UNL A   1      32.551  23.358  23.227  1.00  0.00     0.049 C 
ATOM     16  C   UNL A   1      32.132  21.906  23.319  1.00  0.00     0.122 C 
BRANCH  13  17
ATOM     17  C   UNL A   1      32.905  22.617  26.855  1.00  0.00     0.330 C 
ATOM     18  O   UNL A   1      31.753  22.741  27.264  1.00  0.00    -0.250 OA
BRANCH  17  19
ATOM     19  O   UNL A   1      33.992  22.449  27.654  1.00  0.00    -0.467 OA
ATOM     20  C   UNL A   1      35.236  22.678  26.991  1.00  0.00     0.282 C 
ENDBRANCH  17  19
ENDBRANCH  13  17
BRANCH  14  21
ATOM     21  C   UNL A   1      32.894  20.124  24.909  1.00  0.00     0.220 C 
ATOM     22  C   UNL A   1      34.286  19.596  24.656  1.00  0.00     0.114 C 
ATOM     23  O   UNL A   1      31.995  19.384  25.307  1.00  0.00    -0.275 OA
ENDBRANCH  14  21
ENDBRANCH   9  12
ENDBRANCH   7   8
ENDBRANCH   6   7
ENDBRANCH   5   6
ENDBRANCH   3   5
ENDBRANCH   2   3
ENDBRANCH   1   2
BRANCH   1  24
ATOM     24  C   UNL A   1      34.668  31.243  28.324  1.00  0.00     0.202 C 
BRANCH  24  25
ATOM     25  O   UNL A   1      35.164  32.544  28.640  1.00  0.00    -0.374 OA
BRANCH  25  26
ATOM     26  C   UNL A   1      34.492  33.248  29.685  1.00  0.00     0.202 C 
BRANCH  26  27
ATOM     27  C   UNL A   1      35.316  33.496  30.958  1.00  0.00     0.261 C 
BRANCH  27  28
ATOM     28  O   UNL A   1      36.649  32.952  30.855  1.00  0.00    -0.460 OA
BRANCH  28  29
ATOM     29  C   UNL A   1      36.835  31.780  31.513  1.00  0.00     0.338 C 
ATOM     30  O   UNL A   1      36.158  31.334  32.424  1.00  0.00    -0.246 OA
BRANCH  29  31
ATOM     31  C   UNL A   1      37.887  30.978  30.853  1.00  0.00     0.060 A 
ATOM     32  C   UNL A   1      38.714  30.203  31.679  1.00  0.00     0.016 A 
ATOM     33  C   UNL A   1      38.127  31.048  29.480  1.00  0.00     0.016 A 
ATOM     34  C   UNL A   1      39.824  29.549  31.148  1.00  0.00     0.010 A 
ATOM     35  C   UNL A   1      39.250  30.398  28.949  1.00  0.00     0.010 A 
ATOM     36  C   UNL A   1      40.127  29.685  29.788  1.00  0.00    -0.014 A 
BRANCH  36  37
ATOM     37  C   UNL A   1      41.462  29.265  29.288  1.00  0.00     0.031 A 
ATOM     38  C   UNL A   1      42.556  30.299  29.224  1.00  0.00     0.074 A 
ATOM     39  C   UNL A   1      41.713  27.993  28.929  1.00  0.00     0.049 A 
ATOM     40  N   UNL A   1      43.765  30.199  28.740  1.00  0.00    -0.248 NA
ATOM     41  C   UNL A   1      42.239  31.624  29.783  1.00  0.00     0.031 C 
ATOM     42  C   UNL A   1      40.763  26.887  29.011  1.00  0.00     0.029 A 
ATOM     43  N   UNL A   1      42.850  27.423  28.411  1.00  0.00    -0.354 N 
ATOM     44  C   UNL A   1      44.348  31.450  28.916  1.00  0.00     0.074 A 
ATOM     45  C   UNL A   1      43.353  32.297  29.536  1.00  0.00     0.031 C 
ATOM     46  C   UNL A   1      41.349  25.773  28.540  1.00  0.00     0.029 A 
ATOM     47  C   UNL A   1      42.702  26.095  28.087  1.00  0.00     0.049 A 
ATOM     48  H   UNL A   1      43.691  27.917  28.284  1.00  0.00     0.167 HD
ATOM     49  C   UNL A   1      45.599  31.855  28.593  1.00  0.00     0.037 A 
ATOM     50  C   UNL A   1      43.549  25.248  27.467  1.00  0.00     0.037 A 
ATOM     51  C   UNL A   1      46.588  31.005  27.987  1.00  0.00     0.049 A 
ATOM     52  C   UNL A   1      44.914  25.737  27.050  1.00  0.00     0.074 A 
ATOM     53  C   UNL A   1      47.884  31.319  27.621  1.00  0.00     0.029 A 
ATOM     54  N   UNL A   1      46.391  29.672  27.659  1.00  0.00    -0.354 N 
ATOM     55  N   UNL A   1      45.447  26.925  27.212  1.00  0.00    -0.248 NA
ATOM     56  C   UNL A   1      45.791  24.776  26.364  1.00  0.00     0.031 C 
ATOM     57  C   UNL A   1      48.457  30.189  27.031  1.00  0.00     0.029 A 
ATOM     58  C   UNL A   1      47.535  29.155  27.079  1.00  0.00     0.049 A 
ATOM     59  H   UNL A   1      45.559  29.168  27.816  1.00  0.00     0.167 HD
ATOM     60  C   UNL A   1      46.732  26.841  26.685  1.00  0.00     0.074 A 
ATOM     61  C   UNL A   1      46.896  25.490  26.191  1.00  0.00     0.031 C 
ATOM     62  C   UNL A   1      47.693  27.797  26.623  1.00  0.00     0.037 A 
BRANCH  49  63
ATOM     63  C   UNL A   1      45.956  33.290  28.857  1.00  0.00     0.058 A 
ATOM     64  C   UNL A   1      45.713  34.301  27.914  1.00  0.00     0.135 A 
ATOM     65  C   UNL A   1      46.522  33.663  30.087  1.00  0.00     0.135 A 
ATOM     66  F   UNL A   1      45.191  33.997  26.715  1.00  0.00    -0.206 F 
ATOM     67  C   UNL A   1      46.042  35.628  28.171  1.00  0.00     0.059 A 
ATOM     68  C   UNL A   1      46.835  34.987  30.376  1.00  0.00     0.059 A 
ATOM     69  F   UNL A   1      46.777  32.735  31.023  1.00  0.00    -0.206 F 
ATOM     70  C   UNL A   1      46.605  35.961  29.405  1.00  0.00     0.060 A 
BRANCH  70  71
ATOM     71  S   UNL A   1      47.029  37.687  29.725  1.00  0.00     0.124 S 
ATOM     72  O   UNL A   1      47.700  38.056  28.483  1.00  0.00    -0.237 OA
ATOM     73  O   UNL A   1      45.720  38.294  29.944  1.00  0.00    -0.237 OA
ATOM     74  O   UNL A   1      47.887  37.613  30.904  1.00  0.00    -0.744 OA
ENDBRANCH  70  71
ENDBRANCH  49  63
BRANCH  50  75
ATOM     75  C   UNL A   1      43.124  23.851  27.179  1.00  0.00     0.058 A 
ATOM     76  C   UNL A   1      43.197  22.851  28.159  1.00  0.00     0.135 A 
ATOM     77  C   UNL A   1      42.633  23.491  25.914  1.00  0.00     0.135 A 
ATOM     78  F   UNL A   1      43.672  23.142  29.379  1.00  0.00    -0.206 F 
ATOM     79  C   UNL A   1      42.809  21.541  27.894  1.00  0.00     0.059 A 
ATOM     80  C   UNL A   1      42.216  22.194  25.631  1.00  0.00     0.059 A 
ATOM     81  F   UNL A   1      42.536  24.412  24.942  1.00  0.00    -0.206 F 
ATOM     82  C   UNL A   1      42.316  21.223  26.627  1.00  0.00     0.060 A 
BRANCH  82  83
ATOM     83  S   UNL A   1      41.766  19.532  26.307  1.00  0.00     0.124 S 
ATOM     84  O   UNL A   1      42.025  18.891  27.590  1.00  0.00    -0.237 OA
ATOM     85  O   UNL A   1      40.362  19.728  25.960  1.00  0.00    -0.237 OA
ATOM     86  O   UNL A   1      42.622  19.106  25.204  1.00  0.00    -0.744 OA
ENDBRANCH  82  83
ENDBRANCH  50  75
BRANCH  62  87
ATOM     87  C   UNL A   1      49.035  27.418  26.062  1.00  0.00     0.058 A 
ATOM     88  C   UNL A   1      49.305  27.471  24.687  1.00  0.00     0.135 A 
ATOM     89  C   UNL A   1      50.097  27.109  26.930  1.00  0.00     0.135 A 
ATOM     90  F   UNL A   1      48.325  27.756  23.815  1.00  0.00    -0.206 F 
ATOM     91  C   UNL A   1      50.584  27.235  24.191  1.00  0.00     0.059 A 
ATOM     92  C   UNL A   1      51.387  26.891  26.458  1.00  0.00     0.059 A 
ATOM     93  F   UNL A   1      49.890  27.053  28.255  1.00  0.00    -0.206 F 
ATOM     94  C   UNL A   1      51.620  26.956  25.085  1.00  0.00     0.060 A 
BRANCH  94  95
ATOM     95  S   UNL A   1      53.291  26.735  24.435  1.00  0.00     0.124 S 
ATOM     96  O   UNL A   1      53.314  27.705  23.346  1.00  0.00    -0.237 OA
ATOM     97  O   UNL A   1      54.121  27.060  25.591  1.00  0.00    -0.237 OA
ATOM     98  O   UNL A   1      53.315  25.333  24.028  1.00  0.00    -0.744 OA
ENDBRANCH  94  95
ENDBRANCH  62  87
ENDBRANCH  36  37
ENDBRANCH  29  31
ENDBRANCH  28  29
ENDBRANCH  27  28
ENDBRANCH  26  27
ENDBRANCH  25  26
ENDBRANCH  24  25
ENDBRANCH   1  24
TORSDOF 24
ENDMDL
