MODEL 1
REMARK VINA RESULT:     -11.4      0.000      0.000
REMARK SMILES CN(C)S(=O)(=O)c1ccc(-n2c(CCC(=O)OCCOCCOC(=O)c3ccc(-c4c5nc(c(-c6c(F)cc(S(=O)(=O)[O-])cc6F)c6ccc([nH]6)c(-c6c(F)cc(S(=O)(=O)[O-])cc6F)c6nc(c(-c7c(F)cc(S(=O)(=O)[O-])cc7F)c7ccc4[nH]7)C=C6)C=C5)cc3)ccc2-c2ccc(F)cc2)cc1
REMARK SMILES IDX 19 1 18 2 17 3 15 4 16 5 14 6 13 7 12 8 11 9 94 10 92 11
REMARK SMILES IDX 93 12 10 13 7 14 8 15 103 16 9 17 102 18 4 19 5 20 6 21 2 22
REMARK SMILES IDX 1 23 3 24 95 25 96 26 101 27 97 28 100 29 98 30 99 31 20 32
REMARK SMILES IDX 21 33 22 34 23 35 24 36 25 37 26 38 27 39 91 40 28 41 90 42
REMARK SMILES IDX 29 43 30 44 31 45 84 46 32 47 89 48 83 49 85 50 33 51 88 52
REMARK SMILES IDX 82 53 81 54 34 56 68 57 47 58 67 59 48 60 51 61 66 62 86 63
REMARK SMILES IDX 49 64 50 65 65 67 87 68 52 69 35 70 36 71 45 72 37 73 38 74
REMARK SMILES IDX 44 75 46 76 39 77 40 78 41 79 42 80 43 81 69 82 70 83 79 84
REMARK SMILES IDX 71 85 72 86 78 87 80 88 73 89 74 90 75 91 76 92 77 93 53 94
REMARK SMILES IDX 54 95 63 96 55 97 56 98 62 99 64 100 57 101 58 102 59 103
REMARK SMILES IDX 60 104 61 105
REMARK H PARENT 85 55 51 66
REMARK Flexibility Score: inf
ROOT
ATOM      1  C   UNL A   1      49.084  39.627  27.934  1.00  0.00     0.202 C 
ENDROOT
BRANCH   1   2
ATOM      2  C   UNL A   1      47.907  40.796  27.366  1.00  0.00     0.261 C 
BRANCH   2   3
ATOM      3  O   UNL A   1      46.495  40.435  27.265  1.00  0.00    -0.463 OA
BRANCH   3   4
ATOM      4  C   UNL A   1      45.916  40.503  26.032  1.00  0.00     0.306 C 
ATOM      5  O   UNL A   1      44.857  39.946  25.753  1.00  0.00    -0.252 OA
BRANCH   4   6
ATOM      6  C   UNL A   1      46.621  41.428  25.025  1.00  0.00     0.129 C 
BRANCH   6   7
ATOM      7  C   UNL A   1      46.402  42.951  25.034  1.00  0.00     0.066 C 
BRANCH   7   8
ATOM      8  C   UNL A   1      45.295  43.384  24.152  1.00  0.00     0.024 A 
ATOM      9  N   UNL A   1      45.455  43.755  22.825  1.00  0.00    -0.314 N 
ATOM     10  C   UNL A   1      44.155  43.841  22.264  1.00  0.00     0.053 A 
ATOM     11  C   UNL A   1      43.966  43.538  24.495  1.00  0.00     0.024 A 
ATOM     12  C   UNL A   1      43.255  43.813  23.319  1.00  0.00     0.029 A 
BRANCH   9  13
ATOM     13  C   UNL A   1      46.705  43.926  22.137  1.00  0.00     0.046 A 
ATOM     14  C   UNL A   1      49.616  44.756  20.173  1.00  0.00     0.082 A 
ATOM     15  C   UNL A   1      48.670  46.019  20.979  1.00  0.00     0.024 A 
ATOM     16  C   UNL A   1      49.116  43.024  20.270  1.00  0.00     0.024 A 
ATOM     17  C   UNL A   1      47.242  45.621  21.958  1.00  0.00     0.028 A 
ATOM     18  C   UNL A   1      47.671  42.589  21.313  1.00  0.00     0.028 A 
BRANCH  14  19
ATOM     19  S   UNL A   1      51.052  45.218  19.262  1.00  0.00     0.242 S 
ATOM     20  O   UNL A   1      52.095  44.285  19.641  1.00  0.00    -0.207 OA
ATOM     21  O   UNL A   1      51.232  46.642  19.437  1.00  0.00    -0.207 OA
BRANCH  19  22
ATOM     22  N   UNL A   1      50.693  44.912  17.603  1.00  0.00    -0.204 NA
ATOM     23  C   UNL A   1      49.302  45.280  17.236  1.00  0.00     0.124 C 
ATOM     24  C   UNL A   1      51.647  45.460  16.611  1.00  0.00     0.124 C 
ENDBRANCH  19  22
ENDBRANCH  14  19
ENDBRANCH   9  13
BRANCH  10  25
ATOM     25  C   UNL A   1      43.759  43.863  20.840  1.00  0.00    -0.001 A 
ATOM     26  C   UNL A   1      44.406  44.725  19.940  1.00  0.00     0.013 A 
ATOM     27  C   UNL A   1      42.699  43.077  20.359  1.00  0.00     0.013 A 
ATOM     28  C   UNL A   1      44.057  44.742  18.584  1.00  0.00     0.040 A 
ATOM     29  C   UNL A   1      42.363  43.077  19.000  1.00  0.00     0.040 A 
ATOM     30  C   UNL A   1      43.052  43.903  18.123  1.00  0.00     0.123 A 
ATOM     31  F   UNL A   1      42.736  43.897  16.821  1.00  0.00    -0.207 F 
ENDBRANCH  10  25
ENDBRANCH   7   8
ENDBRANCH   6   7
ENDBRANCH   4   6
ENDBRANCH   3   4
ENDBRANCH   2   3
ENDBRANCH   1   2
BRANCH   1  32
ATOM     32  O   UNL A   1      48.912  37.662  28.303  1.00  0.00    -0.374 OA
BRANCH  32  33
ATOM     33  C   UNL A   1      48.414  36.581  29.368  1.00  0.00     0.202 C 
BRANCH  33  34
ATOM     34  C   UNL A   1      47.302  37.054  30.306  1.00  0.00     0.261 C 
BRANCH  34  35
ATOM     35  O   UNL A   1      46.918  36.069  31.216  1.00  0.00    -0.460 OA
BRANCH  35  36
ATOM     36  C   UNL A   1      45.592  36.094  31.454  1.00  0.00     0.338 C 
ATOM     37  O   UNL A   1      44.945  36.897  32.089  1.00  0.00    -0.246 OA
BRANCH  36  38
ATOM     38  C   UNL A   1      45.057  34.885  30.850  1.00  0.00     0.060 A 
ATOM     39  C   UNL A   1      44.542  35.000  29.558  1.00  0.00     0.016 A 
ATOM     40  C   UNL A   1      44.890  33.753  31.659  1.00  0.00     0.016 A 
ATOM     41  C   UNL A   1      43.679  34.034  29.131  1.00  0.00     0.010 A 
ATOM     42  C   UNL A   1      43.949  32.847  31.283  1.00  0.00     0.010 A 
ATOM     43  C   UNL A   1      43.328  33.041  30.049  1.00  0.00    -0.014 A 
BRANCH  43  44
ATOM     44  C   UNL A   1      42.295  32.107  29.670  1.00  0.00     0.031 A 
ATOM     45  C   UNL A   1      42.957  31.040  28.750  1.00  0.00     0.074 A 
ATOM     46  C   UNL A   1      41.079  32.438  30.234  1.00  0.00     0.049 A 
ATOM     47  N   UNL A   1      42.430  30.279  27.850  1.00  0.00    -0.248 NA
ATOM     48  C   UNL A   1      44.449  30.829  28.749  1.00  0.00     0.031 C 
ATOM     49  C   UNL A   1      40.811  33.589  31.159  1.00  0.00     0.029 A 
ATOM     50  N   UNL A   1      39.820  31.893  30.189  1.00  0.00    -0.354 N 
ATOM     51  C   UNL A   1      43.388  29.295  27.507  1.00  0.00     0.074 A 
ATOM     52  C   UNL A   1      44.651  29.799  27.925  1.00  0.00     0.031 C 
ATOM     53  C   UNL A   1      39.491  33.707  31.455  1.00  0.00     0.029 A 
ATOM     54  C   UNL A   1      38.764  32.623  30.829  1.00  0.00     0.049 A 
ATOM     55  H   UNL A   1      39.649  31.036  29.736  1.00  0.00     0.167 HD
ATOM     56  C   UNL A   1      43.014  28.033  27.139  1.00  0.00     0.037 A 
ATOM     57  C   UNL A   1      37.416  32.336  30.807  1.00  0.00     0.037 A 
ATOM     58  C   UNL A   1      41.588  27.973  27.167  1.00  0.00     0.049 A 
ATOM     59  C   UNL A   1      37.404  30.971  30.272  1.00  0.00     0.074 A 
ATOM     60  C   UNL A   1      40.653  28.636  26.410  1.00  0.00     0.029 A 
ATOM     61  N   UNL A   1      41.032  27.596  28.373  1.00  0.00    -0.354 N 
ATOM     62  N   UNL A   1      37.824  29.935  30.932  1.00  0.00    -0.248 NA
ATOM     63  C   UNL A   1      37.041  30.769  28.869  1.00  0.00     0.031 C 
ATOM     64  C   UNL A   1      39.786  29.131  27.401  1.00  0.00     0.029 A 
ATOM     65  C   UNL A   1      39.958  28.413  28.592  1.00  0.00     0.049 A 
ATOM     66  H   UNL A   1      41.348  26.874  28.962  1.00  0.00     0.167 HD
ATOM     67  C   UNL A   1      38.135  29.063  29.925  1.00  0.00     0.074 A 
ATOM     68  C   UNL A   1      37.355  29.480  28.766  1.00  0.00     0.031 C 
ATOM     69  C   UNL A   1      39.372  28.491  29.907  1.00  0.00     0.037 A 
BRANCH  56  70
ATOM     70  C   UNL A   1      43.728  26.712  27.062  1.00  0.00     0.058 A 
ATOM     71  C   UNL A   1      44.274  26.363  25.799  1.00  0.00     0.135 A 
ATOM     72  C   UNL A   1      43.583  25.666  27.984  1.00  0.00     0.135 A 
ATOM     73  F   UNL A   1      44.525  27.306  24.874  1.00  0.00    -0.206 F 
ATOM     74  C   UNL A   1      44.485  25.050  25.412  1.00  0.00     0.059 A 
ATOM     75  C   UNL A   1      43.848  24.338  27.631  1.00  0.00     0.059 A 
ATOM     76  F   UNL A   1      43.115  25.888  29.219  1.00  0.00    -0.206 F 
ATOM     77  C   UNL A   1      44.239  24.037  26.327  1.00  0.00     0.060 A 
BRANCH  77  78
ATOM     78  S   UNL A   1      44.427  22.335  25.762  1.00  0.00     0.124 S 
ATOM     79  O   UNL A   1      43.486  21.629  26.625  1.00  0.00    -0.237 OA
ATOM     80  O   UNL A   1      44.042  22.436  24.357  1.00  0.00    -0.237 OA
ATOM     81  O   UNL A   1      45.839  22.057  25.997  1.00  0.00    -0.744 OA
ENDBRANCH  77  78
ENDBRANCH  56  70
BRANCH  57  82
ATOM     82  C   UNL A   1      36.025  32.909  31.058  1.00  0.00     0.058 A 
ATOM     83  C   UNL A   1      35.301  32.875  32.254  1.00  0.00     0.135 A 
ATOM     84  C   UNL A   1      35.468  33.794  30.077  1.00  0.00     0.135 A 
ATOM     85  F   UNL A   1      35.606  31.985  33.208  1.00  0.00    -0.206 F 
ATOM     86  C   UNL A   1      34.251  33.790  32.522  1.00  0.00     0.059 A 
ATOM     87  C   UNL A   1      34.495  34.752  30.340  1.00  0.00     0.059 A 
ATOM     88  F   UNL A   1      35.912  33.812  28.812  1.00  0.00    -0.206 F 
ATOM     89  C   UNL A   1      33.918  34.779  31.590  1.00  0.00     0.060 A 
BRANCH  89  90
ATOM     90  S   UNL A   1      32.875  36.194  32.041  1.00  0.00     0.124 S 
ATOM     91  O   UNL A   1      31.605  35.553  32.364  1.00  0.00    -0.237 OA
ATOM     92  O   UNL A   1      33.604  36.769  33.167  1.00  0.00    -0.237 OA
ATOM     93  O   UNL A   1      32.875  37.015  30.832  1.00  0.00    -0.744 OA
ENDBRANCH  89  90
ENDBRANCH  57  82
BRANCH  69  94
ATOM     94  C   UNL A   1      40.078  28.361  31.260  1.00  0.00     0.058 A 
ATOM     95  C   UNL A   1      39.397  27.770  32.343  1.00  0.00     0.135 A 
ATOM     96  C   UNL A   1      41.367  28.847  31.567  1.00  0.00     0.135 A 
ATOM     97  F   UNL A   1      38.182  27.232  32.152  1.00  0.00    -0.206 F 
ATOM     98  C   UNL A   1      39.934  27.693  33.634  1.00  0.00     0.059 A 
ATOM     99  C   UNL A   1      41.930  28.789  32.855  1.00  0.00     0.059 A 
ATOM    100  F   UNL A   1      42.136  29.380  30.614  1.00  0.00    -0.206 F 
ATOM    101  C   UNL A   1      41.203  28.205  33.887  1.00  0.00     0.060 A 
BRANCH 101 102
ATOM    102  S   UNL A   1      41.898  28.031  35.549  1.00  0.00     0.124 S 
ATOM    103  O   UNL A   1      41.379  26.736  35.978  1.00  0.00    -0.237 OA
ATOM    104  O   UNL A   1      43.334  28.076  35.286  1.00  0.00    -0.237 OA
ATOM    105  O   UNL A   1      41.363  29.181  36.272  1.00  0.00    -0.744 OA
ENDBRANCH 101 102
ENDBRANCH  69  94
ENDBRANCH  43  44
ENDBRANCH  36  38
ENDBRANCH  35  36
ENDBRANCH  34  35
ENDBRANCH  33  34
ENDBRANCH  32  33
ENDBRANCH   1  32
TORSDOF 23
ENDMDL
MODEL 2
REMARK VINA RESULT:     -11.4      2.564      4.361
REMARK SMILES CN(C)S(=O)(=O)c1ccc(-n2c(CCC(=O)OCCOCCOC(=O)c3ccc(-c4c5nc(c(-c6c(F)cc(S(=O)(=O)[O-])cc6F)c6ccc([nH]6)c(-c6c(F)cc(S(=O)(=O)[O-])cc6F)c6nc(c(-c7c(F)cc(S(=O)(=O)[O-])cc7F)c7ccc4[nH]7)C=C6)C=C5)cc3)ccc2-c2ccc(F)cc2)cc1
REMARK SMILES IDX 19 1 18 2 17 3 15 4 16 5 14 6 13 7 12 8 11 9 94 10 92 11
REMARK SMILES IDX 93 12 10 13 7 14 8 15 103 16 9 17 102 18 4 19 5 20 6 21 2 22
REMARK SMILES IDX 1 23 3 24 95 25 96 26 101 27 97 28 100 29 98 30 99 31 20 32
REMARK SMILES IDX 21 33 22 34 23 35 24 36 25 37 26 38 27 39 91 40 28 41 90 42
REMARK SMILES IDX 29 43 30 44 31 45 84 46 32 47 89 48 83 49 85 50 33 51 88 52
REMARK SMILES IDX 82 53 81 54 34 56 68 57 47 58 67 59 48 60 51 61 66 62 86 63
REMARK SMILES IDX 49 64 50 65 65 67 87 68 52 69 35 70 36 71 45 72 37 73 38 74
REMARK SMILES IDX 44 75 46 76 39 77 40 78 41 79 42 80 43 81 69 82 70 83 79 84
REMARK SMILES IDX 71 85 72 86 78 87 80 88 73 89 74 90 75 91 76 92 77 93 53 94
REMARK SMILES IDX 54 95 63 96 55 97 56 98 62 99 64 100 57 101 58 102 59 103
REMARK SMILES IDX 60 104 61 105
REMARK H PARENT 85 55 51 66
REMARK Flexibility Score: inf
ROOT
ATOM      1  C   UNL A   1      46.396  38.188  32.565  1.00  0.00     0.202 C 
ENDROOT
BRANCH   1   2
ATOM      2  C   UNL A   1      45.821  39.843  32.606  1.00  0.00     0.261 C 
BRANCH   2   3
ATOM      3  O   UNL A   1      46.520  40.888  31.861  1.00  0.00    -0.463 OA
BRANCH   3   4
ATOM      4  C   UNL A   1      45.924  42.113  31.788  1.00  0.00     0.306 C 
ATOM      5  O   UNL A   1      45.798  42.859  32.756  1.00  0.00    -0.252 OA
BRANCH   4   6
ATOM      6  C   UNL A   1      45.515  42.561  30.375  1.00  0.00     0.129 C 
BRANCH   6   7
ATOM      7  C   UNL A   1      44.125  42.246  29.796  1.00  0.00     0.066 C 
BRANCH   7   8
ATOM      8  C   UNL A   1      43.921  40.804  29.529  1.00  0.00     0.024 A 
ATOM      9  N   UNL A   1      44.205  40.188  28.319  1.00  0.00    -0.314 N 
ATOM     10  C   UNL A   1      44.130  38.790  28.544  1.00  0.00     0.053 A 
ATOM     11  C   UNL A   1      43.385  39.864  30.386  1.00  0.00     0.024 A 
ATOM     12  C   UNL A   1      43.523  38.609  29.778  1.00  0.00     0.029 A 
BRANCH   9  13
ATOM     13  C   UNL A   1      44.593  40.847  27.102  1.00  0.00     0.046 A 
ATOM     14  C   UNL A   1      45.886  42.782  24.345  1.00  0.00     0.082 A 
ATOM     15  C   UNL A   1      46.968  42.129  25.586  1.00  0.00     0.024 A 
ATOM     16  C   UNL A   1      44.100  42.542  24.457  1.00  0.00     0.024 A 
ATOM     17  C   UNL A   1      46.345  41.164  26.942  1.00  0.00     0.028 A 
ATOM     18  C   UNL A   1      43.442  41.511  25.824  1.00  0.00     0.028 A 
BRANCH  14  19
ATOM     19  S   UNL A   1      46.580  43.684  22.999  1.00  0.00     0.242 S 
ATOM     20  O   UNL A   1      47.997  43.808  23.277  1.00  0.00    -0.207 OA
ATOM     21  O   UNL A   1      45.759  44.858  22.800  1.00  0.00    -0.207 OA
BRANCH  19  22
ATOM     22  N   UNL A   1      46.433  42.672  21.611  1.00  0.00    -0.204 NA
ATOM     23  C   UNL A   1      47.023  41.324  21.812  1.00  0.00     0.124 C 
ATOM     24  C   UNL A   1      45.078  42.555  21.021  1.00  0.00     0.124 C 
ENDBRANCH  19  22
ENDBRANCH  14  19
ENDBRANCH   9  13
BRANCH  10  25
ATOM     25  C   UNL A   1      44.659  37.686  27.714  1.00  0.00    -0.001 A 
ATOM     26  C   UNL A   1      46.045  37.493  27.596  1.00  0.00     0.013 A 
ATOM     27  C   UNL A   1      43.808  36.844  26.980  1.00  0.00     0.013 A 
ATOM     28  C   UNL A   1      46.561  36.440  26.832  1.00  0.00     0.040 A 
ATOM     29  C   UNL A   1      44.321  35.778  26.233  1.00  0.00     0.040 A 
ATOM     30  C   UNL A   1      45.694  35.580  26.173  1.00  0.00     0.123 A 
ATOM     31  F   UNL A   1      46.184  34.554  25.464  1.00  0.00    -0.207 F 
ENDBRANCH  10  25
ENDBRANCH   7   8
ENDBRANCH   6   7
ENDBRANCH   4   6
ENDBRANCH   3   4
ENDBRANCH   2   3
ENDBRANCH   1   2
BRANCH   1  32
ATOM     32  O   UNL A   1      48.146  37.388  33.136  1.00  0.00    -0.374 OA
BRANCH  32  33
ATOM     33  C   UNL A   1      48.901  36.020  33.467  1.00  0.00     0.202 C 
BRANCH  33  34
ATOM     34  C   UNL A   1      48.609  34.865  32.507  1.00  0.00     0.261 C 
BRANCH  34  35
ATOM     35  O   UNL A   1      47.242  34.668  32.312  1.00  0.00    -0.460 OA
BRANCH  35  36
ATOM     36  C   UNL A   1      46.878  34.903  31.036  1.00  0.00     0.338 C 
ATOM     37  O   UNL A   1      47.490  35.470  30.159  1.00  0.00    -0.246 OA
BRANCH  36  38
ATOM     38  C   UNL A   1      45.520  34.397  30.911  1.00  0.00     0.060 A 
ATOM     39  C   UNL A   1      45.155  33.356  31.765  1.00  0.00     0.016 A 
ATOM     40  C   UNL A   1      44.748  34.821  29.822  1.00  0.00     0.016 A 
ATOM     41  C   UNL A   1      44.079  32.594  31.412  1.00  0.00     0.010 A 
ATOM     42  C   UNL A   1      43.746  34.002  29.407  1.00  0.00     0.010 A 
ATOM     43  C   UNL A   1      43.472  32.877  30.187  1.00  0.00    -0.014 A 
BRANCH  43  44
ATOM     44  C   UNL A   1      42.440  31.982  29.721  1.00  0.00     0.031 A 
ATOM     45  C   UNL A   1      43.124  30.942  28.786  1.00  0.00     0.074 A 
ATOM     46  C   UNL A   1      41.205  32.314  30.242  1.00  0.00     0.049 A 
ATOM     47  N   UNL A   1      42.626  30.231  27.831  1.00  0.00    -0.248 NA
ATOM     48  C   UNL A   1      44.610  30.700  28.845  1.00  0.00     0.031 C 
ATOM     49  C   UNL A   1      40.916  33.430  31.203  1.00  0.00     0.029 A 
ATOM     50  N   UNL A   1      39.940  31.798  30.115  1.00  0.00    -0.354 N 
ATOM     51  C   UNL A   1      43.579  29.243  27.490  1.00  0.00     0.074 A 
ATOM     52  C   UNL A   1      44.831  29.701  27.987  1.00  0.00     0.031 C 
ATOM     53  C   UNL A   1      39.587  33.563  31.443  1.00  0.00     0.029 A 
ATOM     54  C   UNL A   1      38.869  32.522  30.738  1.00  0.00     0.049 A 
ATOM     55  H   UNL A   1      39.774  30.965  29.618  1.00  0.00     0.167 HD
ATOM     56  C   UNL A   1      43.200  28.006  27.050  1.00  0.00     0.037 A 
ATOM     57  C   UNL A   1      37.518  32.265  30.641  1.00  0.00     0.037 A 
ATOM     58  C   UNL A   1      41.772  27.974  27.010  1.00  0.00     0.049 A 
ATOM     59  C   UNL A   1      37.506  30.925  30.047  1.00  0.00     0.074 A 
ATOM     60  C   UNL A   1      40.887  28.689  26.241  1.00  0.00     0.029 A 
ATOM     61  N   UNL A   1      41.153  27.558  28.171  1.00  0.00    -0.354 N 
ATOM     62  N   UNL A   1      37.875  29.853  30.680  1.00  0.00    -0.248 NA
ATOM     63  C   UNL A   1      37.205  30.790  28.621  1.00  0.00     0.031 C 
ATOM     64  C   UNL A   1      39.984  29.158  27.211  1.00  0.00     0.029 A 
ATOM     65  C   UNL A   1      40.086  28.387  28.376  1.00  0.00     0.049 A 
ATOM     66  H   UNL A   1      41.428  26.805  28.743  1.00  0.00     0.167 HD
ATOM     67  C   UNL A   1      38.215  29.018  29.651  1.00  0.00     0.074 A 
ATOM     68  C   UNL A   1      37.498  29.501  28.477  1.00  0.00     0.031 C 
ATOM     69  C   UNL A   1      39.441  28.422  29.665  1.00  0.00     0.037 A 
BRANCH  56  70
ATOM     70  C   UNL A   1      43.891  26.675  26.949  1.00  0.00     0.058 A 
ATOM     71  C   UNL A   1      44.376  26.313  25.665  1.00  0.00     0.135 A 
ATOM     72  C   UNL A   1      43.772  25.635  27.881  1.00  0.00     0.135 A 
ATOM     73  F   UNL A   1      44.600  27.248  24.726  1.00  0.00    -0.206 F 
ATOM     74  C   UNL A   1      44.552  24.995  25.275  1.00  0.00     0.059 A 
ATOM     75  C   UNL A   1      44.002  24.301  27.523  1.00  0.00     0.059 A 
ATOM     76  F   UNL A   1      43.360  25.868  29.134  1.00  0.00    -0.206 F 
ATOM     77  C   UNL A   1      44.332  23.989  26.205  1.00  0.00     0.060 A 
BRANCH  77  78
ATOM     78  S   UNL A   1      44.472  22.282  25.641  1.00  0.00     0.124 S 
ATOM     79  O   UNL A   1      43.484  21.610  26.478  1.00  0.00    -0.237 OA
ATOM     80  O   UNL A   1      44.125  22.400  24.227  1.00  0.00    -0.237 OA
ATOM     81  O   UNL A   1      45.867  21.952  25.910  1.00  0.00    -0.744 OA
ENDBRANCH  77  78
ENDBRANCH  56  70
BRANCH  57  82
ATOM     82  C   UNL A   1      36.128  32.855  30.852  1.00  0.00     0.058 A 
ATOM     83  C   UNL A   1      35.327  32.743  31.994  1.00  0.00     0.135 A 
ATOM     84  C   UNL A   1      35.658  33.835  29.918  1.00  0.00     0.135 A 
ATOM     85  F   UNL A   1      35.549  31.768  32.886  1.00  0.00    -0.206 F 
ATOM     86  C   UNL A   1      34.285  33.663  32.272  1.00  0.00     0.059 A 
ATOM     87  C   UNL A   1      34.692  34.797  30.201  1.00  0.00     0.059 A 
ATOM     88  F   UNL A   1      36.182  33.946  28.689  1.00  0.00    -0.206 F 
ATOM     89  C   UNL A   1      34.037  34.736  31.409  1.00  0.00     0.060 A 
BRANCH  89  90
ATOM     90  S   UNL A   1      33.002  36.138  31.913  1.00  0.00     0.124 S 
ATOM     91  O   UNL A   1      31.817  35.474  32.444  1.00  0.00    -0.237 OA
ATOM     92  O   UNL A   1      33.849  36.812  32.893  1.00  0.00    -0.237 OA
ATOM     93  O   UNL A   1      32.802  36.878  30.669  1.00  0.00    -0.744 OA
ENDBRANCH  89  90
ENDBRANCH  57  82
BRANCH  69  94
ATOM     94  C   UNL A   1      40.080  28.219  31.043  1.00  0.00     0.058 A 
ATOM     95  C   UNL A   1      39.329  27.620  32.074  1.00  0.00     0.135 A 
ATOM     96  C   UNL A   1      41.371  28.644  31.421  1.00  0.00     0.135 A 
ATOM     97  F   UNL A   1      38.105  27.136  31.811  1.00  0.00    -0.206 F 
ATOM     98  C   UNL A   1      39.805  27.479  33.383  1.00  0.00     0.059 A 
ATOM     99  C   UNL A   1      41.873  28.521  32.731  1.00  0.00     0.059 A 
ATOM    100  F   UNL A   1      42.202  29.177  30.523  1.00  0.00    -0.206 F 
ATOM    101  C   UNL A   1      41.080  27.932  33.708  1.00  0.00     0.060 A 
BRANCH 101 102
ATOM    102  S   UNL A   1      41.693  27.675  35.392  1.00  0.00     0.124 S 
ATOM    103  O   UNL A   1      41.324  26.288  35.658  1.00  0.00    -0.237 OA
ATOM    104  O   UNL A   1      43.122  27.928  35.238  1.00  0.00    -0.237 OA
ATOM    105  O   UNL A   1      40.968  28.668  36.181  1.00  0.00    -0.744 OA
ENDBRANCH 101 102
ENDBRANCH  69  94
ENDBRANCH  43  44
ENDBRANCH  36  38
ENDBRANCH  35  36
ENDBRANCH  34  35
ENDBRANCH  33  34
ENDBRANCH  32  33
ENDBRANCH   1  32
TORSDOF 23
ENDMDL
MODEL 3
REMARK VINA RESULT:     -11.4      9.502     15.553
REMARK SMILES CN(C)S(=O)(=O)c1ccc(-n2c(CCC(=O)OCCOCCOC(=O)c3ccc(-c4c5nc(c(-c6c(F)cc(S(=O)(=O)[O-])cc6F)c6ccc([nH]6)c(-c6c(F)cc(S(=O)(=O)[O-])cc6F)c6nc(c(-c7c(F)cc(S(=O)(=O)[O-])cc7F)c7ccc4[nH]7)C=C6)C=C5)cc3)ccc2-c2ccc(F)cc2)cc1
REMARK SMILES IDX 19 1 18 2 17 3 15 4 16 5 14 6 13 7 12 8 11 9 94 10 92 11
REMARK SMILES IDX 93 12 10 13 7 14 8 15 103 16 9 17 102 18 4 19 5 20 6 21 2 22
REMARK SMILES IDX 1 23 3 24 95 25 96 26 101 27 97 28 100 29 98 30 99 31 20 32
REMARK SMILES IDX 21 33 22 34 23 35 24 36 25 37 26 38 27 39 91 40 28 41 90 42
REMARK SMILES IDX 29 43 30 44 31 45 84 46 32 47 89 48 83 49 85 50 33 51 88 52
REMARK SMILES IDX 82 53 81 54 34 56 68 57 47 58 67 59 48 60 51 61 66 62 86 63
REMARK SMILES IDX 49 64 50 65 65 67 87 68 52 69 35 70 36 71 45 72 37 73 38 74
REMARK SMILES IDX 44 75 46 76 39 77 40 78 41 79 42 80 43 81 69 82 70 83 79 84
REMARK SMILES IDX 71 85 72 86 78 87 80 88 73 89 74 90 75 91 76 92 77 93 53 94
REMARK SMILES IDX 54 95 63 96 55 97 56 98 62 99 64 100 57 101 58 102 59 103
REMARK SMILES IDX 60 104 61 105
REMARK H PARENT 85 55 51 66
REMARK Flexibility Score: inf
ROOT
ATOM      1  C   UNL A   1      37.709  23.012  25.740  1.00  0.00     0.202 C 
ENDROOT
BRANCH   1   2
ATOM      2  C   UNL A   1      36.257  23.392  24.834  1.00  0.00     0.261 C 
BRANCH   2   3
ATOM      3  O   UNL A   1      35.477  24.586  25.153  1.00  0.00    -0.463 OA
BRANCH   3   4
ATOM      4  C   UNL A   1      34.265  24.726  24.542  1.00  0.00     0.306 C 
ATOM      5  O   UNL A   1      34.097  24.568  23.335  1.00  0.00    -0.252 OA
BRANCH   4   6
ATOM      6  C   UNL A   1      33.079  24.984  25.487  1.00  0.00     0.129 C 
BRANCH   6   7
ATOM      7  C   UNL A   1      32.690  26.405  25.927  1.00  0.00     0.066 C 
BRANCH   7   8
ATOM      8  C   UNL A   1      31.502  26.930  25.216  1.00  0.00     0.024 A 
ATOM      9  N   UNL A   1      31.222  28.279  25.057  1.00  0.00    -0.314 N 
ATOM     10  C   UNL A   1      30.169  28.370  24.112  1.00  0.00     0.053 A 
ATOM     11  C   UNL A   1      30.477  26.198  24.651  1.00  0.00     0.024 A 
ATOM     12  C   UNL A   1      29.653  27.093  23.956  1.00  0.00     0.029 A 
BRANCH   9  13
ATOM     13  C   UNL A   1      31.932  29.371  25.666  1.00  0.00     0.046 A 
ATOM     14  C   UNL A   1      33.913  31.752  27.517  1.00  0.00     0.082 A 
ATOM     15  C   UNL A   1      34.592  30.193  27.020  1.00  0.00     0.024 A 
ATOM     16  C   UNL A   1      32.194  32.167  27.155  1.00  0.00     0.024 A 
ATOM     17  C   UNL A   1      33.630  29.017  26.098  1.00  0.00     0.028 A 
ATOM     18  C   UNL A   1      31.199  30.987  26.166  1.00  0.00     0.028 A 
BRANCH  14  19
ATOM     19  S   UNL A   1      34.942  32.892  28.382  1.00  0.00     0.242 S 
ATOM     20  O   UNL A   1      34.940  34.116  27.605  1.00  0.00    -0.207 OA
ATOM     21  O   UNL A   1      36.179  32.208  28.686  1.00  0.00    -0.207 OA
BRANCH  19  22
ATOM     22  N   UNL A   1      34.134  33.245  29.864  1.00  0.00    -0.204 NA
ATOM     23  C   UNL A   1      34.804  32.643  31.045  1.00  0.00     0.124 C 
ATOM     24  C   UNL A   1      33.823  34.671  30.122  1.00  0.00     0.124 C 
ENDBRANCH  19  22
ENDBRANCH  14  19
ENDBRANCH   9  13
BRANCH  10  25
ATOM     25  C   UNL A   1      29.718  29.544  23.335  1.00  0.00    -0.001 A 
ATOM     26  C   UNL A   1      30.016  29.643  21.966  1.00  0.00     0.013 A 
ATOM     27  C   UNL A   1      29.038  30.612  23.944  1.00  0.00     0.013 A 
ATOM     28  C   UNL A   1      29.577  30.738  21.212  1.00  0.00     0.040 A 
ATOM     29  C   UNL A   1      28.580  31.697  23.187  1.00  0.00     0.040 A 
ATOM     30  C   UNL A   1      28.846  31.745  21.825  1.00  0.00     0.123 A 
ATOM     31  F   UNL A   1      28.401  32.780  21.100  1.00  0.00    -0.207 F 
ENDBRANCH  10  25
ENDBRANCH   7   8
ENDBRANCH   6   7
ENDBRANCH   4   6
ENDBRANCH   3   4
ENDBRANCH   2   3
ENDBRANCH   1   2
BRANCH   1  32
ATOM     32  O   UNL A   1      38.901  21.398  25.697  1.00  0.00    -0.374 OA
BRANCH  32  33
ATOM     33  C   UNL A   1      38.921  19.802  25.627  1.00  0.00     0.202 C 
BRANCH  33  34
ATOM     34  C   UNL A   1      40.310  19.164  25.676  1.00  0.00     0.261 C 
BRANCH  34  35
ATOM     35  O   UNL A   1      41.152  19.790  26.596  1.00  0.00    -0.460 OA
BRANCH  35  36
ATOM     36  C   UNL A   1      42.167  20.435  25.990  1.00  0.00     0.338 C 
ATOM     37  O   UNL A   1      43.027  19.993  25.260  1.00  0.00    -0.246 OA
BRANCH  36  38
ATOM     38  C   UNL A   1      42.093  21.813  26.449  1.00  0.00     0.060 A 
ATOM     39  C   UNL A   1      42.320  22.808  25.497  1.00  0.00     0.016 A 
ATOM     40  C   UNL A   1      42.019  22.054  27.827  1.00  0.00     0.016 A 
ATOM     41  C   UNL A   1      42.668  24.048  25.947  1.00  0.00     0.010 A 
ATOM     42  C   UNL A   1      42.471  23.253  28.280  1.00  0.00     0.010 A 
ATOM     43  C   UNL A   1      42.835  24.203  27.325  1.00  0.00    -0.014 A 
BRANCH  43  44
ATOM     44  C   UNL A   1      43.360  25.460  27.804  1.00  0.00     0.031 A 
ATOM     45  C   UNL A   1      42.141  26.345  28.197  1.00  0.00     0.074 A 
ATOM     46  C   UNL A   1      44.740  25.479  27.772  1.00  0.00     0.049 A 
ATOM     47  N   UNL A   1      42.039  27.629  28.271  1.00  0.00    -0.248 NA
ATOM     48  C   UNL A   1      40.791  25.735  28.470  1.00  0.00     0.031 C 
ATOM     49  C   UNL A   1      45.636  24.355  27.340  1.00  0.00     0.029 A 
ATOM     50  N   UNL A   1      45.694  26.406  28.108  1.00  0.00    -0.354 N 
ATOM     51  C   UNL A   1      40.831  27.925  28.946  1.00  0.00     0.074 A 
ATOM     52  C   UNL A   1      40.024  26.756  28.857  1.00  0.00     0.031 C 
ATOM     53  C   UNL A   1      46.942  24.724  27.323  1.00  0.00     0.029 A 
ATOM     54  C   UNL A   1      47.060  26.085  27.804  1.00  0.00     0.049 A 
ATOM     55  H   UNL A   1      45.453  27.257  28.540  1.00  0.00     0.167 HD
ATOM     56  C   UNL A   1      40.709  29.027  29.744  1.00  0.00     0.037 A 
ATOM     57  C   UNL A   1      48.161  26.903  27.935  1.00  0.00     0.037 A 
ATOM     58  C   UNL A   1      41.953  29.729  29.713  1.00  0.00     0.049 A 
ATOM     59  C   UNL A   1      47.628  28.001  28.747  1.00  0.00     0.074 A 
ATOM     60  C   UNL A   1      42.593  30.360  28.675  1.00  0.00     0.029 A 
ATOM     61  N   UNL A   1      42.871  29.354  30.672  1.00  0.00    -0.354 N 
ATOM     62  N   UNL A   1      47.309  27.883  30.000  1.00  0.00    -0.248 NA
ATOM     63  C   UNL A   1      47.294  29.265  28.088  1.00  0.00     0.031 C 
ATOM     64  C   UNL A   1      43.891  29.827  28.777  1.00  0.00     0.029 A 
ATOM     65  C   UNL A   1      44.090  29.290  30.056  1.00  0.00     0.049 A 
ATOM     66  H   UNL A   1      42.684  29.169  31.620  1.00  0.00     0.167 HD
ATOM     67  C   UNL A   1      46.404  28.896  30.160  1.00  0.00     0.074 A 
ATOM     68  C   UNL A   1      46.681  29.864  29.106  1.00  0.00     0.031 C 
ATOM     69  C   UNL A   1      45.187  28.612  30.702  1.00  0.00     0.037 A 
BRANCH  56  70
ATOM     70  C   UNL A   1      39.751  29.432  30.829  1.00  0.00     0.058 A 
ATOM     71  C   UNL A   1      39.238  30.753  30.757  1.00  0.00     0.135 A 
ATOM     72  C   UNL A   1      39.616  28.783  32.064  1.00  0.00     0.135 A 
ATOM     73  F   UNL A   1      39.249  31.433  29.597  1.00  0.00    -0.206 F 
ATOM     74  C   UNL A   1      38.795  31.447  31.872  1.00  0.00     0.059 A 
ATOM     75  C   UNL A   1      39.115  29.447  33.190  1.00  0.00     0.059 A 
ATOM     76  F   UNL A   1      40.030  27.520  32.235  1.00  0.00    -0.206 F 
ATOM     77  C   UNL A   1      38.765  30.794  33.095  1.00  0.00     0.060 A 
BRANCH  77  78
ATOM     78  S   UNL A   1      38.279  31.751  34.544  1.00  0.00     0.124 S 
ATOM     79  O   UNL A   1      39.191  32.887  34.470  1.00  0.00    -0.237 OA
ATOM     80  O   UNL A   1      36.878  32.047  34.256  1.00  0.00    -0.237 OA
ATOM     81  O   UNL A   1      38.501  30.825  35.648  1.00  0.00    -0.744 OA
ENDBRANCH  77  78
ENDBRANCH  56  70
BRANCH  57  82
ATOM     82  C   UNL A   1      49.614  27.099  27.516  1.00  0.00     0.058 A 
ATOM     83  C   UNL A   1      50.636  27.696  28.263  1.00  0.00     0.135 A 
ATOM     84  C   UNL A   1      50.086  26.397  26.359  1.00  0.00     0.135 A 
ATOM     85  F   UNL A   1      50.342  28.512  29.285  1.00  0.00    -0.206 F 
ATOM     86  C   UNL A   1      52.005  27.440  27.999  1.00  0.00     0.059 A 
ATOM     87  C   UNL A   1      51.418  26.069  26.124  1.00  0.00     0.059 A 
ATOM     88  F   UNL A   1      49.244  25.929  25.426  1.00  0.00    -0.206 F 
ATOM     89  C   UNL A   1      52.378  26.556  26.981  1.00  0.00     0.060 A 
BRANCH  89  90
ATOM     90  S   UNL A   1      54.066  25.901  26.866  1.00  0.00     0.124 S 
ATOM     91  O   UNL A   1      54.337  25.499  28.241  1.00  0.00    -0.237 OA
ATOM     92  O   UNL A   1      53.912  24.815  25.902  1.00  0.00    -0.237 OA
ATOM     93  O   UNL A   1      54.840  27.041  26.380  1.00  0.00    -0.744 OA
ENDBRANCH  89  90
ENDBRANCH  57  82
BRANCH  69  94
ATOM     94  C   UNL A   1      45.124  27.393  31.628  1.00  0.00     0.058 A 
ATOM     95  C   UNL A   1      46.042  27.283  32.691  1.00  0.00     0.135 A 
ATOM     96  C   UNL A   1      44.251  26.294  31.484  1.00  0.00     0.135 A 
ATOM     97  F   UNL A   1      46.888  28.294  32.948  1.00  0.00    -0.206 F 
ATOM     98  C   UNL A   1      46.112  26.163  33.528  1.00  0.00     0.059 A 
ATOM     99  C   UNL A   1      44.303  25.152  32.306  1.00  0.00     0.059 A 
ATOM    100  F   UNL A   1      43.299  26.300  30.549  1.00  0.00    -0.206 F 
ATOM    101  C   UNL A   1      45.240  25.097  33.332  1.00  0.00     0.060 A 
BRANCH 101 102
ATOM    102  S   UNL A   1      45.309  23.692  34.470  1.00  0.00     0.124 S 
ATOM    103  O   UNL A   1      44.295  24.035  35.462  1.00  0.00    -0.237 OA
ATOM    104  O   UNL A   1      44.979  22.573  33.594  1.00  0.00    -0.237 OA
ATOM    105  O   UNL A   1      46.685  23.711  34.962  1.00  0.00    -0.744 OA
ENDBRANCH 101 102
ENDBRANCH  69  94
ENDBRANCH  43  44
ENDBRANCH  36  38
ENDBRANCH  35  36
ENDBRANCH  34  35
ENDBRANCH  33  34
ENDBRANCH  32  33
ENDBRANCH   1  32
TORSDOF 23
ENDMDL
