MODEL 1
REMARK VINA RESULT:     -11.2      0.000      0.000
REMARK SMILES Cc1ccc(NC(=O)C[C@H]2SC[C@H](C(=O)OCCOCCOC(=O)c3ccc(-c4c5nc(c(-c6c(F)cc(S(=O)(=O)[O-])cc6F)c6ccc([nH]6)c(-c6c(F)cc(S(=O)(=O)[O-])cc6F)c6nc(c(-c7c(F)cc(S(=O)(=O)[O-])cc7F)c7ccc4[nH]7)C=C6)C=C5)cc3)NC2=O)cc1
REMARK SMILES IDX 19 1 18 2 17 3 16 4 14 5 15 6 13 7 10 8 11 9 92 10 12 11
REMARK SMILES IDX 91 12 93 13 9 15 7 16 6 17 8 19 5 20 1 21 2 22 3 23 95 24
REMARK SMILES IDX 4 25 94 26 20 27 21 28 22 29 23 30 24 31 25 32 26 33 90 34
REMARK SMILES IDX 27 35 89 36 28 37 29 38 30 39 83 40 31 41 88 42 82 43 84 44
REMARK SMILES IDX 32 45 87 46 81 47 80 48 33 50 67 51 46 52 66 53 47 54 50 55
REMARK SMILES IDX 65 56 85 57 48 58 49 59 64 61 86 62 51 63 34 64 35 65 44 66
REMARK SMILES IDX 36 67 37 68 43 69 45 70 38 71 39 72 40 73 41 74 42 75 68 76
REMARK SMILES IDX 69 77 78 78 70 79 71 80 77 81 79 82 72 83 73 84 74 85 75 86
REMARK SMILES IDX 76 87 52 88 53 89 62 90 54 91 55 92 61 93 63 94 56 95 57 96
REMARK SMILES IDX 58 97 59 98 60 99
REMARK H PARENT 91 14 6 18 84 49 50 60
REMARK Flexibility Score: inf
ROOT
ATOM      1  O   UNL A   1      35.598  21.766  25.025  1.00  0.00    -0.374 OA
ENDROOT
BRANCH   1   2
ATOM      2  C   UNL A   1      34.824  21.037  25.979  1.00  0.00     0.202 C 
BRANCH   2   3
ATOM      3  C   UNL A   1      34.696  21.951  27.173  1.00  0.00     0.261 C 
BRANCH   3   4
ATOM      4  O   UNL A   1      33.874  23.083  26.854  1.00  0.00    -0.462 OA
BRANCH   4   5
ATOM      5  C   UNL A   1      32.534  22.967  27.070  1.00  0.00     0.329 C 
ATOM      6  O   UNL A   1      32.000  22.598  28.105  1.00  0.00    -0.250 OA
BRANCH   5   7
ATOM      7  C   UNL A   1      31.772  23.281  25.797  1.00  0.00     0.202 C 
ATOM      8  C   UNL A   1      31.914  24.766  23.204  1.00  0.00     0.145 C 
ATOM      9  S   UNL A   1      30.470  25.185  24.261  1.00  0.00    -0.145 SA
ATOM     10  C   UNL A   1      32.252  23.274  23.357  1.00  0.00     0.234 C 
ATOM     11  C   UNL A   1      31.266  24.728  25.820  1.00  0.00     0.107 C 
ATOM     12  N   UNL A   1      32.538  22.855  24.631  1.00  0.00    -0.341 N 
ATOM     13  O   UNL A   1      32.364  22.481  22.430  1.00  0.00    -0.274 OA
ATOM     14  H   UNL A   1      33.294  22.238  24.765  1.00  0.00     0.164 HD
BRANCH   8  15
ATOM     15  C   UNL A   1      31.692  25.315  21.800  1.00  0.00     0.124 C 
BRANCH  15  16
ATOM     16  C   UNL A   1      32.803  26.152  21.216  1.00  0.00     0.226 C 
ATOM     17  N   UNL A   1      33.431  27.139  21.907  1.00  0.00    -0.326 N 
ATOM     18  H   UNL A   1      34.272  27.427  21.484  1.00  0.00     0.169 HD
ATOM     19  O   UNL A   1      33.178  25.931  20.057  1.00  0.00    -0.275 OA
BRANCH  17  20
ATOM     20  C   UNL A   1      33.148  27.838  23.088  1.00  0.00     0.041 A 
ATOM     21  C   UNL A   1      31.865  29.895  26.663  1.00  0.00     0.044 C 
ATOM     22  C   UNL A   1      32.319  29.207  25.411  1.00  0.00    -0.051 A 
ATOM     23  C   UNL A   1      33.513  28.477  25.395  1.00  0.00     0.005 A 
ATOM     24  C   UNL A   1      31.551  29.264  24.248  1.00  0.00     0.005 A 
ATOM     25  C   UNL A   1      33.921  27.789  24.245  1.00  0.00     0.026 A 
ATOM     26  C   UNL A   1      31.959  28.578  23.101  1.00  0.00     0.026 A 
ENDBRANCH  17  20
ENDBRANCH  15  16
ENDBRANCH   8  15
ENDBRANCH   5   7
ENDBRANCH   4   5
ENDBRANCH   3   4
ENDBRANCH   2   3
ENDBRANCH   1   2
BRANCH   1  27
ATOM     27  C   UNL A   1      36.714  21.096  24.473  1.00  0.00     0.202 C 
BRANCH  27  28
ATOM     28  C   UNL A   1      37.975  21.140  25.344  1.00  0.00     0.261 C 
BRANCH  28  29
ATOM     29  O   UNL A   1      38.199  22.482  25.818  1.00  0.00    -0.460 OA
BRANCH  29  30
ATOM     30  C   UNL A   1      39.364  22.673  26.490  1.00  0.00     0.338 C 
ATOM     31  O   UNL A   1      40.126  21.767  26.818  1.00  0.00    -0.246 OA
BRANCH  30  32
ATOM     32  C   UNL A   1      39.544  24.116  26.799  1.00  0.00     0.060 A 
ATOM     33  C   UNL A   1      40.361  24.938  26.001  1.00  0.00     0.016 A 
ATOM     34  C   UNL A   1      39.035  24.606  28.001  1.00  0.00     0.016 A 
ATOM     35  C   UNL A   1      40.741  26.217  26.454  1.00  0.00     0.010 A 
ATOM     36  C   UNL A   1      39.462  25.832  28.469  1.00  0.00     0.010 A 
ATOM     37  C   UNL A   1      40.325  26.646  27.715  1.00  0.00    -0.014 A 
BRANCH  37  38
ATOM     38  C   UNL A   1      40.783  27.841  28.436  1.00  0.00     0.031 A 
ATOM     39  C   UNL A   1      39.886  29.023  28.516  1.00  0.00     0.074 A 
ATOM     40  C   UNL A   1      41.809  27.747  29.317  1.00  0.00     0.049 A 
ATOM     41  N   UNL A   1      40.196  30.125  29.109  1.00  0.00    -0.248 NA
ATOM     42  C   UNL A   1      38.566  29.089  27.890  1.00  0.00     0.031 C 
ATOM     43  C   UNL A   1      41.987  28.512  30.554  1.00  0.00     0.029 A 
ATOM     44  N   UNL A   1      42.938  26.922  29.289  1.00  0.00    -0.354 N 
ATOM     45  C   UNL A   1      39.039  30.844  29.292  1.00  0.00     0.074 A 
ATOM     46  C   UNL A   1      38.107  30.251  28.368  1.00  0.00     0.031 C 
ATOM     47  C   UNL A   1      43.229  28.322  31.026  1.00  0.00     0.029 A 
ATOM     48  C   UNL A   1      43.951  27.547  30.035  1.00  0.00     0.049 A 
ATOM     49  H   UNL A   1      43.011  26.056  28.827  1.00  0.00     0.167 HD
ATOM     50  C   UNL A   1      38.992  31.747  30.316  1.00  0.00     0.037 A 
ATOM     51  C   UNL A   1      45.137  27.875  29.458  1.00  0.00     0.037 A 
ATOM     52  C   UNL A   1      40.343  31.965  30.870  1.00  0.00     0.049 A 
ATOM     53  C   UNL A   1      45.301  29.370  29.439  1.00  0.00     0.074 A 
ATOM     54  C   UNL A   1      40.941  31.692  32.089  1.00  0.00     0.029 A 
ATOM     55  N   UNL A   1      41.386  32.324  30.006  1.00  0.00    -0.354 N 
ATOM     56  N   UNL A   1      44.289  30.182  29.602  1.00  0.00    -0.248 NA
ATOM     57  C   UNL A   1      46.566  30.086  29.331  1.00  0.00     0.031 C 
ATOM     58  C   UNL A   1      42.354  31.794  31.919  1.00  0.00     0.029 A 
ATOM     59  C   UNL A   1      42.620  32.170  30.610  1.00  0.00     0.049 A 
ATOM     60  H   UNL A   1      41.257  32.647  29.085  1.00  0.00     0.167 HD
ATOM     61  C   UNL A   1      44.722  31.468  29.677  1.00  0.00     0.074 A 
ATOM     62  C   UNL A   1      46.159  31.362  29.478  1.00  0.00     0.031 C 
ATOM     63  C   UNL A   1      43.862  32.503  29.907  1.00  0.00     0.037 A 
BRANCH  50  64
ATOM     64  C   UNL A   1      37.714  32.312  30.948  1.00  0.00     0.058 A 
ATOM     65  C   UNL A   1      37.586  33.700  31.200  1.00  0.00     0.135 A 
ATOM     66  C   UNL A   1      36.611  31.553  31.404  1.00  0.00     0.135 A 
ATOM     67  F   UNL A   1      38.560  34.559  30.868  1.00  0.00    -0.206 F 
ATOM     68  C   UNL A   1      36.466  34.275  31.824  1.00  0.00     0.059 A 
ATOM     69  C   UNL A   1      35.465  32.108  31.986  1.00  0.00     0.059 A 
ATOM     70  F   UNL A   1      36.589  30.219  31.371  1.00  0.00    -0.206 F 
ATOM     71  C   UNL A   1      35.400  33.471  32.202  1.00  0.00     0.060 A 
BRANCH  71  72
ATOM     72  S   UNL A   1      33.945  34.205  32.975  1.00  0.00     0.124 S 
ATOM     73  O   UNL A   1      33.180  33.026  33.368  1.00  0.00    -0.237 OA
ATOM     74  O   UNL A   1      34.530  34.978  34.066  1.00  0.00    -0.237 OA
ATOM     75  O   UNL A   1      33.352  35.001  31.903  1.00  0.00    -0.744 OA
ENDBRANCH  71  72
ENDBRANCH  50  64
BRANCH  51  76
ATOM     76  C   UNL A   1      45.623  26.818  28.519  1.00  0.00     0.058 A 
ATOM     77  C   UNL A   1      45.892  25.555  29.096  1.00  0.00     0.135 A 
ATOM     78  C   UNL A   1      45.300  26.827  27.152  1.00  0.00     0.135 A 
ATOM     79  F   UNL A   1      46.183  25.465  30.404  1.00  0.00    -0.206 F 
ATOM     80  C   UNL A   1      45.698  24.357  28.407  1.00  0.00     0.059 A 
ATOM     81  C   UNL A   1      45.082  25.634  26.445  1.00  0.00     0.059 A 
ATOM     82  F   UNL A   1      45.025  27.984  26.534  1.00  0.00    -0.206 F 
ATOM     83  C   UNL A   1      45.229  24.405  27.097  1.00  0.00     0.060 A 
BRANCH  83  84
ATOM     84  S   UNL A   1      44.506  22.894  26.377  1.00  0.00     0.124 S 
ATOM     85  O   UNL A   1      45.672  22.032  26.240  1.00  0.00    -0.237 OA
ATOM     86  O   UNL A   1      43.531  22.484  27.388  1.00  0.00    -0.237 OA
ATOM     87  O   UNL A   1      43.910  23.385  25.140  1.00  0.00    -0.744 OA
ENDBRANCH  83  84
ENDBRANCH  51  76
BRANCH  63  88
ATOM     88  C   UNL A   1      44.162  33.943  29.570  1.00  0.00     0.058 A 
ATOM     89  C   UNL A   1      44.644  34.874  30.507  1.00  0.00     0.135 A 
ATOM     90  C   UNL A   1      44.137  34.389  28.226  1.00  0.00     0.135 A 
ATOM     91  F   UNL A   1      44.839  34.545  31.791  1.00  0.00    -0.206 F 
ATOM     92  C   UNL A   1      45.002  36.172  30.156  1.00  0.00     0.059 A 
ATOM     93  C   UNL A   1      44.552  35.661  27.845  1.00  0.00     0.059 A 
ATOM     94  F   UNL A   1      43.733  33.592  27.226  1.00  0.00    -0.206 F 
ATOM     95  C   UNL A   1      44.955  36.557  28.822  1.00  0.00     0.060 A 
BRANCH  95  96
ATOM     96  S   UNL A   1      45.482  38.217  28.371  1.00  0.00     0.124 S 
ATOM     97  O   UNL A   1      44.240  38.966  28.527  1.00  0.00    -0.237 OA
ATOM     98  O   UNL A   1      46.519  38.501  29.357  1.00  0.00    -0.237 OA
ATOM     99  O   UNL A   1      45.958  38.058  27.000  1.00  0.00    -0.744 OA
ENDBRANCH  95  96
ENDBRANCH  63  88
ENDBRANCH  37  38
ENDBRANCH  30  32
ENDBRANCH  29  30
ENDBRANCH  28  29
ENDBRANCH  27  28
ENDBRANCH   1  27
TORSDOF 20
ENDMDL
MODEL 2
REMARK VINA RESULT:     -11.0      1.557      2.567
REMARK SMILES Cc1ccc(NC(=O)C[C@H]2SC[C@H](C(=O)OCCOCCOC(=O)c3ccc(-c4c5nc(c(-c6c(F)cc(S(=O)(=O)[O-])cc6F)c6ccc([nH]6)c(-c6c(F)cc(S(=O)(=O)[O-])cc6F)c6nc(c(-c7c(F)cc(S(=O)(=O)[O-])cc7F)c7ccc4[nH]7)C=C6)C=C5)cc3)NC2=O)cc1
REMARK SMILES IDX 19 1 18 2 17 3 16 4 14 5 15 6 13 7 10 8 11 9 92 10 12 11
REMARK SMILES IDX 91 12 93 13 9 15 7 16 6 17 8 19 5 20 1 21 2 22 3 23 95 24
REMARK SMILES IDX 4 25 94 26 20 27 21 28 22 29 23 30 24 31 25 32 26 33 90 34
REMARK SMILES IDX 27 35 89 36 28 37 29 38 30 39 83 40 31 41 88 42 82 43 84 44
REMARK SMILES IDX 32 45 87 46 81 47 80 48 33 50 67 51 46 52 66 53 47 54 50 55
REMARK SMILES IDX 65 56 85 57 48 58 49 59 64 61 86 62 51 63 34 64 35 65 44 66
REMARK SMILES IDX 36 67 37 68 43 69 45 70 38 71 39 72 40 73 41 74 42 75 68 76
REMARK SMILES IDX 69 77 78 78 70 79 71 80 77 81 79 82 72 83 73 84 74 85 75 86
REMARK SMILES IDX 76 87 52 88 53 89 62 90 54 91 55 92 61 93 63 94 56 95 57 96
REMARK SMILES IDX 58 97 59 98 60 99
REMARK H PARENT 91 14 6 18 84 49 50 60
REMARK Flexibility Score: inf
ROOT
ATOM      1  O   UNL A   1      34.975  20.814  25.176  1.00  0.00    -0.374 OA
ENDROOT
BRANCH   1   2
ATOM      2  C   UNL A   1      34.844  19.443  24.798  1.00  0.00     0.202 C 
BRANCH   2   3
ATOM      3  C   UNL A   1      33.377  19.247  24.504  1.00  0.00     0.261 C 
BRANCH   3   4
ATOM      4  O   UNL A   1      32.637  20.433  24.827  1.00  0.00    -0.462 OA
BRANCH   4   5
ATOM      5  C   UNL A   1      32.336  21.283  23.806  1.00  0.00     0.329 C 
ATOM      6  O   UNL A   1      32.072  20.964  22.655  1.00  0.00    -0.250 OA
BRANCH   5   7
ATOM      7  C   UNL A   1      32.459  22.721  24.271  1.00  0.00     0.202 C 
ATOM      8  C   UNL A   1      30.897  25.186  24.925  1.00  0.00     0.145 C 
ATOM      9  S   UNL A   1      32.202  25.409  23.651  1.00  0.00    -0.145 SA
ATOM     10  C   UNL A   1      31.368  24.167  25.974  1.00  0.00     0.234 C 
ATOM     11  C   UNL A   1      32.200  23.683  23.106  1.00  0.00     0.107 C 
ATOM     12  N   UNL A   1      31.691  22.923  25.495  1.00  0.00    -0.341 N 
ATOM     13  O   UNL A   1      31.386  24.361  27.184  1.00  0.00    -0.274 OA
ATOM     14  H   UNL A   1      31.393  22.132  25.999  1.00  0.00     0.164 HD
BRANCH   8  15
ATOM     15  C   UNL A   1      30.421  26.551  25.409  1.00  0.00     0.124 C 
BRANCH  15  16
ATOM     16  C   UNL A   1      31.484  27.601  25.626  1.00  0.00     0.226 C 
ATOM     17  N   UNL A   1      31.403  28.856  25.113  1.00  0.00    -0.326 N 
ATOM     18  H   UNL A   1      32.040  29.481  25.528  1.00  0.00     0.169 HD
ATOM     19  O   UNL A   1      32.475  27.321  26.314  1.00  0.00    -0.275 OA
BRANCH  17  20
ATOM     20  C   UNL A   1      30.616  29.459  24.122  1.00  0.00     0.041 A 
ATOM     21  C   UNL A   1      28.062  30.924  20.962  1.00  0.00     0.044 C 
ATOM     22  C   UNL A   1      28.972  30.425  22.044  1.00  0.00    -0.051 A 
ATOM     23  C   UNL A   1      29.077  31.117  23.256  1.00  0.00     0.005 A 
ATOM     24  C   UNL A   1      29.711  29.255  21.870  1.00  0.00     0.005 A 
ATOM     25  C   UNL A   1      29.886  30.632  24.292  1.00  0.00     0.026 A 
ATOM     26  C   UNL A   1      30.518  28.773  22.905  1.00  0.00     0.026 A 
ENDBRANCH  17  20
ENDBRANCH  15  16
ENDBRANCH   8  15
ENDBRANCH   5   7
ENDBRANCH   4   5
ENDBRANCH   3   4
ENDBRANCH   2   3
ENDBRANCH   1   2
BRANCH   1  27
ATOM     27  C   UNL A   1      36.014  21.544  24.554  1.00  0.00     0.202 C 
BRANCH  27  28
ATOM     28  C   UNL A   1      37.397  21.342  25.185  1.00  0.00     0.261 C 
BRANCH  28  29
ATOM     29  O   UNL A   1      37.692  22.429  26.083  1.00  0.00    -0.460 OA
BRANCH  29  30
ATOM     30  C   UNL A   1      38.993  22.534  26.460  1.00  0.00     0.338 C 
ATOM     31  O   UNL A   1      39.757  21.578  26.566  1.00  0.00    -0.246 OA
BRANCH  30  32
ATOM     32  C   UNL A   1      39.323  23.951  26.763  1.00  0.00     0.060 A 
ATOM     33  C   UNL A   1      40.018  24.753  25.839  1.00  0.00     0.016 A 
ATOM     34  C   UNL A   1      39.096  24.425  28.055  1.00  0.00     0.016 A 
ATOM     35  C   UNL A   1      40.563  25.989  26.238  1.00  0.00     0.010 A 
ATOM     36  C   UNL A   1      39.686  25.604  28.459  1.00  0.00     0.010 A 
ATOM     37  C   UNL A   1      40.434  26.394  27.568  1.00  0.00    -0.014 A 
BRANCH  37  38
ATOM     38  C   UNL A   1      41.103  27.532  28.212  1.00  0.00     0.031 A 
ATOM     39  C   UNL A   1      40.324  28.770  28.480  1.00  0.00     0.074 A 
ATOM     40  C   UNL A   1      42.264  27.342  28.884  1.00  0.00     0.049 A 
ATOM     41  N   UNL A   1      40.817  29.828  29.025  1.00  0.00    -0.248 NA
ATOM     42  C   UNL A   1      38.919  28.944  28.112  1.00  0.00     0.031 C 
ATOM     43  C   UNL A   1      42.723  28.053  30.080  1.00  0.00     0.029 A 
ATOM     44  N   UNL A   1      43.306  26.443  28.631  1.00  0.00    -0.354 N 
ATOM     45  C   UNL A   1      39.769  30.618  29.433  1.00  0.00     0.074 A 
ATOM     46  C   UNL A   1      38.642  30.119  28.689  1.00  0.00     0.031 C 
ATOM     47  C   UNL A   1      44.014  27.765  30.308  1.00  0.00     0.029 A 
ATOM     48  C   UNL A   1      44.482  26.974  29.186  1.00  0.00     0.049 A 
ATOM     49  H   UNL A   1      43.229  25.589  28.148  1.00  0.00     0.167 HD
ATOM     50  C   UNL A   1      39.978  31.489  30.465  1.00  0.00     0.037 A 
ATOM     51  C   UNL A   1      45.562  27.239  28.404  1.00  0.00     0.037 A 
ATOM     52  C   UNL A   1      41.420  31.598  30.761  1.00  0.00     0.049 A 
ATOM     53  C   UNL A   1      45.826  28.719  28.382  1.00  0.00     0.074 A 
ATOM     54  C   UNL A   1      42.212  31.247  31.841  1.00  0.00     0.029 A 
ATOM     55  N   UNL A   1      42.308  31.913  29.724  1.00  0.00    -0.354 N 
ATOM     56  N   UNL A   1      44.924  29.593  28.746  1.00  0.00    -0.248 NA
ATOM     57  C   UNL A   1      47.098  29.351  28.053  1.00  0.00     0.031 C 
ATOM     58  C   UNL A   1      43.572  31.258  31.412  1.00  0.00     0.029 A 
ATOM     59  C   UNL A   1      43.618  31.656  30.084  1.00  0.00     0.049 A 
ATOM     60  H   UNL A   1      42.035  32.272  28.849  1.00  0.00     0.167 HD
ATOM     61  C   UNL A   1      45.456  30.843  28.762  1.00  0.00     0.074 A 
ATOM     62  C   UNL A   1      46.820  30.647  28.297  1.00  0.00     0.031 C 
ATOM     63  C   UNL A   1      44.730  31.927  29.167  1.00  0.00     0.037 A 
BRANCH  50  64
ATOM     64  C   UNL A   1      38.883  32.120  31.334  1.00  0.00     0.058 A 
ATOM     65  C   UNL A   1      38.171  31.341  32.278  1.00  0.00     0.135 A 
ATOM     66  C   UNL A   1      38.421  33.454  31.243  1.00  0.00     0.135 A 
ATOM     67  F   UNL A   1      38.453  30.043  32.460  1.00  0.00    -0.206 F 
ATOM     68  C   UNL A   1      37.122  31.843  33.065  1.00  0.00     0.059 A 
ATOM     69  C   UNL A   1      37.410  33.990  32.050  1.00  0.00     0.059 A 
ATOM     70  F   UNL A   1      38.876  34.316  30.332  1.00  0.00    -0.206 F 
ATOM     71  C   UNL A   1      36.756  33.177  32.955  1.00  0.00     0.060 A 
BRANCH  71  72
ATOM     72  S   UNL A   1      35.430  33.838  33.985  1.00  0.00     0.124 S 
ATOM     73  O   UNL A   1      34.253  33.185  33.423  1.00  0.00    -0.237 OA
ATOM     74  O   UNL A   1      35.826  33.401  35.320  1.00  0.00    -0.237 OA
ATOM     75  O   UNL A   1      35.508  35.280  33.759  1.00  0.00    -0.744 OA
ENDBRANCH  71  72
ENDBRANCH  50  64
BRANCH  51  76
ATOM     76  C   UNL A   1      45.788  26.181  27.372  1.00  0.00     0.058 A 
ATOM     77  C   UNL A   1      46.115  24.897  27.864  1.00  0.00     0.135 A 
ATOM     78  C   UNL A   1      45.182  26.232  26.106  1.00  0.00     0.135 A 
ATOM     79  F   UNL A   1      46.673  24.769  29.079  1.00  0.00    -0.206 F 
ATOM     80  C   UNL A   1      45.724  23.723  27.220  1.00  0.00     0.059 A 
ATOM     81  C   UNL A   1      44.764  25.064  25.448  1.00  0.00     0.059 A 
ATOM     82  F   UNL A   1      44.835  27.412  25.572  1.00  0.00    -0.206 F 
ATOM     83  C   UNL A   1      44.990  23.817  26.041  1.00  0.00     0.060 A 
BRANCH  83  84
ATOM     84  S   UNL A   1      44.062  22.353  25.476  1.00  0.00     0.124 S 
ATOM     85  O   UNL A   1      43.332  21.971  26.676  1.00  0.00    -0.237 OA
ATOM     86  O   UNL A   1      43.248  22.883  24.381  1.00  0.00    -0.237 OA
ATOM     87  O   UNL A   1      45.124  21.451  25.045  1.00  0.00    -0.744 OA
ENDBRANCH  83  84
ENDBRANCH  51  76
BRANCH  63  88
ATOM     88  C   UNL A   1      45.065  33.353  28.807  1.00  0.00     0.058 A 
ATOM     89  C   UNL A   1      44.492  34.032  27.716  1.00  0.00     0.135 A 
ATOM     90  C   UNL A   1      45.858  34.148  29.670  1.00  0.00     0.135 A 
ATOM     91  F   UNL A   1      43.621  33.433  26.892  1.00  0.00    -0.206 F 
ATOM     92  C   UNL A   1      44.745  35.375  27.454  1.00  0.00     0.059 A 
ATOM     93  C   UNL A   1      46.071  35.507  29.462  1.00  0.00     0.059 A 
ATOM     94  F   UNL A   1      46.436  33.636  30.766  1.00  0.00    -0.206 F 
ATOM     95  C   UNL A   1      45.533  36.106  28.334  1.00  0.00     0.060 A 
BRANCH  95  96
ATOM     96  S   UNL A   1      45.800  37.857  28.021  1.00  0.00     0.124 S 
ATOM     97  O   UNL A   1      44.469  38.400  28.275  1.00  0.00    -0.237 OA
ATOM     98  O   UNL A   1      46.821  38.205  29.004  1.00  0.00    -0.237 OA
ATOM     99  O   UNL A   1      46.243  37.888  26.631  1.00  0.00    -0.744 OA
ENDBRANCH  95  96
ENDBRANCH  63  88
ENDBRANCH  37  38
ENDBRANCH  30  32
ENDBRANCH  29  30
ENDBRANCH  28  29
ENDBRANCH  27  28
ENDBRANCH   1  27
TORSDOF 20
ENDMDL
MODEL 3
REMARK VINA RESULT:     -10.6      3.982     10.717
REMARK SMILES Cc1ccc(NC(=O)C[C@H]2SC[C@H](C(=O)OCCOCCOC(=O)c3ccc(-c4c5nc(c(-c6c(F)cc(S(=O)(=O)[O-])cc6F)c6ccc([nH]6)c(-c6c(F)cc(S(=O)(=O)[O-])cc6F)c6nc(c(-c7c(F)cc(S(=O)(=O)[O-])cc7F)c7ccc4[nH]7)C=C6)C=C5)cc3)NC2=O)cc1
REMARK SMILES IDX 19 1 18 2 17 3 16 4 14 5 15 6 13 7 10 8 11 9 92 10 12 11
REMARK SMILES IDX 91 12 93 13 9 15 7 16 6 17 8 19 5 20 1 21 2 22 3 23 95 24
REMARK SMILES IDX 4 25 94 26 20 27 21 28 22 29 23 30 24 31 25 32 26 33 90 34
REMARK SMILES IDX 27 35 89 36 28 37 29 38 30 39 83 40 31 41 88 42 82 43 84 44
REMARK SMILES IDX 32 45 87 46 81 47 80 48 33 50 67 51 46 52 66 53 47 54 50 55
REMARK SMILES IDX 65 56 85 57 48 58 49 59 64 61 86 62 51 63 34 64 35 65 44 66
REMARK SMILES IDX 36 67 37 68 43 69 45 70 38 71 39 72 40 73 41 74 42 75 68 76
REMARK SMILES IDX 69 77 78 78 70 79 71 80 77 81 79 82 72 83 73 84 74 85 75 86
REMARK SMILES IDX 76 87 52 88 53 89 62 90 54 91 55 92 61 93 63 94 56 95 57 96
REMARK SMILES IDX 58 97 59 98 60 99
REMARK H PARENT 91 14 6 18 84 49 50 60
REMARK Flexibility Score: inf
ROOT
ATOM      1  O   UNL A   1      33.569  33.257  29.267  1.00  0.00    -0.374 OA
ENDROOT
BRANCH   1   2
ATOM      2  C   UNL A   1      33.743  33.107  27.857  1.00  0.00     0.202 C 
BRANCH   2   3
ATOM      3  C   UNL A   1      34.099  31.656  27.651  1.00  0.00     0.261 C 
BRANCH   3   4
ATOM      4  O   UNL A   1      32.914  30.848  27.600  1.00  0.00    -0.462 OA
BRANCH   4   5
ATOM      5  C   UNL A   1      32.445  30.499  26.369  1.00  0.00     0.329 C 
ATOM      6  O   UNL A   1      31.459  30.962  25.814  1.00  0.00    -0.250 OA
BRANCH   5   7
ATOM      7  C   UNL A   1      33.278  29.368  25.797  1.00  0.00     0.202 C 
ATOM      8  C   UNL A   1      33.241  27.081  23.869  1.00  0.00     0.145 C 
ATOM      9  S   UNL A   1      33.686  26.635  25.596  1.00  0.00    -0.145 SA
ATOM     10  C   UNL A   1      33.797  28.474  23.535  1.00  0.00     0.234 C 
ATOM     11  C   UNL A   1      32.808  28.021  26.358  1.00  0.00     0.107 C 
ATOM     12  N   UNL A   1      33.375  29.496  24.347  1.00  0.00    -0.341 N 
ATOM     13  O   UNL A   1      34.502  28.736  22.567  1.00  0.00    -0.274 OA
ATOM     14  H   UNL A   1      33.127  30.354  23.932  1.00  0.00     0.164 HD
BRANCH   8  15
ATOM     15  C   UNL A   1      33.588  25.924  22.940  1.00  0.00     0.124 C 
BRANCH  15  16
ATOM     16  C   UNL A   1      32.589  24.796  22.860  1.00  0.00     0.226 C 
ATOM     17  N   UNL A   1      32.834  23.551  23.347  1.00  0.00    -0.326 N 
ATOM     18  H   UNL A   1      32.020  23.006  23.432  1.00  0.00     0.169 HD
ATOM     19  O   UNL A   1      31.485  25.004  22.340  1.00  0.00    -0.275 OA
BRANCH  17  20
ATOM     20  C   UNL A   1      33.990  22.871  23.756  1.00  0.00     0.041 A 
ATOM     21  C   UNL A   1      37.757  21.146  24.976  1.00  0.00     0.044 C 
ATOM     22  C   UNL A   1      36.450  21.728  24.528  1.00  0.00    -0.051 A 
ATOM     23  C   UNL A   1      35.253  21.336  25.140  1.00  0.00     0.005 A 
ATOM     24  C   UNL A   1      36.405  22.682  23.512  1.00  0.00     0.005 A 
ATOM     25  C   UNL A   1      34.032  21.911  24.763  1.00  0.00     0.026 A 
ATOM     26  C   UNL A   1      35.186  23.253  23.137  1.00  0.00     0.026 A 
ENDBRANCH  17  20
ENDBRANCH  15  16
ENDBRANCH   8  15
ENDBRANCH   5   7
ENDBRANCH   4   5
ENDBRANCH   3   4
ENDBRANCH   2   3
ENDBRANCH   1   2
BRANCH   1  27
ATOM     27  C   UNL A   1      34.246  34.340  29.875  1.00  0.00     0.202 C 
BRANCH  27  28
ATOM     28  C   UNL A   1      35.321  33.928  30.887  1.00  0.00     0.261 C 
BRANCH  28  29
ATOM     29  O   UNL A   1      36.070  32.805  30.380  1.00  0.00    -0.460 OA
BRANCH  29  30
ATOM     30  C   UNL A   1      37.325  33.093  29.949  1.00  0.00     0.338 C 
ATOM     31  O   UNL A   1      37.658  34.176  29.474  1.00  0.00    -0.246 OA
BRANCH  30  32
ATOM     32  C   UNL A   1      38.200  31.900  30.094  1.00  0.00     0.060 A 
ATOM     33  C   UNL A   1      37.860  30.846  30.962  1.00  0.00     0.016 A 
ATOM     34  C   UNL A   1      39.458  31.921  29.493  1.00  0.00     0.016 A 
ATOM     35  C   UNL A   1      38.814  29.865  31.298  1.00  0.00     0.010 A 
ATOM     36  C   UNL A   1      40.408  30.996  29.874  1.00  0.00     0.010 A 
ATOM     37  C   UNL A   1      40.108  29.968  30.785  1.00  0.00    -0.014 A 
BRANCH  37  38
ATOM     38  C   UNL A   1      41.279  29.173  31.180  1.00  0.00     0.031 A 
ATOM     39  C   UNL A   1      41.561  27.902  30.464  1.00  0.00     0.074 A 
ATOM     40  C   UNL A   1      42.277  29.748  31.893  1.00  0.00     0.049 A 
ATOM     41  N   UNL A   1      42.551  27.124  30.740  1.00  0.00    -0.248 NA
ATOM     42  C   UNL A   1      40.721  27.364  29.395  1.00  0.00     0.031 C 
ATOM     43  C   UNL A   1      43.709  29.446  31.818  1.00  0.00     0.029 A 
ATOM     44  N   UNL A   1      42.217  30.755  32.863  1.00  0.00    -0.354 N 
ATOM     45  C   UNL A   1      42.709  26.255  29.687  1.00  0.00     0.074 A 
ATOM     46  C   UNL A   1      41.456  26.326  28.981  1.00  0.00     0.031 C 
ATOM     47  C   UNL A   1      44.348  30.036  32.840  1.00  0.00     0.029 A 
ATOM     48  C   UNL A   1      43.337  30.620  33.699  1.00  0.00     0.049 A 
ATOM     49  H   UNL A   1      41.513  31.438  32.945  1.00  0.00     0.167 HD
ATOM     50  C   UNL A   1      43.945  25.711  29.476  1.00  0.00     0.037 A 
ATOM     51  C   UNL A   1      43.186  30.405  35.034  1.00  0.00     0.037 A 
ATOM     52  C   UNL A   1      44.824  25.971  30.633  1.00  0.00     0.049 A 
ATOM     53  C   UNL A   1      43.719  29.046  35.396  1.00  0.00     0.074 A 
ATOM     54  C   UNL A   1      45.974  26.719  30.822  1.00  0.00     0.029 A 
ATOM     55  N   UNL A   1      44.390  25.609  31.916  1.00  0.00    -0.354 N 
ATOM     56  N   UNL A   1      43.925  28.117  34.499  1.00  0.00    -0.248 NA
ATOM     57  C   UNL A   1      44.148  28.627  36.725  1.00  0.00     0.031 C 
ATOM     58  C   UNL A   1      46.167  26.884  32.226  1.00  0.00     0.029 A 
ATOM     59  C   UNL A   1      45.161  26.204  32.897  1.00  0.00     0.049 A 
ATOM     60  H   UNL A   1      43.633  25.007  32.095  1.00  0.00     0.167 HD
ATOM     61  C   UNL A   1      44.532  27.040  35.063  1.00  0.00     0.074 A 
ATOM     62  C   UNL A   1      44.632  27.396  36.469  1.00  0.00     0.031 C 
ATOM     63  C   UNL A   1      44.909  25.958  34.320  1.00  0.00     0.037 A 
BRANCH  50  64
ATOM     64  C   UNL A   1      44.433  25.092  28.160  1.00  0.00     0.058 A 
ATOM     65  C   UNL A   1      44.946  23.773  28.129  1.00  0.00     0.135 A 
ATOM     66  C   UNL A   1      44.506  25.753  26.912  1.00  0.00     0.135 A 
ATOM     67  F   UNL A   1      44.991  23.019  29.237  1.00  0.00    -0.206 F 
ATOM     68  C   UNL A   1      45.459  23.167  26.970  1.00  0.00     0.059 A 
ATOM     69  C   UNL A   1      44.968  25.155  25.734  1.00  0.00     0.059 A 
ATOM     70  F   UNL A   1      44.187  27.040  26.756  1.00  0.00    -0.206 F 
ATOM     71  C   UNL A   1      45.453  23.862  25.769  1.00  0.00     0.060 A 
BRANCH  71  72
ATOM     72  S   UNL A   1      46.081  23.080  24.269  1.00  0.00     0.124 S 
ATOM     73  O   UNL A   1      47.100  24.029  23.834  1.00  0.00    -0.237 OA
ATOM     74  O   UNL A   1      46.573  21.801  24.769  1.00  0.00    -0.237 OA
ATOM     75  O   UNL A   1      44.903  22.995  23.409  1.00  0.00    -0.744 OA
ENDBRANCH  71  72
ENDBRANCH  50  64
BRANCH  51  76
ATOM     76  C   UNL A   1      42.072  31.214  35.616  1.00  0.00     0.058 A 
ATOM     77  C   UNL A   1      42.249  32.617  35.592  1.00  0.00     0.135 A 
ATOM     78  C   UNL A   1      40.747  30.749  35.645  1.00  0.00     0.135 A 
ATOM     79  F   UNL A   1      43.488  33.133  35.538  1.00  0.00    -0.206 F 
ATOM     80  C   UNL A   1      41.184  33.506  35.443  1.00  0.00     0.059 A 
ATOM     81  C   UNL A   1      39.662  31.625  35.478  1.00  0.00     0.059 A 
ATOM     82  F   UNL A   1      40.495  29.433  35.662  1.00  0.00    -0.206 F 
ATOM     83  C   UNL A   1      39.895  32.995  35.321  1.00  0.00     0.060 A 
BRANCH  83  84
ATOM     84  S   UNL A   1      38.594  34.074  34.637  1.00  0.00     0.124 S 
ATOM     85  O   UNL A   1      38.502  33.606  33.261  1.00  0.00    -0.237 OA
ATOM     86  O   UNL A   1      37.441  33.775  35.486  1.00  0.00    -0.237 OA
ATOM     87  O   UNL A   1      39.150  35.407  34.835  1.00  0.00    -0.744 OA
ENDBRANCH  83  84
ENDBRANCH  51  76
BRANCH  63  88
ATOM     88  C   UNL A   1      45.163  24.586  34.894  1.00  0.00     0.058 A 
ATOM     89  C   UNL A   1      44.276  23.506  34.742  1.00  0.00     0.135 A 
ATOM     90  C   UNL A   1      46.415  24.268  35.474  1.00  0.00     0.135 A 
ATOM     91  F   UNL A   1      43.109  23.637  34.097  1.00  0.00    -0.206 F 
ATOM     92  C   UNL A   1      44.571  22.225  35.200  1.00  0.00     0.059 A 
ATOM     93  C   UNL A   1      46.756  22.981  35.879  1.00  0.00     0.059 A 
ATOM     94  F   UNL A   1      47.368  25.196  35.645  1.00  0.00    -0.206 F 
ATOM     95  C   UNL A   1      45.814  21.970  35.765  1.00  0.00     0.060 A 
BRANCH  95  96
ATOM     96  S   UNL A   1      46.210  20.297  36.292  1.00  0.00     0.124 S 
ATOM     97  O   UNL A   1      45.854  20.350  37.707  1.00  0.00    -0.237 OA
ATOM     98  O   UNL A   1      45.338  19.483  35.452  1.00  0.00    -0.237 OA
ATOM     99  O   UNL A   1      47.636  20.181  36.002  1.00  0.00    -0.744 OA
ENDBRANCH  95  96
ENDBRANCH  63  88
ENDBRANCH  37  38
ENDBRANCH  30  32
ENDBRANCH  29  30
ENDBRANCH  28  29
ENDBRANCH  27  28
ENDBRANCH   1  27
TORSDOF 20
ENDMDL
