MODEL 1
REMARK VINA RESULT:      -9.0      0.000      0.000
REMARK SMILES C[C@@H](CCCO)Nc1ccc(C(=O)OCCOCCOC(=O)c2ccc(-c3c4nc(c(-c5c(F)cc(S(=O)(=O)[O-])cc5F)c5ccc([nH]5)c(-c5c(F)cc(S(=O)(=O)[O-])cc5F)c5nc(c(-c6c(F)cc(S(=O)(=O)[O-])cc6F)c6ccc3[nH]6)C=C5)C=C4)cc2)o1
REMARK SMILES IDX 15 1 14 2 12 3 13 4 11 5 8 6 9 7 89 8 10 9 7 10 2 12 1 13
REMARK SMILES IDX 3 14 4 15 5 16 6 17 16 19 17 20 18 21 19 22 20 23 21 24
REMARK SMILES IDX 22 25 23 26 24 27 88 28 25 29 87 30 26 31 27 32 28 33 81 34
REMARK SMILES IDX 29 35 86 36 80 37 82 38 30 39 85 40 79 41 78 42 31 44 65 45
REMARK SMILES IDX 44 46 64 47 45 48 48 49 63 50 83 51 46 52 47 53 62 55 84 56
REMARK SMILES IDX 49 57 32 58 33 59 42 60 34 61 35 62 41 63 43 64 36 65 37 66
REMARK SMILES IDX 38 67 39 68 40 69 66 70 67 71 76 72 68 73 69 74 75 75 77 76
REMARK SMILES IDX 70 77 71 78 72 79 73 80 74 81 50 82 51 83 60 84 52 85 53 86
REMARK SMILES IDX 59 87 61 88 54 89 55 90 56 91 57 92 58 93
REMARK H PARENT 7 11 6 18 82 43 48 54
REMARK Flexibility Score: inf
ROOT
ATOM      1  C   UNL A   1      33.079  35.068  28.709  1.00  0.00     0.261 C 
ENDROOT
BRANCH   1   2
ATOM      2  O   UNL A   1      32.605  35.117  30.065  1.00  0.00    -0.457 OA
BRANCH   2   3
ATOM      3  C   UNL A   1      33.101  36.135  30.823  1.00  0.00     0.374 C 
ATOM      4  O   UNL A   1      32.894  37.327  30.621  1.00  0.00    -0.242 OA
BRANCH   3   5
ATOM      5  C   UNL A   1      33.815  35.594  31.955  1.00  0.00     0.214 A 
ATOM      6  C   UNL A   1      34.954  34.016  32.970  1.00  0.00     0.194 A 
ATOM      7  C   UNL A   1      34.872  35.054  33.866  1.00  0.00     0.070 A 
ATOM      8  O   UNL A   1      34.339  34.340  31.813  1.00  0.00    -0.434 OA
ATOM      9  C   UNL A   1      34.161  36.090  33.201  1.00  0.00     0.060 A 
BRANCH   6  10
ATOM     10  N   UNL A   1      35.471  32.777  32.993  1.00  0.00    -0.354 N 
ATOM     11  H   UNL A   1      34.939  32.027  33.347  1.00  0.00     0.163 HD
BRANCH  10  12
ATOM     12  C   UNL A   1      36.821  32.540  32.492  1.00  0.00     0.079 C 
ATOM     13  C   UNL A   1      37.402  33.868  32.002  1.00  0.00     0.031 C 
BRANCH  12  14
ATOM     14  C   UNL A   1      37.697  31.852  33.545  1.00  0.00     0.027 C 
BRANCH  14  15
ATOM     15  C   UNL A   1      37.484  32.248  35.012  1.00  0.00     0.030 C 
BRANCH  15  16
ATOM     16  C   UNL A   1      38.390  31.562  36.029  1.00  0.00     0.156 C 
BRANCH  16  17
ATOM     17  O   UNL A   1      37.780  30.395  36.555  1.00  0.00    -0.396 OA
ATOM     18  H   UNL A   1      37.636  30.508  37.507  1.00  0.00     0.210 HD
ENDBRANCH  16  17
ENDBRANCH  15  16
ENDBRANCH  14  15
ENDBRANCH  12  14
ENDBRANCH  10  12
ENDBRANCH   6  10
ENDBRANCH   3   5
ENDBRANCH   2   3
ENDBRANCH   1   2
BRANCH   1  19
ATOM     19  C   UNL A   1      33.627  33.673  28.392  1.00  0.00     0.202 C 
BRANCH  19  20
ATOM     20  O   UNL A   1      35.041  33.633  28.179  1.00  0.00    -0.374 OA
BRANCH  20  21
ATOM     21  C   UNL A   1      35.617  32.337  27.998  1.00  0.00     0.202 C 
BRANCH  21  22
ATOM     22  C   UNL A   1      35.606  31.445  29.244  1.00  0.00     0.261 C 
BRANCH  22  23
ATOM     23  O   UNL A   1      36.103  30.129  28.936  1.00  0.00    -0.460 OA
BRANCH  23  24
ATOM     24  C   UNL A   1      36.888  29.578  29.893  1.00  0.00     0.338 C 
ATOM     25  O   UNL A   1      36.574  29.328  31.045  1.00  0.00    -0.246 OA
BRANCH  24  26
ATOM     26  C   UNL A   1      38.169  29.138  29.301  1.00  0.00     0.060 A 
ATOM     27  C   UNL A   1      39.110  28.569  30.167  1.00  0.00     0.016 A 
ATOM     28  C   UNL A   1      38.468  29.311  27.947  1.00  0.00     0.016 A 
ATOM     29  C   UNL A   1      40.373  28.222  29.694  1.00  0.00     0.010 A 
ATOM     30  C   UNL A   1      39.741  28.966  27.474  1.00  0.00     0.010 A 
ATOM     31  C   UNL A   1      40.710  28.452  28.354  1.00  0.00    -0.014 A 
BRANCH  31  32
ATOM     32  C   UNL A   1      42.120  28.281  27.923  1.00  0.00     0.031 A 
ATOM     33  C   UNL A   1      43.068  29.443  28.038  1.00  0.00     0.074 A 
ATOM     34  C   UNL A   1      42.563  27.088  27.487  1.00  0.00     0.049 A 
ATOM     35  N   UNL A   1      44.344  29.502  27.758  1.00  0.00    -0.248 NA
ATOM     36  C   UNL A   1      42.501  30.706  28.539  1.00  0.00     0.031 C 
ATOM     37  C   UNL A   1      41.750  25.879  27.358  1.00  0.00     0.029 A 
ATOM     38  N   UNL A   1      43.813  26.698  27.077  1.00  0.00    -0.354 N 
ATOM     39  C   UNL A   1      44.736  30.803  28.054  1.00  0.00     0.074 A 
ATOM     40  C   UNL A   1      43.553  31.509  28.498  1.00  0.00     0.031 C 
ATOM     41  C   UNL A   1      42.524  24.880  26.902  1.00  0.00     0.029 A 
ATOM     42  C   UNL A   1      43.881  25.383  26.688  1.00  0.00     0.049 A 
ATOM     43  H   UNL A   1      44.588  27.304  27.063  1.00  0.00     0.167 HD
ATOM     44  C   UNL A   1      45.970  31.356  27.976  1.00  0.00     0.037 A 
ATOM     45  C   UNL A   1      44.918  24.667  26.208  1.00  0.00     0.037 A 
ATOM     46  C   UNL A   1      47.145  30.656  27.526  1.00  0.00     0.049 A 
ATOM     47  C   UNL A   1      46.267  25.321  26.070  1.00  0.00     0.074 A 
ATOM     48  C   UNL A   1      48.443  31.126  27.422  1.00  0.00     0.029 A 
ATOM     49  N   UNL A   1      47.164  29.337  27.097  1.00  0.00    -0.354 N 
ATOM     50  N   UNL A   1      46.627  26.545  26.375  1.00  0.00    -0.248 NA
ATOM     51  C   UNL A   1      47.352  24.493  25.525  1.00  0.00     0.031 C 
ATOM     52  C   UNL A   1      49.238  30.103  26.893  1.00  0.00     0.029 A 
ATOM     53  C   UNL A   1      48.445  28.983  26.706  1.00  0.00     0.049 A 
ATOM     54  H   UNL A   1      46.381  28.740  27.074  1.00  0.00     0.167 HD
ATOM     55  C   UNL A   1      47.984  26.627  26.078  1.00  0.00     0.074 A 
ATOM     56  C   UNL A   1      48.382  25.326  25.581  1.00  0.00     0.031 C 
ATOM     57  C   UNL A   1      48.825  27.685  26.206  1.00  0.00     0.037 A 
BRANCH  44  58
ATOM     58  C   UNL A   1      46.101  32.801  28.370  1.00  0.00     0.058 A 
ATOM     59  C   UNL A   1      46.378  33.180  29.694  1.00  0.00     0.135 A 
ATOM     60  C   UNL A   1      45.950  33.818  27.414  1.00  0.00     0.135 A 
ATOM     61  F   UNL A   1      46.512  32.247  30.649  1.00  0.00    -0.206 F 
ATOM     62  C   UNL A   1      46.467  34.518  30.062  1.00  0.00     0.059 A 
ATOM     63  C   UNL A   1      46.060  35.162  27.757  1.00  0.00     0.059 A 
ATOM     64  F   UNL A   1      45.684  33.509  26.135  1.00  0.00    -0.206 F 
ATOM     65  C   UNL A   1      46.300  35.503  29.087  1.00  0.00     0.060 A 
BRANCH  65  66
ATOM     66  S   UNL A   1      46.399  37.237  29.581  1.00  0.00     0.124 S 
ATOM     67  O   UNL A   1      46.990  37.125  30.912  1.00  0.00    -0.237 OA
ATOM     68  O   UNL A   1      47.262  37.808  28.552  1.00  0.00    -0.237 OA
ATOM     69  O   UNL A   1      45.009  37.678  29.546  1.00  0.00    -0.744 OA
ENDBRANCH  65  66
ENDBRANCH  44  58
BRANCH  45  70
ATOM     70  C   UNL A   1      44.721  23.245  25.827  1.00  0.00     0.058 A 
ATOM     71  C   UNL A   1      44.746  22.846  24.483  1.00  0.00     0.135 A 
ATOM     72  C   UNL A   1      44.509  22.257  26.801  1.00  0.00     0.135 A 
ATOM     73  F   UNL A   1      44.933  23.757  23.516  1.00  0.00    -0.206 F 
ATOM     74  C   UNL A   1      44.563  21.517  24.115  1.00  0.00     0.059 A 
ATOM     75  C   UNL A   1      44.344  20.919  26.459  1.00  0.00     0.059 A 
ATOM     76  F   UNL A   1      44.484  22.588  28.101  1.00  0.00    -0.206 F 
ATOM     77  C   UNL A   1      44.365  20.559  25.112  1.00  0.00     0.060 A 
BRANCH  77  78
ATOM     78  S   UNL A   1      44.192  18.827  24.630  1.00  0.00     0.124 S 
ATOM     79  O   UNL A   1      42.826  18.541  25.050  1.00  0.00    -0.237 OA
ATOM     80  O   UNL A   1      44.420  18.884  23.190  1.00  0.00    -0.237 OA
ATOM     81  O   UNL A   1      45.242  18.162  25.396  1.00  0.00    -0.744 OA
ENDBRANCH  77  78
ENDBRANCH  45  70
BRANCH  57  82
ATOM     82  C   UNL A   1      50.262  27.470  25.819  1.00  0.00     0.058 A 
ATOM     83  C   UNL A   1      51.239  27.138  26.771  1.00  0.00     0.135 A 
ATOM     84  C   UNL A   1      50.663  27.571  24.477  1.00  0.00     0.135 A 
ATOM     85  F   UNL A   1      50.908  27.032  28.068  1.00  0.00    -0.206 F 
ATOM     86  C   UNL A   1      52.569  26.944  26.412  1.00  0.00     0.059 A 
ATOM     87  C   UNL A   1      51.983  27.359  24.092  1.00  0.00     0.059 A 
ATOM     88  F   UNL A   1      49.767  27.875  23.525  1.00  0.00    -0.206 F 
ATOM     89  C   UNL A   1      52.933  27.062  25.068  1.00  0.00     0.060 A 
BRANCH  89  90
ATOM     90  S   UNL A   1      54.659  26.800  24.609  1.00  0.00     0.124 S 
ATOM     91  O   UNL A   1      55.346  27.704  25.525  1.00  0.00    -0.237 OA
ATOM     92  O   UNL A   1      54.842  25.375  24.870  1.00  0.00    -0.237 OA
ATOM     93  O   UNL A   1      54.696  27.181  23.201  1.00  0.00    -0.744 OA
ENDBRANCH  89  90
ENDBRANCH  57  82
ENDBRANCH  31  32
ENDBRANCH  24  26
ENDBRANCH  23  24
ENDBRANCH  22  23
ENDBRANCH  21  22
ENDBRANCH  20  21
ENDBRANCH  19  20
ENDBRANCH   1  19
TORSDOF 23
ENDMDL
MODEL 2
REMARK VINA RESULT:      -8.9      6.252     13.945
REMARK SMILES C[C@@H](CCCO)Nc1ccc(C(=O)OCCOCCOC(=O)c2ccc(-c3c4nc(c(-c5c(F)cc(S(=O)(=O)[O-])cc5F)c5ccc([nH]5)c(-c5c(F)cc(S(=O)(=O)[O-])cc5F)c5nc(c(-c6c(F)cc(S(=O)(=O)[O-])cc6F)c6ccc3[nH]6)C=C5)C=C4)cc2)o1
REMARK SMILES IDX 15 1 14 2 12 3 13 4 11 5 8 6 9 7 89 8 10 9 7 10 2 12 1 13
REMARK SMILES IDX 3 14 4 15 5 16 6 17 16 19 17 20 18 21 19 22 20 23 21 24
REMARK SMILES IDX 22 25 23 26 24 27 88 28 25 29 87 30 26 31 27 32 28 33 81 34
REMARK SMILES IDX 29 35 86 36 80 37 82 38 30 39 85 40 79 41 78 42 31 44 65 45
REMARK SMILES IDX 44 46 64 47 45 48 48 49 63 50 83 51 46 52 47 53 62 55 84 56
REMARK SMILES IDX 49 57 32 58 33 59 42 60 34 61 35 62 41 63 43 64 36 65 37 66
REMARK SMILES IDX 38 67 39 68 40 69 66 70 67 71 76 72 68 73 69 74 75 75 77 76
REMARK SMILES IDX 70 77 71 78 72 79 73 80 74 81 50 82 51 83 60 84 52 85 53 86
REMARK SMILES IDX 59 87 61 88 54 89 55 90 56 91 57 92 58 93
REMARK H PARENT 7 11 6 18 82 43 48 54
REMARK Flexibility Score: inf
ROOT
ATOM      1  C   UNL A   1      43.159  23.818  28.534  1.00  0.00     0.261 C 
ENDROOT
BRANCH   1   2
ATOM      2  O   UNL A   1      44.293  22.994  28.215  1.00  0.00    -0.457 OA
BRANCH   2   3
ATOM      3  C   UNL A   1      45.283  23.607  27.507  1.00  0.00     0.374 C 
ATOM      4  O   UNL A   1      46.102  24.389  27.977  1.00  0.00    -0.242 OA
BRANCH   3   5
ATOM      5  C   UNL A   1      45.284  23.115  26.150  1.00  0.00     0.214 A 
ATOM      6  C   UNL A   1      45.938  21.731  24.577  1.00  0.00     0.194 A 
ATOM      7  C   UNL A   1      45.051  22.590  23.975  1.00  0.00     0.070 A 
ATOM      8  O   UNL A   1      46.068  22.027  25.887  1.00  0.00    -0.434 OA
ATOM      9  C   UNL A   1      44.602  23.468  24.998  1.00  0.00     0.060 A 
BRANCH   6  10
ATOM     10  N   UNL A   1      46.703  20.708  24.163  1.00  0.00    -0.354 N 
ATOM     11  H   UNL A   1      47.594  20.881  23.782  1.00  0.00     0.163 HD
BRANCH  10  12
ATOM     12  C   UNL A   1      46.214  19.338  24.279  1.00  0.00     0.079 C 
ATOM     13  C   UNL A   1      46.557  18.811  25.673  1.00  0.00     0.031 C 
BRANCH  12  14
ATOM     14  C   UNL A   1      44.718  19.246  23.953  1.00  0.00     0.027 C 
BRANCH  14  15
ATOM     15  C   UNL A   1      43.798  18.638  25.020  1.00  0.00     0.030 C 
BRANCH  15  16
ATOM     16  C   UNL A   1      42.972  19.628  25.835  1.00  0.00     0.156 C 
BRANCH  16  17
ATOM     17  O   UNL A   1      42.280  18.975  26.887  1.00  0.00    -0.396 OA
ATOM     18  H   UNL A   1      42.469  19.425  27.725  1.00  0.00     0.210 HD
ENDBRANCH  16  17
ENDBRANCH  15  16
ENDBRANCH  14  15
ENDBRANCH  12  14
ENDBRANCH  10  12
ENDBRANCH   6  10
ENDBRANCH   3   5
ENDBRANCH   2   3
ENDBRANCH   1   2
BRANCH   1  19
ATOM     19  C   UNL A   1      41.924  22.944  28.774  1.00  0.00     0.202 C 
BRANCH  19  20
ATOM     20  O   UNL A   1      41.699  21.957  27.764  1.00  0.00    -0.374 OA
BRANCH  20  21
ATOM     21  C   UNL A   1      40.615  22.205  26.866  1.00  0.00     0.202 C 
BRANCH  21  22
ATOM     22  C   UNL A   1      39.728  23.398  27.237  1.00  0.00     0.261 C 
BRANCH  22  23
ATOM     23  O   UNL A   1      39.744  24.391  26.196  1.00  0.00    -0.460 OA
BRANCH  23  24
ATOM     24  C   UNL A   1      40.770  25.275  26.266  1.00  0.00     0.338 C 
ATOM     25  O   UNL A   1      41.708  25.373  25.494  1.00  0.00    -0.246 OA
BRANCH  24  26
ATOM     26  C   UNL A   1      40.512  26.259  27.339  1.00  0.00     0.060 A 
ATOM     27  C   UNL A   1      41.314  27.407  27.357  1.00  0.00     0.016 A 
ATOM     28  C   UNL A   1      39.548  26.055  28.330  1.00  0.00     0.016 A 
ATOM     29  C   UNL A   1      41.191  28.328  28.395  1.00  0.00     0.010 A 
ATOM     30  C   UNL A   1      39.429  26.980  29.375  1.00  0.00     0.010 A 
ATOM     31  C   UNL A   1      40.275  28.102  29.430  1.00  0.00    -0.014 A 
BRANCH  31  32
ATOM     32  C   UNL A   1      40.310  28.974  30.631  1.00  0.00     0.031 A 
ATOM     33  C   UNL A   1      39.328  30.107  30.743  1.00  0.00     0.074 A 
ATOM     34  C   UNL A   1      41.170  28.724  31.635  1.00  0.00     0.049 A 
ATOM     35  N   UNL A   1      39.158  30.963  31.716  1.00  0.00    -0.248 NA
ATOM     36  C   UNL A   1      38.414  30.299  29.605  1.00  0.00     0.031 C 
ATOM     37  C   UNL A   1      42.150  27.638  31.658  1.00  0.00     0.029 A 
ATOM     38  N   UNL A   1      41.351  29.366  32.833  1.00  0.00    -0.354 N 
ATOM     39  C   UNL A   1      38.115  31.791  31.315  1.00  0.00     0.074 A 
ATOM     40  C   UNL A   1      37.718  31.357  29.991  1.00  0.00     0.031 C 
ATOM     41  C   UNL A   1      42.828  27.689  32.817  1.00  0.00     0.029 A 
ATOM     42  C   UNL A   1      42.345  28.820  33.607  1.00  0.00     0.049 A 
ATOM     43  H   UNL A   1      40.818  30.145  33.112  1.00  0.00     0.167 HD
ATOM     44  C   UNL A   1      37.532  32.810  31.990  1.00  0.00     0.037 A 
ATOM     45  C   UNL A   1      42.816  29.195  34.814  1.00  0.00     0.037 A 
ATOM     46  C   UNL A   1      37.931  33.246  33.302  1.00  0.00     0.049 A 
ATOM     47  C   UNL A   1      42.195  30.371  35.518  1.00  0.00     0.074 A 
ATOM     48  C   UNL A   1      37.395  34.262  34.074  1.00  0.00     0.029 A 
ATOM     49  N   UNL A   1      38.973  32.697  34.035  1.00  0.00    -0.354 N 
ATOM     50  N   UNL A   1      41.194  31.129  35.136  1.00  0.00    -0.248 NA
ATOM     51  C   UNL A   1      42.764  30.739  36.823  1.00  0.00     0.031 C 
ATOM     52  C   UNL A   1      38.138  34.352  35.258  1.00  0.00     0.029 A 
ATOM     53  C   UNL A   1      39.111  33.367  35.240  1.00  0.00     0.049 A 
ATOM     54  H   UNL A   1      39.533  31.942  33.742  1.00  0.00     0.167 HD
ATOM     55  C   UNL A   1      41.003  32.051  36.160  1.00  0.00     0.074 A 
ATOM     56  C   UNL A   1      41.981  31.747  37.184  1.00  0.00     0.031 C 
ATOM     57  C   UNL A   1      40.096  33.058  36.247  1.00  0.00     0.037 A 
BRANCH  44  58
ATOM     58  C   UNL A   1      36.408  33.534  31.303  1.00  0.00     0.058 A 
ATOM     59  C   UNL A   1      35.083  33.440  31.762  1.00  0.00     0.135 A 
ATOM     60  C   UNL A   1      36.657  34.332  30.175  1.00  0.00     0.135 A 
ATOM     61  F   UNL A   1      34.789  32.676  32.825  1.00  0.00    -0.206 F 
ATOM     62  C   UNL A   1      34.040  34.086  31.106  1.00  0.00     0.059 A 
ATOM     63  C   UNL A   1      35.631  35.006  29.518  1.00  0.00     0.059 A 
ATOM     64  F   UNL A   1      37.905  34.454  29.695  1.00  0.00    -0.206 F 
ATOM     65  C   UNL A   1      34.324  34.862  29.980  1.00  0.00     0.060 A 
BRANCH  65  66
ATOM     66  S   UNL A   1      32.959  35.679  29.126  1.00  0.00     0.124 S 
ATOM     67  O   UNL A   1      32.423  34.583  28.323  1.00  0.00    -0.237 OA
ATOM     68  O   UNL A   1      32.117  36.123  30.232  1.00  0.00    -0.237 OA
ATOM     69  O   UNL A   1      33.618  36.743  28.376  1.00  0.00    -0.744 OA
ENDBRANCH  65  66
ENDBRANCH  44  58
BRANCH  45  70
ATOM     70  C   UNL A   1      43.937  28.443  35.435  1.00  0.00     0.058 A 
ATOM     71  C   UNL A   1      43.695  27.402  36.343  1.00  0.00     0.135 A 
ATOM     72  C   UNL A   1      45.272  28.747  35.128  1.00  0.00     0.135 A 
ATOM     73  F   UNL A   1      42.435  27.083  36.677  1.00  0.00    -0.206 F 
ATOM     74  C   UNL A   1      44.736  26.692  36.930  1.00  0.00     0.059 A 
ATOM     75  C   UNL A   1      46.330  28.037  35.686  1.00  0.00     0.059 A 
ATOM     76  F   UNL A   1      45.556  29.730  34.258  1.00  0.00    -0.206 F 
ATOM     77  C   UNL A   1      46.052  27.015  36.593  1.00  0.00     0.060 A 
BRANCH  77  78
ATOM     78  S   UNL A   1      47.396  26.046  37.310  1.00  0.00     0.124 S 
ATOM     79  O   UNL A   1      46.741  24.765  37.547  1.00  0.00    -0.237 OA
ATOM     80  O   UNL A   1      48.393  26.067  36.245  1.00  0.00    -0.237 OA
ATOM     81  O   UNL A   1      47.752  26.805  38.506  1.00  0.00    -0.744 OA
ENDBRANCH  77  78
ENDBRANCH  45  70
BRANCH  57  82
ATOM     82  C   UNL A   1      40.112  33.890  37.499  1.00  0.00     0.058 A 
ATOM     83  C   UNL A   1      39.307  33.573  38.604  1.00  0.00     0.135 A 
ATOM     84  C   UNL A   1      40.961  35.003  37.605  1.00  0.00     0.135 A 
ATOM     85  F   UNL A   1      38.474  32.521  38.552  1.00  0.00    -0.206 F 
ATOM     86  C   UNL A   1      39.319  34.347  39.759  1.00  0.00     0.059 A 
ATOM     87  C   UNL A   1      41.008  35.778  38.760  1.00  0.00     0.059 A 
ATOM     88  F   UNL A   1      41.761  35.343  36.582  1.00  0.00    -0.206 F 
ATOM     89  C   UNL A   1      40.171  35.453  39.826  1.00  0.00     0.060 A 
BRANCH  89  90
ATOM     90  S   UNL A   1      40.188  36.447  41.333  1.00  0.00     0.124 S 
ATOM     91  O   UNL A   1      41.184  35.744  42.136  1.00  0.00    -0.237 OA
ATOM     92  O   UNL A   1      40.588  37.762  40.839  1.00  0.00    -0.237 OA
ATOM     93  O   UNL A   1      38.813  36.358  41.813  1.00  0.00    -0.744 OA
ENDBRANCH  89  90
ENDBRANCH  57  82
ENDBRANCH  31  32
ENDBRANCH  24  26
ENDBRANCH  23  24
ENDBRANCH  22  23
ENDBRANCH  21  22
ENDBRANCH  20  21
ENDBRANCH  19  20
ENDBRANCH   1  19
TORSDOF 23
ENDMDL
MODEL 3
REMARK VINA RESULT:      -8.7      6.342     13.354
REMARK SMILES C[C@@H](CCCO)Nc1ccc(C(=O)OCCOCCOC(=O)c2ccc(-c3c4nc(c(-c5c(F)cc(S(=O)(=O)[O-])cc5F)c5ccc([nH]5)c(-c5c(F)cc(S(=O)(=O)[O-])cc5F)c5nc(c(-c6c(F)cc(S(=O)(=O)[O-])cc6F)c6ccc3[nH]6)C=C5)C=C4)cc2)o1
REMARK SMILES IDX 15 1 14 2 12 3 13 4 11 5 8 6 9 7 89 8 10 9 7 10 2 12 1 13
REMARK SMILES IDX 3 14 4 15 5 16 6 17 16 19 17 20 18 21 19 22 20 23 21 24
REMARK SMILES IDX 22 25 23 26 24 27 88 28 25 29 87 30 26 31 27 32 28 33 81 34
REMARK SMILES IDX 29 35 86 36 80 37 82 38 30 39 85 40 79 41 78 42 31 44 65 45
REMARK SMILES IDX 44 46 64 47 45 48 48 49 63 50 83 51 46 52 47 53 62 55 84 56
REMARK SMILES IDX 49 57 32 58 33 59 42 60 34 61 35 62 41 63 43 64 36 65 37 66
REMARK SMILES IDX 38 67 39 68 40 69 66 70 67 71 76 72 68 73 69 74 75 75 77 76
REMARK SMILES IDX 70 77 71 78 72 79 73 80 74 81 50 82 51 83 60 84 52 85 53 86
REMARK SMILES IDX 59 87 61 88 54 89 55 90 56 91 57 92 58 93
REMARK H PARENT 7 11 6 18 82 43 48 54
REMARK Flexibility Score: inf
ROOT
ATOM      1  C   UNL A   1      40.880  22.830  26.870  1.00  0.00     0.261 C 
ENDROOT
BRANCH   1   2
ATOM      2  O   UNL A   1      39.477  22.516  26.880  1.00  0.00    -0.457 OA
BRANCH   2   3
ATOM      3  C   UNL A   1      38.641  23.561  26.622  1.00  0.00     0.374 C 
ATOM      4  O   UNL A   1      38.814  24.712  27.008  1.00  0.00    -0.242 OA
BRANCH   3   5
ATOM      5  C   UNL A   1      37.583  23.129  25.741  1.00  0.00     0.214 A 
ATOM      6  C   UNL A   1      35.686  23.428  24.677  1.00  0.00     0.194 A 
ATOM      7  C   UNL A   1      36.119  22.173  24.325  1.00  0.00     0.070 A 
ATOM      8  O   UNL A   1      36.569  24.017  25.511  1.00  0.00    -0.434 OA
ATOM      9  C   UNL A   1      37.363  21.988  24.988  1.00  0.00     0.060 A 
BRANCH   6  10
ATOM     10  N   UNL A   1      34.601  24.171  24.406  1.00  0.00    -0.354 N 
ATOM     11  H   UNL A   1      34.292  24.273  23.477  1.00  0.00     0.163 HD
BRANCH  10  12
ATOM     12  C   UNL A   1      33.878  24.828  25.490  1.00  0.00     0.079 C 
ATOM     13  C   UNL A   1      33.953  26.342  25.284  1.00  0.00     0.031 C 
BRANCH  12  14
ATOM     14  C   UNL A   1      32.440  24.307  25.602  1.00  0.00     0.027 C 
BRANCH  14  15
ATOM     15  C   UNL A   1      32.248  22.845  26.025  1.00  0.00     0.030 C 
BRANCH  15  16
ATOM     16  C   UNL A   1      33.157  22.347  27.143  1.00  0.00     0.156 C 
BRANCH  16  17
ATOM     17  O   UNL A   1      32.442  22.200  28.359  1.00  0.00    -0.396 OA
ATOM     18  H   UNL A   1      31.644  22.749  28.332  1.00  0.00     0.210 HD
ENDBRANCH  16  17
ENDBRANCH  15  16
ENDBRANCH  14  15
ENDBRANCH  12  14
ENDBRANCH  10  12
ENDBRANCH   6  10
ENDBRANCH   3   5
ENDBRANCH   2   3
ENDBRANCH   1   2
BRANCH   1  19
ATOM     19  C   UNL A   1      41.627  21.879  25.931  1.00  0.00     0.202 C 
BRANCH  19  20
ATOM     20  O   UNL A   1      42.978  21.613  26.319  1.00  0.00    -0.374 OA
BRANCH  20  21
ATOM     21  C   UNL A   1      43.930  22.643  26.040  1.00  0.00     0.202 C 
BRANCH  21  22
ATOM     22  C   UNL A   1      44.187  23.616  27.195  1.00  0.00     0.261 C 
BRANCH  22  23
ATOM     23  O   UNL A   1      44.421  24.947  26.701  1.00  0.00    -0.460 OA
BRANCH  23  24
ATOM     24  C   UNL A   1      43.318  25.587  26.241  1.00  0.00     0.338 C 
ATOM     25  O   UNL A   1      42.758  25.408  25.173  1.00  0.00    -0.246 OA
BRANCH  24  26
ATOM     26  C   UNL A   1      42.751  26.439  27.308  1.00  0.00     0.060 A 
ATOM     27  C   UNL A   1      43.237  27.749  27.405  1.00  0.00     0.016 A 
ATOM     28  C   UNL A   1      41.802  25.968  28.220  1.00  0.00     0.016 A 
ATOM     29  C   UNL A   1      42.818  28.574  28.445  1.00  0.00     0.010 A 
ATOM     30  C   UNL A   1      41.385  26.798  29.269  1.00  0.00     0.010 A 
ATOM     31  C   UNL A   1      41.918  28.092  29.405  1.00  0.00    -0.014 A 
BRANCH  31  32
ATOM     32  C   UNL A   1      41.652  28.904  30.619  1.00  0.00     0.031 A 
ATOM     33  C   UNL A   1      40.485  29.852  30.626  1.00  0.00     0.074 A 
ATOM     34  C   UNL A   1      42.408  28.756  31.722  1.00  0.00     0.049 A 
ATOM     35  N   UNL A   1      40.049  30.624  31.587  1.00  0.00    -0.248 NA
ATOM     36  C   UNL A   1      39.703  29.940  29.382  1.00  0.00     0.031 C 
ATOM     37  C   UNL A   1      43.547  27.847  31.850  1.00  0.00     0.029 A 
ATOM     38  N   UNL A   1      42.324  29.365  32.948  1.00  0.00    -0.354 N 
ATOM     39  C   UNL A   1      38.941  31.284  31.070  1.00  0.00     0.074 A 
ATOM     40  C   UNL A   1      38.794  30.850  29.697  1.00  0.00     0.031 C 
ATOM     41  C   UNL A   1      44.055  27.959  33.089  1.00  0.00     0.029 A 
ATOM     42  C   UNL A   1      43.290  28.958  33.834  1.00  0.00     0.049 A 
ATOM     43  H   UNL A   1      41.635  30.032  33.171  1.00  0.00     0.167 HD
ATOM     44  C   UNL A   1      38.112  32.161  31.685  1.00  0.00     0.037 A 
ATOM     45  C   UNL A   1      43.534  29.352  35.100  1.00  0.00     0.037 A 
ATOM     46  C   UNL A   1      38.262  32.599  33.048  1.00  0.00     0.049 A 
ATOM     47  C   UNL A   1      42.638  30.376  35.743  1.00  0.00     0.074 A 
ATOM     48  C   UNL A   1      37.467  33.477  33.765  1.00  0.00     0.029 A 
ATOM     49  N   UNL A   1      39.281  32.199  33.900  1.00  0.00    -0.354 N 
ATOM     50  N   UNL A   1      41.579  30.973  35.249  1.00  0.00    -0.248 NA
ATOM     51  C   UNL A   1      42.966  30.775  37.119  1.00  0.00     0.031 C 
ATOM     52  C   UNL A   1      38.028  33.636  35.038  1.00  0.00     0.029 A 
ATOM     53  C   UNL A   1      39.149  32.828  35.127  1.00  0.00     0.049 A 
ATOM     54  H   UNL A   1      39.993  31.561  33.666  1.00  0.00     0.167 HD
ATOM     55  C   UNL A   1      41.105  31.804  36.259  1.00  0.00     0.074 A 
ATOM     56  C   UNL A   1      41.984  31.622  37.396  1.00  0.00     0.031 C 
ATOM     57  C   UNL A   1      40.037  32.642  36.248  1.00  0.00     0.037 A 
BRANCH  44  58
ATOM     58  C   UNL A   1      36.976  32.718  30.872  1.00  0.00     0.058 A 
ATOM     59  C   UNL A   1      37.157  33.815  30.012  1.00  0.00     0.135 A 
ATOM     60  C   UNL A   1      35.695  32.149  30.949  1.00  0.00     0.135 A 
ATOM     61  F   UNL A   1      38.357  34.407  29.916  1.00  0.00    -0.206 F 
ATOM     62  C   UNL A   1      36.098  34.349  29.285  1.00  0.00     0.059 A 
ATOM     63  C   UNL A   1      34.628  32.652  30.211  1.00  0.00     0.059 A 
ATOM     64  F   UNL A   1      35.470  31.100  31.756  1.00  0.00    -0.206 F 
ATOM     65  C   UNL A   1      34.835  33.763  29.397  1.00  0.00     0.060 A 
BRANCH  65  66
ATOM     66  S   UNL A   1      33.465  34.477  28.462  1.00  0.00     0.124 S 
ATOM     67  O   UNL A   1      34.143  35.533  27.714  1.00  0.00    -0.237 OA
ATOM     68  O   UNL A   1      32.998  33.343  27.672  1.00  0.00    -0.237 OA
ATOM     69  O   UNL A   1      32.548  34.934  29.501  1.00  0.00    -0.744 OA
ENDBRANCH  65  66
ENDBRANCH  44  58
BRANCH  45  70
ATOM     70  C   UNL A   1      44.679  28.770  35.847  1.00  0.00     0.058 A 
ATOM     71  C   UNL A   1      44.512  27.640  36.662  1.00  0.00     0.135 A 
ATOM     72  C   UNL A   1      45.964  29.328  35.756  1.00  0.00     0.135 A 
ATOM     73  F   UNL A   1      43.301  27.079  36.790  1.00  0.00    -0.206 F 
ATOM     74  C   UNL A   1      45.577  27.087  37.365  1.00  0.00     0.059 A 
ATOM     75  C   UNL A   1      47.048  28.780  36.433  1.00  0.00     0.059 A 
ATOM     76  F   UNL A   1      46.176  30.405  34.983  1.00  0.00    -0.206 F 
ATOM     77  C   UNL A   1      46.843  27.662  37.242  1.00  0.00     0.060 A 
BRANCH  77  78
ATOM     78  S   UNL A   1      48.232  26.900  38.107  1.00  0.00     0.124 S 
ATOM     79  O   UNL A   1      49.368  27.416  37.352  1.00  0.00    -0.237 OA
ATOM     80  O   UNL A   1      48.075  27.421  39.461  1.00  0.00    -0.237 OA
ATOM     81  O   UNL A   1      47.972  25.471  37.961  1.00  0.00    -0.744 OA
ENDBRANCH  77  78
ENDBRANCH  45  70
BRANCH  57  82
ATOM     82  C   UNL A   1      39.752  33.409  37.510  1.00  0.00     0.058 A 
ATOM     83  C   UNL A   1      40.404  34.618  37.799  1.00  0.00     0.135 A 
ATOM     84  C   UNL A   1      38.797  32.943  38.428  1.00  0.00     0.135 A 
ATOM     85  F   UNL A   1      41.329  35.104  36.955  1.00  0.00    -0.206 F 
ATOM     86  C   UNL A   1      40.142  35.323  38.969  1.00  0.00     0.059 A 
ATOM     87  C   UNL A   1      38.502  33.644  39.593  1.00  0.00     0.059 A 
ATOM     88  F   UNL A   1      38.136  31.798  38.194  1.00  0.00    -0.206 F 
ATOM     89  C   UNL A   1      39.192  34.825  39.864  1.00  0.00     0.060 A 
BRANCH  89  90
ATOM     90  S   UNL A   1      38.852  35.751  41.375  1.00  0.00     0.124 S 
ATOM     91  O   UNL A   1      37.428  35.493  41.563  1.00  0.00    -0.237 OA
ATOM     92  O   UNL A   1      39.743  35.117  42.342  1.00  0.00    -0.237 OA
ATOM     93  O   UNL A   1      39.201  37.122  41.018  1.00  0.00    -0.744 OA
ENDBRANCH  89  90
ENDBRANCH  57  82
ENDBRANCH  31  32
ENDBRANCH  24  26
ENDBRANCH  23  24
ENDBRANCH  22  23
ENDBRANCH  21  22
ENDBRANCH  20  21
ENDBRANCH  19  20
ENDBRANCH   1  19
TORSDOF 23
ENDMDL
