MODEL 1
REMARK VINA RESULT:     -10.6      0.000      0.000
REMARK SMILES CC[C@@H]1SC[C@@H](C(=O)OCCOCCOC(=O)c2ccc(-c3c4nc(c(-c5c(F)cc(S(=O)(=O)[O-])cc5F)c5ccc([nH]5)c(-c5c(F)cc(S(=O)(=O)[O-])cc5F)c5nc(c(-c6c(F)cc(S(=O)(=O)[O-])cc6F)c6ccc3[nH]6)C=C5)C=C4)cc2)N1C(=O)c1nc(C(C)(C)C)n[nH]1
REMARK SMILES IDX 12 1 11 2 10 3 9 4 7 5 8 6 6 7 3 8 4 9 84 10 5 11 2 12 1 13
REMARK SMILES IDX 85 14 86 15 87 16 88 17 95 18 89 19 94 20 90 22 91 23 92 24
REMARK SMILES IDX 93 25 13 26 14 27 15 28 16 29 17 30 18 31 19 32 83 33 20 34
REMARK SMILES IDX 82 35 21 36 22 37 23 38 76 39 24 40 81 41 75 42 77 43 25 44
REMARK SMILES IDX 80 45 74 46 73 47 26 49 60 50 39 51 59 52 40 53 43 54 58 55
REMARK SMILES IDX 78 56 41 57 42 58 57 60 79 61 44 62 27 63 28 64 37 65 29 66
REMARK SMILES IDX 30 67 36 68 38 69 31 70 32 71 33 72 34 73 35 74 61 75 62 76
REMARK SMILES IDX 71 77 63 78 64 79 70 80 72 81 65 82 66 83 67 84 68 85 69 86
REMARK SMILES IDX 45 87 46 88 55 89 47 90 48 91 54 92 56 93 49 94 50 95 51 96
REMARK SMILES IDX 52 97 53 98
REMARK H PARENT 95 21 77 48 43 59
REMARK Flexibility Score: inf
ROOT
ATOM      1  O   UNL A   1      32.916  29.683  24.895  1.00  0.00    -0.374 OA
ENDROOT
BRANCH   1   2
ATOM      2  C   UNL A   1      32.446  28.594  24.105  1.00  0.00     0.202 C 
BRANCH   2   3
ATOM      3  C   UNL A   1      33.442  27.939  23.142  1.00  0.00     0.261 C 
BRANCH   3   4
ATOM      4  O   UNL A   1      33.843  26.615  23.541  1.00  0.00    -0.462 OA
BRANCH   4   5
ATOM      5  C   UNL A   1      33.500  25.625  22.673  1.00  0.00     0.329 C 
ATOM      6  O   UNL A   1      33.615  25.694  21.451  1.00  0.00    -0.250 OA
BRANCH   5   7
ATOM      7  C   UNL A   1      32.844  24.406  23.340  1.00  0.00     0.206 C 
ATOM      8  C   UNL A   1      31.987  24.719  25.644  1.00  0.00     0.144 C 
ATOM      9  S   UNL A   1      30.639  25.247  24.517  1.00  0.00    -0.134 SA
ATOM     10  N   UNL A   1      33.038  24.171  24.787  1.00  0.00    -0.309 N 
ATOM     11  C   UNL A   1      31.355  24.481  23.049  1.00  0.00     0.109 C 
BRANCH   8  12
ATOM     12  C   UNL A   1      31.386  23.782  26.712  1.00  0.00     0.033 C 
ATOM     13  C   UNL A   1      30.602  22.578  26.201  1.00  0.00     0.007 C 
ENDBRANCH   8  12
BRANCH  10  14
ATOM     14  C   UNL A   1      34.189  23.493  25.186  1.00  0.00     0.292 C 
ATOM     15  O   UNL A   1      35.134  24.123  25.666  1.00  0.00    -0.265 OA
BRANCH  14  16
ATOM     16  C   UNL A   1      34.353  22.088  24.898  1.00  0.00     0.214 A 
ATOM     17  N   UNL A   1      33.445  21.200  24.532  1.00  0.00    -0.207 NA
ATOM     18  N   UNL A   1      35.531  21.441  25.123  1.00  0.00    -0.255 N 
ATOM     19  C   UNL A   1      34.134  20.000  24.585  1.00  0.00     0.156 A 
ATOM     20  N   UNL A   1      35.435  20.130  24.891  1.00  0.00    -0.158 NA
ATOM     21  H   UNL A   1      36.356  21.887  25.423  1.00  0.00     0.192 HD
BRANCH  19  22
ATOM     22  C   UNL A   1      33.496  18.634  24.451  1.00  0.00     0.024 C 
ATOM     23  C   UNL A   1      32.481  18.662  23.287  1.00  0.00     0.019 C 
ATOM     24  C   UNL A   1      34.535  17.544  24.149  1.00  0.00     0.019 C 
ATOM     25  C   UNL A   1      32.751  18.243  25.743  1.00  0.00     0.019 C 
ENDBRANCH  19  22
ENDBRANCH  14  16
ENDBRANCH  10  14
ENDBRANCH   5   7
ENDBRANCH   4   5
ENDBRANCH   3   4
ENDBRANCH   2   3
ENDBRANCH   1   2
BRANCH   1  26
ATOM     26  C   UNL A   1      32.007  30.264  25.829  1.00  0.00     0.202 C 
BRANCH  26  27
ATOM     27  C   UNL A   1      32.598  30.876  27.107  1.00  0.00     0.261 C 
BRANCH  27  28
ATOM     28  O   UNL A   1      33.720  30.131  27.617  1.00  0.00    -0.460 OA
BRANCH  28  29
ATOM     29  C   UNL A   1      34.638  30.878  28.276  1.00  0.00     0.338 C 
ATOM     30  O   UNL A   1      34.444  31.942  28.856  1.00  0.00    -0.246 OA
BRANCH  29  31
ATOM     31  C   UNL A   1      35.925  30.165  28.379  1.00  0.00     0.060 A 
ATOM     32  C   UNL A   1      36.271  29.629  29.627  1.00  0.00     0.016 A 
ATOM     33  C   UNL A   1      36.827  30.120  27.316  1.00  0.00     0.016 A 
ATOM     34  C   UNL A   1      37.547  29.109  29.833  1.00  0.00     0.010 A 
ATOM     35  C   UNL A   1      38.115  29.616  27.530  1.00  0.00     0.010 A 
ATOM     36  C   UNL A   1      38.492  29.146  28.800  1.00  0.00    -0.014 A 
BRANCH  36  37
ATOM     37  C   UNL A   1      39.909  28.823  29.093  1.00  0.00     0.031 A 
ATOM     38  C   UNL A   1      40.778  29.865  29.744  1.00  0.00     0.074 A 
ATOM     39  C   UNL A   1      40.405  27.607  28.805  1.00  0.00     0.049 A 
ATOM     40  N   UNL A   1      42.045  29.805  30.063  1.00  0.00    -0.248 NA
ATOM     41  C   UNL A   1      40.132  31.144  30.079  1.00  0.00     0.031 C 
ATOM     42  C   UNL A   1      39.648  26.510  28.205  1.00  0.00     0.029 A 
ATOM     43  N   UNL A   1      41.667  27.096  28.972  1.00  0.00    -0.354 N 
ATOM     44  C   UNL A   1      42.351  31.037  30.631  1.00  0.00     0.074 A 
ATOM     45  C   UNL A   1      41.143  31.834  30.590  1.00  0.00     0.031 C 
ATOM     46  C   UNL A   1      40.467  25.456  28.039  1.00  0.00     0.029 A 
ATOM     47  C   UNL A   1      41.809  25.815  28.495  1.00  0.00     0.049 A 
ATOM     48  H   UNL A   1      42.401  27.600  29.392  1.00  0.00     0.167 HD
ATOM     49  C   UNL A   1      43.530  31.461  31.146  1.00  0.00     0.037 A 
ATOM     50  C   UNL A   1      42.903  25.032  28.418  1.00  0.00     0.037 A 
ATOM     51  C   UNL A   1      44.727  30.663  31.183  1.00  0.00     0.049 A 
ATOM     52  C   UNL A   1      44.216  25.544  28.947  1.00  0.00     0.074 A 
ATOM     53  C   UNL A   1      45.968  30.993  31.700  1.00  0.00     0.029 A 
ATOM     54  N   UNL A   1      44.837  29.376  30.675  1.00  0.00    -0.354 N 
ATOM     55  N   UNL A   1      44.486  26.701  29.504  1.00  0.00    -0.248 NA
ATOM     56  C   UNL A   1      45.373  24.642  28.844  1.00  0.00     0.031 C 
ATOM     57  C   UNL A   1      46.839  29.923  31.465  1.00  0.00     0.029 A 
ATOM     58  C   UNL A   1      46.128  28.907  30.847  1.00  0.00     0.049 A 
ATOM     59  H   UNL A   1      44.103  28.870  30.256  1.00  0.00     0.167 HD
ATOM     60  C   UNL A   1      45.835  26.657  29.842  1.00  0.00     0.074 A 
ATOM     61  C   UNL A   1      46.324  25.355  29.434  1.00  0.00     0.031 C 
ATOM     62  C   UNL A   1      46.597  27.604  30.441  1.00  0.00     0.037 A 
BRANCH  49  63
ATOM     63  C   UNL A   1      43.590  32.864  31.687  1.00  0.00     0.058 A 
ATOM     64  C   UNL A   1      43.764  33.974  30.846  1.00  0.00     0.135 A 
ATOM     65  C   UNL A   1      43.439  33.102  33.062  1.00  0.00     0.135 A 
ATOM     66  F   UNL A   1      43.930  33.803  29.525  1.00  0.00    -0.206 F 
ATOM     67  C   UNL A   1      43.813  35.270  31.353  1.00  0.00     0.059 A 
ATOM     68  C   UNL A   1      43.459  34.390  33.588  1.00  0.00     0.059 A 
ATOM     69  F   UNL A   1      43.269  32.076  33.912  1.00  0.00    -0.206 F 
ATOM     70  C   UNL A   1      43.661  35.468  32.727  1.00  0.00     0.060 A 
BRANCH  70  71
ATOM     71  S   UNL A   1      43.728  37.153  33.370  1.00  0.00     0.124 S 
ATOM     72  O   UNL A   1      42.489  37.220  34.139  1.00  0.00    -0.237 OA
ATOM     73  O   UNL A   1      44.959  37.142  34.152  1.00  0.00    -0.237 OA
ATOM     74  O   UNL A   1      43.762  37.976  32.165  1.00  0.00    -0.744 OA
ENDBRANCH  70  71
ENDBRANCH  49  63
BRANCH  50  75
ATOM     75  C   UNL A   1      42.799  23.681  27.805  1.00  0.00     0.058 A 
ATOM     76  C   UNL A   1      42.524  22.548  28.583  1.00  0.00     0.135 A 
ATOM     77  C   UNL A   1      42.960  23.501  26.421  1.00  0.00     0.135 A 
ATOM     78  F   UNL A   1      42.373  22.668  29.910  1.00  0.00    -0.206 F 
ATOM     79  C   UNL A   1      42.420  21.283  28.016  1.00  0.00     0.059 A 
ATOM     80  C   UNL A   1      42.836  22.250  25.827  1.00  0.00     0.059 A 
ATOM     81  F   UNL A   1      43.214  24.556  25.631  1.00  0.00    -0.206 F 
ATOM     82  C   UNL A   1      42.573  21.144  26.634  1.00  0.00     0.060 A 
BRANCH  82  83
ATOM     83  S   UNL A   1      42.378  19.506  25.899  1.00  0.00     0.124 S 
ATOM     84  O   UNL A   1      40.940  19.459  25.664  1.00  0.00    -0.237 OA
ATOM     85  O   UNL A   1      43.217  19.603  24.708  1.00  0.00    -0.237 OA
ATOM     86  O   UNL A   1      42.879  18.611  26.938  1.00  0.00    -0.744 OA
ENDBRANCH  82  83
ENDBRANCH  50  75
BRANCH  62  87
ATOM     87  C   UNL A   1      48.033  27.262  30.728  1.00  0.00     0.058 A 
ATOM     88  C   UNL A   1      49.032  27.383  29.750  1.00  0.00     0.135 A 
ATOM     89  C   UNL A   1      48.424  26.865  32.018  1.00  0.00     0.135 A 
ATOM     90  F   UNL A   1      48.711  27.753  28.499  1.00  0.00    -0.206 F 
ATOM     91  C   UNL A   1      50.365  27.104  30.035  1.00  0.00     0.059 A 
ATOM     92  C   UNL A   1      49.754  26.606  32.331  1.00  0.00     0.059 A 
ATOM     93  F   UNL A   1      47.509  26.744  32.993  1.00  0.00    -0.206 F 
ATOM     94  C   UNL A   1      50.717  26.718  31.330  1.00  0.00     0.060 A 
BRANCH  94  95
ATOM     95  S   UNL A   1      52.455  26.397  31.697  1.00  0.00     0.124 S 
ATOM     96  O   UNL A   1      53.122  27.126  30.623  1.00  0.00    -0.237 OA
ATOM     97  O   UNL A   1      52.603  26.961  33.035  1.00  0.00    -0.237 OA
ATOM     98  O   UNL A   1      52.554  24.942  31.623  1.00  0.00    -0.744 OA
ENDBRANCH  94  95
ENDBRANCH  62  87
ENDBRANCH  36  37
ENDBRANCH  29  31
ENDBRANCH  28  29
ENDBRANCH  27  28
ENDBRANCH  26  27
ENDBRANCH   1  26
TORSDOF 21
ENDMDL
MODEL 2
REMARK VINA RESULT:     -10.4      4.355     10.050
REMARK SMILES CC[C@@H]1SC[C@@H](C(=O)OCCOCCOC(=O)c2ccc(-c3c4nc(c(-c5c(F)cc(S(=O)(=O)[O-])cc5F)c5ccc([nH]5)c(-c5c(F)cc(S(=O)(=O)[O-])cc5F)c5nc(c(-c6c(F)cc(S(=O)(=O)[O-])cc6F)c6ccc3[nH]6)C=C5)C=C4)cc2)N1C(=O)c1nc(C(C)(C)C)n[nH]1
REMARK SMILES IDX 12 1 11 2 10 3 9 4 7 5 8 6 6 7 3 8 4 9 84 10 5 11 2 12 1 13
REMARK SMILES IDX 85 14 86 15 87 16 88 17 95 18 89 19 94 20 90 22 91 23 92 24
REMARK SMILES IDX 93 25 13 26 14 27 15 28 16 29 17 30 18 31 19 32 83 33 20 34
REMARK SMILES IDX 82 35 21 36 22 37 23 38 76 39 24 40 81 41 75 42 77 43 25 44
REMARK SMILES IDX 80 45 74 46 73 47 26 49 60 50 39 51 59 52 40 53 43 54 58 55
REMARK SMILES IDX 78 56 41 57 42 58 57 60 79 61 44 62 27 63 28 64 37 65 29 66
REMARK SMILES IDX 30 67 36 68 38 69 31 70 32 71 33 72 34 73 35 74 61 75 62 76
REMARK SMILES IDX 71 77 63 78 64 79 70 80 72 81 65 82 66 83 67 84 68 85 69 86
REMARK SMILES IDX 45 87 46 88 55 89 47 90 48 91 54 92 56 93 49 94 50 95 51 96
REMARK SMILES IDX 52 97 53 98
REMARK H PARENT 95 21 77 48 43 59
REMARK Flexibility Score: inf
ROOT
ATOM      1  O   UNL A   1      39.052  22.233  26.016  1.00  0.00    -0.374 OA
ENDROOT
BRANCH   1   2
ATOM      2  C   UNL A   1      38.471  23.530  26.121  1.00  0.00     0.202 C 
BRANCH   2   3
ATOM      3  C   UNL A   1      37.062  23.721  25.552  1.00  0.00     0.261 C 
BRANCH   3   4
ATOM      4  O   UNL A   1      36.531  22.541  24.920  1.00  0.00    -0.462 OA
BRANCH   4   5
ATOM      5  C   UNL A   1      35.994  22.743  23.685  1.00  0.00     0.329 C 
ATOM      6  O   UNL A   1      36.639  23.031  22.679  1.00  0.00    -0.250 OA
BRANCH   5   7
ATOM      7  C   UNL A   1      34.459  22.677  23.652  1.00  0.00     0.206 C 
ATOM      8  C   UNL A   1      33.236  24.535  24.746  1.00  0.00     0.144 C 
ATOM      9  S   UNL A   1      33.584  25.087  23.031  1.00  0.00    -0.134 SA
ATOM     10  N   UNL A   1      33.681  23.144  24.820  1.00  0.00    -0.309 N 
ATOM     11  C   UNL A   1      34.003  23.442  22.420  1.00  0.00     0.109 C 
BRANCH   8  12
ATOM     12  C   UNL A   1      31.753  24.820  25.055  1.00  0.00     0.033 C 
ATOM     13  C   UNL A   1      30.767  24.630  23.906  1.00  0.00     0.007 C 
ENDBRANCH   8  12
BRANCH  10  14
ATOM     14  C   UNL A   1      33.476  22.243  25.864  1.00  0.00     0.292 C 
ATOM     15  O   UNL A   1      33.641  22.612  27.029  1.00  0.00    -0.265 OA
BRANCH  14  16
ATOM     16  C   UNL A   1      33.231  20.846  25.595  1.00  0.00     0.214 A 
ATOM     17  N   UNL A   1      34.100  19.863  25.436  1.00  0.00    -0.207 NA
ATOM     18  N   UNL A   1      31.983  20.376  25.318  1.00  0.00    -0.255 N 
ATOM     19  C   UNL A   1      33.309  18.805  25.021  1.00  0.00     0.156 A 
ATOM     20  N   UNL A   1      31.996  19.081  24.995  1.00  0.00    -0.158 NA
ATOM     21  H   UNL A   1      31.167  20.926  25.351  1.00  0.00     0.192 HD
BRANCH  19  22
ATOM     22  C   UNL A   1      33.840  17.485  24.504  1.00  0.00     0.024 C 
ATOM     23  C   UNL A   1      33.480  17.345  23.008  1.00  0.00     0.019 C 
ATOM     24  C   UNL A   1      35.369  17.392  24.635  1.00  0.00     0.019 C 
ATOM     25  C   UNL A   1      33.221  16.300  25.272  1.00  0.00     0.019 C 
ENDBRANCH  19  22
ENDBRANCH  14  16
ENDBRANCH  10  14
ENDBRANCH   5   7
ENDBRANCH   4   5
ENDBRANCH   3   4
ENDBRANCH   2   3
ENDBRANCH   1   2
BRANCH   1  26
ATOM     26  C   UNL A   1      40.083  21.892  26.940  1.00  0.00     0.202 C 
BRANCH  26  27
ATOM     27  C   UNL A   1      41.520  22.297  26.582  1.00  0.00     0.261 C 
BRANCH  27  28
ATOM     28  O   UNL A   1      42.027  23.357  27.414  1.00  0.00    -0.460 OA
BRANCH  28  29
ATOM     29  C   UNL A   1      42.205  24.538  26.775  1.00  0.00     0.338 C 
ATOM     30  O   UNL A   1      42.586  24.700  25.620  1.00  0.00    -0.246 OA
BRANCH  29  31
ATOM     31  C   UNL A   1      41.706  25.661  27.590  1.00  0.00     0.060 A 
ATOM     32  C   UNL A   1      42.506  26.809  27.671  1.00  0.00     0.016 A 
ATOM     33  C   UNL A   1      40.543  25.556  28.353  1.00  0.00     0.016 A 
ATOM     34  C   UNL A   1      42.181  27.825  28.567  1.00  0.00     0.010 A 
ATOM     35  C   UNL A   1      40.228  26.567  29.267  1.00  0.00     0.010 A 
ATOM     36  C   UNL A   1      41.068  27.687  29.405  1.00  0.00    -0.014 A 
BRANCH  36  37
ATOM     37  C   UNL A   1      40.868  28.645  30.518  1.00  0.00     0.031 A 
ATOM     38  C   UNL A   1      41.729  28.530  31.747  1.00  0.00     0.074 A 
ATOM     39  C   UNL A   1      39.947  29.620  30.422  1.00  0.00     0.049 A 
ATOM     40  N   UNL A   1      41.705  29.242  32.845  1.00  0.00    -0.248 NA
ATOM     41  C   UNL A   1      42.751  27.471  31.738  1.00  0.00     0.031 C 
ATOM     42  C   UNL A   1      39.080  29.848  29.267  1.00  0.00     0.029 A 
ATOM     43  N   UNL A   1      39.584  30.595  31.316  1.00  0.00    -0.354 N 
ATOM     44  C   UNL A   1      42.704  28.716  33.658  1.00  0.00     0.074 A 
ATOM     45  C   UNL A   1      43.297  27.609  32.938  1.00  0.00     0.031 C 
ATOM     46  C   UNL A   1      38.273  30.890  29.529  1.00  0.00     0.029 A 
ATOM     47  C   UNL A   1      38.547  31.383  30.878  1.00  0.00     0.049 A 
ATOM     48  H   UNL A   1      40.024  30.719  32.188  1.00  0.00     0.167 HD
ATOM     49  C   UNL A   1      43.093  29.125  34.889  1.00  0.00     0.037 A 
ATOM     50  C   UNL A   1      37.882  32.374  31.504  1.00  0.00     0.037 A 
ATOM     51  C   UNL A   1      42.498  30.227  35.599  1.00  0.00     0.049 A 
ATOM     52  C   UNL A   1      38.297  32.777  32.895  1.00  0.00     0.074 A 
ATOM     53  C   UNL A   1      42.833  30.732  36.843  1.00  0.00     0.029 A 
ATOM     54  N   UNL A   1      41.438  30.991  35.130  1.00  0.00    -0.354 N 
ATOM     55  N   UNL A   1      39.258  32.288  33.642  1.00  0.00    -0.248 NA
ATOM     56  C   UNL A   1      37.542  33.870  33.525  1.00  0.00     0.031 C 
ATOM     57  C   UNL A   1      41.947  31.773  37.146  1.00  0.00     0.029 A 
ATOM     58  C   UNL A   1      41.093  31.948  36.069  1.00  0.00     0.049 A 
ATOM     59  H   UNL A   1      40.998  30.869  34.258  1.00  0.00     0.167 HD
ATOM     60  C   UNL A   1      39.241  33.030  34.819  1.00  0.00     0.074 A 
ATOM     61  C   UNL A   1      38.179  34.006  34.681  1.00  0.00     0.031 C 
ATOM     62  C   UNL A   1      40.036  32.918  35.912  1.00  0.00     0.037 A 
BRANCH  49  63
ATOM     63  C   UNL A   1      44.200  28.357  35.561  1.00  0.00     0.058 A 
ATOM     64  C   UNL A   1      43.937  27.270  36.408  1.00  0.00     0.135 A 
ATOM     65  C   UNL A   1      45.542  28.696  35.326  1.00  0.00     0.135 A 
ATOM     66  F   UNL A   1      42.673  26.914  36.680  1.00  0.00    -0.206 F 
ATOM     67  C   UNL A   1      44.967  26.561  37.021  1.00  0.00     0.059 A 
ATOM     68  C   UNL A   1      46.588  27.986  35.909  1.00  0.00     0.059 A 
ATOM     69  F   UNL A   1      45.850  29.728  34.524  1.00  0.00    -0.206 F 
ATOM     70  C   UNL A   1      46.290  26.928  36.767  1.00  0.00     0.060 A 
BRANCH  70  71
ATOM     71  S   UNL A   1      47.615  26.000  37.569  1.00  0.00     0.124 S 
ATOM     72  O   UNL A   1      48.120  26.982  38.524  1.00  0.00    -0.237 OA
ATOM     73  O   UNL A   1      46.899  24.867  38.145  1.00  0.00    -0.237 OA
ATOM     74  O   UNL A   1      48.517  25.675  36.468  1.00  0.00    -0.744 OA
ENDBRANCH  70  71
ENDBRANCH  49  63
BRANCH  50  75
ATOM     75  C   UNL A   1      36.747  33.048  30.819  1.00  0.00     0.058 A 
ATOM     76  C   UNL A   1      36.966  34.004  29.817  1.00  0.00     0.135 A 
ATOM     77  C   UNL A   1      35.417  32.735  31.147  1.00  0.00     0.135 A 
ATOM     78  F   UNL A   1      38.218  34.343  29.478  1.00  0.00    -0.206 F 
ATOM     79  C   UNL A   1      35.909  34.633  29.168  1.00  0.00     0.059 A 
ATOM     80  C   UNL A   1      34.344  33.333  30.495  1.00  0.00     0.059 A 
ATOM     81  F   UNL A   1      35.155  31.819  32.092  1.00  0.00    -0.206 F 
ATOM     82  C   UNL A   1      34.600  34.287  29.512  1.00  0.00     0.060 A 
BRANCH  82  83
ATOM     83  S   UNL A   1      33.235  35.066  28.623  1.00  0.00     0.124 S 
ATOM     84  O   UNL A   1      33.939  36.042  27.798  1.00  0.00    -0.237 OA
ATOM     85  O   UNL A   1      32.646  33.935  27.912  1.00  0.00    -0.237 OA
ATOM     86  O   UNL A   1      32.412  35.620  29.693  1.00  0.00    -0.744 OA
ENDBRANCH  82  83
ENDBRANCH  50  75
BRANCH  62  87
ATOM     87  C   UNL A   1      39.818  33.895  37.034  1.00  0.00     0.058 A 
ATOM     88  C   UNL A   1      38.984  33.597  38.122  1.00  0.00     0.135 A 
ATOM     89  C   UNL A   1      40.500  35.124  37.047  1.00  0.00     0.135 A 
ATOM     90  F   UNL A   1      38.304  32.440  38.156  1.00  0.00    -0.206 F 
ATOM     91  C   UNL A   1      38.820  34.490  39.177  1.00  0.00     0.059 A 
ATOM     92  C   UNL A   1      40.370  36.020  38.103  1.00  0.00     0.059 A 
ATOM     93  F   UNL A   1      41.318  35.453  36.036  1.00  0.00    -0.206 F 
ATOM     94  C   UNL A   1      39.519  35.698  39.160  1.00  0.00     0.060 A 
BRANCH  94  95
ATOM     95  S   UNL A   1      39.328  36.832  40.552  1.00  0.00     0.124 S 
ATOM     96  O   UNL A   1      38.752  38.003  39.901  1.00  0.00    -0.237 OA
ATOM     97  O   UNL A   1      38.432  36.092  41.437  1.00  0.00    -0.237 OA
ATOM     98  O   UNL A   1      40.691  36.996  41.046  1.00  0.00    -0.744 OA
ENDBRANCH  94  95
ENDBRANCH  62  87
ENDBRANCH  36  37
ENDBRANCH  29  31
ENDBRANCH  28  29
ENDBRANCH  27  28
ENDBRANCH  26  27
ENDBRANCH   1  26
TORSDOF 21
ENDMDL
MODEL 3
REMARK VINA RESULT:     -10.2      4.400      9.500
REMARK SMILES CC[C@@H]1SC[C@@H](C(=O)OCCOCCOC(=O)c2ccc(-c3c4nc(c(-c5c(F)cc(S(=O)(=O)[O-])cc5F)c5ccc([nH]5)c(-c5c(F)cc(S(=O)(=O)[O-])cc5F)c5nc(c(-c6c(F)cc(S(=O)(=O)[O-])cc6F)c6ccc3[nH]6)C=C5)C=C4)cc2)N1C(=O)c1nc(C(C)(C)C)n[nH]1
REMARK SMILES IDX 12 1 11 2 10 3 9 4 7 5 8 6 6 7 3 8 4 9 84 10 5 11 2 12 1 13
REMARK SMILES IDX 85 14 86 15 87 16 88 17 95 18 89 19 94 20 90 22 91 23 92 24
REMARK SMILES IDX 93 25 13 26 14 27 15 28 16 29 17 30 18 31 19 32 83 33 20 34
REMARK SMILES IDX 82 35 21 36 22 37 23 38 76 39 24 40 81 41 75 42 77 43 25 44
REMARK SMILES IDX 80 45 74 46 73 47 26 49 60 50 39 51 59 52 40 53 43 54 58 55
REMARK SMILES IDX 78 56 41 57 42 58 57 60 79 61 44 62 27 63 28 64 37 65 29 66
REMARK SMILES IDX 30 67 36 68 38 69 31 70 32 71 33 72 34 73 35 74 61 75 62 76
REMARK SMILES IDX 71 77 63 78 64 79 70 80 72 81 65 82 66 83 67 84 68 85 69 86
REMARK SMILES IDX 45 87 46 88 55 89 47 90 48 91 54 92 56 93 49 94 50 95 51 96
REMARK SMILES IDX 52 97 53 98
REMARK H PARENT 95 21 77 48 43 59
REMARK Flexibility Score: inf
ROOT
ATOM      1  O   UNL A   1      39.330  21.977  25.956  1.00  0.00    -0.374 OA
ENDROOT
BRANCH   1   2
ATOM      2  C   UNL A   1      38.556  23.173  25.959  1.00  0.00     0.202 C 
BRANCH   2   3
ATOM      3  C   UNL A   1      37.034  23.030  25.862  1.00  0.00     0.261 C 
BRANCH   3   4
ATOM      4  O   UNL A   1      36.422  23.977  24.967  1.00  0.00    -0.462 OA
BRANCH   4   5
ATOM      5  C   UNL A   1      35.746  23.426  23.922  1.00  0.00     0.329 C 
ATOM      6  O   UNL A   1      36.266  23.052  22.872  1.00  0.00    -0.250 OA
BRANCH   5   7
ATOM      7  C   UNL A   1      34.222  23.389  24.110  1.00  0.00     0.206 C 
ATOM      8  C   UNL A   1      33.244  25.069  25.647  1.00  0.00     0.144 C 
ATOM      9  S   UNL A   1      33.358  25.878  24.004  1.00  0.00    -0.134 SA
ATOM     10  N   UNL A   1      33.642  23.677  25.440  1.00  0.00    -0.309 N 
ATOM     11  C   UNL A   1      33.620  24.344  23.092  1.00  0.00     0.109 C 
BRANCH   8  12
ATOM     12  C   UNL A   1      31.833  25.324  26.217  1.00  0.00     0.033 C 
ATOM     13  C   UNL A   1      30.909  26.203  25.380  1.00  0.00     0.007 C 
ENDBRANCH   8  12
BRANCH  10  14
ATOM     14  C   UNL A   1      33.558  22.627  26.352  1.00  0.00     0.292 C 
ATOM     15  O   UNL A   1      33.917  22.802  27.519  1.00  0.00    -0.265 OA
BRANCH  14  16
ATOM     16  C   UNL A   1      33.209  21.296  25.915  1.00  0.00     0.214 A 
ATOM     17  N   UNL A   1      33.990  20.243  25.747  1.00  0.00    -0.207 NA
ATOM     18  N   UNL A   1      31.961  20.993  25.459  1.00  0.00    -0.255 N 
ATOM     19  C   UNL A   1      33.152  19.320  25.142  1.00  0.00     0.156 A 
ATOM     20  N   UNL A   1      31.884  19.740  25.006  1.00  0.00    -0.158 NA
ATOM     21  H   UNL A   1      31.206  21.624  25.462  1.00  0.00     0.192 HD
BRANCH  19  22
ATOM     22  C   UNL A   1      33.607  18.004  24.549  1.00  0.00     0.024 C 
ATOM     23  C   UNL A   1      35.147  18.004  24.437  1.00  0.00     0.019 C 
ATOM     24  C   UNL A   1      33.195  16.809  25.424  1.00  0.00     0.019 C 
ATOM     25  C   UNL A   1      33.011  17.795  23.142  1.00  0.00     0.019 C 
ENDBRANCH  19  22
ENDBRANCH  14  16
ENDBRANCH  10  14
ENDBRANCH   5   7
ENDBRANCH   4   5
ENDBRANCH   3   4
ENDBRANCH   2   3
ENDBRANCH   1   2
BRANCH   1  26
ATOM     26  C   UNL A   1      40.305  21.816  26.985  1.00  0.00     0.202 C 
BRANCH  26  27
ATOM     27  C   UNL A   1      41.749  22.229  26.665  1.00  0.00     0.261 C 
BRANCH  27  28
ATOM     28  O   UNL A   1      42.194  23.357  27.442  1.00  0.00    -0.460 OA
BRANCH  28  29
ATOM     29  C   UNL A   1      42.182  24.537  26.778  1.00  0.00     0.338 C 
ATOM     30  O   UNL A   1      42.380  24.710  25.579  1.00  0.00    -0.246 OA
BRANCH  29  31
ATOM     31  C   UNL A   1      41.715  25.630  27.649  1.00  0.00     0.060 A 
ATOM     32  C   UNL A   1      42.548  26.747  27.794  1.00  0.00     0.016 A 
ATOM     33  C   UNL A   1      40.544  25.521  28.402  1.00  0.00     0.016 A 
ATOM     34  C   UNL A   1      42.251  27.723  28.741  1.00  0.00     0.010 A 
ATOM     35  C   UNL A   1      40.257  26.491  29.368  1.00  0.00     0.010 A 
ATOM     36  C   UNL A   1      41.130  27.575  29.568  1.00  0.00    -0.014 A 
BRANCH  36  37
ATOM     37  C   UNL A   1      40.954  28.479  30.730  1.00  0.00     0.031 A 
ATOM     38  C   UNL A   1      39.892  29.544  30.675  1.00  0.00     0.074 A 
ATOM     39  C   UNL A   1      41.715  28.334  31.829  1.00  0.00     0.049 A 
ATOM     40  N   UNL A   1      39.586  30.455  31.562  1.00  0.00    -0.248 NA
ATOM     41  C   UNL A   1      39.067  29.588  29.457  1.00  0.00     0.031 C 
ATOM     42  C   UNL A   1      42.751  27.317  32.007  1.00  0.00     0.029 A 
ATOM     43  N   UNL A   1      41.738  29.050  32.999  1.00  0.00    -0.354 N 
ATOM     44  C   UNL A   1      38.538  31.184  31.010  1.00  0.00     0.074 A 
ATOM     45  C   UNL A   1      38.277  30.624  29.701  1.00  0.00     0.031 C 
ATOM     46  C   UNL A   1      43.320  27.484  33.213  1.00  0.00     0.029 A 
ATOM     47  C   UNL A   1      42.709  28.635  33.878  1.00  0.00     0.049 A 
ATOM     48  H   UNL A   1      41.119  29.791  33.190  1.00  0.00     0.167 HD
ATOM     49  C   UNL A   1      37.852  32.219  31.550  1.00  0.00     0.037 A 
ATOM     50  C   UNL A   1      43.075  29.140  35.072  1.00  0.00     0.037 A 
ATOM     51  C   UNL A   1      38.117  32.769  32.854  1.00  0.00     0.049 A 
ATOM     52  C   UNL A   1      42.334  30.326  35.630  1.00  0.00     0.074 A 
ATOM     53  C   UNL A   1      37.466  33.806  33.500  1.00  0.00     0.029 A 
ATOM     54  N   UNL A   1      39.119  32.334  33.709  1.00  0.00    -0.354 N 
ATOM     55  N   UNL A   1      41.329  30.989  35.109  1.00  0.00    -0.248 NA
ATOM     56  C   UNL A   1      42.771  30.828  36.941  1.00  0.00     0.031 C 
ATOM     57  C   UNL A   1      38.104  34.026  34.727  1.00  0.00     0.029 A 
ATOM     58  C   UNL A   1      39.119  33.093  34.866  1.00  0.00     0.049 A 
ATOM     59  H   UNL A   1      39.739  31.592  33.520  1.00  0.00     0.167 HD
ATOM     60  C   UNL A   1      40.995  31.969  36.039  1.00  0.00     0.074 A 
ATOM     61  C   UNL A   1      41.902  31.807  37.158  1.00  0.00     0.031 C 
ATOM     62  C   UNL A   1      40.025  32.914  35.975  1.00  0.00     0.037 A 
BRANCH  49  63
ATOM     63  C   UNL A   1      36.763  32.843  30.719  1.00  0.00     0.058 A 
ATOM     64  C   UNL A   1      37.045  33.795  29.727  1.00  0.00     0.135 A 
ATOM     65  C   UNL A   1      35.425  32.459  30.898  1.00  0.00     0.135 A 
ATOM     66  F   UNL A   1      38.305  34.210  29.525  1.00  0.00    -0.206 F 
ATOM     67  C   UNL A   1      36.033  34.364  28.957  1.00  0.00     0.059 A 
ATOM     68  C   UNL A   1      34.400  32.996  30.123  1.00  0.00     0.059 A 
ATOM     69  F   UNL A   1      35.100  31.553  31.833  1.00  0.00    -0.206 F 
ATOM     70  C   UNL A   1      34.713  33.960  29.165  1.00  0.00     0.060 A 
BRANCH  70  71
ATOM     71  S   UNL A   1      33.412  34.707  28.161  1.00  0.00     0.124 S 
ATOM     72  O   UNL A   1      32.629  33.535  27.781  1.00  0.00    -0.237 OA
ATOM     73  O   UNL A   1      32.772  35.617  29.104  1.00  0.00    -0.237 OA
ATOM     74  O   UNL A   1      34.147  35.349  27.075  1.00  0.00    -0.744 OA
ENDBRANCH  70  71
ENDBRANCH  49  63
BRANCH  50  75
ATOM     75  C   UNL A   1      44.208  28.527  35.816  1.00  0.00     0.058 A 
ATOM     76  C   UNL A   1      45.529  28.944  35.601  1.00  0.00     0.135 A 
ATOM     77  C   UNL A   1      43.986  27.519  36.769  1.00  0.00     0.135 A 
ATOM     78  F   UNL A   1      45.792  29.895  34.693  1.00  0.00    -0.206 F 
ATOM     79  C   UNL A   1      46.593  28.379  36.297  1.00  0.00     0.059 A 
ATOM     80  C   UNL A   1      45.030  26.957  37.495  1.00  0.00     0.059 A 
ATOM     81  F   UNL A   1      42.738  27.093  37.018  1.00  0.00    -0.206 F 
ATOM     82  C   UNL A   1      46.332  27.388  37.246  1.00  0.00     0.060 A 
BRANCH  82  83
ATOM     83  S   UNL A   1      47.713  26.703  38.187  1.00  0.00     0.124 S 
ATOM     84  O   UNL A   1      48.799  26.782  37.216  1.00  0.00    -0.237 OA
ATOM     85  O   UNL A   1      47.800  27.622  39.318  1.00  0.00    -0.237 OA
ATOM     86  O   UNL A   1      47.257  25.356  38.517  1.00  0.00    -0.744 OA
ENDBRANCH  82  83
ENDBRANCH  50  75
BRANCH  62  87
ATOM     87  C   UNL A   1      39.862  33.825  37.160  1.00  0.00     0.058 A 
ATOM     88  C   UNL A   1      40.583  35.023  37.276  1.00  0.00     0.135 A 
ATOM     89  C   UNL A   1      38.925  33.523  38.163  1.00  0.00     0.135 A 
ATOM     90  F   UNL A   1      41.494  35.356  36.348  1.00  0.00    -0.206 F 
ATOM     91  C   UNL A   1      40.396  35.881  38.355  1.00  0.00     0.059 A 
ATOM     92  C   UNL A   1      38.705  34.379  39.237  1.00  0.00     0.059 A 
ATOM     93  F   UNL A   1      38.202  32.395  38.094  1.00  0.00    -0.206 F 
ATOM     94  C   UNL A   1      39.452  35.552  39.330  1.00  0.00     0.060 A 
BRANCH  94  95
ATOM     95  S   UNL A   1      39.191  36.692  40.706  1.00  0.00     0.124 S 
ATOM     96  O   UNL A   1      40.562  37.049  41.055  1.00  0.00    -0.237 OA
ATOM     97  O   UNL A   1      38.397  37.750  40.089  1.00  0.00    -0.237 OA
ATOM     98  O   UNL A   1      38.484  35.879  41.691  1.00  0.00    -0.744 OA
ENDBRANCH  94  95
ENDBRANCH  62  87
ENDBRANCH  36  37
ENDBRANCH  29  31
ENDBRANCH  28  29
ENDBRANCH  27  28
ENDBRANCH  26  27
ENDBRANCH   1  26
TORSDOF 21
ENDMDL
