MODEL 1
REMARK VINA RESULT:     -10.6      0.000      0.000
REMARK SMILES C[C@@H](C(=O)OCCOCCOC(=O)c1ccc(-c2c3nc(c(-c4c(F)cc(S(=O)(=O)[O-])cc4F)c4ccc([nH]4)c(-c4c(F)cc(S(=O)(=O)[O-])cc4F)c4nc(c(-c5c(F)cc(S(=O)(=O)[O-])cc5F)c5ccc2[nH]5)C=C4)C=C3)cc1)N(C)c1ccc(C(N)=O)nn1
REMARK SMILES IDX 8 1 7 2 6 3 5 4 3 5 4 6 2 7 1 8 80 9 81 10 82 11 83 12 90 13
REMARK SMILES IDX 84 14 89 15 85 16 86 17 87 18 88 19 9 22 10 23 11 24 12 25
REMARK SMILES IDX 13 26 14 27 15 28 79 29 16 30 78 31 17 32 18 33 19 34 72 35
REMARK SMILES IDX 20 36 77 37 71 38 73 39 21 40 76 41 70 42 69 43 22 45 56 46
REMARK SMILES IDX 35 47 55 48 36 49 39 50 54 51 74 52 37 53 38 54 53 56 75 57
REMARK SMILES IDX 40 58 23 59 24 60 33 61 25 62 26 63 32 64 34 65 27 66 28 67
REMARK SMILES IDX 29 68 30 69 31 70 57 71 58 72 67 73 59 74 60 75 66 76 68 77
REMARK SMILES IDX 61 78 62 79 63 80 64 81 65 82 41 83 42 84 51 85 43 86 44 87
REMARK SMILES IDX 50 88 52 89 45 90 46 91 47 92 48 93 49 94
REMARK H PARENT 87 20 87 21 73 44 39 55
REMARK Flexibility Score: inf
ROOT
ATOM      1  O   UNL A   1      38.065  22.215  25.703  1.00  0.00    -0.374 OA
ENDROOT
BRANCH   1   2
ATOM      2  C   UNL A   1      37.806  23.604  25.923  1.00  0.00     0.202 C 
BRANCH   2   3
ATOM      3  C   UNL A   1      36.336  23.982  26.121  1.00  0.00     0.261 C 
BRANCH   3   4
ATOM      4  O   UNL A   1      35.564  22.820  26.479  1.00  0.00    -0.462 OA
BRANCH   4   5
ATOM      5  C   UNL A   1      34.331  22.713  25.910  1.00  0.00     0.328 C 
ATOM      6  O   UNL A   1      33.310  23.202  26.381  1.00  0.00    -0.250 OA
BRANCH   5   7
ATOM      7  C   UNL A   1      34.361  21.858  24.619  1.00  0.00     0.190 C 
ATOM      8  C   UNL A   1      34.773  22.606  23.352  1.00  0.00     0.044 C 
BRANCH   7   9
ATOM      9  N   UNL A   1      33.116  21.044  24.441  1.00  0.00    -0.345 N 
ATOM     10  C   UNL A   1      32.241  21.494  23.352  1.00  0.00     0.146 C 
BRANCH   9  11
ATOM     11  C   UNL A   1      33.140  19.652  24.569  1.00  0.00     0.151 A 
ATOM     12  C   UNL A   1      34.315  18.928  24.387  1.00  0.00     0.051 A 
ATOM     13  N   UNL A   1      32.037  18.982  24.984  1.00  0.00    -0.132 NA
ATOM     14  C   UNL A   1      34.344  17.547  24.606  1.00  0.00     0.040 A 
ATOM     15  N   UNL A   1      32.045  17.615  25.209  1.00  0.00    -0.143 NA
ATOM     16  C   UNL A   1      33.186  16.923  25.022  1.00  0.00     0.150 A 
BRANCH  16  17
ATOM     17  C   UNL A   1      33.151  15.463  25.312  1.00  0.00     0.269 C 
ATOM     18  N   UNL A   1      31.918  14.919  25.555  1.00  0.00    -0.364 N 
ATOM     19  O   UNL A   1      34.167  14.779  25.340  1.00  0.00    -0.268 OA
ATOM     20  H   UNL A   1      31.115  15.487  25.526  1.00  0.00     0.160 HD
ATOM     21  H   UNL A   1      31.835  13.959  25.759  1.00  0.00     0.160 HD
ENDBRANCH  16  17
ENDBRANCH   9  11
ENDBRANCH   7   9
ENDBRANCH   5   7
ENDBRANCH   4   5
ENDBRANCH   3   4
ENDBRANCH   2   3
ENDBRANCH   1   2
BRANCH   1  22
ATOM     22  C   UNL A   1      39.332  21.715  26.124  1.00  0.00     0.202 C 
BRANCH  22  23
ATOM     23  C   UNL A   1      39.669  20.275  25.717  1.00  0.00     0.261 C 
BRANCH  23  24
ATOM     24  O   UNL A   1      40.526  19.621  26.666  1.00  0.00    -0.460 OA
BRANCH  24  25
ATOM     25  C   UNL A   1      41.803  19.467  26.241  1.00  0.00     0.338 C 
ATOM     26  O   UNL A   1      42.271  18.502  25.648  1.00  0.00    -0.246 OA
BRANCH  25  27
ATOM     27  C   UNL A   1      42.566  20.712  26.435  1.00  0.00     0.060 A 
ATOM     28  C   UNL A   1      42.620  21.230  27.735  1.00  0.00     0.016 A 
ATOM     29  C   UNL A   1      43.148  21.405  25.369  1.00  0.00     0.016 A 
ATOM     30  C   UNL A   1      43.203  22.472  27.966  1.00  0.00     0.010 A 
ATOM     31  C   UNL A   1      43.728  22.656  25.604  1.00  0.00     0.010 A 
ATOM     32  C   UNL A   1      43.722  23.212  26.897  1.00  0.00    -0.014 A 
BRANCH  32  33
ATOM     33  C   UNL A   1      44.111  24.625  27.119  1.00  0.00     0.031 A 
ATOM     34  C   UNL A   1      45.550  25.023  26.933  1.00  0.00     0.074 A 
ATOM     35  C   UNL A   1      43.185  25.550  27.428  1.00  0.00     0.049 A 
ATOM     36  N   UNL A   1      46.112  26.195  27.075  1.00  0.00    -0.248 NA
ATOM     37  C   UNL A   1      46.482  23.954  26.536  1.00  0.00     0.031 C 
ATOM     38  C   UNL A   1      41.756  25.290  27.597  1.00  0.00     0.029 A 
ATOM     39  N   UNL A   1      43.311  26.897  27.657  1.00  0.00    -0.354 N 
ATOM     40  C   UNL A   1      47.458  26.008  26.783  1.00  0.00     0.074 A 
ATOM     41  C   UNL A   1      47.637  24.602  26.491  1.00  0.00     0.031 C 
ATOM     42  C   UNL A   1      41.138  26.440  27.914  1.00  0.00     0.029 A 
ATOM     43  C   UNL A   1      42.129  27.512  27.994  1.00  0.00     0.049 A 
ATOM     44  H   UNL A   1      44.167  27.379  27.585  1.00  0.00     0.167 HD
ATOM     45  C   UNL A   1      48.452  26.927  26.749  1.00  0.00     0.037 A 
ATOM     46  C   UNL A   1      41.882  28.789  28.348  1.00  0.00     0.037 A 
ATOM     47  C   UNL A   1      48.268  28.324  27.041  1.00  0.00     0.049 A 
ATOM     48  C   UNL A   1      43.013  29.782  28.360  1.00  0.00     0.074 A 
ATOM     49  C   UNL A   1      49.209  29.338  27.029  1.00  0.00     0.029 A 
ATOM     50  N   UNL A   1      47.060  28.904  27.403  1.00  0.00    -0.354 N 
ATOM     51  N   UNL A   1      44.278  29.595  28.065  1.00  0.00    -0.248 NA
ATOM     52  C   UNL A   1      42.685  31.162  28.744  1.00  0.00     0.031 C 
ATOM     53  C   UNL A   1      48.580  30.524  27.424  1.00  0.00     0.029 A 
ATOM     54  C   UNL A   1      47.236  30.258  27.636  1.00  0.00     0.049 A 
ATOM     55  H   UNL A   1      46.205  28.424  27.483  1.00  0.00     0.167 HD
ATOM     56  C   UNL A   1      44.891  30.835  28.207  1.00  0.00     0.074 A 
ATOM     57  C   UNL A   1      43.856  31.768  28.602  1.00  0.00     0.031 C 
ATOM     58  C   UNL A   1      46.192  31.173  28.025  1.00  0.00     0.037 A 
BRANCH  45  59
ATOM     59  C   UNL A   1      49.833  26.443  26.403  1.00  0.00     0.058 A 
ATOM     60  C   UNL A   1      50.302  26.432  25.079  1.00  0.00     0.135 A 
ATOM     61  C   UNL A   1      50.709  26.009  27.412  1.00  0.00     0.135 A 
ATOM     62  F   UNL A   1      49.499  26.819  24.075  1.00  0.00    -0.206 F 
ATOM     63  C   UNL A   1      51.580  25.983  24.764  1.00  0.00     0.059 A 
ATOM     64  C   UNL A   1      52.001  25.579  27.122  1.00  0.00     0.059 A 
ATOM     65  F   UNL A   1      50.311  25.996  28.692  1.00  0.00    -0.206 F 
ATOM     66  C   UNL A   1      52.422  25.557  25.792  1.00  0.00     0.060 A 
BRANCH  66  67
ATOM     67  S   UNL A   1      54.079  24.977  25.368  1.00  0.00     0.124 S 
ATOM     68  O   UNL A   1      53.806  23.614  24.926  1.00  0.00    -0.237 OA
ATOM     69  O   UNL A   1      54.481  25.914  24.325  1.00  0.00    -0.237 OA
ATOM     70  O   UNL A   1      54.811  25.093  26.626  1.00  0.00    -0.744 OA
ENDBRANCH  66  67
ENDBRANCH  45  59
BRANCH  46  71
ATOM     71  C   UNL A   1      40.504  29.195  28.733  1.00  0.00     0.058 A 
ATOM     72  C   UNL A   1      39.527  29.470  27.765  1.00  0.00     0.135 A 
ATOM     73  C   UNL A   1      40.136  29.308  30.083  1.00  0.00     0.135 A 
ATOM     74  F   UNL A   1      39.832  29.386  26.461  1.00  0.00    -0.206 F 
ATOM     75  C   UNL A   1      38.237  29.852  28.121  1.00  0.00     0.059 A 
ATOM     76  C   UNL A   1      38.847  29.664  30.464  1.00  0.00     0.059 A 
ATOM     77  F   UNL A   1      41.032  29.045  31.048  1.00  0.00    -0.206 F 
ATOM     78  C   UNL A   1      37.906  29.943  29.474  1.00  0.00     0.060 A 
BRANCH  78  79
ATOM     79  S   UNL A   1      36.214  30.384  29.928  1.00  0.00     0.124 S 
ATOM     80  O   UNL A   1      36.080  29.735  31.226  1.00  0.00    -0.237 OA
ATOM     81  O   UNL A   1      36.270  31.842  29.944  1.00  0.00    -0.237 OA
ATOM     82  O   UNL A   1      35.418  29.808  28.847  1.00  0.00    -0.744 OA
ENDBRANCH  78  79
ENDBRANCH  46  71
BRANCH  58  83
ATOM     83  C   UNL A   1      46.568  32.616  28.222  1.00  0.00     0.058 A 
ATOM     84  C   UNL A   1      47.119  33.076  29.428  1.00  0.00     0.135 A 
ATOM     85  C   UNL A   1      46.428  33.536  27.171  1.00  0.00     0.135 A 
ATOM     86  F   UNL A   1      47.270  32.238  30.466  1.00  0.00    -0.206 F 
ATOM     87  C   UNL A   1      47.496  34.405  29.593  1.00  0.00     0.059 A 
ATOM     88  C   UNL A   1      46.822  34.864  27.305  1.00  0.00     0.059 A 
ATOM     89  F   UNL A   1      45.917  33.145  25.993  1.00  0.00    -0.206 F 
ATOM     90  C   UNL A   1      47.345  35.291  28.525  1.00  0.00     0.060 A 
BRANCH  90  91
ATOM     91  S   UNL A   1      47.870  37.005  28.740  1.00  0.00     0.124 S 
ATOM     92  O   UNL A   1      49.298  36.845  28.989  1.00  0.00    -0.237 OA
ATOM     93  O   UNL A   1      47.513  37.607  27.458  1.00  0.00    -0.237 OA
ATOM     94  O   UNL A   1      47.080  37.462  29.880  1.00  0.00    -0.744 OA
ENDBRANCH  90  91
ENDBRANCH  58  83
ENDBRANCH  32  33
ENDBRANCH  25  27
ENDBRANCH  24  25
ENDBRANCH  23  24
ENDBRANCH  22  23
ENDBRANCH   1  22
TORSDOF 20
ENDMDL
MODEL 2
REMARK VINA RESULT:     -10.3      6.106      8.244
REMARK SMILES C[C@@H](C(=O)OCCOCCOC(=O)c1ccc(-c2c3nc(c(-c4c(F)cc(S(=O)(=O)[O-])cc4F)c4ccc([nH]4)c(-c4c(F)cc(S(=O)(=O)[O-])cc4F)c4nc(c(-c5c(F)cc(S(=O)(=O)[O-])cc5F)c5ccc2[nH]5)C=C4)C=C3)cc1)N(C)c1ccc(C(N)=O)nn1
REMARK SMILES IDX 8 1 7 2 6 3 5 4 3 5 4 6 2 7 1 8 80 9 81 10 82 11 83 12 90 13
REMARK SMILES IDX 84 14 89 15 85 16 86 17 87 18 88 19 9 22 10 23 11 24 12 25
REMARK SMILES IDX 13 26 14 27 15 28 79 29 16 30 78 31 17 32 18 33 19 34 72 35
REMARK SMILES IDX 20 36 77 37 71 38 73 39 21 40 76 41 70 42 69 43 22 45 56 46
REMARK SMILES IDX 35 47 55 48 36 49 39 50 54 51 74 52 37 53 38 54 53 56 75 57
REMARK SMILES IDX 40 58 23 59 24 60 33 61 25 62 26 63 32 64 34 65 27 66 28 67
REMARK SMILES IDX 29 68 30 69 31 70 57 71 58 72 67 73 59 74 60 75 66 76 68 77
REMARK SMILES IDX 61 78 62 79 63 80 64 81 65 82 41 83 42 84 51 85 43 86 44 87
REMARK SMILES IDX 50 88 52 89 45 90 46 91 47 92 48 93 49 94
REMARK H PARENT 87 20 87 21 73 44 39 55
REMARK Flexibility Score: inf
ROOT
ATOM      1  O   UNL A   1      39.040  22.742  26.211  1.00  0.00    -0.374 OA
ENDROOT
BRANCH   1   2
ATOM      2  C   UNL A   1      37.913  22.183  25.530  1.00  0.00     0.202 C 
BRANCH   2   3
ATOM      3  C   UNL A   1      36.988  23.189  24.840  1.00  0.00     0.261 C 
BRANCH   3   4
ATOM      4  O   UNL A   1      35.628  22.714  24.863  1.00  0.00    -0.462 OA
BRANCH   4   5
ATOM      5  C   UNL A   1      34.783  23.250  23.939  1.00  0.00     0.328 C 
ATOM      6  O   UNL A   1      35.027  23.315  22.738  1.00  0.00    -0.250 OA
BRANCH   5   7
ATOM      7  C   UNL A   1      33.495  23.814  24.588  1.00  0.00     0.190 C 
ATOM      8  C   UNL A   1      33.641  24.260  26.042  1.00  0.00     0.044 C 
BRANCH   7   9
ATOM      9  N   UNL A   1      32.306  22.933  24.362  1.00  0.00    -0.345 N 
ATOM     10  C   UNL A   1      31.426  23.360  23.267  1.00  0.00     0.146 C 
BRANCH   9  11
ATOM     11  C   UNL A   1      32.410  21.542  24.453  1.00  0.00     0.151 A 
ATOM     12  C   UNL A   1      32.335  20.734  23.322  1.00  0.00     0.051 A 
ATOM     13  N   UNL A   1      32.698  20.951  25.639  1.00  0.00    -0.132 NA
ATOM     14  C   UNL A   1      32.531  19.352  23.416  1.00  0.00     0.040 A 
ATOM     15  N   UNL A   1      32.897  19.585  25.754  1.00  0.00    -0.143 NA
ATOM     16  C   UNL A   1      32.815  18.812  24.653  1.00  0.00     0.150 A 
BRANCH  16  17
ATOM     17  C   UNL A   1      33.072  17.356  24.825  1.00  0.00     0.269 C 
ATOM     18  N   UNL A   1      33.296  16.922  26.104  1.00  0.00    -0.364 N 
ATOM     19  O   UNL A   1      33.092  16.581  23.875  1.00  0.00    -0.268 OA
ATOM     20  H   UNL A   1      33.275  17.562  26.851  1.00  0.00     0.160 HD
ATOM     21  H   UNL A   1      33.479  15.969  26.276  1.00  0.00     0.160 HD
ENDBRANCH  16  17
ENDBRANCH   9  11
ENDBRANCH   7   9
ENDBRANCH   5   7
ENDBRANCH   4   5
ENDBRANCH   3   4
ENDBRANCH   2   3
ENDBRANCH   1   2
BRANCH   1  22
ATOM     22  C   UNL A   1      40.067  21.841  26.617  1.00  0.00     0.202 C 
BRANCH  22  23
ATOM     23  C   UNL A   1      41.502  22.221  26.231  1.00  0.00     0.261 C 
BRANCH  23  24
ATOM     24  O   UNL A   1      42.060  23.219  27.101  1.00  0.00    -0.460 OA
BRANCH  24  25
ATOM     25  C   UNL A   1      42.233  24.427  26.512  1.00  0.00     0.338 C 
ATOM     26  O   UNL A   1      42.612  24.642  25.368  1.00  0.00    -0.246 OA
BRANCH  25  27
ATOM     27  C   UNL A   1      41.737  25.503  27.388  1.00  0.00     0.060 A 
ATOM     28  C   UNL A   1      42.515  26.665  27.473  1.00  0.00     0.016 A 
ATOM     29  C   UNL A   1      40.587  25.359  28.169  1.00  0.00     0.016 A 
ATOM     30  C   UNL A   1      42.181  27.662  28.384  1.00  0.00     0.010 A 
ATOM     31  C   UNL A   1      40.257  26.361  29.089  1.00  0.00     0.010 A 
ATOM     32  C   UNL A   1      41.075  27.498  29.227  1.00  0.00    -0.014 A 
BRANCH  32  33
ATOM     33  C   UNL A   1      40.879  28.444  30.352  1.00  0.00     0.031 A 
ATOM     34  C   UNL A   1      41.772  28.338  31.558  1.00  0.00     0.074 A 
ATOM     35  C   UNL A   1      39.955  29.418  30.275  1.00  0.00     0.049 A 
ATOM     36  N   UNL A   1      41.779  29.054  32.651  1.00  0.00    -0.248 NA
ATOM     37  C   UNL A   1      42.795  27.279  31.527  1.00  0.00     0.031 C 
ATOM     38  C   UNL A   1      39.058  29.643  29.141  1.00  0.00     0.029 A 
ATOM     39  N   UNL A   1      39.617  30.400  31.171  1.00  0.00    -0.354 N 
ATOM     40  C   UNL A   1      42.803  28.537  33.436  1.00  0.00     0.074 A 
ATOM     41  C   UNL A   1      43.373  27.424  32.711  1.00  0.00     0.031 C 
ATOM     42  C   UNL A   1      38.264  30.691  29.416  1.00  0.00     0.029 A 
ATOM     43  C   UNL A   1      38.578  31.195  30.752  1.00  0.00     0.049 A 
ATOM     44  H   UNL A   1      40.077  30.525  32.033  1.00  0.00     0.167 HD
ATOM     45  C   UNL A   1      43.237  28.961  34.648  1.00  0.00     0.037 A 
ATOM     46  C   UNL A   1      37.941  32.202  31.384  1.00  0.00     0.037 A 
ATOM     47  C   UNL A   1      42.665  30.071  35.365  1.00  0.00     0.049 A 
ATOM     48  C   UNL A   1      38.402  32.619  32.755  1.00  0.00     0.074 A 
ATOM     49  C   UNL A   1      43.036  30.584  36.595  1.00  0.00     0.029 A 
ATOM     50  N   UNL A   1      41.597  30.836  34.919  1.00  0.00    -0.354 N 
ATOM     51  N   UNL A   1      39.383  32.132  33.479  1.00  0.00    -0.248 NA
ATOM     52  C   UNL A   1      37.678  33.726  33.394  1.00  0.00     0.031 C 
ATOM     53  C   UNL A   1      42.166  31.633  36.912  1.00  0.00     0.029 A 
ATOM     54  C   UNL A   1      41.283  31.804  35.857  1.00  0.00     0.049 A 
ATOM     55  H   UNL A   1      41.132  30.708  34.061  1.00  0.00     0.167 HD
ATOM     56  C   UNL A   1      39.407  32.888  34.647  1.00  0.00     0.074 A 
ATOM     57  C   UNL A   1      38.350  33.872  34.528  1.00  0.00     0.031 C 
ATOM     58  C   UNL A   1      40.230  32.779  35.720  1.00  0.00     0.037 A 
BRANCH  45  59
ATOM     59  C   UNL A   1      44.373  28.208  35.280  1.00  0.00     0.058 A 
ATOM     60  C   UNL A   1      45.712  28.579  35.074  1.00  0.00     0.135 A 
ATOM     61  C   UNL A   1      44.120  27.115  36.127  1.00  0.00     0.135 A 
ATOM     62  F   UNL A   1      46.011  29.604  34.259  1.00  0.00    -0.206 F 
ATOM     63  C   UNL A   1      46.760  27.878  35.661  1.00  0.00     0.059 A 
ATOM     64  C   UNL A   1      45.152  26.415  36.745  1.00  0.00     0.059 A 
ATOM     65  F   UNL A   1      42.860  26.717  36.356  1.00  0.00    -0.206 F 
ATOM     66  C   UNL A   1      46.470  26.796  36.494  1.00  0.00     0.060 A 
BRANCH  66  67
ATOM     67  S   UNL A   1      47.840  25.896  37.250  1.00  0.00     0.124 S 
ATOM     68  O   UNL A   1      48.980  26.420  36.504  1.00  0.00    -0.237 OA
ATOM     69  O   UNL A   1      47.754  26.310  38.647  1.00  0.00    -0.237 OA
ATOM     70  O   UNL A   1      47.512  24.498  36.993  1.00  0.00    -0.744 OA
ENDBRANCH  66  67
ENDBRANCH  45  59
BRANCH  46  71
ATOM     71  C   UNL A   1      36.787  32.873  30.728  1.00  0.00     0.058 A 
ATOM     72  C   UNL A   1      36.975  33.809  29.702  1.00  0.00     0.135 A 
ATOM     73  C   UNL A   1      35.469  32.582  31.114  1.00  0.00     0.135 A 
ATOM     74  F   UNL A   1      38.217  34.129  29.305  1.00  0.00    -0.206 F 
ATOM     75  C   UNL A   1      35.899  34.442  29.087  1.00  0.00     0.059 A 
ATOM     76  C   UNL A   1      34.377  33.182  30.498  1.00  0.00     0.059 A 
ATOM     77  F   UNL A   1      35.235  31.685  32.085  1.00  0.00    -0.206 F 
ATOM     78  C   UNL A   1      34.602  34.119  29.490  1.00  0.00     0.060 A 
BRANCH  78  79
ATOM     79  S   UNL A   1      33.209  34.901  28.648  1.00  0.00     0.124 S 
ATOM     80  O   UNL A   1      32.343  35.243  29.770  1.00  0.00    -0.237 OA
ATOM     81  O   UNL A   1      33.850  36.023  27.970  1.00  0.00    -0.237 OA
ATOM     82  O   UNL A   1      32.716  33.846  27.767  1.00  0.00    -0.744 OA
ENDBRANCH  78  79
ENDBRANCH  46  71
BRANCH  58  83
ATOM     83  C   UNL A   1      40.042  33.765  36.840  1.00  0.00     0.058 A 
ATOM     84  C   UNL A   1      40.707  35.001  36.852  1.00  0.00     0.135 A 
ATOM     85  C   UNL A   1      39.145  33.492  37.884  1.00  0.00     0.135 A 
ATOM     86  F   UNL A   1      41.579  35.310  35.880  1.00  0.00    -0.206 F 
ATOM     87  C   UNL A   1      40.504  35.924  37.873  1.00  0.00     0.059 A 
ATOM     88  C   UNL A   1      38.907  34.410  38.902  1.00  0.00     0.059 A 
ATOM     89  F   UNL A   1      38.475  32.328  37.914  1.00  0.00    -0.206 F 
ATOM     90  C   UNL A   1      39.602  35.619  38.894  1.00  0.00     0.060 A 
BRANCH  90  91
ATOM     91  S   UNL A   1      39.321  36.839  40.196  1.00  0.00     0.124 S 
ATOM     92  O   UNL A   1      40.674  37.042  40.703  1.00  0.00    -0.237 OA
ATOM     93  O   UNL A   1      38.746  37.959  39.458  1.00  0.00    -0.237 OA
ATOM     94  O   UNL A   1      38.404  36.160  41.105  1.00  0.00    -0.744 OA
ENDBRANCH  90  91
ENDBRANCH  58  83
ENDBRANCH  32  33
ENDBRANCH  25  27
ENDBRANCH  24  25
ENDBRANCH  23  24
ENDBRANCH  22  23
ENDBRANCH   1  22
TORSDOF 20
ENDMDL
MODEL 3
REMARK VINA RESULT:      -9.8      5.538     11.625
REMARK SMILES C[C@@H](C(=O)OCCOCCOC(=O)c1ccc(-c2c3nc(c(-c4c(F)cc(S(=O)(=O)[O-])cc4F)c4ccc([nH]4)c(-c4c(F)cc(S(=O)(=O)[O-])cc4F)c4nc(c(-c5c(F)cc(S(=O)(=O)[O-])cc5F)c5ccc2[nH]5)C=C4)C=C3)cc1)N(C)c1ccc(C(N)=O)nn1
REMARK SMILES IDX 8 1 7 2 6 3 5 4 3 5 4 6 2 7 1 8 80 9 81 10 82 11 83 12 90 13
REMARK SMILES IDX 84 14 89 15 85 16 86 17 87 18 88 19 9 22 10 23 11 24 12 25
REMARK SMILES IDX 13 26 14 27 15 28 79 29 16 30 78 31 17 32 18 33 19 34 72 35
REMARK SMILES IDX 20 36 77 37 71 38 73 39 21 40 76 41 70 42 69 43 22 45 56 46
REMARK SMILES IDX 35 47 55 48 36 49 39 50 54 51 74 52 37 53 38 54 53 56 75 57
REMARK SMILES IDX 40 58 23 59 24 60 33 61 25 62 26 63 32 64 34 65 27 66 28 67
REMARK SMILES IDX 29 68 30 69 31 70 57 71 58 72 67 73 59 74 60 75 66 76 68 77
REMARK SMILES IDX 61 78 62 79 63 80 64 81 65 82 41 83 42 84 51 85 43 86 44 87
REMARK SMILES IDX 50 88 52 89 45 90 46 91 47 92 48 93 49 94
REMARK H PARENT 87 20 87 21 73 44 39 55
REMARK Flexibility Score: inf
ROOT
ATOM      1  O   UNL A   1      34.086  34.211  31.721  1.00  0.00    -0.374 OA
ENDROOT
BRANCH   1   2
ATOM      2  C   UNL A   1      35.068  34.446  32.733  1.00  0.00     0.202 C 
BRANCH   2   3
ATOM      3  C   UNL A   1      35.258  33.317  33.750  1.00  0.00     0.261 C 
BRANCH   3   4
ATOM      4  O   UNL A   1      36.633  33.254  34.176  1.00  0.00    -0.462 OA
BRANCH   4   5
ATOM      5  C   UNL A   1      37.266  32.060  34.005  1.00  0.00     0.328 C 
ATOM      6  O   UNL A   1      37.200  31.386  32.982  1.00  0.00    -0.250 OA
BRANCH   5   7
ATOM      7  C   UNL A   1      38.044  31.629  35.273  1.00  0.00     0.190 C 
ATOM      8  C   UNL A   1      37.683  32.391  36.548  1.00  0.00     0.044 C 
BRANCH   7   9
ATOM      9  N   UNL A   1      39.520  31.543  35.039  1.00  0.00    -0.345 N 
ATOM     10  C   UNL A   1      40.312  32.560  35.741  1.00  0.00     0.146 C 
BRANCH   9  11
ATOM     11  C   UNL A   1      40.170  30.307  34.977  1.00  0.00     0.151 A 
ATOM     12  C   UNL A   1      40.667  29.810  33.775  1.00  0.00     0.051 A 
ATOM     13  N   UNL A   1      40.428  29.609  36.110  1.00  0.00    -0.132 NA
ATOM     14  C   UNL A   1      41.393  28.615  33.742  1.00  0.00     0.040 A 
ATOM     15  N   UNL A   1      41.147  28.425  36.100  1.00  0.00    -0.143 NA
ATOM     16  C   UNL A   1      41.617  27.949  34.930  1.00  0.00     0.150 A 
BRANCH  16  17
ATOM     17  C   UNL A   1      42.413  26.692  34.977  1.00  0.00     0.269 C 
ATOM     18  N   UNL A   1      43.232  26.448  33.907  1.00  0.00    -0.364 N 
ATOM     19  O   UNL A   1      42.340  25.909  35.917  1.00  0.00    -0.268 OA
ATOM     20  H   UNL A   1      43.275  27.091  33.163  1.00  0.00     0.160 HD
ATOM     21  H   UNL A   1      43.777  25.627  33.881  1.00  0.00     0.160 HD
ENDBRANCH  16  17
ENDBRANCH   9  11
ENDBRANCH   7   9
ENDBRANCH   5   7
ENDBRANCH   4   5
ENDBRANCH   3   4
ENDBRANCH   2   3
ENDBRANCH   1   2
BRANCH   1  22
ATOM     22  C   UNL A   1      34.560  33.878  30.419  1.00  0.00     0.202 C 
BRANCH  22  23
ATOM     23  C   UNL A   1      34.516  32.394  30.034  1.00  0.00     0.261 C 
BRANCH  23  24
ATOM     24  O   UNL A   1      34.843  32.175  28.652  1.00  0.00    -0.460 OA
BRANCH  24  25
ATOM     25  C   UNL A   1      34.731  30.883  28.257  1.00  0.00     0.338 C 
ATOM     26  O   UNL A   1      33.749  30.348  27.758  1.00  0.00    -0.246 OA
BRANCH  25  27
ATOM     27  C   UNL A   1      36.033  30.201  28.349  1.00  0.00     0.060 A 
ATOM     28  C   UNL A   1      36.373  29.641  29.587  1.00  0.00     0.016 A 
ATOM     29  C   UNL A   1      36.938  30.172  27.284  1.00  0.00     0.016 A 
ATOM     30  C   UNL A   1      37.642  29.105  29.784  1.00  0.00     0.010 A 
ATOM     31  C   UNL A   1      38.215  29.638  27.487  1.00  0.00     0.010 A 
ATOM     32  C   UNL A   1      38.585  29.138  28.749  1.00  0.00    -0.014 A 
BRANCH  32  33
ATOM     33  C   UNL A   1      39.995  28.793  29.048  1.00  0.00     0.031 A 
ATOM     34  C   UNL A   1      40.861  29.806  29.747  1.00  0.00     0.074 A 
ATOM     35  C   UNL A   1      40.481  27.575  28.749  1.00  0.00     0.049 A 
ATOM     36  N   UNL A   1      42.115  29.720  30.104  1.00  0.00    -0.248 NA
ATOM     37  C   UNL A   1      40.225  31.089  30.089  1.00  0.00     0.031 C 
ATOM     38  C   UNL A   1      39.727  26.500  28.106  1.00  0.00     0.029 A 
ATOM     39  N   UNL A   1      41.729  27.040  28.947  1.00  0.00    -0.354 N 
ATOM     40  C   UNL A   1      42.420  30.933  30.712  1.00  0.00     0.074 A 
ATOM     41  C   UNL A   1      41.229  31.751  30.646  1.00  0.00     0.031 C 
ATOM     42  C   UNL A   1      40.532  25.435  27.952  1.00  0.00     0.029 A 
ATOM     43  C   UNL A   1      41.863  25.761  28.462  1.00  0.00     0.049 A 
ATOM     44  H   UNL A   1      42.459  27.525  29.395  1.00  0.00     0.167 HD
ATOM     45  C   UNL A   1      43.583  31.323  31.286  1.00  0.00     0.037 A 
ATOM     46  C   UNL A   1      42.942  24.954  28.417  1.00  0.00     0.037 A 
ATOM     47  C   UNL A   1      44.765  30.503  31.349  1.00  0.00     0.049 A 
ATOM     48  C   UNL A   1      44.242  25.430  29.010  1.00  0.00     0.074 A 
ATOM     49  C   UNL A   1      45.992  30.803  31.915  1.00  0.00     0.029 A 
ATOM     50  N   UNL A   1      44.869  29.223  30.825  1.00  0.00    -0.354 N 
ATOM     51  N   UNL A   1      44.511  26.573  29.597  1.00  0.00    -0.248 NA
ATOM     52  C   UNL A   1      45.383  24.508  28.941  1.00  0.00     0.031 C 
ATOM     53  C   UNL A   1      46.850  29.720  31.695  1.00  0.00     0.029 A 
ATOM     54  C   UNL A   1      46.144  28.727  31.035  1.00  0.00     0.049 A 
ATOM     55  H   UNL A   1      44.142  28.739  30.370  1.00  0.00     0.167 HD
ATOM     56  C   UNL A   1      45.844  26.497  29.987  1.00  0.00     0.074 A 
ATOM     57  C   UNL A   1      46.323  25.192  29.580  1.00  0.00     0.031 C 
ATOM     58  C   UNL A   1      46.603  27.422  30.626  1.00  0.00     0.037 A 
BRANCH  45  59
ATOM     59  C   UNL A   1      43.638  32.705  31.873  1.00  0.00     0.058 A 
ATOM     60  C   UNL A   1      43.844  33.841  31.072  1.00  0.00     0.135 A 
ATOM     61  C   UNL A   1      43.455  32.902  33.252  1.00  0.00     0.135 A 
ATOM     62  F   UNL A   1      44.043  33.708  29.751  1.00  0.00    -0.206 F 
ATOM     63  C   UNL A   1      43.893  35.118  31.621  1.00  0.00     0.059 A 
ATOM     64  C   UNL A   1      43.475  34.173  33.818  1.00  0.00     0.059 A 
ATOM     65  F   UNL A   1      43.258  31.852  34.063  1.00  0.00    -0.206 F 
ATOM     66  C   UNL A   1      43.709  35.274  32.995  1.00  0.00     0.060 A 
BRANCH  66  67
ATOM     67  S   UNL A   1      43.776  36.938  33.693  1.00  0.00     0.124 S 
ATOM     68  O   UNL A   1      44.942  36.842  34.565  1.00  0.00    -0.237 OA
ATOM     69  O   UNL A   1      43.939  37.769  32.505  1.00  0.00    -0.237 OA
ATOM     70  O   UNL A   1      42.492  37.072  34.375  1.00  0.00    -0.744 OA
ENDBRANCH  66  67
ENDBRANCH  45  59
BRANCH  46  71
ATOM     71  C   UNL A   1      42.839  23.617  27.774  1.00  0.00     0.058 A 
ATOM     72  C   UNL A   1      42.521  22.472  28.518  1.00  0.00     0.135 A 
ATOM     73  C   UNL A   1      43.052  23.462  26.395  1.00  0.00     0.135 A 
ATOM     74  F   UNL A   1      42.320  22.567  29.842  1.00  0.00    -0.206 F 
ATOM     75  C   UNL A   1      42.426  21.219  27.921  1.00  0.00     0.059 A 
ATOM     76  C   UNL A   1      42.938  22.225  25.772  1.00  0.00     0.059 A 
ATOM     77  F   UNL A   1      43.348  24.530  25.637  1.00  0.00    -0.206 F 
ATOM     78  C   UNL A   1      42.633  21.106  26.545  1.00  0.00     0.060 A 
BRANCH  78  79
ATOM     79  S   UNL A   1      42.452  19.486  25.769  1.00  0.00     0.124 S 
ATOM     80  O   UNL A   1      43.364  19.599  24.637  1.00  0.00    -0.237 OA
ATOM     81  O   UNL A   1      42.868  18.584  26.837  1.00  0.00    -0.237 OA
ATOM     82  O   UNL A   1      41.031  19.433  25.433  1.00  0.00    -0.744 OA
ENDBRANCH  78  79
ENDBRANCH  46  71
BRANCH  58  83
ATOM     83  C   UNL A   1      48.022  27.049  30.952  1.00  0.00     0.058 A 
ATOM     84  C   UNL A   1      49.081  27.340  30.078  1.00  0.00     0.135 A 
ATOM     85  C   UNL A   1      48.334  26.443  32.180  1.00  0.00     0.135 A 
ATOM     86  F   UNL A   1      48.837  27.915  28.889  1.00  0.00    -0.206 F 
ATOM     87  C   UNL A   1      50.397  27.023  30.400  1.00  0.00     0.059 A 
ATOM     88  C   UNL A   1      49.645  26.141  32.534  1.00  0.00     0.059 A 
ATOM     89  F   UNL A   1      47.359  26.154  33.058  1.00  0.00    -0.206 F 
ATOM     90  C   UNL A   1      50.669  26.424  31.631  1.00  0.00     0.060 A 
BRANCH  90  91
ATOM     91  S   UNL A   1      52.384  26.048  32.052  1.00  0.00     0.124 S 
ATOM     92  O   UNL A   1      52.660  27.050  33.076  1.00  0.00    -0.237 OA
ATOM     93  O   UNL A   1      52.298  24.669  32.522  1.00  0.00    -0.237 OA
ATOM     94  O   UNL A   1      53.091  26.229  30.788  1.00  0.00    -0.744 OA
ENDBRANCH  90  91
ENDBRANCH  58  83
ENDBRANCH  32  33
ENDBRANCH  25  27
ENDBRANCH  24  25
ENDBRANCH  23  24
ENDBRANCH  22  23
ENDBRANCH   1  22
TORSDOF 20
ENDMDL
