MODEL 1
REMARK VINA RESULT:     -10.0      0.000      0.000
REMARK SMILES Cc1nc(Nc2ccc(F)cc2)nc(OCC(=O)OCCOCCOC(=O)c2ccc(-c3c4nc(c(-c5c(F)cc(S(=O)(=O)[O-])cc5F)c5ccc([nH]5)c(-c5c(F)cc(S(=O)(=O)[O-])cc5F)c5nc(c(-c6c(F)cc(S(=O)(=O)[O-])cc6F)c6ccc3[nH]6)C=C5)C=C4)cc2)c1CCO
REMARK SMILES IDX 21 1 20 2 19 3 17 4 18 5 16 6 15 7 14 8 1 9 2 10 3 11 94 12
REMARK SMILES IDX 4 13 13 14 95 15 96 16 97 17 5 19 6 21 7 22 12 23 8 24 11 25
REMARK SMILES IDX 9 26 10 27 22 28 23 29 24 30 25 31 26 32 27 33 28 34 29 35
REMARK SMILES IDX 93 36 30 37 92 38 31 39 32 40 33 41 86 42 34 43 91 44 85 45
REMARK SMILES IDX 87 46 35 47 90 48 84 49 83 50 36 52 70 53 49 54 69 55 50 56
REMARK SMILES IDX 53 57 68 58 88 59 51 60 52 61 67 63 89 64 54 65 37 66 38 67
REMARK SMILES IDX 47 68 39 69 40 70 46 71 48 72 41 73 42 74 43 75 44 76 45 77
REMARK SMILES IDX 71 78 72 79 81 80 73 81 74 82 80 83 82 84 75 85 76 86 77 87
REMARK SMILES IDX 78 88 79 89 55 90 56 91 65 92 57 93 58 94 64 95 66 96 59 97
REMARK SMILES IDX 60 98 61 99 62 100 63 101
REMARK H PARENT 97 18 5 20 87 51 53 62
REMARK Flexibility Score: inf
ROOT
ATOM      1  C   UNL A   1      41.062  21.884  26.315  1.00  0.00     0.202 C 
ENDROOT
BRANCH   1   2
ATOM      2  C   UNL A   1      39.594  21.935  26.755  1.00  0.00     0.261 C 
BRANCH   2   3
ATOM      3  O   UNL A   1      38.675  22.095  25.649  1.00  0.00    -0.461 OA
BRANCH   3   4
ATOM      4  C   UNL A   1      37.800  23.129  25.768  1.00  0.00     0.344 C 
ATOM      5  O   UNL A   1      38.080  24.230  26.233  1.00  0.00    -0.248 OA
BRANCH   4   6
ATOM      6  C   UNL A   1      36.382  22.793  25.294  1.00  0.00     0.353 C 
BRANCH   6   7
ATOM      7  O   UNL A   1      35.480  23.716  24.746  1.00  0.00    -0.465 OA
BRANCH   7   8
ATOM      8  C   UNL A   1      34.131  23.657  24.711  1.00  0.00     0.222 A 
ATOM      9  C   UNL A   1      30.755  24.824  23.506  1.00  0.00     0.067 C 
ATOM     10  C   UNL A   1      31.896  24.106  24.169  1.00  0.00     0.050 A 
ATOM     11  N   UNL A   1      31.557  22.850  24.511  1.00  0.00    -0.218 NA
ATOM     12  C   UNL A   1      33.192  24.612  24.329  1.00  0.00     0.038 A 
ATOM     13  C   UNL A   1      32.493  22.042  25.002  1.00  0.00     0.230 A 
ATOM     14  N   UNL A   1      33.766  22.413  25.102  1.00  0.00    -0.177 NA
BRANCH  12  15
ATOM     15  C   UNL A   1      33.458  26.080  24.132  1.00  0.00     0.071 C 
BRANCH  15  16
ATOM     16  C   UNL A   1      33.528  26.493  22.661  1.00  0.00     0.161 C 
BRANCH  16  17
ATOM     17  O   UNL A   1      33.983  25.436  21.829  1.00  0.00    -0.396 OA
ATOM     18  H   UNL A   1      33.244  24.839  21.632  1.00  0.00     0.210 HD
ENDBRANCH  16  17
ENDBRANCH  15  16
ENDBRANCH  12  15
BRANCH  13  19
ATOM     19  N   UNL A   1      32.134  20.780  25.462  1.00  0.00    -0.324 N 
ATOM     20  H   UNL A   1      31.584  20.752  26.278  1.00  0.00     0.170 HD
BRANCH  19  21
ATOM     21  C   UNL A   1      32.466  19.546  24.895  1.00  0.00     0.041 A 
ATOM     22  C   UNL A   1      32.937  18.491  25.694  1.00  0.00     0.029 A 
ATOM     23  C   UNL A   1      32.374  19.356  23.512  1.00  0.00     0.029 A 
ATOM     24  C   UNL A   1      33.325  17.278  25.120  1.00  0.00     0.041 A 
ATOM     25  C   UNL A   1      32.790  18.153  22.932  1.00  0.00     0.041 A 
ATOM     26  C   UNL A   1      33.264  17.128  23.742  1.00  0.00     0.123 A 
ATOM     27  F   UNL A   1      33.676  15.983  23.182  1.00  0.00    -0.207 F 
ENDBRANCH  19  21
ENDBRANCH  13  19
ENDBRANCH   7   8
ENDBRANCH   6   7
ENDBRANCH   4   6
ENDBRANCH   3   4
ENDBRANCH   2   3
ENDBRANCH   1   2
BRANCH   1  28
ATOM     28  O   UNL A   1      41.707  23.136  26.063  1.00  0.00    -0.374 OA
BRANCH  28  29
ATOM     29  C   UNL A   1      42.948  23.098  25.369  1.00  0.00     0.202 C 
BRANCH  29  30
ATOM     30  C   UNL A   1      43.552  24.440  24.950  1.00  0.00     0.261 C 
BRANCH  30  31
ATOM     31  O   UNL A   1      43.156  25.515  25.799  1.00  0.00    -0.460 OA
BRANCH  31  32
ATOM     32  C   UNL A   1      43.976  25.703  26.853  1.00  0.00     0.338 C 
ATOM     33  O   UNL A   1      45.139  25.338  26.978  1.00  0.00    -0.246 OA
BRANCH  32  34
ATOM     34  C   UNL A   1      43.315  26.600  27.797  1.00  0.00     0.060 A 
ATOM     35  C   UNL A   1      43.749  27.929  27.820  1.00  0.00     0.016 A 
ATOM     36  C   UNL A   1      42.326  26.135  28.667  1.00  0.00     0.016 A 
ATOM     37  C   UNL A   1      43.233  28.795  28.769  1.00  0.00     0.010 A 
ATOM     38  C   UNL A   1      41.815  27.005  29.627  1.00  0.00     0.010 A 
ATOM     39  C   UNL A   1      42.302  28.320  29.703  1.00  0.00    -0.014 A 
BRANCH  39  40
ATOM     40  C   UNL A   1      41.995  29.168  30.870  1.00  0.00     0.031 A 
ATOM     41  C   UNL A   1      40.781  30.047  30.806  1.00  0.00     0.074 A 
ATOM     42  C   UNL A   1      42.739  29.067  31.983  1.00  0.00     0.049 A 
ATOM     43  N   UNL A   1      40.276  30.826  31.723  1.00  0.00    -0.248 NA
ATOM     44  C   UNL A   1      40.025  30.039  29.539  1.00  0.00     0.031 C 
ATOM     45  C   UNL A   1      43.904  28.194  32.139  1.00  0.00     0.029 A 
ATOM     46  N   UNL A   1      42.616  29.685  33.197  1.00  0.00    -0.354 N 
ATOM     47  C   UNL A   1      39.143  31.392  31.152  1.00  0.00     0.074 A 
ATOM     48  C   UNL A   1      39.054  30.902  29.796  1.00  0.00     0.031 C 
ATOM     49  C   UNL A   1      44.380  28.323  33.389  1.00  0.00     0.029 A 
ATOM     50  C   UNL A   1      43.571  29.305  34.107  1.00  0.00     0.049 A 
ATOM     51  H   UNL A   1      41.908  30.340  33.399  1.00  0.00     0.167 HD
ATOM     52  C   UNL A   1      38.248  32.230  31.723  1.00  0.00     0.037 A 
ATOM     53  C   UNL A   1      43.765  29.712  35.376  1.00  0.00     0.037 A 
ATOM     54  C   UNL A   1      38.367  32.708  33.074  1.00  0.00     0.049 A 
ATOM     55  C   UNL A   1      42.802  30.709  35.963  1.00  0.00     0.074 A 
ATOM     56  C   UNL A   1      37.535  33.575  33.758  1.00  0.00     0.029 A 
ATOM     57  N   UNL A   1      39.387  32.354  33.948  1.00  0.00    -0.354 N 
ATOM     58  N   UNL A   1      41.735  31.243  35.413  1.00  0.00    -0.248 NA
ATOM     59  C   UNL A   1      43.062  31.159  37.335  1.00  0.00     0.031 C 
ATOM     60  C   UNL A   1      38.079  33.782  35.030  1.00  0.00     0.029 A 
ATOM     61  C   UNL A   1      39.219  33.002  35.159  1.00  0.00     0.049 A 
ATOM     62  H   UNL A   1      40.121  31.733  33.737  1.00  0.00     0.167 HD
ATOM     63  C   UNL A   1      41.186  32.079  36.378  1.00  0.00     0.074 A 
ATOM     64  C   UNL A   1      42.032  31.968  37.551  1.00  0.00     0.031 C 
ATOM     65  C   UNL A   1      40.085  32.868  36.305  1.00  0.00     0.037 A 
BRANCH  52  66
ATOM     66  C   UNL A   1      37.088  32.691  30.888  1.00  0.00     0.058 A 
ATOM     67  C   UNL A   1      37.238  33.746  29.975  1.00  0.00     0.135 A 
ATOM     68  C   UNL A   1      35.813  32.111  31.012  1.00  0.00     0.135 A 
ATOM     69  F   UNL A   1      38.435  34.328  29.804  1.00  0.00    -0.206 F 
ATOM     70  C   UNL A   1      36.165  34.223  29.228  1.00  0.00     0.059 A 
ATOM     71  C   UNL A   1      34.731  32.554  30.257  1.00  0.00     0.059 A 
ATOM     72  F   UNL A   1      35.621  31.078  31.848  1.00  0.00    -0.206 F 
ATOM     73  C   UNL A   1      34.914  33.621  29.377  1.00  0.00     0.060 A 
BRANCH  73  74
ATOM     74  S   UNL A   1      33.540  34.233  28.378  1.00  0.00     0.124 S 
ATOM     75  O   UNL A   1      32.633  34.747  29.399  1.00  0.00    -0.237 OA
ATOM     76  O   UNL A   1      34.192  35.235  27.542  1.00  0.00    -0.237 OA
ATOM     77  O   UNL A   1      33.079  33.042  27.670  1.00  0.00    -0.744 OA
ENDBRANCH  73  74
ENDBRANCH  52  66
BRANCH  53  78
ATOM     78  C   UNL A   1      44.901  29.163  36.160  1.00  0.00     0.058 A 
ATOM     79  C   UNL A   1      46.180  29.739  36.085  1.00  0.00     0.135 A 
ATOM     80  C   UNL A   1      44.747  28.022  36.960  1.00  0.00     0.135 A 
ATOM     81  F   UNL A   1      46.384  30.828  35.327  1.00  0.00    -0.206 F 
ATOM     82  C   UNL A   1      47.270  29.185  36.746  1.00  0.00     0.059 A 
ATOM     83  C   UNL A   1      45.819  27.461  37.652  1.00  0.00     0.059 A 
ATOM     84  F   UNL A   1      43.543  27.441  37.073  1.00  0.00    -0.206 F 
ATOM     85  C   UNL A   1      47.081  28.041  37.521  1.00  0.00     0.060 A 
BRANCH  85  86
ATOM     86  S   UNL A   1      48.517  27.321  38.347  1.00  0.00     0.124 S 
ATOM     87  O   UNL A   1      48.821  28.343  39.343  1.00  0.00    -0.237 OA
ATOM     88  O   UNL A   1      47.976  26.069  38.864  1.00  0.00    -0.237 OA
ATOM     89  O   UNL A   1      49.492  27.185  37.270  1.00  0.00    -0.744 OA
ENDBRANCH  85  86
ENDBRANCH  53  78
BRANCH  65  90
ATOM     90  C   UNL A   1      39.722  33.664  37.526  1.00  0.00     0.058 A 
ATOM     91  C   UNL A   1      40.340  34.899  37.778  1.00  0.00     0.135 A 
ATOM     92  C   UNL A   1      38.834  33.162  38.489  1.00  0.00     0.135 A 
ATOM     93  F   UNL A   1      41.204  35.418  36.890  1.00  0.00    -0.206 F 
ATOM     94  C   UNL A   1      40.105  35.600  38.954  1.00  0.00     0.059 A 
ATOM     95  C   UNL A   1      38.563  33.860  39.660  1.00  0.00     0.059 A 
ATOM     96  F   UNL A   1      38.211  31.990  38.287  1.00  0.00    -0.206 F 
ATOM     97  C   UNL A   1      39.219  35.069  39.891  1.00  0.00     0.060 A 
BRANCH  97  98
ATOM     98  S   UNL A   1      38.922  35.996  41.412  1.00  0.00     0.124 S 
ATOM     99  O   UNL A   1      37.649  35.437  41.857  1.00  0.00    -0.237 OA
ATOM    100  O   UNL A   1      40.086  35.644  42.219  1.00  0.00    -0.237 OA
ATOM    101  O   UNL A   1      38.876  37.382  40.960  1.00  0.00    -0.744 OA
ENDBRANCH  97  98
ENDBRANCH  65  90
ENDBRANCH  39  40
ENDBRANCH  32  34
ENDBRANCH  31  32
ENDBRANCH  30  31
ENDBRANCH  29  30
ENDBRANCH  28  29
ENDBRANCH   1  28
TORSDOF 24
ENDMDL
MODEL 2
REMARK VINA RESULT:      -9.6      5.760     11.666
REMARK SMILES Cc1nc(Nc2ccc(F)cc2)nc(OCC(=O)OCCOCCOC(=O)c2ccc(-c3c4nc(c(-c5c(F)cc(S(=O)(=O)[O-])cc5F)c5ccc([nH]5)c(-c5c(F)cc(S(=O)(=O)[O-])cc5F)c5nc(c(-c6c(F)cc(S(=O)(=O)[O-])cc6F)c6ccc3[nH]6)C=C5)C=C4)cc2)c1CCO
REMARK SMILES IDX 21 1 20 2 19 3 17 4 18 5 16 6 15 7 14 8 1 9 2 10 3 11 94 12
REMARK SMILES IDX 4 13 13 14 95 15 96 16 97 17 5 19 6 21 7 22 12 23 8 24 11 25
REMARK SMILES IDX 9 26 10 27 22 28 23 29 24 30 25 31 26 32 27 33 28 34 29 35
REMARK SMILES IDX 93 36 30 37 92 38 31 39 32 40 33 41 86 42 34 43 91 44 85 45
REMARK SMILES IDX 87 46 35 47 90 48 84 49 83 50 36 52 70 53 49 54 69 55 50 56
REMARK SMILES IDX 53 57 68 58 88 59 51 60 52 61 67 63 89 64 54 65 37 66 38 67
REMARK SMILES IDX 47 68 39 69 40 70 46 71 48 72 41 73 42 74 43 75 44 76 45 77
REMARK SMILES IDX 71 78 72 79 81 80 73 81 74 82 80 83 82 84 75 85 76 86 77 87
REMARK SMILES IDX 78 88 79 89 55 90 56 91 65 92 57 93 58 94 64 95 66 96 59 97
REMARK SMILES IDX 60 98 61 99 62 100 63 101
REMARK H PARENT 97 18 5 20 87 51 53 62
REMARK Flexibility Score: inf
ROOT
ATOM      1  C   UNL A   1      35.025  32.497  27.997  1.00  0.00     0.202 C 
ENDROOT
BRANCH   1   2
ATOM      2  C   UNL A   1      33.652  31.816  28.036  1.00  0.00     0.261 C 
BRANCH   2   3
ATOM      3  O   UNL A   1      33.340  31.097  26.820  1.00  0.00    -0.461 OA
BRANCH   3   4
ATOM      4  C   UNL A   1      33.154  29.757  26.971  1.00  0.00     0.344 C 
ATOM      5  O   UNL A   1      33.991  28.984  27.427  1.00  0.00    -0.248 OA
BRANCH   4   6
ATOM      6  C   UNL A   1      31.788  29.267  26.478  1.00  0.00     0.353 C 
BRANCH   6   7
ATOM      7  O   UNL A   1      31.418  27.921  26.351  1.00  0.00    -0.465 OA
BRANCH   7   8
ATOM      8  C   UNL A   1      31.852  27.009  25.454  1.00  0.00     0.222 A 
ATOM      9  C   UNL A   1      33.518  26.018  22.221  1.00  0.00     0.067 C 
ATOM     10  C   UNL A   1      32.830  26.044  23.556  1.00  0.00     0.050 A 
ATOM     11  N   UNL A   1      33.028  24.900  24.236  1.00  0.00    -0.218 NA
ATOM     12  C   UNL A   1      32.152  27.141  24.101  1.00  0.00     0.038 A 
ATOM     13  C   UNL A   1      32.583  24.809  25.486  1.00  0.00     0.230 A 
ATOM     14  N   UNL A   1      32.010  25.834  26.110  1.00  0.00    -0.177 NA
BRANCH  12  15
ATOM     15  C   UNL A   1      31.775  28.306  23.224  1.00  0.00     0.071 C 
BRANCH  15  16
ATOM     16  C   UNL A   1      30.405  28.151  22.564  1.00  0.00     0.161 C 
BRANCH  16  17
ATOM     17  O   UNL A   1      30.158  29.164  21.599  1.00  0.00    -0.396 OA
ATOM     18  H   UNL A   1      29.206  29.350  21.561  1.00  0.00     0.210 HD
ENDBRANCH  16  17
ENDBRANCH  15  16
ENDBRANCH  12  15
BRANCH  13  19
ATOM     19  N   UNL A   1      32.682  23.597  26.161  1.00  0.00    -0.324 N 
ATOM     20  H   UNL A   1      32.478  23.615  27.124  1.00  0.00     0.170 HD
BRANCH  19  21
ATOM     21  C   UNL A   1      33.037  22.356  25.626  1.00  0.00     0.041 A 
ATOM     22  C   UNL A   1      32.055  21.451  25.195  1.00  0.00     0.029 A 
ATOM     23  C   UNL A   1      34.383  21.978  25.552  1.00  0.00     0.029 A 
ATOM     24  C   UNL A   1      32.407  20.186  24.716  1.00  0.00     0.041 A 
ATOM     25  C   UNL A   1      34.736  20.702  25.101  1.00  0.00     0.041 A 
ATOM     26  C   UNL A   1      33.745  19.819  24.690  1.00  0.00     0.123 A 
ATOM     27  F   UNL A   1      34.086  18.592  24.274  1.00  0.00    -0.207 F 
ENDBRANCH  19  21
ENDBRANCH  13  19
ENDBRANCH   7   8
ENDBRANCH   6   7
ENDBRANCH   4   6
ENDBRANCH   3   4
ENDBRANCH   2   3
ENDBRANCH   1   2
BRANCH   1  28
ATOM     28  O   UNL A   1      35.620  32.830  29.254  1.00  0.00    -0.374 OA
BRANCH  28  29
ATOM     29  C   UNL A   1      35.118  32.162  30.406  1.00  0.00     0.202 C 
BRANCH  29  30
ATOM     30  C   UNL A   1      35.896  30.938  30.895  1.00  0.00     0.261 C 
BRANCH  30  31
ATOM     31  O   UNL A   1      36.608  31.182  32.105  1.00  0.00    -0.460 OA
BRANCH  31  32
ATOM     32  C   UNL A   1      37.696  31.962  31.946  1.00  0.00     0.338 C 
ATOM     33  O   UNL A   1      37.906  33.071  32.425  1.00  0.00    -0.246 OA
BRANCH  32  34
ATOM     34  C   UNL A   1      38.716  31.194  31.239  1.00  0.00     0.060 A 
ATOM     35  C   UNL A   1      39.594  30.434  32.018  1.00  0.00     0.016 A 
ATOM     36  C   UNL A   1      38.834  31.255  29.848  1.00  0.00     0.016 A 
ATOM     37  C   UNL A   1      40.646  29.773  31.407  1.00  0.00     0.010 A 
ATOM     38  C   UNL A   1      39.898  30.596  29.235  1.00  0.00     0.010 A 
ATOM     39  C   UNL A   1      40.826  29.894  30.022  1.00  0.00    -0.014 A 
BRANCH  39  40
ATOM     40  C   UNL A   1      42.102  29.433  29.445  1.00  0.00     0.031 A 
ATOM     41  C   UNL A   1      43.276  30.367  29.488  1.00  0.00     0.074 A 
ATOM     42  C   UNL A   1      42.213  28.175  28.988  1.00  0.00     0.049 A 
ATOM     43  N   UNL A   1      44.507  30.164  29.103  1.00  0.00    -0.248 NA
ATOM     44  C   UNL A   1      43.033  31.709  30.048  1.00  0.00     0.031 C 
ATOM     45  C   UNL A   1      41.130  27.191  28.964  1.00  0.00     0.029 A 
ATOM     46  N   UNL A   1      43.291  27.503  28.480  1.00  0.00    -0.354 N 
ATOM     47  C   UNL A   1      45.185  31.344  29.385  1.00  0.00     0.074 A 
ATOM     48  C   UNL A   1      44.225  32.274  29.932  1.00  0.00     0.031 C 
ATOM     49  C   UNL A   1      41.605  26.033  28.477  1.00  0.00     0.029 A 
ATOM     50  C   UNL A   1      43.015  26.204  28.133  1.00  0.00     0.049 A 
ATOM     51  H   UNL A   1      44.181  27.913  28.373  1.00  0.00     0.167 HD
ATOM     52  C   UNL A   1      46.500  31.612  29.217  1.00  0.00     0.037 A 
ATOM     53  C   UNL A   1      43.816  25.265  27.594  1.00  0.00     0.037 A 
ATOM     54  C   UNL A   1      47.433  30.668  28.663  1.00  0.00     0.049 A 
ATOM     55  C   UNL A   1      45.258  25.615  27.342  1.00  0.00     0.074 A 
ATOM     56  C   UNL A   1      48.785  30.830  28.425  1.00  0.00     0.029 A 
ATOM     57  N   UNL A   1      47.104  29.380  28.258  1.00  0.00    -0.354 N 
ATOM     58  N   UNL A   1      45.891  26.735  27.606  1.00  0.00    -0.248 NA
ATOM     59  C   UNL A   1      46.096  24.581  26.722  1.00  0.00     0.031 C 
ATOM     60  C   UNL A   1      49.263  29.656  27.835  1.00  0.00     0.029 A 
ATOM     61  C   UNL A   1      48.223  28.743  27.753  1.00  0.00     0.049 A 
ATOM     62  H   UNL A   1      46.207  28.980  28.323  1.00  0.00     0.167 HD
ATOM     63  C   UNL A   1      47.205  26.537  27.200  1.00  0.00     0.074 A 
ATOM     64  C   UNL A   1      47.279  25.182  26.686  1.00  0.00     0.031 C 
ATOM     65  C   UNL A   1      48.257  27.392  27.247  1.00  0.00     0.037 A 
BRANCH  52  66
ATOM     66  C   UNL A   1      46.995  32.973  29.618  1.00  0.00     0.058 A 
ATOM     67  C   UNL A   1      47.470  33.207  30.918  1.00  0.00     0.135 A 
ATOM     68  C   UNL A   1      46.969  34.059  28.727  1.00  0.00     0.135 A 
ATOM     69  F   UNL A   1      47.530  32.203  31.807  1.00  0.00    -0.206 F 
ATOM     70  C   UNL A   1      47.885  34.470  31.326  1.00  0.00     0.059 A 
ATOM     71  C   UNL A   1      47.404  35.326  29.105  1.00  0.00     0.059 A 
ATOM     72  F   UNL A   1      46.554  33.884  27.462  1.00  0.00    -0.206 F 
ATOM     73  C   UNL A   1      47.847  35.525  30.412  1.00  0.00     0.060 A 
BRANCH  73  74
ATOM     74  S   UNL A   1      48.418  37.152  30.951  1.00  0.00     0.124 S 
ATOM     75  O   UNL A   1      49.406  36.801  31.965  1.00  0.00    -0.237 OA
ATOM     76  O   UNL A   1      48.947  37.716  29.713  1.00  0.00    -0.237 OA
ATOM     77  O   UNL A   1      47.203  37.788  31.450  1.00  0.00    -0.744 OA
ENDBRANCH  73  74
ENDBRANCH  52  66
BRANCH  53  78
ATOM     78  C   UNL A   1      43.268  23.920  27.282  1.00  0.00     0.058 A 
ATOM     79  C   UNL A   1      43.132  22.943  28.281  1.00  0.00     0.135 A 
ATOM     80  C   UNL A   1      42.917  23.565  25.972  1.00  0.00     0.135 A 
ATOM     81  F   UNL A   1      43.462  23.227  29.550  1.00  0.00    -0.206 F 
ATOM     82  C   UNL A   1      42.701  21.654  27.987  1.00  0.00     0.059 A 
ATOM     83  C   UNL A   1      42.460  22.288  25.656  1.00  0.00     0.059 A 
ATOM     84  F   UNL A   1      43.018  24.468  24.984  1.00  0.00    -0.206 F 
ATOM     85  C   UNL A   1      42.374  21.334  26.670  1.00  0.00     0.060 A 
BRANCH  85  86
ATOM     86  S   UNL A   1      41.845  19.645  26.307  1.00  0.00     0.124 S 
ATOM     87  O   UNL A   1      40.397  19.806  26.227  1.00  0.00    -0.237 OA
ATOM     88  O   UNL A   1      42.526  19.376  25.045  1.00  0.00    -0.237 OA
ATOM     89  O   UNL A   1      42.330  18.886  27.454  1.00  0.00    -0.744 OA
ENDBRANCH  85  86
ENDBRANCH  53  78
BRANCH  65  90
ATOM     90  C   UNL A   1      49.579  26.890  26.741  1.00  0.00     0.058 A 
ATOM     91  C   UNL A   1      49.947  27.085  25.400  1.00  0.00     0.135 A 
ATOM     92  C   UNL A   1      50.438  26.140  27.558  1.00  0.00     0.135 A 
ATOM     93  F   UNL A   1      49.154  27.790  24.576  1.00  0.00    -0.206 F 
ATOM     94  C   UNL A   1      51.111  26.534  24.881  1.00  0.00     0.059 A 
ATOM     95  C   UNL A   1      51.622  25.603  27.066  1.00  0.00     0.059 A 
ATOM     96  F   UNL A   1      50.133  25.936  28.850  1.00  0.00    -0.206 F 
ATOM     97  C   UNL A   1      51.940  25.790  25.721  1.00  0.00     0.060 A 
BRANCH  97  98
ATOM     98  S   UNL A   1      53.452  25.086  25.031  1.00  0.00     0.124 S 
ATOM     99  O   UNL A   1      53.232  23.657  25.230  1.00  0.00    -0.237 OA
ATOM    100  O   UNL A   1      53.404  25.549  23.647  1.00  0.00    -0.237 OA
ATOM    101  O   UNL A   1      54.505  25.679  25.848  1.00  0.00    -0.744 OA
ENDBRANCH  97  98
ENDBRANCH  65  90
ENDBRANCH  39  40
ENDBRANCH  32  34
ENDBRANCH  31  32
ENDBRANCH  30  31
ENDBRANCH  29  30
ENDBRANCH  28  29
ENDBRANCH   1  28
TORSDOF 24
ENDMDL
MODEL 3
REMARK VINA RESULT:      -9.4      2.717      4.403
REMARK SMILES Cc1nc(Nc2ccc(F)cc2)nc(OCC(=O)OCCOCCOC(=O)c2ccc(-c3c4nc(c(-c5c(F)cc(S(=O)(=O)[O-])cc5F)c5ccc([nH]5)c(-c5c(F)cc(S(=O)(=O)[O-])cc5F)c5nc(c(-c6c(F)cc(S(=O)(=O)[O-])cc6F)c6ccc3[nH]6)C=C5)C=C4)cc2)c1CCO
REMARK SMILES IDX 21 1 20 2 19 3 17 4 18 5 16 6 15 7 14 8 1 9 2 10 3 11 94 12
REMARK SMILES IDX 4 13 13 14 95 15 96 16 97 17 5 19 6 21 7 22 12 23 8 24 11 25
REMARK SMILES IDX 9 26 10 27 22 28 23 29 24 30 25 31 26 32 27 33 28 34 29 35
REMARK SMILES IDX 93 36 30 37 92 38 31 39 32 40 33 41 86 42 34 43 91 44 85 45
REMARK SMILES IDX 87 46 35 47 90 48 84 49 83 50 36 52 70 53 49 54 69 55 50 56
REMARK SMILES IDX 53 57 68 58 88 59 51 60 52 61 67 63 89 64 54 65 37 66 38 67
REMARK SMILES IDX 47 68 39 69 40 70 46 71 48 72 41 73 42 74 43 75 44 76 45 77
REMARK SMILES IDX 71 78 72 79 81 80 73 81 74 82 80 83 82 84 75 85 76 86 77 87
REMARK SMILES IDX 78 88 79 89 55 90 56 91 65 92 57 93 58 94 64 95 66 96 59 97
REMARK SMILES IDX 60 98 61 99 62 100 63 101
REMARK H PARENT 97 18 5 20 87 51 53 62
REMARK Flexibility Score: inf
ROOT
ATOM      1  C   UNL A   1      46.001  22.165  24.672  1.00  0.00     0.202 C 
ENDROOT
BRANCH   1   2
ATOM      2  C   UNL A   1      45.249  20.832  24.596  1.00  0.00     0.261 C 
BRANCH   2   3
ATOM      3  O   UNL A   1      44.232  20.695  25.616  1.00  0.00    -0.461 OA
BRANCH   3   4
ATOM      4  C   UNL A   1      43.378  19.649  25.445  1.00  0.00     0.344 C 
ATOM      5  O   UNL A   1      43.179  19.078  24.377  1.00  0.00    -0.248 OA
BRANCH   4   6
ATOM      6  C   UNL A   1      42.634  19.248  26.724  1.00  0.00     0.353 C 
BRANCH   6   7
ATOM      7  O   UNL A   1      41.999  20.144  27.596  1.00  0.00    -0.465 OA
BRANCH   7   8
ATOM      8  C   UNL A   1      41.365  21.300  27.301  1.00  0.00     0.222 A 
ATOM      9  C   UNL A   1      41.312  24.928  26.278  1.00  0.00     0.067 C 
ATOM     10  C   UNL A   1      40.962  23.522  26.678  1.00  0.00     0.050 A 
ATOM     11  N   UNL A   1      39.723  23.188  26.276  1.00  0.00    -0.218 NA
ATOM     12  C   UNL A   1      41.830  22.612  27.294  1.00  0.00     0.038 A 
ATOM     13  C   UNL A   1      39.305  21.938  26.449  1.00  0.00     0.230 A 
ATOM     14  N   UNL A   1      40.097  20.989  26.942  1.00  0.00    -0.177 NA
BRANCH  12  15
ATOM     15  C   UNL A   1      43.115  23.095  27.912  1.00  0.00     0.071 C 
BRANCH  15  16
ATOM     16  C   UNL A   1      43.438  22.422  29.247  1.00  0.00     0.161 C 
BRANCH  16  17
ATOM     17  O   UNL A   1      42.906  23.139  30.351  1.00  0.00    -0.396 OA
ATOM     18  H   UNL A   1      43.121  24.081  30.259  1.00  0.00     0.210 HD
ENDBRANCH  16  17
ENDBRANCH  15  16
ENDBRANCH  12  15
BRANCH  13  19
ATOM     19  N   UNL A   1      37.990  21.607  26.140  1.00  0.00    -0.324 N 
ATOM     20  H   UNL A   1      37.677  20.727  26.450  1.00  0.00     0.170 HD
BRANCH  19  21
ATOM     21  C   UNL A   1      37.063  22.384  25.441  1.00  0.00     0.041 A 
ATOM     22  C   UNL A   1      36.926  22.260  24.049  1.00  0.00     0.029 A 
ATOM     23  C   UNL A   1      36.283  23.331  26.114  1.00  0.00     0.029 A 
ATOM     24  C   UNL A   1      36.042  23.079  23.342  1.00  0.00     0.041 A 
ATOM     25  C   UNL A   1      35.420  24.172  25.405  1.00  0.00     0.041 A 
ATOM     26  C   UNL A   1      35.310  24.039  24.026  1.00  0.00     0.123 A 
ATOM     27  F   UNL A   1      34.494  24.856  23.348  1.00  0.00    -0.207 F 
ENDBRANCH  19  21
ENDBRANCH  13  19
ENDBRANCH   7   8
ENDBRANCH   6   7
ENDBRANCH   4   6
ENDBRANCH   3   4
ENDBRANCH   2   3
ENDBRANCH   1   2
BRANCH   1  28
ATOM     28  O   UNL A   1      45.438  23.269  23.958  1.00  0.00    -0.374 OA
BRANCH  28  29
ATOM     29  C   UNL A   1      44.668  24.202  24.707  1.00  0.00     0.202 C 
BRANCH  29  30
ATOM     30  C   UNL A   1      45.343  25.526  25.073  1.00  0.00     0.261 C 
BRANCH  30  31
ATOM     31  O   UNL A   1      44.630  26.255  26.068  1.00  0.00    -0.460 OA
BRANCH  31  32
ATOM     32  C   UNL A   1      45.031  25.987  27.327  1.00  0.00     0.338 C 
ATOM     33  O   UNL A   1      45.961  25.275  27.687  1.00  0.00    -0.246 OA
BRANCH  32  34
ATOM     34  C   UNL A   1      44.284  26.845  28.242  1.00  0.00     0.060 A 
ATOM     35  C   UNL A   1      44.657  28.191  28.299  1.00  0.00     0.016 A 
ATOM     36  C   UNL A   1      43.272  26.329  29.056  1.00  0.00     0.016 A 
ATOM     37  C   UNL A   1      44.055  29.024  29.226  1.00  0.00     0.010 A 
ATOM     38  C   UNL A   1      42.674  27.166  29.995  1.00  0.00     0.010 A 
ATOM     39  C   UNL A   1      43.098  28.500  30.107  1.00  0.00    -0.014 A 
BRANCH  39  40
ATOM     40  C   UNL A   1      42.695  29.322  31.263  1.00  0.00     0.031 A 
ATOM     41  C   UNL A   1      41.433  30.127  31.152  1.00  0.00     0.074 A 
ATOM     42  C   UNL A   1      43.398  29.261  32.404  1.00  0.00     0.049 A 
ATOM     43  N   UNL A   1      40.846  30.870  32.050  1.00  0.00    -0.248 NA
ATOM     44  C   UNL A   1      40.731  30.081  29.856  1.00  0.00     0.031 C 
ATOM     45  C   UNL A   1      44.606  28.458  32.605  1.00  0.00     0.029 A 
ATOM     46  N   UNL A   1      43.189  29.864  33.614  1.00  0.00    -0.354 N 
ATOM     47  C   UNL A   1      39.705  31.370  31.435  1.00  0.00     0.074 A 
ATOM     48  C   UNL A   1      39.700  30.883  30.075  1.00  0.00     0.031 C 
ATOM     49  C   UNL A   1      45.023  28.609  33.873  1.00  0.00     0.029 A 
ATOM     50  C   UNL A   1      44.128  29.537  34.561  1.00  0.00     0.049 A 
ATOM     51  H   UNL A   1      42.435  30.475  33.789  1.00  0.00     0.167 HD
ATOM     52  C   UNL A   1      38.739  32.150  31.971  1.00  0.00     0.037 A 
ATOM     53  C   UNL A   1      44.246  29.949  35.837  1.00  0.00     0.037 A 
ATOM     54  C   UNL A   1      38.775  32.627  33.328  1.00  0.00     0.049 A 
ATOM     55  C   UNL A   1      43.202  30.883  36.388  1.00  0.00     0.074 A 
ATOM     56  C   UNL A   1      37.866  33.439  33.979  1.00  0.00     0.029 A 
ATOM     57  N   UNL A   1      39.778  32.331  34.241  1.00  0.00    -0.354 N 
ATOM     58  N   UNL A   1      42.128  31.355  35.797  1.00  0.00    -0.248 NA
ATOM     59  C   UNL A   1      43.379  31.341  37.771  1.00  0.00     0.031 C 
ATOM     60  C   UNL A   1      38.344  33.672  35.273  1.00  0.00     0.029 A 
ATOM     61  C   UNL A   1      39.523  32.962  35.446  1.00  0.00     0.049 A 
ATOM     62  H   UNL A   1      40.556  31.756  34.058  1.00  0.00     0.167 HD
ATOM     63  C   UNL A   1      41.492  32.152  36.741  1.00  0.00     0.074 A 
ATOM     64  C   UNL A   1      42.295  32.086  37.947  1.00  0.00     0.031 C 
ATOM     65  C   UNL A   1      40.349  32.873  36.626  1.00  0.00     0.037 A 
BRANCH  52  66
ATOM     66  C   UNL A   1      37.588  32.545  31.091  1.00  0.00     0.058 A 
ATOM     67  C   UNL A   1      36.399  31.799  31.092  1.00  0.00     0.135 A 
ATOM     68  C   UNL A   1      37.669  33.644  30.219  1.00  0.00     0.135 A 
ATOM     69  F   UNL A   1      36.260  30.748  31.914  1.00  0.00    -0.206 F 
ATOM     70  C   UNL A   1      35.338  32.117  30.249  1.00  0.00     0.059 A 
ATOM     71  C   UNL A   1      36.611  33.996  29.385  1.00  0.00     0.059 A 
ATOM     72  F   UNL A   1      38.771  34.411  30.201  1.00  0.00    -0.206 F 
ATOM     73  C   UNL A   1      35.454  33.217  29.397  1.00  0.00     0.060 A 
BRANCH  73  74
ATOM     74  S   UNL A   1      34.057  33.631  28.331  1.00  0.00     0.124 S 
ATOM     75  O   UNL A   1      34.677  34.525  27.359  1.00  0.00    -0.237 OA
ATOM     76  O   UNL A   1      33.657  32.321  27.827  1.00  0.00    -0.237 OA
ATOM     77  O   UNL A   1      33.108  34.258  29.245  1.00  0.00    -0.744 OA
ENDBRANCH  73  74
ENDBRANCH  52  66
BRANCH  53  78
ATOM     78  C   UNL A   1      45.381  29.465  36.665  1.00  0.00     0.058 A 
ATOM     79  C   UNL A   1      45.254  28.324  37.474  1.00  0.00     0.135 A 
ATOM     80  C   UNL A   1      46.599  30.159  36.706  1.00  0.00     0.135 A 
ATOM     81  F   UNL A   1      44.107  27.626  37.478  1.00  0.00    -0.206 F 
ATOM     82  C   UNL A   1      46.278  27.909  38.317  1.00  0.00     0.059 A 
ATOM     83  C   UNL A   1      47.649  29.750  37.525  1.00  0.00     0.059 A 
ATOM     84  F   UNL A   1      46.773  31.250  35.944  1.00  0.00    -0.206 F 
ATOM     85  C   UNL A   1      47.470  28.633  38.341  1.00  0.00     0.060 A 
BRANCH  85  86
ATOM     86  S   UNL A   1      48.776  28.093  39.467  1.00  0.00     0.124 S 
ATOM     87  O   UNL A   1      48.043  27.964  40.721  1.00  0.00    -0.237 OA
ATOM     88  O   UNL A   1      49.210  26.843  38.852  1.00  0.00    -0.237 OA
ATOM     89  O   UNL A   1      49.740  29.186  39.413  1.00  0.00    -0.744 OA
ENDBRANCH  85  86
ENDBRANCH  53  78
BRANCH  65  90
ATOM     90  C   UNL A   1      39.890  33.640  37.833  1.00  0.00     0.058 A 
ATOM     91  C   UNL A   1      40.412  34.915  38.105  1.00  0.00     0.135 A 
ATOM     92  C   UNL A   1      39.006  33.076  38.765  1.00  0.00     0.135 A 
ATOM     93  F   UNL A   1      41.268  35.494  37.247  1.00  0.00    -0.206 F 
ATOM     94  C   UNL A   1      40.089  35.595  39.272  1.00  0.00     0.059 A 
ATOM     95  C   UNL A   1      38.648  33.751  39.926  1.00  0.00     0.059 A 
ATOM     96  F   UNL A   1      38.474  31.864  38.542  1.00  0.00    -0.206 F 
ATOM     97  C   UNL A   1      39.210  35.003  40.179  1.00  0.00     0.060 A 
BRANCH  97  98
ATOM     98  S   UNL A   1      38.797  35.903  41.688  1.00  0.00     0.124 S 
ATOM     99  O   UNL A   1      39.813  35.414  42.614  1.00  0.00    -0.237 OA
ATOM    100  O   UNL A   1      38.940  37.294  41.266  1.00  0.00    -0.237 OA
ATOM    101  O   UNL A   1      37.431  35.479  41.973  1.00  0.00    -0.744 OA
ENDBRANCH  97  98
ENDBRANCH  65  90
ENDBRANCH  39  40
ENDBRANCH  32  34
ENDBRANCH  31  32
ENDBRANCH  30  31
ENDBRANCH  29  30
ENDBRANCH  28  29
ENDBRANCH   1  28
TORSDOF 24
ENDMDL
