MODEL 1
REMARK VINA RESULT:     -11.6      0.000      0.000
REMARK SMILES Cc1ccccc1-c1c(Cl)ccc2c1C=C(C(=O)OCCOCCOC(=O)c1ccc(-c3c4nc(c(-c5c(F)cc(S(=O)(=O)[O-])cc5F)c5ccc([nH]5)c(-c5c(F)cc(S(=O)(=O)[O-])cc5F)c5nc(c(-c6c(F)cc(S(=O)(=O)[O-])cc6F)c6ccc3[nH]6)C=C5)C=C4)cc1)[C@@H](C(F)(F)F)O2
REMARK SMILES IDX 23 1 22 2 21 3 20 4 19 5 17 6 18 7 16 8 8 9 9 10 14 11 10 12
REMARK SMILES IDX 11 13 13 14 15 15 12 16 99 17 94 18 7 19 1 20 2 21 3 22 4 23
REMARK SMILES IDX 6 24 5 25 95 26 96 27 97 28 98 29 24 30 25 31 26 32 27 33
REMARK SMILES IDX 28 34 29 35 93 36 30 37 92 38 31 39 32 40 33 41 86 42 34 43
REMARK SMILES IDX 91 44 85 45 87 46 35 47 90 48 84 49 83 50 36 52 70 53 49 54
REMARK SMILES IDX 69 55 50 56 53 57 68 58 88 59 51 60 52 61 67 63 89 64 54 65
REMARK SMILES IDX 37 66 38 67 47 68 39 69 40 70 46 71 48 72 41 73 42 74 43 75
REMARK SMILES IDX 44 76 45 77 71 78 72 79 81 80 73 81 74 82 80 83 82 84 75 85
REMARK SMILES IDX 76 86 77 87 78 88 79 89 55 90 56 91 65 92 57 93 58 94 64 95
REMARK SMILES IDX 66 96 59 97 60 98 61 99 62 100 63 101
REMARK H PARENT 87 51 53 62
REMARK Flexibility Score: inf
ROOT
ATOM      1  C   UNL A   1      35.676  31.196  28.328  1.00  0.00     0.202 C 
ENDROOT
BRANCH   1   2
ATOM      2  O   UNL A   1      34.974  32.329  27.836  1.00  0.00    -0.374 OA
BRANCH   2   3
ATOM      3  C   UNL A   1      33.607  32.086  27.481  1.00  0.00     0.202 C 
BRANCH   3   4
ATOM      4  C   UNL A   1      33.383  30.586  27.492  1.00  0.00     0.261 C 
BRANCH   4   5
ATOM      5  O   UNL A   1      33.149  30.080  26.158  1.00  0.00    -0.460 OA
BRANCH   5   6
ATOM      6  C   UNL A   1      33.712  28.874  25.926  1.00  0.00     0.338 C 
ATOM      7  O   UNL A   1      34.628  28.358  26.550  1.00  0.00    -0.246 OA
BRANCH   6   8
ATOM      8  C   UNL A   1      33.098  28.162  24.783  1.00  0.00     0.087 C 
ATOM      9  C   UNL A   1      33.138  24.530  25.383  1.00  0.00     0.012 A 
ATOM     10  C   UNL A   1      32.260  23.694  26.130  1.00  0.00     0.049 A 
ATOM     11  C   UNL A   1      32.671  25.842  25.069  1.00  0.00     0.027 A 
ATOM     12  Cl  UNL A   1      32.729  22.113  26.680  1.00  0.00    -0.084 Cl
ATOM     13  C   UNL A   1      30.970  24.100  26.485  1.00  0.00     0.025 A 
ATOM     14  C   UNL A   1      31.346  26.212  25.410  1.00  0.00     0.128 A 
ATOM     15  C   UNL A   1      33.577  26.921  24.604  1.00  0.00     0.028 C 
ATOM     16  C   UNL A   1      30.505  25.348  26.103  1.00  0.00     0.049 A 
ATOM     17  O   UNL A   1      30.781  27.434  25.150  1.00  0.00    -0.475 OA
ATOM     18  C   UNL A   1      31.639  28.464  24.632  1.00  0.00     0.316 C 
BRANCH   9  19
ATOM     19  C   UNL A   1      34.439  23.980  24.885  1.00  0.00    -0.013 A 
ATOM     20  C   UNL A   1      33.628  23.263  22.540  1.00  0.00     0.045 C 
ATOM     21  C   UNL A   1      34.669  23.412  23.611  1.00  0.00    -0.043 A 
ATOM     22  C   UNL A   1      35.958  22.956  23.262  1.00  0.00     0.004 A 
ATOM     23  C   UNL A   1      37.033  23.090  24.133  1.00  0.00     0.000 A 
ATOM     24  C   UNL A   1      35.553  24.081  25.752  1.00  0.00     0.009 A 
ATOM     25  C   UNL A   1      36.832  23.665  25.378  1.00  0.00     0.001 A 
ENDBRANCH   9  19
BRANCH  18  26
ATOM     26  C   UNL A   1      31.309  28.760  23.166  1.00  0.00     0.430 C 
ATOM     27  F   UNL A   1      30.947  27.636  22.500  1.00  0.00    -0.167 F 
ATOM     28  F   UNL A   1      30.264  29.622  23.054  1.00  0.00    -0.167 F 
ATOM     29  F   UNL A   1      32.347  29.309  22.493  1.00  0.00    -0.167 F 
ENDBRANCH  18  26
ENDBRANCH   6   8
ENDBRANCH   5   6
ENDBRANCH   4   5
ENDBRANCH   3   4
ENDBRANCH   2   3
ENDBRANCH   1   2
BRANCH   1  30
ATOM     30  C   UNL A   1      35.974  31.218  29.833  1.00  0.00     0.261 C 
BRANCH  30  31
ATOM     31  O   UNL A   1      37.390  31.171  30.083  1.00  0.00    -0.460 OA
BRANCH  31  32
ATOM     32  C   UNL A   1      37.915  29.915  30.118  1.00  0.00     0.338 C 
ATOM     33  O   UNL A   1      37.322  28.943  30.559  1.00  0.00    -0.246 OA
BRANCH  32  34
ATOM     34  C   UNL A   1      39.251  29.896  29.476  1.00  0.00     0.060 A 
ATOM     35  C   UNL A   1      39.450  29.275  28.233  1.00  0.00     0.016 A 
ATOM     36  C   UNL A   1      40.337  30.421  30.175  1.00  0.00     0.016 A 
ATOM     37  C   UNL A   1      40.749  29.114  27.729  1.00  0.00     0.010 A 
ATOM     38  C   UNL A   1      41.614  30.195  29.714  1.00  0.00     0.010 A 
ATOM     39  C   UNL A   1      41.835  29.552  28.487  1.00  0.00    -0.014 A 
BRANCH  39  40
ATOM     40  C   UNL A   1      43.249  29.377  28.163  1.00  0.00     0.031 A 
ATOM     41  C   UNL A   1      44.001  30.462  27.475  1.00  0.00     0.074 A 
ATOM     42  C   UNL A   1      43.948  28.403  28.782  1.00  0.00     0.049 A 
ATOM     43  N   UNL A   1      45.231  30.380  27.092  1.00  0.00    -0.248 NA
ATOM     44  C   UNL A   1      43.406  31.751  27.145  1.00  0.00     0.031 C 
ATOM     45  C   UNL A   1      45.379  28.401  29.051  1.00  0.00     0.029 A 
ATOM     46  N   UNL A   1      43.526  27.126  29.164  1.00  0.00    -0.354 N 
ATOM     47  C   UNL A   1      45.688  31.657  26.843  1.00  0.00     0.074 A 
ATOM     48  C   UNL A   1      44.483  32.451  26.780  1.00  0.00     0.031 C 
ATOM     49  C   UNL A   1      45.783  27.138  29.219  1.00  0.00     0.029 A 
ATOM     50  C   UNL A   1      44.632  26.283  28.998  1.00  0.00     0.049 A 
ATOM     51  H   UNL A   1      42.631  26.871  29.486  1.00  0.00     0.167 HD
ATOM     52  C   UNL A   1      47.037  31.889  26.878  1.00  0.00     0.037 A 
ATOM     53  C   UNL A   1      44.600  25.163  28.232  1.00  0.00     0.037 A 
ATOM     54  C   UNL A   1      47.776  30.621  27.037  1.00  0.00     0.049 A 
ATOM     55  C   UNL A   1      45.693  25.244  27.219  1.00  0.00     0.074 A 
ATOM     56  C   UNL A   1      48.456  30.054  28.103  1.00  0.00     0.029 A 
ATOM     57  N   UNL A   1      47.636  29.604  26.086  1.00  0.00    -0.354 N 
ATOM     58  N   UNL A   1      46.116  26.387  26.747  1.00  0.00    -0.248 NA
ATOM     59  C   UNL A   1      46.513  24.112  26.800  1.00  0.00     0.031 C 
ATOM     60  C   UNL A   1      48.662  28.680  27.818  1.00  0.00     0.029 A 
ATOM     61  C   UNL A   1      48.124  28.404  26.570  1.00  0.00     0.049 A 
ATOM     62  H   UNL A   1      47.243  29.725  25.191  1.00  0.00     0.167 HD
ATOM     63  C   UNL A   1      47.312  26.184  26.126  1.00  0.00     0.074 A 
ATOM     64  C   UNL A   1      47.483  24.739  26.109  1.00  0.00     0.031 C 
ATOM     65  C   UNL A   1      48.151  27.193  25.762  1.00  0.00     0.037 A 
BRANCH  52  66
ATOM     66  C   UNL A   1      47.695  33.266  27.046  1.00  0.00     0.058 A 
ATOM     67  C   UNL A   1      47.528  34.285  26.075  1.00  0.00     0.135 A 
ATOM     68  C   UNL A   1      48.540  33.646  28.111  1.00  0.00     0.135 A 
ATOM     69  F   UNL A   1      46.698  34.135  25.034  1.00  0.00    -0.206 F 
ATOM     70  C   UNL A   1      48.196  35.518  26.117  1.00  0.00     0.059 A 
ATOM     71  C   UNL A   1      49.250  34.854  28.157  1.00  0.00     0.059 A 
ATOM     72  F   UNL A   1      48.676  32.900  29.210  1.00  0.00    -0.206 F 
ATOM     73  C   UNL A   1      49.076  35.788  27.153  1.00  0.00     0.060 A 
BRANCH  73  74
ATOM     74  S   UNL A   1      49.941  37.369  27.200  1.00  0.00     0.124 S 
ATOM     75  O   UNL A   1      48.919  38.294  26.720  1.00  0.00    -0.237 OA
ATOM     76  O   UNL A   1      50.293  37.484  28.611  1.00  0.00    -0.237 OA
ATOM     77  O   UNL A   1      51.068  37.168  26.293  1.00  0.00    -0.744 OA
ENDBRANCH  73  74
ENDBRANCH  52  66
BRANCH  53  78
ATOM     78  C   UNL A   1      43.260  24.523  28.187  1.00  0.00     0.058 A 
ATOM     79  C   UNL A   1      42.622  24.534  26.927  1.00  0.00     0.135 A 
ATOM     80  C   UNL A   1      42.894  23.503  29.080  1.00  0.00     0.135 A 
ATOM     81  F   UNL A   1      42.938  25.481  26.027  1.00  0.00    -0.206 F 
ATOM     82  C   UNL A   1      41.803  23.490  26.505  1.00  0.00     0.059 A 
ATOM     83  C   UNL A   1      42.070  22.445  28.674  1.00  0.00     0.059 A 
ATOM     84  F   UNL A   1      43.461  23.434  30.293  1.00  0.00    -0.206 F 
ATOM     85  C   UNL A   1      41.588  22.416  27.364  1.00  0.00     0.060 A 
BRANCH  85  86
ATOM     86  S   UNL A   1      40.896  20.895  26.661  1.00  0.00     0.124 S 
ATOM     87  O   UNL A   1      41.924  20.511  25.701  1.00  0.00    -0.237 OA
ATOM     88  O   UNL A   1      40.780  20.036  27.840  1.00  0.00    -0.237 OA
ATOM     89  O   UNL A   1      39.625  21.331  26.096  1.00  0.00    -0.744 OA
ENDBRANCH  85  86
ENDBRANCH  53  78
BRANCH  65  90
ATOM     90  C   UNL A   1      49.185  27.031  24.689  1.00  0.00     0.058 A 
ATOM     91  C   UNL A   1      48.932  27.402  23.355  1.00  0.00     0.135 A 
ATOM     92  C   UNL A   1      50.519  26.697  25.002  1.00  0.00     0.135 A 
ATOM     93  F   UNL A   1      47.722  27.830  22.965  1.00  0.00    -0.206 F 
ATOM     94  C   UNL A   1      49.925  27.392  22.383  1.00  0.00     0.059 A 
ATOM     95  C   UNL A   1      51.536  26.728  24.054  1.00  0.00     0.059 A 
ATOM     96  F   UNL A   1      50.885  26.356  26.247  1.00  0.00    -0.206 F 
ATOM     97  C   UNL A   1      51.225  27.061  22.744  1.00  0.00     0.060 A 
BRANCH  97  98
ATOM     98  S   UNL A   1      52.523  27.140  21.501  1.00  0.00     0.124 S 
ATOM     99  O   UNL A   1      53.721  27.088  22.331  1.00  0.00    -0.237 OA
ATOM    100  O   UNL A   1      52.264  25.952  20.691  1.00  0.00    -0.237 OA
ATOM    101  O   UNL A   1      52.268  28.412  20.832  1.00  0.00    -0.744 OA
ENDBRANCH  97  98
ENDBRANCH  65  90
ENDBRANCH  39  40
ENDBRANCH  32  34
ENDBRANCH  31  32
ENDBRANCH  30  31
ENDBRANCH   1  30
TORSDOF 19
ENDMDL
MODEL 2
REMARK VINA RESULT:     -11.6      5.075      9.065
REMARK SMILES Cc1ccccc1-c1c(Cl)ccc2c1C=C(C(=O)OCCOCCOC(=O)c1ccc(-c3c4nc(c(-c5c(F)cc(S(=O)(=O)[O-])cc5F)c5ccc([nH]5)c(-c5c(F)cc(S(=O)(=O)[O-])cc5F)c5nc(c(-c6c(F)cc(S(=O)(=O)[O-])cc6F)c6ccc3[nH]6)C=C5)C=C4)cc1)[C@@H](C(F)(F)F)O2
REMARK SMILES IDX 23 1 22 2 21 3 20 4 19 5 17 6 18 7 16 8 8 9 9 10 14 11 10 12
REMARK SMILES IDX 11 13 13 14 15 15 12 16 99 17 94 18 7 19 1 20 2 21 3 22 4 23
REMARK SMILES IDX 6 24 5 25 95 26 96 27 97 28 98 29 24 30 25 31 26 32 27 33
REMARK SMILES IDX 28 34 29 35 93 36 30 37 92 38 31 39 32 40 33 41 86 42 34 43
REMARK SMILES IDX 91 44 85 45 87 46 35 47 90 48 84 49 83 50 36 52 70 53 49 54
REMARK SMILES IDX 69 55 50 56 53 57 68 58 88 59 51 60 52 61 67 63 89 64 54 65
REMARK SMILES IDX 37 66 38 67 47 68 39 69 40 70 46 71 48 72 41 73 42 74 43 75
REMARK SMILES IDX 44 76 45 77 71 78 72 79 81 80 73 81 74 82 80 83 82 84 75 85
REMARK SMILES IDX 76 86 77 87 78 88 79 89 55 90 56 91 65 92 57 93 58 94 64 95
REMARK SMILES IDX 66 96 59 97 60 98 61 99 62 100 63 101
REMARK H PARENT 87 51 53 62
REMARK Flexibility Score: inf
ROOT
ATOM      1  C   UNL A   1      34.667  32.106  28.853  1.00  0.00     0.202 C 
ENDROOT
BRANCH   1   2
ATOM      2  O   UNL A   1      34.234  31.579  27.607  1.00  0.00    -0.374 OA
BRANCH   2   3
ATOM      3  C   UNL A   1      34.567  30.203  27.384  1.00  0.00     0.202 C 
BRANCH   3   4
ATOM      4  C   UNL A   1      33.291  29.469  27.019  1.00  0.00     0.261 C 
BRANCH   4   5
ATOM      5  O   UNL A   1      33.446  28.039  27.173  1.00  0.00    -0.460 OA
BRANCH   5   6
ATOM      6  C   UNL A   1      32.560  27.314  26.457  1.00  0.00     0.338 C 
ATOM      7  O   UNL A   1      31.531  26.797  26.868  1.00  0.00    -0.246 OA
BRANCH   6   8
ATOM      8  C   UNL A   1      32.941  27.179  25.034  1.00  0.00     0.087 C 
ATOM      9  C   UNL A   1      33.276  23.623  24.142  1.00  0.00     0.012 A 
ATOM     10  C   UNL A   1      32.300  22.652  23.776  1.00  0.00     0.049 A 
ATOM     11  C   UNL A   1      32.873  24.991  24.107  1.00  0.00     0.027 A 
ATOM     12  Cl  UNL A   1      32.607  20.944  23.874  1.00  0.00    -0.084 Cl
ATOM     13  C   UNL A   1      31.024  23.013  23.332  1.00  0.00     0.025 A 
ATOM     14  C   UNL A   1      31.586  25.328  23.618  1.00  0.00     0.128 A 
ATOM     15  C   UNL A   1      33.648  26.069  24.770  1.00  0.00     0.028 C 
ATOM     16  C   UNL A   1      30.677  24.350  23.229  1.00  0.00     0.049 A 
ATOM     17  O   UNL A   1      31.091  26.604  23.523  1.00  0.00    -0.475 OA
ATOM     18  C   UNL A   1      31.872  27.662  24.102  1.00  0.00     0.316 C 
BRANCH   9  19
ATOM     19  C   UNL A   1      34.676  23.186  24.446  1.00  0.00    -0.013 A 
ATOM     20  C   UNL A   1      34.393  22.893  26.997  1.00  0.00     0.045 C 
ATOM     21  C   UNL A   1      35.186  22.854  25.722  1.00  0.00    -0.043 A 
ATOM     22  C   UNL A   1      36.523  22.429  25.862  1.00  0.00     0.004 A 
ATOM     23  C   UNL A   1      37.354  22.283  24.757  1.00  0.00     0.000 A 
ATOM     24  C   UNL A   1      35.557  23.044  23.347  1.00  0.00     0.009 A 
ATOM     25  C   UNL A   1      36.867  22.581  23.495  1.00  0.00     0.001 A 
ENDBRANCH   9  19
BRANCH  18  26
ATOM     26  C   UNL A   1      32.483  28.546  23.010  1.00  0.00     0.430 C 
ATOM     27  F   UNL A   1      33.058  27.805  22.032  1.00  0.00    -0.167 F 
ATOM     28  F   UNL A   1      31.538  29.312  22.403  1.00  0.00    -0.167 F 
ATOM     29  F   UNL A   1      33.429  29.391  23.483  1.00  0.00    -0.167 F 
ENDBRANCH  18  26
ENDBRANCH   6   8
ENDBRANCH   5   6
ENDBRANCH   4   5
ENDBRANCH   3   4
ENDBRANCH   2   3
ENDBRANCH   1   2
BRANCH   1  30
ATOM     30  C   UNL A   1      35.321  33.493  28.781  1.00  0.00     0.261 C 
BRANCH  30  31
ATOM     31  O   UNL A   1      36.756  33.394  28.830  1.00  0.00    -0.460 OA
BRANCH  31  32
ATOM     32  C   UNL A   1      37.278  33.402  30.088  1.00  0.00     0.338 C 
ATOM     33  O   UNL A   1      36.964  34.209  30.948  1.00  0.00    -0.246 OA
BRANCH  32  34
ATOM     34  C   UNL A   1      38.204  32.258  30.270  1.00  0.00     0.060 A 
ATOM     35  C   UNL A   1      37.795  31.095  30.941  1.00  0.00     0.016 A 
ATOM     36  C   UNL A   1      39.526  32.393  29.850  1.00  0.00     0.016 A 
ATOM     37  C   UNL A   1      38.732  30.101  31.257  1.00  0.00     0.010 A 
ATOM     38  C   UNL A   1      40.457  31.451  30.228  1.00  0.00     0.010 A 
ATOM     39  C   UNL A   1      40.072  30.295  30.922  1.00  0.00    -0.014 A 
BRANCH  39  40
ATOM     40  C   UNL A   1      41.190  29.415  31.260  1.00  0.00     0.031 A 
ATOM     41  C   UNL A   1      41.390  28.140  30.520  1.00  0.00     0.074 A 
ATOM     42  C   UNL A   1      42.218  29.909  31.982  1.00  0.00     0.049 A 
ATOM     43  N   UNL A   1      42.306  27.269  30.784  1.00  0.00    -0.248 NA
ATOM     44  C   UNL A   1      40.544  27.729  29.407  1.00  0.00     0.031 C 
ATOM     45  C   UNL A   1      43.599  29.449  31.950  1.00  0.00     0.029 A 
ATOM     46  N   UNL A   1      42.192  30.842  33.023  1.00  0.00    -0.354 N 
ATOM     47  C   UNL A   1      42.423  26.429  29.698  1.00  0.00     0.074 A 
ATOM     48  C   UNL A   1      41.230  26.688  28.927  1.00  0.00     0.031 C 
ATOM     49  C   UNL A   1      44.198  29.810  33.087  1.00  0.00     0.029 A 
ATOM     50  C   UNL A   1      43.200  30.458  33.916  1.00  0.00     0.049 A 
ATOM     51  H   UNL A   1      41.587  31.614  33.110  1.00  0.00     0.167 HD
ATOM     52  C   UNL A   1      43.594  25.739  29.526  1.00  0.00     0.037 A 
ATOM     53  C   UNL A   1      42.969  30.218  35.231  1.00  0.00     0.037 A 
ATOM     54  C   UNL A   1      44.485  25.934  30.686  1.00  0.00     0.049 A 
ATOM     55  C   UNL A   1      43.455  28.845  35.561  1.00  0.00     0.074 A 
ATOM     56  C   UNL A   1      45.647  26.667  30.869  1.00  0.00     0.029 A 
ATOM     57  N   UNL A   1      44.062  25.560  31.967  1.00  0.00    -0.354 N 
ATOM     58  N   UNL A   1      43.458  27.882  34.676  1.00  0.00    -0.248 NA
ATOM     59  C   UNL A   1      44.134  28.486  36.801  1.00  0.00     0.031 C 
ATOM     60  C   UNL A   1      45.881  26.790  32.262  1.00  0.00     0.029 A 
ATOM     61  C   UNL A   1      44.872  26.118  32.938  1.00  0.00     0.049 A 
ATOM     62  H   UNL A   1      43.290  24.977  32.152  1.00  0.00     0.167 HD
ATOM     63  C   UNL A   1      44.250  26.874  35.136  1.00  0.00     0.074 A 
ATOM     64  C   UNL A   1      44.585  27.255  36.500  1.00  0.00     0.031 C 
ATOM     65  C   UNL A   1      44.687  25.845  34.357  1.00  0.00     0.037 A 
BRANCH  52  66
ATOM     66  C   UNL A   1      44.066  25.109  28.207  1.00  0.00     0.058 A 
ATOM     67  C   UNL A   1      44.326  23.719  28.106  1.00  0.00     0.135 A 
ATOM     68  C   UNL A   1      44.329  25.812  27.012  1.00  0.00     0.135 A 
ATOM     69  F   UNL A   1      44.058  22.879  29.116  1.00  0.00    -0.206 F 
ATOM     70  C   UNL A   1      44.867  23.108  26.966  1.00  0.00     0.059 A 
ATOM     71  C   UNL A   1      44.908  25.234  25.873  1.00  0.00     0.059 A 
ATOM     72  F   UNL A   1      43.977  27.088  26.847  1.00  0.00    -0.206 F 
ATOM     73  C   UNL A   1      45.177  23.878  25.856  1.00  0.00     0.060 A 
BRANCH  73  74
ATOM     74  S   UNL A   1      45.884  23.094  24.395  1.00  0.00     0.124 S 
ATOM     75  O   UNL A   1      46.882  24.072  23.973  1.00  0.00    -0.237 OA
ATOM     76  O   UNL A   1      46.406  21.846  24.939  1.00  0.00    -0.237 OA
ATOM     77  O   UNL A   1      44.741  22.951  23.497  1.00  0.00    -0.744 OA
ENDBRANCH  73  74
ENDBRANCH  52  66
BRANCH  53  78
ATOM     78  C   UNL A   1      41.857  31.029  35.789  1.00  0.00     0.058 A 
ATOM     79  C   UNL A   1      42.176  32.369  36.100  1.00  0.00     0.135 A 
ATOM     80  C   UNL A   1      40.513  30.742  35.501  1.00  0.00     0.135 A 
ATOM     81  F   UNL A   1      43.448  32.705  36.375  1.00  0.00    -0.206 F 
ATOM     82  C   UNL A   1      41.252  33.401  35.957  1.00  0.00     0.059 A 
ATOM     83  C   UNL A   1      39.568  31.767  35.354  1.00  0.00     0.059 A 
ATOM     84  F   UNL A   1      40.140  29.491  35.198  1.00  0.00    -0.206 F 
ATOM     85  C   UNL A   1      39.967  33.095  35.517  1.00  0.00     0.060 A 
BRANCH  85  86
ATOM     86  S   UNL A   1      38.928  34.458  34.926  1.00  0.00     0.124 S 
ATOM     87  O   UNL A   1      39.568  35.615  35.540  1.00  0.00    -0.237 OA
ATOM     88  O   UNL A   1      39.074  34.349  33.475  1.00  0.00    -0.237 OA
ATOM     89  O   UNL A   1      37.604  34.117  35.433  1.00  0.00    -0.744 OA
ENDBRANCH  85  86
ENDBRANCH  53  78
BRANCH  65  90
ATOM     90  C   UNL A   1      45.125  24.531  34.930  1.00  0.00     0.058 A 
ATOM     91  C   UNL A   1      44.245  23.438  35.032  1.00  0.00     0.135 A 
ATOM     92  C   UNL A   1      46.483  24.267  35.200  1.00  0.00     0.135 A 
ATOM     93  F   UNL A   1      42.948  23.550  34.707  1.00  0.00    -0.206 F 
ATOM     94  C   UNL A   1      44.674  22.177  35.426  1.00  0.00     0.059 A 
ATOM     95  C   UNL A   1      46.941  23.001  35.549  1.00  0.00     0.059 A 
ATOM     96  F   UNL A   1      47.418  25.225  35.106  1.00  0.00    -0.206 F 
ATOM     97  C   UNL A   1      46.025  21.966  35.675  1.00  0.00     0.060 A 
BRANCH  97  98
ATOM     98  S   UNL A   1      46.587  20.311  36.095  1.00  0.00     0.124 S 
ATOM     99  O   UNL A   1      46.453  19.626  34.814  1.00  0.00    -0.237 OA
ATOM    100  O   UNL A   1      47.957  20.542  36.547  1.00  0.00    -0.237 OA
ATOM    101  O   UNL A   1      45.655  19.895  37.138  1.00  0.00    -0.744 OA
ENDBRANCH  97  98
ENDBRANCH  65  90
ENDBRANCH  39  40
ENDBRANCH  32  34
ENDBRANCH  31  32
ENDBRANCH  30  31
ENDBRANCH   1  30
TORSDOF 19
ENDMDL
MODEL 3
REMARK VINA RESULT:     -11.6      7.241     12.376
REMARK SMILES Cc1ccccc1-c1c(Cl)ccc2c1C=C(C(=O)OCCOCCOC(=O)c1ccc(-c3c4nc(c(-c5c(F)cc(S(=O)(=O)[O-])cc5F)c5ccc([nH]5)c(-c5c(F)cc(S(=O)(=O)[O-])cc5F)c5nc(c(-c6c(F)cc(S(=O)(=O)[O-])cc6F)c6ccc3[nH]6)C=C5)C=C4)cc1)[C@@H](C(F)(F)F)O2
REMARK SMILES IDX 23 1 22 2 21 3 20 4 19 5 17 6 18 7 16 8 8 9 9 10 14 11 10 12
REMARK SMILES IDX 11 13 13 14 15 15 12 16 99 17 94 18 7 19 1 20 2 21 3 22 4 23
REMARK SMILES IDX 6 24 5 25 95 26 96 27 97 28 98 29 24 30 25 31 26 32 27 33
REMARK SMILES IDX 28 34 29 35 93 36 30 37 92 38 31 39 32 40 33 41 86 42 34 43
REMARK SMILES IDX 91 44 85 45 87 46 35 47 90 48 84 49 83 50 36 52 70 53 49 54
REMARK SMILES IDX 69 55 50 56 53 57 68 58 88 59 51 60 52 61 67 63 89 64 54 65
REMARK SMILES IDX 37 66 38 67 47 68 39 69 40 70 46 71 48 72 41 73 42 74 43 75
REMARK SMILES IDX 44 76 45 77 71 78 72 79 81 80 73 81 74 82 80 83 82 84 75 85
REMARK SMILES IDX 76 86 77 87 78 88 79 89 55 90 56 91 65 92 57 93 58 94 64 95
REMARK SMILES IDX 66 96 59 97 60 98 61 99 62 100 63 101
REMARK H PARENT 87 51 53 62
REMARK Flexibility Score: inf
ROOT
ATOM      1  C   UNL A   1      40.324  22.161  27.254  1.00  0.00     0.202 C 
ENDROOT
BRANCH   1   2
ATOM      2  O   UNL A   1      39.849  21.787  25.968  1.00  0.00    -0.374 OA
BRANCH   2   3
ATOM      3  C   UNL A   1      38.508  21.284  25.942  1.00  0.00     0.202 C 
BRANCH   3   4
ATOM      4  C   UNL A   1      37.781  21.955  24.792  1.00  0.00     0.261 C 
BRANCH   4   5
ATOM      5  O   UNL A   1      36.350  21.787  24.907  1.00  0.00    -0.460 OA
BRANCH   5   6
ATOM      6  C   UNL A   1      35.729  22.811  25.531  1.00  0.00     0.338 C 
ATOM      7  O   UNL A   1      36.258  23.741  26.122  1.00  0.00    -0.246 OA
BRANCH   6   8
ATOM      8  C   UNL A   1      34.254  22.731  25.441  1.00  0.00     0.087 C 
ATOM      9  C   UNL A   1      32.885  25.918  24.206  1.00  0.00     0.012 A 
ATOM     10  C   UNL A   1      32.747  26.430  22.884  1.00  0.00     0.049 A 
ATOM     11  C   UNL A   1      33.148  24.522  24.336  1.00  0.00     0.027 A 
ATOM     12  Cl  UNL A   1      32.534  28.125  22.563  1.00  0.00    -0.084 Cl
ATOM     13  C   UNL A   1      32.795  25.602  21.758  1.00  0.00     0.025 A 
ATOM     14  C   UNL A   1      33.153  23.702  23.180  1.00  0.00     0.128 A 
ATOM     15  C   UNL A   1      33.642  23.916  25.597  1.00  0.00     0.028 C 
ATOM     16  C   UNL A   1      32.972  24.236  21.908  1.00  0.00     0.049 A 
ATOM     17  O   UNL A   1      33.380  22.349  23.177  1.00  0.00    -0.475 OA
ATOM     18  C   UNL A   1      33.791  21.744  24.414  1.00  0.00     0.316 C 
BRANCH   9  19
ATOM     19  C   UNL A   1      32.655  26.824  25.377  1.00  0.00    -0.013 A 
ATOM     20  C   UNL A   1      30.246  26.068  25.921  1.00  0.00     0.045 C 
ATOM     21  C   UNL A   1      31.476  26.896  26.154  1.00  0.00    -0.043 A 
ATOM     22  C   UNL A   1      31.405  27.778  27.252  1.00  0.00     0.004 A 
ATOM     23  C   UNL A   1      32.494  28.559  27.624  1.00  0.00     0.000 A 
ATOM     24  C   UNL A   1      33.735  27.648  25.773  1.00  0.00     0.009 A 
ATOM     25  C   UNL A   1      33.666  28.485  26.889  1.00  0.00     0.001 A 
ENDBRANCH   9  19
BRANCH  18  26
ATOM     26  C   UNL A   1      32.673  20.869  24.989  1.00  0.00     0.430 C 
ATOM     27  F   UNL A   1      32.351  19.855  24.148  1.00  0.00    -0.167 F 
ATOM     28  F   UNL A   1      33.045  20.290  26.160  1.00  0.00    -0.167 F 
ATOM     29  F   UNL A   1      31.536  21.561  25.236  1.00  0.00    -0.167 F 
ENDBRANCH  18  26
ENDBRANCH   6   8
ENDBRANCH   5   6
ENDBRANCH   4   5
ENDBRANCH   3   4
ENDBRANCH   2   3
ENDBRANCH   1   2
BRANCH   1  30
ATOM     30  C   UNL A   1      41.003  23.536  27.323  1.00  0.00     0.261 C 
BRANCH  30  31
ATOM     31  O   UNL A   1      40.153  24.504  27.964  1.00  0.00    -0.460 OA
BRANCH  31  32
ATOM     32  C   UNL A   1      40.190  25.744  27.405  1.00  0.00     0.338 C 
ATOM     33  O   UNL A   1      40.026  25.958  26.214  1.00  0.00    -0.246 OA
BRANCH  32  34
ATOM     34  C   UNL A   1      40.374  26.777  28.453  1.00  0.00     0.060 A 
ATOM     35  C   UNL A   1      41.600  27.443  28.607  1.00  0.00     0.016 A 
ATOM     36  C   UNL A   1      39.336  27.009  29.354  1.00  0.00     0.016 A 
ATOM     37  C   UNL A   1      41.808  28.284  29.711  1.00  0.00     0.010 A 
ATOM     38  C   UNL A   1      39.569  27.774  30.475  1.00  0.00     0.010 A 
ATOM     39  C   UNL A   1      40.796  28.426  30.661  1.00  0.00    -0.014 A 
BRANCH  39  40
ATOM     40  C   UNL A   1      40.878  29.177  31.912  1.00  0.00     0.031 A 
ATOM     41  C   UNL A   1      41.328  28.506  33.161  1.00  0.00     0.074 A 
ATOM     42  C   UNL A   1      40.884  30.526  31.867  1.00  0.00     0.049 A 
ATOM     43  N   UNL A   1      41.374  29.064  34.324  1.00  0.00    -0.248 NA
ATOM     44  C   UNL A   1      41.759  27.114  33.201  1.00  0.00     0.031 C 
ATOM     45  C   UNL A   1      41.498  31.422  32.838  1.00  0.00     0.029 A 
ATOM     46  N   UNL A   1      40.194  31.380  31.002  1.00  0.00    -0.354 N 
ATOM     47  C   UNL A   1      42.168  28.288  35.141  1.00  0.00     0.074 A 
ATOM     48  C   UNL A   1      42.281  27.037  34.429  1.00  0.00     0.031 C 
ATOM     49  C   UNL A   1      40.914  32.620  32.746  1.00  0.00     0.029 A 
ATOM     50  C   UNL A   1      39.859  32.512  31.755  1.00  0.00     0.049 A 
ATOM     51  H   UNL A   1      39.986  31.218  30.053  1.00  0.00     0.167 HD
ATOM     52  C   UNL A   1      42.745  28.869  36.239  1.00  0.00     0.037 A 
ATOM     53  C   UNL A   1      38.587  32.963  31.886  1.00  0.00     0.037 A 
ATOM     54  C   UNL A   1      42.251  30.249  36.414  1.00  0.00     0.049 A 
ATOM     55  C   UNL A   1      38.257  33.056  33.339  1.00  0.00     0.074 A 
ATOM     56  C   UNL A   1      42.829  31.490  36.203  1.00  0.00     0.029 A 
ATOM     57  N   UNL A   1      40.884  30.487  36.591  1.00  0.00    -0.354 N 
ATOM     58  N   UNL A   1      38.798  32.259  34.223  1.00  0.00    -0.248 NA
ATOM     59  C   UNL A   1      37.473  34.130  33.939  1.00  0.00     0.031 C 
ATOM     60  C   UNL A   1      41.798  32.463  36.184  1.00  0.00     0.029 A 
ATOM     61  C   UNL A   1      40.586  31.824  36.401  1.00  0.00     0.049 A 
ATOM     62  H   UNL A   1      40.220  29.796  36.820  1.00  0.00     0.167 HD
ATOM     63  C   UNL A   1      38.589  32.782  35.463  1.00  0.00     0.074 A 
ATOM     64  C   UNL A   1      37.687  33.904  35.248  1.00  0.00     0.031 C 
ATOM     65  C   UNL A   1      39.242  32.355  36.580  1.00  0.00     0.037 A 
BRANCH  52  66
ATOM     66  C   UNL A   1      43.955  28.311  37.003  1.00  0.00     0.058 A 
ATOM     67  C   UNL A   1      43.863  27.113  37.754  1.00  0.00     0.135 A 
ATOM     68  C   UNL A   1      45.226  28.920  37.081  1.00  0.00     0.135 A 
ATOM     69  F   UNL A   1      42.758  26.354  37.735  1.00  0.00    -0.206 F 
ATOM     70  C   UNL A   1      44.898  26.618  38.562  1.00  0.00     0.059 A 
ATOM     71  C   UNL A   1      46.262  28.470  37.912  1.00  0.00     0.059 A 
ATOM     72  F   UNL A   1      45.569  29.950  36.305  1.00  0.00    -0.206 F 
ATOM     73  C   UNL A   1      46.091  27.317  38.654  1.00  0.00     0.060 A 
BRANCH  73  74
ATOM     74  S   UNL A   1      47.415  26.686  39.702  1.00  0.00     0.124 S 
ATOM     75  O   UNL A   1      47.004  25.303  39.919  1.00  0.00    -0.237 OA
ATOM     76  O   UNL A   1      48.590  26.876  38.859  1.00  0.00    -0.237 OA
ATOM     77  O   UNL A   1      47.353  27.542  40.884  1.00  0.00    -0.744 OA
ENDBRANCH  73  74
ENDBRANCH  52  66
BRANCH  53  78
ATOM     78  C   UNL A   1      37.739  32.676  30.700  1.00  0.00     0.058 A 
ATOM     79  C   UNL A   1      36.500  32.055  30.973  1.00  0.00     0.135 A 
ATOM     80  C   UNL A   1      37.827  33.436  29.523  1.00  0.00     0.135 A 
ATOM     81  F   UNL A   1      36.354  31.321  32.090  1.00  0.00    -0.206 F 
ATOM     82  C   UNL A   1      35.360  32.317  30.220  1.00  0.00     0.059 A 
ATOM     83  C   UNL A   1      36.690  33.711  28.751  1.00  0.00     0.059 A 
ATOM     84  F   UNL A   1      38.973  34.054  29.203  1.00  0.00    -0.206 F 
ATOM     85  C   UNL A   1      35.452  33.202  29.149  1.00  0.00     0.060 A 
BRANCH  85  86
ATOM     86  S   UNL A   1      33.911  33.864  28.461  1.00  0.00     0.124 S 
ATOM     87  O   UNL A   1      33.204  34.294  29.662  1.00  0.00    -0.237 OA
ATOM     88  O   UNL A   1      34.396  34.937  27.593  1.00  0.00    -0.237 OA
ATOM     89  O   UNL A   1      33.337  32.722  27.758  1.00  0.00    -0.744 OA
ENDBRANCH  85  86
ENDBRANCH  53  78
BRANCH  65  90
ATOM     90  C   UNL A   1      38.696  32.562  37.960  1.00  0.00     0.058 A 
ATOM     91  C   UNL A   1      39.091  33.653  38.757  1.00  0.00     0.135 A 
ATOM     92  C   UNL A   1      37.613  31.797  38.442  1.00  0.00     0.135 A 
ATOM     93  F   UNL A   1      40.045  34.505  38.353  1.00  0.00    -0.206 F 
ATOM     94  C   UNL A   1      38.488  33.937  39.975  1.00  0.00     0.059 A 
ATOM     95  C   UNL A   1      36.965  32.094  39.636  1.00  0.00     0.059 A 
ATOM     96  F   UNL A   1      37.130  30.752  37.754  1.00  0.00    -0.206 F 
ATOM     97  C   UNL A   1      37.421  33.156  40.403  1.00  0.00     0.060 A 
BRANCH  97  98
ATOM     98  S   UNL A   1      36.586  33.585  41.937  1.00  0.00     0.124 S 
ATOM     99  O   UNL A   1      35.186  33.427  41.558  1.00  0.00    -0.237 OA
ATOM    100  O   UNL A   1      37.102  32.589  42.873  1.00  0.00    -0.237 OA
ATOM    101  O   UNL A   1      37.027  34.953  42.187  1.00  0.00    -0.744 OA
ENDBRANCH  97  98
ENDBRANCH  65  90
ENDBRANCH  39  40
ENDBRANCH  32  34
ENDBRANCH  31  32
ENDBRANCH  30  31
ENDBRANCH   1  30
TORSDOF 19
ENDMDL
