MODEL 1
REMARK VINA RESULT:      -8.6      0.000      0.000
REMARK SMILES C=CC[N@@H+](CC(=O)OCCOCCOC(=O)c1ccc(-c2c3nc(c(-c4c(F)cc(S(=O)(=O)[O-])cc4F)c4ccc([nH]4)c(-c4c(F)cc(S(=O)(=O)[O-])cc4F)c4nc(c(-c5c(F)cc(S(=O)(=O)[O-])cc5F)c5ccc2[nH]5)C=C4)C=C3)cc1)[C@@H]1CC[N@@H+](C(C)C)C1
REMARK SMILES IDX 11 1 10 2 9 3 8 4 6 5 7 6 5 7 4 8 3 10 2 11 1 12 83 13 84 14
REMARK SMILES IDX 90 15 85 16 86 17 87 19 88 20 89 21 12 22 13 23 14 24 15 25
REMARK SMILES IDX 16 26 17 27 18 28 82 29 19 30 81 31 20 32 21 33 22 34 75 35
REMARK SMILES IDX 23 36 80 37 74 38 76 39 24 40 79 41 73 42 72 43 25 45 59 46
REMARK SMILES IDX 38 47 58 48 39 49 42 50 57 51 77 52 40 53 41 54 56 56 78 57
REMARK SMILES IDX 43 58 26 59 27 60 36 61 28 62 29 63 35 64 37 65 30 66 31 67
REMARK SMILES IDX 32 68 33 69 34 70 60 71 61 72 70 73 62 74 63 75 69 76 71 77
REMARK SMILES IDX 64 78 65 79 66 80 67 81 68 82 44 83 45 84 54 85 46 86 47 87
REMARK SMILES IDX 53 88 55 89 48 90 49 91 50 92 51 93 52 94
REMARK H PARENT 4 9 86 18 76 44 42 55
REMARK Flexibility Score: inf
ROOT
ATOM      1  O   UNL A   1      42.184  19.076  26.368  1.00  0.00    -0.374 OA
ENDROOT
BRANCH   1   2
ATOM      2  C   UNL A   1      43.185  19.188  25.361  1.00  0.00     0.202 C 
BRANCH   2   3
ATOM      3  C   UNL A   1      44.062  20.445  25.363  1.00  0.00     0.261 C 
BRANCH   3   4
ATOM      4  O   UNL A   1      43.401  21.635  24.875  1.00  0.00    -0.459 OA
BRANCH   4   5
ATOM      5  C   UNL A   1      44.223  22.652  24.493  1.00  0.00     0.361 C 
ATOM      6  O   UNL A   1      44.947  22.603  23.500  1.00  0.00    -0.245 OA
BRANCH   5   7
ATOM      7  C   UNL A   1      44.284  23.862  25.433  1.00  0.00     0.387 C 
BRANCH   7   8
ATOM      8  N   UNL A   1      45.287  23.902  26.502  1.00  0.00    -0.315 N 
ATOM      9  H   UNL A   1      45.946  23.220  26.129  1.00  0.00     0.349 HD
BRANCH   8  10
ATOM     10  C   UNL A   1      44.890  23.289  27.763  1.00  0.00     0.291 C 
BRANCH  10  11
ATOM     11  C   UNL A   1      43.416  23.388  28.039  1.00  0.00     0.025 C 
ATOM     12  C   UNL A   1      42.854  23.024  29.200  1.00  0.00     0.010 C 
ENDBRANCH  10  11
ENDBRANCH   8  10
BRANCH   8  13
ATOM     13  C   UNL A   1      46.297  24.964  26.524  1.00  0.00     0.246 C 
ATOM     14  C   UNL A   1      45.847  26.433  26.531  1.00  0.00     0.132 C 
ATOM     15  C   UNL A   1      47.244  24.905  25.299  1.00  0.00     0.328 C 
ATOM     16  C   UNL A   1      46.562  27.120  25.385  1.00  0.00     0.269 C 
ATOM     17  N   UNL A   1      47.707  26.281  25.042  1.00  0.00    -0.328 N 
ATOM     18  H   UNL A   1      47.990  26.371  24.066  1.00  0.00     0.348 HD
BRANCH  17  19
ATOM     19  C   UNL A   1      48.967  26.694  25.690  1.00  0.00     0.177 C 
ATOM     20  C   UNL A   1      50.278  26.475  24.930  1.00  0.00     0.075 C 
ATOM     21  C   UNL A   1      48.841  28.169  26.087  1.00  0.00     0.075 C 
ENDBRANCH  17  19
ENDBRANCH   8  13
ENDBRANCH   7   8
ENDBRANCH   5   7
ENDBRANCH   4   5
ENDBRANCH   3   4
ENDBRANCH   2   3
ENDBRANCH   1   2
BRANCH   1  22
ATOM     22  C   UNL A   1      40.949  19.752  26.177  1.00  0.00     0.202 C 
BRANCH  22  23
ATOM     23  C   UNL A   1      40.592  20.908  27.114  1.00  0.00     0.261 C 
BRANCH  23  24
ATOM     24  O   UNL A   1      40.612  22.178  26.497  1.00  0.00    -0.460 OA
BRANCH  24  25
ATOM     25  C   UNL A   1      39.441  22.809  26.330  1.00  0.00     0.338 C 
ATOM     26  O   UNL A   1      38.444  22.447  25.741  1.00  0.00    -0.246 OA
BRANCH  25  27
ATOM     27  C   UNL A   1      39.708  24.124  26.907  1.00  0.00     0.060 A 
ATOM     28  C   UNL A   1      40.341  25.105  26.141  1.00  0.00     0.016 A 
ATOM     29  C   UNL A   1      39.188  24.396  28.174  1.00  0.00     0.016 A 
ATOM     30  C   UNL A   1      40.523  26.370  26.688  1.00  0.00     0.010 A 
ATOM     31  C   UNL A   1      39.336  25.669  28.703  1.00  0.00     0.010 A 
ATOM     32  C   UNL A   1      40.050  26.640  27.980  1.00  0.00    -0.014 A 
BRANCH  32  33
ATOM     33  C   UNL A   1      40.495  27.856  28.691  1.00  0.00     0.031 A 
ATOM     34  C   UNL A   1      41.906  27.867  29.209  1.00  0.00     0.074 A 
ATOM     35  C   UNL A   1      39.663  28.895  28.868  1.00  0.00     0.049 A 
ATOM     36  N   UNL A   1      42.508  28.750  29.956  1.00  0.00    -0.248 NA
ATOM     37  C   UNL A   1      42.747  26.709  28.850  1.00  0.00     0.031 C 
ATOM     38  C   UNL A   1      38.286  28.973  28.378  1.00  0.00     0.029 A 
ATOM     39  N   UNL A   1      39.855  30.084  29.521  1.00  0.00    -0.354 N 
ATOM     40  C   UNL A   1      43.787  28.247  30.170  1.00  0.00     0.074 A 
ATOM     41  C   UNL A   1      43.862  26.963  29.514  1.00  0.00     0.031 C 
ATOM     42  C   UNL A   1      37.758  30.153  28.746  1.00  0.00     0.029 A 
ATOM     43  C   UNL A   1      38.744  30.894  29.528  1.00  0.00     0.049 A 
ATOM     44  H   UNL A   1      40.707  30.334  29.945  1.00  0.00     0.167 HD
ATOM     45  C   UNL A   1      44.812  28.821  30.837  1.00  0.00     0.037 A 
ATOM     46  C   UNL A   1      38.556  32.090  30.117  1.00  0.00     0.037 A 
ATOM     47  C   UNL A   1      44.714  30.109  31.465  1.00  0.00     0.049 A 
ATOM     48  C   UNL A   1      39.704  32.698  30.883  1.00  0.00     0.074 A 
ATOM     49  C   UNL A   1      45.673  30.798  32.181  1.00  0.00     0.029 A 
ATOM     50  N   UNL A   1      43.578  30.908  31.436  1.00  0.00    -0.354 N 
ATOM     51  N   UNL A   1      40.908  32.212  31.085  1.00  0.00    -0.248 NA
ATOM     52  C   UNL A   1      39.476  34.010  31.501  1.00  0.00     0.031 C 
ATOM     53  C   UNL A   1      45.108  32.003  32.608  1.00  0.00     0.029 A 
ATOM     54  C   UNL A   1      43.812  32.085  32.119  1.00  0.00     0.049 A 
ATOM     55  H   UNL A   1      42.731  30.671  30.993  1.00  0.00     0.167 HD
ATOM     56  C   UNL A   1      41.592  33.177  31.815  1.00  0.00     0.074 A 
ATOM     57  C   UNL A   1      40.666  34.272  32.024  1.00  0.00     0.031 C 
ATOM     58  C   UNL A   1      42.870  33.165  32.270  1.00  0.00     0.037 A 
BRANCH  45  59
ATOM     59  C   UNL A   1      46.102  28.056  30.922  1.00  0.00     0.058 A 
ATOM     60  C   UNL A   1      47.148  28.274  30.011  1.00  0.00     0.135 A 
ATOM     61  C   UNL A   1      46.299  27.091  31.923  1.00  0.00     0.135 A 
ATOM     62  F   UNL A   1      47.004  29.164  29.017  1.00  0.00    -0.206 F 
ATOM     63  C   UNL A   1      48.332  27.545  30.071  1.00  0.00     0.059 A 
ATOM     64  C   UNL A   1      47.485  26.370  32.020  1.00  0.00     0.059 A 
ATOM     65  F   UNL A   1      45.328  26.835  32.815  1.00  0.00    -0.206 F 
ATOM     66  C   UNL A   1      48.490  26.594  31.080  1.00  0.00     0.060 A 
BRANCH  66  67
ATOM     67  S   UNL A   1      50.033  25.658  31.148  1.00  0.00     0.124 S 
ATOM     68  O   UNL A   1      49.847  24.878  32.368  1.00  0.00    -0.237 OA
ATOM     69  O   UNL A   1      49.994  24.901  29.901  1.00  0.00    -0.237 OA
ATOM     70  O   UNL A   1      51.057  26.695  31.217  1.00  0.00    -0.744 OA
ENDBRANCH  66  67
ENDBRANCH  45  59
BRANCH  46  71
ATOM     71  C   UNL A   1      37.249  32.791  29.998  1.00  0.00     0.058 A 
ATOM     72  C   UNL A   1      37.059  33.811  29.053  1.00  0.00     0.135 A 
ATOM     73  C   UNL A   1      36.162  32.455  30.819  1.00  0.00     0.135 A 
ATOM     74  F   UNL A   1      38.067  34.173  28.246  1.00  0.00    -0.206 F 
ATOM     75  C   UNL A   1      35.847  34.486  28.940  1.00  0.00     0.059 A 
ATOM     76  C   UNL A   1      34.932  33.098  30.709  1.00  0.00     0.059 A 
ATOM     77  F   UNL A   1      36.284  31.474  31.728  1.00  0.00    -0.206 F 
ATOM     78  C   UNL A   1      34.789  34.122  29.774  1.00  0.00     0.060 A 
BRANCH  78  79
ATOM     79  S   UNL A   1      33.209  34.980  29.596  1.00  0.00     0.124 S 
ATOM     80  O   UNL A   1      32.735  35.010  30.976  1.00  0.00    -0.237 OA
ATOM     81  O   UNL A   1      33.617  36.263  29.033  1.00  0.00    -0.237 OA
ATOM     82  O   UNL A   1      32.459  34.117  28.689  1.00  0.00    -0.744 OA
ENDBRANCH  78  79
ENDBRANCH  46  71
BRANCH  58  83
ATOM     83  C   UNL A   1      43.366  34.392  32.975  1.00  0.00     0.058 A 
ATOM     84  C   UNL A   1      43.891  35.484  32.270  1.00  0.00     0.135 A 
ATOM     85  C   UNL A   1      43.207  34.513  34.366  1.00  0.00     0.135 A 
ATOM     86  F   UNL A   1      44.065  35.412  30.942  1.00  0.00    -0.206 F 
ATOM     87  C   UNL A   1      44.245  36.660  32.923  1.00  0.00     0.059 A 
ATOM     88  C   UNL A   1      43.531  35.686  35.034  1.00  0.00     0.059 A 
ATOM     89  F   UNL A   1      42.697  33.496  35.078  1.00  0.00    -0.206 F 
ATOM     90  C   UNL A   1      44.052  36.754  34.304  1.00  0.00     0.060 A 
BRANCH  90  91
ATOM     91  S   UNL A   1      44.441  38.313  35.126  1.00  0.00     0.124 S 
ATOM     92  O   UNL A   1      44.038  38.028  36.499  1.00  0.00    -0.237 OA
ATOM     93  O   UNL A   1      45.878  38.436  34.898  1.00  0.00    -0.237 OA
ATOM     94  O   UNL A   1      43.615  39.285  34.416  1.00  0.00    -0.744 OA
ENDBRANCH  90  91
ENDBRANCH  58  83
ENDBRANCH  32  33
ENDBRANCH  25  27
ENDBRANCH  24  25
ENDBRANCH  23  24
ENDBRANCH  22  23
ENDBRANCH   1  22
TORSDOF 22
ENDMDL
MODEL 2
REMARK VINA RESULT:      -8.3      4.080     10.835
REMARK SMILES C=CC[N@@H+](CC(=O)OCCOCCOC(=O)c1ccc(-c2c3nc(c(-c4c(F)cc(S(=O)(=O)[O-])cc4F)c4ccc([nH]4)c(-c4c(F)cc(S(=O)(=O)[O-])cc4F)c4nc(c(-c5c(F)cc(S(=O)(=O)[O-])cc5F)c5ccc2[nH]5)C=C4)C=C3)cc1)[C@@H]1CC[N@@H+](C(C)C)C1
REMARK SMILES IDX 11 1 10 2 9 3 8 4 6 5 7 6 5 7 4 8 3 10 2 11 1 12 83 13 84 14
REMARK SMILES IDX 90 15 85 16 86 17 87 19 88 20 89 21 12 22 13 23 14 24 15 25
REMARK SMILES IDX 16 26 17 27 18 28 82 29 19 30 81 31 20 32 21 33 22 34 75 35
REMARK SMILES IDX 23 36 80 37 74 38 76 39 24 40 79 41 73 42 72 43 25 45 59 46
REMARK SMILES IDX 38 47 58 48 39 49 42 50 57 51 77 52 40 53 41 54 56 56 78 57
REMARK SMILES IDX 43 58 26 59 27 60 36 61 28 62 29 63 35 64 37 65 30 66 31 67
REMARK SMILES IDX 32 68 33 69 34 70 60 71 61 72 70 73 62 74 63 75 69 76 71 77
REMARK SMILES IDX 64 78 65 79 66 80 67 81 68 82 44 83 45 84 54 85 46 86 47 87
REMARK SMILES IDX 53 88 55 89 48 90 49 91 50 92 51 93 52 94
REMARK H PARENT 4 9 86 18 76 44 42 55
REMARK Flexibility Score: inf
ROOT
ATOM      1  O   UNL A   1      31.316  29.681  25.325  1.00  0.00    -0.374 OA
ENDROOT
BRANCH   1   2
ATOM      2  C   UNL A   1      31.879  28.678  24.484  1.00  0.00     0.202 C 
BRANCH   2   3
ATOM      3  C   UNL A   1      31.650  27.212  24.868  1.00  0.00     0.261 C 
BRANCH   3   4
ATOM      4  O   UNL A   1      32.711  26.630  25.661  1.00  0.00    -0.459 OA
BRANCH   4   5
ATOM      5  C   UNL A   1      32.457  25.391  26.166  1.00  0.00     0.361 C 
ATOM      6  O   UNL A   1      31.419  25.099  26.757  1.00  0.00    -0.245 OA
BRANCH   5   7
ATOM      7  C   UNL A   1      33.592  24.366  26.048  1.00  0.00     0.387 C 
BRANCH   7   8
ATOM      8  N   UNL A   1      34.358  24.272  24.802  1.00  0.00    -0.315 N 
ATOM      9  H   UNL A   1      34.610  25.254  24.693  1.00  0.00     0.349 HD
BRANCH   8  10
ATOM     10  C   UNL A   1      33.576  24.021  23.598  1.00  0.00     0.291 C 
BRANCH  10  11
ATOM     11  C   UNL A   1      33.631  25.145  22.603  1.00  0.00     0.025 C 
ATOM     12  C   UNL A   1      32.781  25.264  21.573  1.00  0.00     0.010 C 
ENDBRANCH  10  11
ENDBRANCH   8  10
BRANCH   8  13
ATOM     13  C   UNL A   1      35.760  23.848  24.830  1.00  0.00     0.246 C 
ATOM     14  C   UNL A   1      36.248  22.791  23.828  1.00  0.00     0.132 C 
ATOM     15  C   UNL A   1      36.166  23.236  26.194  1.00  0.00     0.328 C 
ATOM     16  C   UNL A   1      36.918  21.695  24.632  1.00  0.00     0.269 C 
ATOM     17  N   UNL A   1      37.251  22.273  25.932  1.00  0.00    -0.328 N 
ATOM     18  H   UNL A   1      37.284  21.580  26.680  1.00  0.00     0.348 HD
BRANCH  17  19
ATOM     19  C   UNL A   1      38.633  22.781  26.023  1.00  0.00     0.177 C 
ATOM     20  C   UNL A   1      38.962  23.791  27.127  1.00  0.00     0.075 C 
ATOM     21  C   UNL A   1      39.581  21.581  26.124  1.00  0.00     0.075 C 
ENDBRANCH  17  19
ENDBRANCH   8  13
ENDBRANCH   7   8
ENDBRANCH   5   7
ENDBRANCH   4   5
ENDBRANCH   3   4
ENDBRANCH   2   3
ENDBRANCH   1   2
BRANCH   1  22
ATOM     22  C   UNL A   1      31.875  29.876  26.616  1.00  0.00     0.202 C 
BRANCH  22  23
ATOM     23  C   UNL A   1      32.731  31.121  26.865  1.00  0.00     0.261 C 
BRANCH  23  24
ATOM     24  O   UNL A   1      33.867  30.889  27.671  1.00  0.00    -0.460 OA
BRANCH  24  25
ATOM     25  C   UNL A   1      34.692  31.920  27.898  1.00  0.00     0.338 C 
ATOM     26  O   UNL A   1      34.551  33.096  27.636  1.00  0.00    -0.246 OA
BRANCH  25  27
ATOM     27  C   UNL A   1      35.890  31.257  28.407  1.00  0.00     0.060 A 
ATOM     28  C   UNL A   1      35.839  29.910  28.772  1.00  0.00     0.016 A 
ATOM     29  C   UNL A   1      37.090  31.971  28.378  1.00  0.00     0.016 A 
ATOM     30  C   UNL A   1      37.007  29.283  29.189  1.00  0.00     0.010 A 
ATOM     31  C   UNL A   1      38.261  31.333  28.758  1.00  0.00     0.010 A 
ATOM     32  C   UNL A   1      38.210  30.004  29.213  1.00  0.00    -0.014 A 
BRANCH  32  33
ATOM     33  C   UNL A   1      39.382  29.465  29.931  1.00  0.00     0.031 A 
ATOM     34  C   UNL A   1      39.738  30.110  31.241  1.00  0.00     0.074 A 
ATOM     35  C   UNL A   1      40.095  28.447  29.422  1.00  0.00     0.049 A 
ATOM     36  N   UNL A   1      40.771  29.909  32.011  1.00  0.00    -0.248 NA
ATOM     37  C   UNL A   1      38.809  31.142  31.739  1.00  0.00     0.031 C 
ATOM     38  C   UNL A   1      39.803  27.750  28.169  1.00  0.00     0.029 A 
ATOM     39  N   UNL A   1      41.221  27.828  29.896  1.00  0.00    -0.354 N 
ATOM     40  C   UNL A   1      40.624  30.798  33.071  1.00  0.00     0.074 A 
ATOM     41  C   UNL A   1      39.430  31.571  32.825  1.00  0.00     0.031 C 
ATOM     42  C   UNL A   1      40.728  26.794  27.974  1.00  0.00     0.029 A 
ATOM     43  C   UNL A   1      41.696  26.838  29.068  1.00  0.00     0.049 A 
ATOM     44  H   UNL A   1      41.650  28.069  30.748  1.00  0.00     0.167 HD
ATOM     45  C   UNL A   1      41.409  30.937  34.162  1.00  0.00     0.037 A 
ATOM     46  C   UNL A   1      42.797  26.073  29.186  1.00  0.00     0.037 A 
ATOM     47  C   UNL A   1      42.582  30.139  34.390  1.00  0.00     0.049 A 
ATOM     48  C   UNL A   1      43.676  26.267  30.396  1.00  0.00     0.074 A 
ATOM     49  C   UNL A   1      43.468  30.188  35.447  1.00  0.00     0.029 A 
ATOM     50  N   UNL A   1      43.021  29.135  33.537  1.00  0.00    -0.354 N 
ATOM     51  N   UNL A   1      43.532  27.114  31.391  1.00  0.00    -0.248 NA
ATOM     52  C   UNL A   1      44.861  25.407  30.508  1.00  0.00     0.031 C 
ATOM     53  C   UNL A   1      44.461  29.229  35.221  1.00  0.00     0.029 A 
ATOM     54  C   UNL A   1      44.166  28.553  34.046  1.00  0.00     0.049 A 
ATOM     55  H   UNL A   1      42.582  28.875  32.695  1.00  0.00     0.167 HD
ATOM     56  C   UNL A   1      44.583  26.860  32.264  1.00  0.00     0.074 A 
ATOM     57  C   UNL A   1      45.358  25.784  31.678  1.00  0.00     0.031 C 
ATOM     58  C   UNL A   1      44.883  27.456  33.444  1.00  0.00     0.037 A 
BRANCH  45  59
ATOM     59  C   UNL A   1      41.024  31.985  35.167  1.00  0.00     0.058 A 
ATOM     60  C   UNL A   1      40.058  31.735  36.157  1.00  0.00     0.135 A 
ATOM     61  C   UNL A   1      41.621  33.255  35.143  1.00  0.00     0.135 A 
ATOM     62  F   UNL A   1      39.434  30.548  36.209  1.00  0.00    -0.206 F 
ATOM     63  C   UNL A   1      39.680  32.716  37.069  1.00  0.00     0.059 A 
ATOM     64  C   UNL A   1      41.279  34.241  36.064  1.00  0.00     0.059 A 
ATOM     65  F   UNL A   1      42.542  33.551  34.212  1.00  0.00    -0.206 F 
ATOM     66  C   UNL A   1      40.296  33.966  37.014  1.00  0.00     0.060 A 
BRANCH  66  67
ATOM     67  S   UNL A   1      39.797  35.227  38.207  1.00  0.00     0.124 S 
ATOM     68  O   UNL A   1      39.655  36.399  37.349  1.00  0.00    -0.237 OA
ATOM     69  O   UNL A   1      38.555  34.678  38.739  1.00  0.00    -0.237 OA
ATOM     70  O   UNL A   1      40.914  35.268  39.144  1.00  0.00    -0.744 OA
ENDBRANCH  66  67
ENDBRANCH  45  59
BRANCH  46  71
ATOM     71  C   UNL A   1      43.123  25.057  28.149  1.00  0.00     0.058 A 
ATOM     72  C   UNL A   1      42.561  23.772  28.193  1.00  0.00     0.135 A 
ATOM     73  C   UNL A   1      43.998  25.347  27.091  1.00  0.00     0.135 A 
ATOM     74  F   UNL A   1      41.721  23.442  29.186  1.00  0.00    -0.206 F 
ATOM     75  C   UNL A   1      42.868  22.806  27.239  1.00  0.00     0.059 A 
ATOM     76  C   UNL A   1      44.302  24.407  26.111  1.00  0.00     0.059 A 
ATOM     77  F   UNL A   1      44.551  26.567  26.991  1.00  0.00    -0.206 F 
ATOM     78  C   UNL A   1      43.742  23.134  26.201  1.00  0.00     0.060 A 
BRANCH  78  79
ATOM     79  S   UNL A   1      44.107  21.885  24.948  1.00  0.00     0.124 S 
ATOM     80  O   UNL A   1      45.511  21.598  25.221  1.00  0.00    -0.237 OA
ATOM     81  O   UNL A   1      43.161  20.826  25.284  1.00  0.00    -0.237 OA
ATOM     82  O   UNL A   1      43.837  22.580  23.693  1.00  0.00    -0.744 OA
ENDBRANCH  78  79
ENDBRANCH  46  71
BRANCH  58  83
ATOM     83  C   UNL A   1      46.052  26.919  34.216  1.00  0.00     0.058 A 
ATOM     84  C   UNL A   1      45.907  25.870  35.135  1.00  0.00     0.135 A 
ATOM     85  C   UNL A   1      47.347  27.390  33.943  1.00  0.00     0.135 A 
ATOM     86  F   UNL A   1      44.689  25.392  35.430  1.00  0.00    -0.206 F 
ATOM     87  C   UNL A   1      47.011  25.305  35.762  1.00  0.00     0.059 A 
ATOM     88  C   UNL A   1      48.466  26.824  34.539  1.00  0.00     0.059 A 
ATOM     89  F   UNL A   1      47.532  28.385  33.061  1.00  0.00    -0.206 F 
ATOM     90  C   UNL A   1      48.288  25.783  35.450  1.00  0.00     0.060 A 
BRANCH  90  91
ATOM     91  S   UNL A   1      49.718  24.986  36.211  1.00  0.00     0.124 S 
ATOM     92  O   UNL A   1      50.074  23.998  35.199  1.00  0.00    -0.237 OA
ATOM     93  O   UNL A   1      50.649  26.100  36.366  1.00  0.00    -0.237 OA
ATOM     94  O   UNL A   1      49.182  24.447  37.457  1.00  0.00    -0.744 OA
ENDBRANCH  90  91
ENDBRANCH  58  83
ENDBRANCH  32  33
ENDBRANCH  25  27
ENDBRANCH  24  25
ENDBRANCH  23  24
ENDBRANCH  22  23
ENDBRANCH   1  22
TORSDOF 22
ENDMDL
MODEL 3
REMARK VINA RESULT:      -8.2      4.353     11.074
REMARK SMILES C=CC[N@@H+](CC(=O)OCCOCCOC(=O)c1ccc(-c2c3nc(c(-c4c(F)cc(S(=O)(=O)[O-])cc4F)c4ccc([nH]4)c(-c4c(F)cc(S(=O)(=O)[O-])cc4F)c4nc(c(-c5c(F)cc(S(=O)(=O)[O-])cc5F)c5ccc2[nH]5)C=C4)C=C3)cc1)[C@@H]1CC[N@@H+](C(C)C)C1
REMARK SMILES IDX 11 1 10 2 9 3 8 4 6 5 7 6 5 7 4 8 3 10 2 11 1 12 83 13 84 14
REMARK SMILES IDX 90 15 85 16 86 17 87 19 88 20 89 21 12 22 13 23 14 24 15 25
REMARK SMILES IDX 16 26 17 27 18 28 82 29 19 30 81 31 20 32 21 33 22 34 75 35
REMARK SMILES IDX 23 36 80 37 74 38 76 39 24 40 79 41 73 42 72 43 25 45 59 46
REMARK SMILES IDX 38 47 58 48 39 49 42 50 57 51 77 52 40 53 41 54 56 56 78 57
REMARK SMILES IDX 43 58 26 59 27 60 36 61 28 62 29 63 35 64 37 65 30 66 31 67
REMARK SMILES IDX 32 68 33 69 34 70 60 71 61 72 70 73 62 74 63 75 69 76 71 77
REMARK SMILES IDX 64 78 65 79 66 80 67 81 68 82 44 83 45 84 54 85 46 86 47 87
REMARK SMILES IDX 53 88 55 89 48 90 49 91 50 92 51 93 52 94
REMARK H PARENT 4 9 86 18 76 44 42 55
REMARK Flexibility Score: inf
ROOT
ATOM      1  O   UNL A   1      33.154  29.065  24.771  1.00  0.00    -0.374 OA
ENDROOT
BRANCH   1   2
ATOM      2  C   UNL A   1      33.265  27.670  24.500  1.00  0.00     0.202 C 
BRANCH   2   3
ATOM      3  C   UNL A   1      32.304  26.722  25.226  1.00  0.00     0.261 C 
BRANCH   3   4
ATOM      4  O   UNL A   1      32.896  26.006  26.335  1.00  0.00    -0.459 OA
BRANCH   4   5
ATOM      5  C   UNL A   1      32.987  24.656  26.183  1.00  0.00     0.361 C 
ATOM      6  O   UNL A   1      32.214  23.859  26.713  1.00  0.00    -0.245 OA
BRANCH   5   7
ATOM      7  C   UNL A   1      34.186  24.145  25.374  1.00  0.00     0.387 C 
BRANCH   7   8
ATOM      8  N   UNL A   1      34.725  22.809  25.640  1.00  0.00    -0.315 N 
ATOM      9  H   UNL A   1      34.103  22.533  26.400  1.00  0.00     0.349 HD
BRANCH   8  10
ATOM     10  C   UNL A   1      36.032  22.772  26.284  1.00  0.00     0.291 C 
BRANCH  10  11
ATOM     11  C   UNL A   1      36.929  23.908  25.881  1.00  0.00     0.025 C 
ATOM     12  C   UNL A   1      38.228  23.974  26.204  1.00  0.00     0.010 C 
ENDBRANCH  10  11
ENDBRANCH   8  10
BRANCH   8  13
ATOM     13  C   UNL A   1      34.319  21.672  24.809  1.00  0.00     0.246 C 
ATOM     14  C   UNL A   1      33.350  21.902  23.638  1.00  0.00     0.132 C 
ATOM     15  C   UNL A   1      33.606  20.565  25.626  1.00  0.00     0.328 C 
ATOM     16  C   UNL A   1      32.204  20.928  23.814  1.00  0.00     0.269 C 
ATOM     17  N   UNL A   1      32.682  19.875  24.708  1.00  0.00    -0.328 N 
ATOM     18  H   UNL A   1      31.933  19.434  25.242  1.00  0.00     0.348 HD
BRANCH  17  19
ATOM     19  C   UNL A   1      33.201  18.685  24.006  1.00  0.00     0.177 C 
ATOM     20  C   UNL A   1      33.388  17.395  24.810  1.00  0.00     0.075 C 
ATOM     21  C   UNL A   1      32.302  18.412  22.795  1.00  0.00     0.075 C 
ENDBRANCH  17  19
ENDBRANCH   8  13
ENDBRANCH   7   8
ENDBRANCH   5   7
ENDBRANCH   4   5
ENDBRANCH   3   4
ENDBRANCH   2   3
ENDBRANCH   1   2
BRANCH   1  22
ATOM     22  C   UNL A   1      32.255  29.490  25.786  1.00  0.00     0.202 C 
BRANCH  22  23
ATOM     23  C   UNL A   1      32.695  30.608  26.734  1.00  0.00     0.261 C 
BRANCH  23  24
ATOM     24  O   UNL A   1      34.079  30.617  27.014  1.00  0.00    -0.460 OA
BRANCH  24  25
ATOM     25  C   UNL A   1      34.542  31.563  27.843  1.00  0.00     0.338 C 
ATOM     26  O   UNL A   1      34.124  32.683  28.048  1.00  0.00    -0.246 OA
BRANCH  25  27
ATOM     27  C   UNL A   1      35.782  30.969  28.336  1.00  0.00     0.060 A 
ATOM     28  C   UNL A   1      35.838  29.601  28.611  1.00  0.00     0.016 A 
ATOM     29  C   UNL A   1      36.918  31.781  28.383  1.00  0.00     0.016 A 
ATOM     30  C   UNL A   1      37.047  29.047  29.014  1.00  0.00     0.010 A 
ATOM     31  C   UNL A   1      38.131  31.218  28.748  1.00  0.00     0.010 A 
ATOM     32  C   UNL A   1      38.184  29.862  29.114  1.00  0.00    -0.014 A 
BRANCH  32  33
ATOM     33  C   UNL A   1      39.383  29.375  29.824  1.00  0.00     0.031 A 
ATOM     34  C   UNL A   1      39.757  30.079  31.098  1.00  0.00     0.074 A 
ATOM     35  C   UNL A   1      40.104  28.351  29.338  1.00  0.00     0.049 A 
ATOM     36  N   UNL A   1      40.813  29.929  31.849  1.00  0.00    -0.248 NA
ATOM     37  C   UNL A   1      38.820  31.112  31.578  1.00  0.00     0.031 C 
ATOM     38  C   UNL A   1      39.796  27.599  28.121  1.00  0.00     0.029 A 
ATOM     39  N   UNL A   1      41.254  27.774  29.808  1.00  0.00    -0.354 N 
ATOM     40  C   UNL A   1      40.674  30.856  32.877  1.00  0.00     0.074 A 
ATOM     41  C   UNL A   1      39.459  31.596  32.630  1.00  0.00     0.031 C 
ATOM     42  C   UNL A   1      40.736  26.654  27.942  1.00  0.00     0.029 A 
ATOM     43  C   UNL A   1      41.728  26.761  29.008  1.00  0.00     0.049 A 
ATOM     44  H   UNL A   1      41.699  28.057  30.639  1.00  0.00     0.167 HD
ATOM     45  C   UNL A   1      41.481  31.054  33.941  1.00  0.00     0.037 A 
ATOM     46  C   UNL A   1      42.848  26.022  29.129  1.00  0.00     0.037 A 
ATOM     47  C   UNL A   1      42.675  30.289  34.172  1.00  0.00     0.049 A 
ATOM     48  C   UNL A   1      43.751  26.282  30.309  1.00  0.00     0.074 A 
ATOM     49  C   UNL A   1      43.586  30.397  35.204  1.00  0.00     0.029 A 
ATOM     50  N   UNL A   1      43.114  29.260  33.348  1.00  0.00    -0.354 N 
ATOM     51  N   UNL A   1      43.614  27.166  31.272  1.00  0.00    -0.248 NA
ATOM     52  C   UNL A   1      44.956  25.450  30.425  1.00  0.00     0.031 C 
ATOM     53  C   UNL A   1      44.592  29.449  34.991  1.00  0.00     0.029 A 
ATOM     54  C   UNL A   1      44.283  28.722  33.851  1.00  0.00     0.049 A 
ATOM     55  H   UNL A   1      42.661  28.959  32.529  1.00  0.00     0.167 HD
ATOM     56  C   UNL A   1      44.691  26.967  32.128  1.00  0.00     0.074 A 
ATOM     57  C   UNL A   1      45.473  25.883  31.566  1.00  0.00     0.031 C 
ATOM     58  C   UNL A   1      45.008  27.616  33.276  1.00  0.00     0.037 A 
BRANCH  45  59
ATOM     59  C   UNL A   1      41.099  32.134  34.914  1.00  0.00     0.058 A 
ATOM     60  C   UNL A   1      41.584  33.446  34.785  1.00  0.00     0.135 A 
ATOM     61  C   UNL A   1      40.241  31.857  35.990  1.00  0.00     0.135 A 
ATOM     62  F   UNL A   1      42.430  33.759  33.791  1.00  0.00    -0.206 F 
ATOM     63  C   UNL A   1      41.254  34.439  35.703  1.00  0.00     0.059 A 
ATOM     64  C   UNL A   1      39.875  32.842  36.903  1.00  0.00     0.059 A 
ATOM     65  F   UNL A   1      39.756  30.618  36.167  1.00  0.00    -0.206 F 
ATOM     66  C   UNL A   1      40.398  34.126  36.760  1.00  0.00     0.060 A 
BRANCH  66  67
ATOM     67  S   UNL A   1      39.976  35.425  37.940  1.00  0.00     0.124 S 
ATOM     68  O   UNL A   1      41.159  35.439  38.794  1.00  0.00    -0.237 OA
ATOM     69  O   UNL A   1      39.805  36.588  37.075  1.00  0.00    -0.237 OA
ATOM     70  O   UNL A   1      38.756  34.929  38.568  1.00  0.00    -0.744 OA
ENDBRANCH  66  67
ENDBRANCH  45  59
BRANCH  46  71
ATOM     71  C   UNL A   1      43.170  24.972  28.126  1.00  0.00     0.058 A 
ATOM     72  C   UNL A   1      42.868  23.623  28.368  1.00  0.00     0.135 A 
ATOM     73  C   UNL A   1      43.779  25.292  26.902  1.00  0.00     0.135 A 
ATOM     74  F   UNL A   1      42.288  23.263  29.523  1.00  0.00    -0.206 F 
ATOM     75  C   UNL A   1      43.176  22.628  27.446  1.00  0.00     0.059 A 
ATOM     76  C   UNL A   1      44.075  24.318  25.953  1.00  0.00     0.059 A 
ATOM     77  F   UNL A   1      44.074  26.570  26.611  1.00  0.00    -0.206 F 
ATOM     78  C   UNL A   1      43.782  22.986  26.240  1.00  0.00     0.060 A 
BRANCH  78  79
ATOM     79  S   UNL A   1      44.146  21.691  25.034  1.00  0.00     0.124 S 
ATOM     80  O   UNL A   1      43.086  20.728  25.309  1.00  0.00    -0.237 OA
ATOM     81  O   UNL A   1      44.042  22.411  23.769  1.00  0.00    -0.237 OA
ATOM     82  O   UNL A   1      45.495  21.267  25.395  1.00  0.00    -0.744 OA
ENDBRANCH  78  79
ENDBRANCH  46  71
BRANCH  58  83
ATOM     83  C   UNL A   1      46.205  27.132  34.039  1.00  0.00     0.058 A 
ATOM     84  C   UNL A   1      46.108  26.103  34.985  1.00  0.00     0.135 A 
ATOM     85  C   UNL A   1      47.480  27.635  33.731  1.00  0.00     0.135 A 
ATOM     86  F   UNL A   1      44.910  25.596  35.314  1.00  0.00    -0.206 F 
ATOM     87  C   UNL A   1      47.240  25.586  35.606  1.00  0.00     0.059 A 
ATOM     88  C   UNL A   1      48.626  27.117  34.321  1.00  0.00     0.059 A 
ATOM     89  F   UNL A   1      47.620  28.612  32.822  1.00  0.00    -0.206 F 
ATOM     90  C   UNL A   1      48.495  26.094  35.259  1.00  0.00     0.060 A 
BRANCH  90  91
ATOM     91  S   UNL A   1      49.962  25.359  36.013  1.00  0.00     0.124 S 
ATOM     92  O   UNL A   1      49.528  23.980  36.213  1.00  0.00    -0.237 OA
ATOM     93  O   UNL A   1      50.977  25.562  34.983  1.00  0.00    -0.237 OA
ATOM     94  O   UNL A   1      50.147  26.144  37.229  1.00  0.00    -0.744 OA
ENDBRANCH  90  91
ENDBRANCH  58  83
ENDBRANCH  32  33
ENDBRANCH  25  27
ENDBRANCH  24  25
ENDBRANCH  23  24
ENDBRANCH  22  23
ENDBRANCH   1  22
TORSDOF 22
ENDMDL
