MODEL 1
REMARK VINA RESULT:     -15.0      0.000      0.000
REMARK SMILES O=C(OCCOCCOC(=O)[C@H]1CCCC[C@H]1C(=O)N1CCN(S(=O)(=O)c2ccc(F)cc2)CC1)c1ccc(-c2c3nc(c(-c4c(F)cc(S(=O)(=O)[O-])cc4F)c4ccc([nH]4)c(-c4c(F)cc(S(=O)(=O)[O-])cc4F)c4nc(c(-c5c(F)cc(S(=O)(=O)[O-])cc5F)c5ccc2[nH]5)C=C4)C=C3)cc1
REMARK SMILES IDX 6 1 5 2 4 3 3 4 2 5 1 6 36 7 37 8 101 9 38 10 100 11 39 12
REMARK SMILES IDX 40 13 41 14 94 15 42 16 99 17 93 18 95 19 43 20 98 21 92 22
REMARK SMILES IDX 91 23 44 25 78 26 57 27 77 28 58 29 61 30 76 31 96 32 59 33
REMARK SMILES IDX 60 34 75 36 97 37 62 38 45 39 46 40 55 41 47 42 48 43 54 44
REMARK SMILES IDX 56 45 49 46 50 47 51 48 52 49 53 50 79 51 80 52 89 53 81 54
REMARK SMILES IDX 82 55 88 56 90 57 83 58 84 59 85 60 86 61 87 62 63 63 64 64
REMARK SMILES IDX 73 65 65 66 66 67 72 68 74 69 67 70 68 71 69 72 70 73 71 74
REMARK SMILES IDX 7 75 8 76 9 77 10 78 11 79 12 80 13 81 17 82 14 83 16 84
REMARK SMILES IDX 15 85 18 86 19 87 20 88 21 89 35 90 22 91 34 92 23 93 24 94
REMARK SMILES IDX 25 95 26 96 27 97 28 98 33 99 29 100 32 101 30 102 31 103
REMARK H PARENT 95 24 61 35
REMARK Flexibility Score: inf
ROOT
ATOM      1  O   UNL A   1      34.204  31.382  27.921  1.00  0.00    -0.374 OA
ENDROOT
BRANCH   1   2
ATOM      2  C   UNL A   1      35.054  32.588  28.328  1.00  0.00     0.202 C 
BRANCH   2   3
ATOM      3  C   UNL A   1      34.490  34.389  28.242  1.00  0.00     0.261 C 
BRANCH   3   4
ATOM      4  O   UNL A   1      32.759  35.067  28.980  1.00  0.00    -0.460 OA
BRANCH   4   5
ATOM      5  C   UNL A   1      32.776  35.694  30.691  1.00  0.00     0.338 C 
ATOM      6  O   UNL A   1      32.280  36.820  30.767  1.00  0.00    -0.246 OA
BRANCH   5   7
ATOM      7  C   UNL A   1      34.043  34.888  31.862  1.00  0.00     0.060 A 
ATOM      8  C   UNL A   1      35.321  35.352  32.070  1.00  0.00     0.016 A 
ATOM      9  C   UNL A   1      34.030  33.499  32.300  1.00  0.00     0.016 A 
ATOM     10  C   UNL A   1      36.453  34.475  32.140  1.00  0.00     0.010 A 
ATOM     11  C   UNL A   1      35.062  32.707  32.782  1.00  0.00     0.010 A 
ATOM     12  C   UNL A   1      36.326  33.159  32.606  1.00  0.00    -0.014 A 
BRANCH  12  13
ATOM     13  C   UNL A   1      37.401  32.398  33.270  1.00  0.00     0.031 A 
ATOM     14  C   UNL A   1      37.988  32.821  34.597  1.00  0.00     0.074 A 
ATOM     15  C   UNL A   1      37.977  31.477  32.471  1.00  0.00     0.049 A 
ATOM     16  N   UNL A   1      39.097  32.420  35.162  1.00  0.00    -0.248 NA
ATOM     17  C   UNL A   1      37.290  33.875  35.363  1.00  0.00     0.031 C 
ATOM     18  C   UNL A   1      37.533  31.166  31.104  1.00  0.00     0.029 A 
ATOM     19  N   UNL A   1      39.042  30.650  32.642  1.00  0.00    -0.354 N 
ATOM     20  C   UNL A   1      39.242  33.175  36.324  1.00  0.00     0.074 A 
ATOM     21  C   UNL A   1      38.130  34.097  36.369  1.00  0.00     0.031 C 
ATOM     22  C   UNL A   1      38.206  30.131  30.620  1.00  0.00     0.029 A 
ATOM     23  C   UNL A   1      39.265  29.841  31.552  1.00  0.00     0.049 A 
ATOM     24  H   UNL A   1      39.593  30.631  33.457  1.00  0.00     0.167 HD
ATOM     25  C   UNL A   1      40.226  33.082  37.252  1.00  0.00     0.037 A 
ATOM     26  C   UNL A   1      40.267  28.997  31.284  1.00  0.00     0.037 A 
ATOM     27  C   UNL A   1      41.310  32.137  37.111  1.00  0.00     0.049 A 
ATOM     28  C   UNL A   1      41.316  28.900  32.329  1.00  0.00     0.074 A 
ATOM     29  C   UNL A   1      42.359  31.878  37.971  1.00  0.00     0.029 A 
ATOM     30  N   UNL A   1      41.473  31.292  36.013  1.00  0.00    -0.354 N 
ATOM     31  N   UNL A   1      41.411  29.585  33.446  1.00  0.00    -0.248 NA
ATOM     32  C   UNL A   1      42.385  27.936  32.097  1.00  0.00     0.031 C 
ATOM     33  C   UNL A   1      43.182  30.921  37.367  1.00  0.00     0.029 A 
ATOM     34  C   UNL A   1      42.612  30.524  36.163  1.00  0.00     0.049 A 
ATOM     35  H   UNL A   1      40.863  31.249  35.241  1.00  0.00     0.167 HD
ATOM     36  C   UNL A   1      42.548  29.121  34.074  1.00  0.00     0.074 A 
ATOM     37  C   UNL A   1      43.095  28.086  33.208  1.00  0.00     0.031 C 
ATOM     38  C   UNL A   1      43.093  29.508  35.252  1.00  0.00     0.037 A 
BRANCH  25  39
ATOM     39  C   UNL A   1      40.186  33.992  38.460  1.00  0.00     0.058 A 
ATOM     40  C   UNL A   1      39.381  33.690  39.573  1.00  0.00     0.135 A 
ATOM     41  C   UNL A   1      40.913  35.195  38.510  1.00  0.00     0.135 A 
ATOM     42  F   UNL A   1      38.660  32.557  39.600  1.00  0.00    -0.206 F 
ATOM     43  C   UNL A   1      39.296  34.538  40.679  1.00  0.00     0.059 A 
ATOM     44  C   UNL A   1      40.869  36.045  39.617  1.00  0.00     0.059 A 
ATOM     45  F   UNL A   1      41.711  35.543  37.488  1.00  0.00    -0.206 F 
ATOM     46  C   UNL A   1      40.048  35.713  40.693  1.00  0.00     0.060 A 
BRANCH  46  47
ATOM     47  S   UNL A   1      39.964  36.780  42.150  1.00  0.00     0.124 S 
ATOM     48  O   UNL A   1      41.353  36.796  42.594  1.00  0.00    -0.237 OA
ATOM     49  O   UNL A   1      39.461  38.029  41.584  1.00  0.00    -0.237 OA
ATOM     50  O   UNL A   1      39.030  36.080  43.029  1.00  0.00    -0.744 OA
ENDBRANCH  46  47
ENDBRANCH  25  39
BRANCH  26  51
ATOM     51  C   UNL A   1      40.228  28.215  30.023  1.00  0.00     0.058 A 
ATOM     52  C   UNL A   1      39.455  27.045  29.903  1.00  0.00     0.135 A 
ATOM     53  C   UNL A   1      41.125  28.513  28.990  1.00  0.00     0.135 A 
ATOM     54  F   UNL A   1      38.634  26.673  30.899  1.00  0.00    -0.206 F 
ATOM     55  C   UNL A   1      39.592  26.189  28.816  1.00  0.00     0.059 A 
ATOM     56  C   UNL A   1      41.254  27.690  27.876  1.00  0.00     0.059 A 
ATOM     57  F   UNL A   1      41.914  29.594  29.082  1.00  0.00    -0.206 F 
ATOM     58  C   UNL A   1      40.494  26.523  27.806  1.00  0.00     0.060 A 
BRANCH  58  59
ATOM     59  S   UNL A   1      40.655  25.401  26.401  1.00  0.00     0.124 S 
ATOM     60  O   UNL A   1      39.294  24.889  26.273  1.00  0.00    -0.237 OA
ATOM     61  O   UNL A   1      41.096  26.305  25.345  1.00  0.00    -0.237 OA
ATOM     62  O   UNL A   1      41.650  24.434  26.854  1.00  0.00    -0.744 OA
ENDBRANCH  58  59
ENDBRANCH  26  51
BRANCH  38  63
ATOM     63  C   UNL A   1      44.326  28.775  35.668  1.00  0.00     0.058 A 
ATOM     64  C   UNL A   1      44.213  27.588  36.405  1.00  0.00     0.135 A 
ATOM     65  C   UNL A   1      45.603  29.293  35.414  1.00  0.00     0.135 A 
ATOM     66  F   UNL A   1      43.005  27.061  36.665  1.00  0.00    -0.206 F 
ATOM     67  C   UNL A   1      45.333  26.955  36.915  1.00  0.00     0.059 A 
ATOM     68  C   UNL A   1      46.741  28.654  35.881  1.00  0.00     0.059 A 
ATOM     69  F   UNL A   1      45.749  30.414  34.690  1.00  0.00    -0.206 F 
ATOM     70  C   UNL A   1      46.592  27.499  36.652  1.00  0.00     0.060 A 
BRANCH  70  71
ATOM     71  S   UNL A   1      48.033  26.672  37.342  1.00  0.00     0.124 S 
ATOM     72  O   UNL A   1      49.076  27.054  36.396  1.00  0.00    -0.237 OA
ATOM     73  O   UNL A   1      48.123  27.276  38.668  1.00  0.00    -0.237 OA
ATOM     74  O   UNL A   1      47.656  25.262  37.326  1.00  0.00    -0.744 OA
ENDBRANCH  70  71
ENDBRANCH  38  63
ENDBRANCH  12  13
ENDBRANCH   5   7
ENDBRANCH   4   5
ENDBRANCH   3   4
ENDBRANCH   2   3
ENDBRANCH   1   2
BRANCH   1  75
ATOM     75  C   UNL A   1      34.567  29.948  27.947  1.00  0.00     0.202 C 
BRANCH  75  76
ATOM     76  C   UNL A   1      34.706  29.130  26.595  1.00  0.00     0.261 C 
BRANCH  76  77
ATOM     77  O   UNL A   1      33.575  28.296  26.386  1.00  0.00    -0.463 OA
BRANCH  77  78
ATOM     78  C   UNL A   1      32.816  28.810  25.406  1.00  0.00     0.309 C 
ATOM     79  O   UNL A   1      33.263  29.709  24.695  1.00  0.00    -0.252 OA
BRANCH  78  80
ATOM     80  C   UNL A   1      31.361  28.310  25.386  1.00  0.00     0.111 C 
ATOM     81  C   UNL A   1      30.807  29.230  24.248  1.00  0.00     0.016 C 
ATOM     82  C   UNL A   1      30.799  26.856  25.110  1.00  0.00     0.093 C 
ATOM     83  C   UNL A   1      31.320  28.748  22.879  1.00  0.00     0.001 C 
ATOM     84  C   UNL A   1      30.851  26.390  23.619  1.00  0.00     0.014 C 
ATOM     85  C   UNL A   1      30.643  27.447  22.537  1.00  0.00     0.001 C 
BRANCH  82  86
ATOM     86  C   UNL A   1      30.708  25.523  26.023  1.00  0.00     0.226 C 
ATOM     87  O   UNL A   1      29.595  25.257  26.507  1.00  0.00    -0.275 OA
ATOM     88  N   UNL A   1      31.693  24.533  26.073  1.00  0.00    -0.340 N 
ATOM     89  C   UNL A   1      31.248  22.925  26.061  1.00  0.00     0.136 C 
ATOM     90  C   UNL A   1      33.181  24.892  25.928  1.00  0.00     0.136 C 
ATOM     91  C   UNL A   1      31.881  21.709  24.854  1.00  0.00     0.124 C 
ATOM     92  C   UNL A   1      33.883  24.296  24.213  1.00  0.00     0.124 C 
ATOM     93  N   UNL A   1      33.470  22.227  23.816  1.00  0.00    -0.194 NA
BRANCH  93  94
ATOM     94  S   UNL A   1      34.517  20.655  25.108  1.00  0.00     0.243 S 
ATOM     95  O   UNL A   1      35.944  20.719  24.860  1.00  0.00    -0.207 OA
ATOM     96  O   UNL A   1      33.986  20.836  26.445  1.00  0.00    -0.207 OA
BRANCH  94  97
ATOM     97  C   UNL A   1      33.961  18.686  24.553  1.00  0.00     0.082 A 
ATOM     98  C   UNL A   1      32.628  18.238  24.689  1.00  0.00     0.025 A 
ATOM     99  C   UNL A   1      34.951  17.694  24.388  1.00  0.00     0.025 A 
ATOM    100  C   UNL A   1      32.360  16.920  25.130  1.00  0.00     0.040 A 
ATOM    101  C   UNL A   1      34.657  16.348  24.739  1.00  0.00     0.040 A 
ATOM    102  C   UNL A   1      33.388  15.995  25.191  1.00  0.00     0.123 A 
ATOM    103  F   UNL A   1      33.160  14.772  25.694  1.00  0.00    -0.207 F 
ENDBRANCH  94  97
ENDBRANCH  93  94
ENDBRANCH  82  86
ENDBRANCH  78  80
ENDBRANCH  77  78
ENDBRANCH  76  77
ENDBRANCH  75  76
ENDBRANCH   1  75
TORSDOF 20
ENDMDL
MODEL 2
REMARK VINA RESULT:     -14.3      0.602      7.988
REMARK SMILES O=C(OCCOCCOC(=O)[C@H]1CCCC[C@H]1C(=O)N1CCN(S(=O)(=O)c2ccc(F)cc2)CC1)c1ccc(-c2c3nc(c(-c4c(F)cc(S(=O)(=O)[O-])cc4F)c4ccc([nH]4)c(-c4c(F)cc(S(=O)(=O)[O-])cc4F)c4nc(c(-c5c(F)cc(S(=O)(=O)[O-])cc5F)c5ccc2[nH]5)C=C4)C=C3)cc1
REMARK SMILES IDX 6 1 5 2 4 3 3 4 2 5 1 6 36 7 37 8 101 9 38 10 100 11 39 12
REMARK SMILES IDX 40 13 41 14 94 15 42 16 99 17 93 18 95 19 43 20 98 21 92 22
REMARK SMILES IDX 91 23 44 25 78 26 57 27 77 28 58 29 61 30 76 31 96 32 59 33
REMARK SMILES IDX 60 34 75 36 97 37 62 38 45 39 46 40 55 41 47 42 48 43 54 44
REMARK SMILES IDX 56 45 49 46 50 47 51 48 52 49 53 50 79 51 80 52 89 53 81 54
REMARK SMILES IDX 82 55 88 56 90 57 83 58 84 59 85 60 86 61 87 62 63 63 64 64
REMARK SMILES IDX 73 65 65 66 66 67 72 68 74 69 67 70 68 71 69 72 70 73 71 74
REMARK SMILES IDX 7 75 8 76 9 77 10 78 11 79 12 80 13 81 17 82 14 83 16 84
REMARK SMILES IDX 15 85 18 86 19 87 20 88 21 89 35 90 22 91 34 92 23 93 24 94
REMARK SMILES IDX 25 95 26 96 27 97 28 98 33 99 29 100 32 101 30 102 31 103
REMARK H PARENT 95 24 61 35
REMARK Flexibility Score: inf
ROOT
ATOM      1  O   UNL A   1      34.193  31.257  28.035  1.00  0.00    -0.374 OA
ENDROOT
BRANCH   1   2
ATOM      2  C   UNL A   1      34.493  32.344  29.069  1.00  0.00     0.202 C 
BRANCH   2   3
ATOM      3  C   UNL A   1      34.001  34.161  28.904  1.00  0.00     0.261 C 
BRANCH   3   4
ATOM      4  O   UNL A   1      32.448  35.000  29.844  1.00  0.00    -0.460 OA
BRANCH   4   5
ATOM      5  C   UNL A   1      32.667  35.407  31.607  1.00  0.00     0.338 C 
ATOM      6  O   UNL A   1      32.003  36.394  31.931  1.00  0.00    -0.246 OA
BRANCH   5   7
ATOM      7  C   UNL A   1      34.249  34.735  32.427  1.00  0.00     0.060 A 
ATOM      8  C   UNL A   1      35.445  35.411  32.490  1.00  0.00     0.016 A 
ATOM      9  C   UNL A   1      34.555  33.330  32.654  1.00  0.00     0.016 A 
ATOM     10  C   UNL A   1      36.703  34.769  32.248  1.00  0.00     0.010 A 
ATOM     11  C   UNL A   1      35.779  32.704  32.842  1.00  0.00     0.010 A 
ATOM     12  C   UNL A   1      36.892  33.409  32.531  1.00  0.00    -0.014 A 
BRANCH  12  13
ATOM     13  C   UNL A   1      38.185  32.800  32.895  1.00  0.00     0.031 A 
ATOM     14  C   UNL A   1      38.802  31.677  32.094  1.00  0.00     0.074 A 
ATOM     15  C   UNL A   1      38.611  33.143  34.128  1.00  0.00     0.049 A 
ATOM     16  N   UNL A   1      39.775  30.873  32.434  1.00  0.00    -0.248 NA
ATOM     17  C   UNL A   1      38.219  31.361  30.773  1.00  0.00     0.031 C 
ATOM     18  C   UNL A   1      37.930  34.110  35.004  1.00  0.00     0.029 A 
ATOM     19  N   UNL A   1      39.670  32.743  34.879  1.00  0.00    -0.354 N 
ATOM     20  C   UNL A   1      39.908  29.954  31.395  1.00  0.00     0.074 A 
ATOM     21  C   UNL A   1      38.884  30.266  30.423  1.00  0.00     0.031 C 
ATOM     22  C   UNL A   1      38.653  34.340  36.092  1.00  0.00     0.029 A 
ATOM     23  C   UNL A   1      39.735  33.389  36.092  1.00  0.00     0.049 A 
ATOM     24  H   UNL A   1      40.320  32.064  34.586  1.00  0.00     0.167 HD
ATOM     25  C   UNL A   1      40.815  28.951  31.290  1.00  0.00     0.037 A 
ATOM     26  C   UNL A   1      40.537  33.190  37.143  1.00  0.00     0.037 A 
ATOM     27  C   UNL A   1      41.792  28.705  32.326  1.00  0.00     0.049 A 
ATOM     28  C   UNL A   1      41.534  32.102  36.988  1.00  0.00     0.074 A 
ATOM     29  C   UNL A   1      42.806  27.768  32.363  1.00  0.00     0.029 A 
ATOM     30  N   UNL A   1      41.861  29.419  33.522  1.00  0.00    -0.354 N 
ATOM     31  N   UNL A   1      41.678  31.275  35.978  1.00  0.00    -0.248 NA
ATOM     32  C   UNL A   1      42.468  31.908  38.089  1.00  0.00     0.031 C 
ATOM     33  C   UNL A   1      43.448  27.880  33.602  1.00  0.00     0.029 A 
ATOM     34  C   UNL A   1      42.886  28.936  34.312  1.00  0.00     0.049 A 
ATOM     35  H   UNL A   1      41.263  30.162  33.768  1.00  0.00     0.167 HD
ATOM     36  C   UNL A   1      42.743  30.464  36.307  1.00  0.00     0.074 A 
ATOM     37  C   UNL A   1      43.209  30.917  37.611  1.00  0.00     0.031 C 
ATOM     38  C   UNL A   1      43.290  29.442  35.605  1.00  0.00     0.037 A 
BRANCH  25  39
ATOM     39  C   UNL A   1      40.798  28.070  30.059  1.00  0.00     0.058 A 
ATOM     40  C   UNL A   1      39.839  27.053  29.906  1.00  0.00     0.135 A 
ATOM     41  C   UNL A   1      41.758  28.199  29.039  1.00  0.00     0.135 A 
ATOM     42  F   UNL A   1      38.888  26.871  30.836  1.00  0.00    -0.206 F 
ATOM     43  C   UNL A   1      39.833  26.202  28.799  1.00  0.00     0.059 A 
ATOM     44  C   UNL A   1      41.754  27.380  27.909  1.00  0.00     0.059 A 
ATOM     45  F   UNL A   1      42.697  29.155  29.115  1.00  0.00    -0.206 F 
ATOM     46  C   UNL A   1      40.794  26.376  27.802  1.00  0.00     0.060 A 
BRANCH  46  47
ATOM     47  S   UNL A   1      40.747  25.296  26.354  1.00  0.00     0.124 S 
ATOM     48  O   UNL A   1      41.646  24.217  26.751  1.00  0.00    -0.237 OA
ATOM     49  O   UNL A   1      39.331  24.949  26.277  1.00  0.00    -0.237 OA
ATOM     50  O   UNL A   1      41.233  26.153  25.275  1.00  0.00    -0.744 OA
ENDBRANCH  46  47
ENDBRANCH  25  39
BRANCH  26  51
ATOM     51  C   UNL A   1      40.402  34.076  38.326  1.00  0.00     0.058 A 
ATOM     52  C   UNL A   1      41.247  35.185  38.519  1.00  0.00     0.135 A 
ATOM     53  C   UNL A   1      39.561  33.706  39.382  1.00  0.00     0.135 A 
ATOM     54  F   UNL A   1      42.127  35.537  37.567  1.00  0.00    -0.206 F 
ATOM     55  C   UNL A   1      41.280  35.876  39.725  1.00  0.00     0.059 A 
ATOM     56  C   UNL A   1      39.551  34.404  40.585  1.00  0.00     0.059 A 
ATOM     57  F   UNL A   1      38.769  32.630  39.259  1.00  0.00    -0.206 F 
ATOM     58  C   UNL A   1      40.424  35.478  40.752  1.00  0.00     0.060 A 
BRANCH  58  59
ATOM     59  S   UNL A   1      40.478  36.389  42.309  1.00  0.00     0.124 S 
ATOM     60  O   UNL A   1      40.099  35.357  43.269  1.00  0.00    -0.237 OA
ATOM     61  O   UNL A   1      41.870  36.821  42.356  1.00  0.00    -0.237 OA
ATOM     62  O   UNL A   1      39.499  37.453  42.110  1.00  0.00    -0.744 OA
ENDBRANCH  58  59
ENDBRANCH  26  51
BRANCH  38  63
ATOM     63  C   UNL A   1      44.469  28.779  36.237  1.00  0.00     0.058 A 
ATOM     64  C   UNL A   1      44.278  27.671  37.075  1.00  0.00     0.135 A 
ATOM     65  C   UNL A   1      45.765  29.291  36.083  1.00  0.00     0.135 A 
ATOM     66  F   UNL A   1      43.051  27.152  37.245  1.00  0.00    -0.206 F 
ATOM     67  C   UNL A   1      45.333  27.115  37.776  1.00  0.00     0.059 A 
ATOM     68  C   UNL A   1      46.843  28.725  36.744  1.00  0.00     0.059 A 
ATOM     69  F   UNL A   1      45.989  30.336  35.268  1.00  0.00    -0.206 F 
ATOM     70  C   UNL A   1      46.611  27.653  37.607  1.00  0.00     0.060 A 
BRANCH  70  71
ATOM     71  S   UNL A   1      47.965  26.928  38.545  1.00  0.00     0.124 S 
ATOM     72  O   UNL A   1      47.382  25.662  38.977  1.00  0.00    -0.237 OA
ATOM     73  O   UNL A   1      49.016  26.834  37.536  1.00  0.00    -0.237 OA
ATOM     74  O   UNL A   1      48.205  27.904  39.603  1.00  0.00    -0.744 OA
ENDBRANCH  70  71
ENDBRANCH  38  63
ENDBRANCH  12  13
ENDBRANCH   5   7
ENDBRANCH   4   5
ENDBRANCH   3   4
ENDBRANCH   2   3
ENDBRANCH   1   2
BRANCH   1  75
ATOM     75  C   UNL A   1      34.726  29.878  27.966  1.00  0.00     0.202 C 
BRANCH  75  76
ATOM     76  C   UNL A   1      34.539  29.008  26.653  1.00  0.00     0.261 C 
BRANCH  76  77
ATOM     77  O   UNL A   1      33.242  28.432  26.605  1.00  0.00    -0.463 OA
BRANCH  77  78
ATOM     78  C   UNL A   1      32.503  29.069  25.683  1.00  0.00     0.309 C 
ATOM     79  O   UNL A   1      32.877  30.156  25.246  1.00  0.00    -0.252 OA
BRANCH  78  80
ATOM     80  C   UNL A   1      31.140  28.420  25.387  1.00  0.00     0.111 C 
ATOM     81  C   UNL A   1      30.733  29.276  24.143  1.00  0.00     0.016 C 
ATOM     82  C   UNL A   1      30.795  26.915  25.036  1.00  0.00     0.093 C 
ATOM     83  C   UNL A   1      31.554  28.851  22.912  1.00  0.00     0.001 C 
ATOM     84  C   UNL A   1      31.191  26.457  23.595  1.00  0.00     0.014 C 
ATOM     85  C   UNL A   1      31.096  27.486  22.471  1.00  0.00     0.001 C 
BRANCH  82  86
ATOM     86  C   UNL A   1      30.661  25.580  25.940  1.00  0.00     0.226 C 
ATOM     87  O   UNL A   1      29.530  25.325  26.387  1.00  0.00    -0.275 OA
ATOM     88  N   UNL A   1      31.634  24.581  26.019  1.00  0.00    -0.340 N 
ATOM     89  C   UNL A   1      31.174  22.977  25.987  1.00  0.00     0.136 C 
ATOM     90  C   UNL A   1      33.130  24.924  25.924  1.00  0.00     0.136 C 
ATOM     91  C   UNL A   1      31.834  21.759  24.798  1.00  0.00     0.124 C 
ATOM     92  C   UNL A   1      33.882  24.327  24.231  1.00  0.00     0.124 C 
ATOM     93  N   UNL A   1      33.461  22.264  23.814  1.00  0.00    -0.194 NA
BRANCH  93  94
ATOM     94  S   UNL A   1      34.449  20.676  25.134  1.00  0.00     0.243 S 
ATOM     95  O   UNL A   1      35.874  20.663  24.864  1.00  0.00    -0.207 OA
ATOM     96  O   UNL A   1      33.949  20.920  26.473  1.00  0.00    -0.207 OA
BRANCH  94  97
ATOM     97  C   UNL A   1      33.788  18.723  24.642  1.00  0.00     0.082 A 
ATOM     98  C   UNL A   1      32.565  18.220  25.139  1.00  0.00     0.025 A 
ATOM     99  C   UNL A   1      34.700  17.779  24.125  1.00  0.00     0.025 A 
ATOM    100  C   UNL A   1      32.465  16.870  25.552  1.00  0.00     0.040 A 
ATOM    101  C   UNL A   1      34.549  16.406  24.459  1.00  0.00     0.040 A 
ATOM    102  C   UNL A   1      33.481  15.982  25.244  1.00  0.00     0.123 A 
ATOM    103  F   UNL A   1      33.436  14.724  25.711  1.00  0.00    -0.207 F 
ENDBRANCH  94  97
ENDBRANCH  93  94
ENDBRANCH  82  86
ENDBRANCH  78  80
ENDBRANCH  77  78
ENDBRANCH  76  77
ENDBRANCH  75  76
ENDBRANCH   1  75
TORSDOF 20
ENDMDL
MODEL 3
REMARK VINA RESULT:     -13.5      6.036     10.465
REMARK SMILES O=C(OCCOCCOC(=O)[C@H]1CCCC[C@H]1C(=O)N1CCN(S(=O)(=O)c2ccc(F)cc2)CC1)c1ccc(-c2c3nc(c(-c4c(F)cc(S(=O)(=O)[O-])cc4F)c4ccc([nH]4)c(-c4c(F)cc(S(=O)(=O)[O-])cc4F)c4nc(c(-c5c(F)cc(S(=O)(=O)[O-])cc5F)c5ccc2[nH]5)C=C4)C=C3)cc1
REMARK SMILES IDX 6 1 5 2 4 3 3 4 2 5 1 6 36 7 37 8 101 9 38 10 100 11 39 12
REMARK SMILES IDX 40 13 41 14 94 15 42 16 99 17 93 18 95 19 43 20 98 21 92 22
REMARK SMILES IDX 91 23 44 25 78 26 57 27 77 28 58 29 61 30 76 31 96 32 59 33
REMARK SMILES IDX 60 34 75 36 97 37 62 38 45 39 46 40 55 41 47 42 48 43 54 44
REMARK SMILES IDX 56 45 49 46 50 47 51 48 52 49 53 50 79 51 80 52 89 53 81 54
REMARK SMILES IDX 82 55 88 56 90 57 83 58 84 59 85 60 86 61 87 62 63 63 64 64
REMARK SMILES IDX 73 65 65 66 66 67 72 68 74 69 67 70 68 71 69 72 70 73 71 74
REMARK SMILES IDX 7 75 8 76 9 77 10 78 11 79 12 80 13 81 17 82 14 83 16 84
REMARK SMILES IDX 15 85 18 86 19 87 20 88 21 89 35 90 22 91 34 92 23 93 24 94
REMARK SMILES IDX 25 95 26 96 27 97 28 98 33 99 29 100 32 101 30 102 31 103
REMARK H PARENT 95 24 61 35
REMARK Flexibility Score: inf
ROOT
ATOM      1  O   UNL A   1      34.565  30.282  28.062  1.00  0.00    -0.374 OA
ENDROOT
BRANCH   1   2
ATOM      2  C   UNL A   1      35.008  31.709  28.392  1.00  0.00     0.202 C 
BRANCH   2   3
ATOM      3  C   UNL A   1      35.584  32.298  30.093  1.00  0.00     0.261 C 
BRANCH   3   4
ATOM      4  O   UNL A   1      35.777  31.112  31.693  1.00  0.00    -0.460 OA
BRANCH   4   5
ATOM      5  C   UNL A   1      37.308  31.278  32.668  1.00  0.00     0.338 C 
ATOM      6  O   UNL A   1      37.107  31.866  33.733  1.00  0.00    -0.246 OA
BRANCH   5   7
ATOM      7  C   UNL A   1      38.937  31.142  31.691  1.00  0.00     0.060 A 
ATOM      8  C   UNL A   1      39.071  31.427  30.352  1.00  0.00     0.016 A 
ATOM      9  C   UNL A   1      40.078  30.315  32.055  1.00  0.00     0.016 A 
ATOM     10  C   UNL A   1      39.836  30.599  29.465  1.00  0.00     0.010 A 
ATOM     11  C   UNL A   1      41.106  29.817  31.267  1.00  0.00     0.010 A 
ATOM     12  C   UNL A   1      40.937  29.864  29.925  1.00  0.00    -0.014 A 
BRANCH  12  13
ATOM     13  C   UNL A   1      42.101  29.492  29.098  1.00  0.00     0.031 A 
ATOM     14  C   UNL A   1      42.305  28.087  28.579  1.00  0.00     0.074 A 
ATOM     15  C   UNL A   1      43.071  30.428  29.086  1.00  0.00     0.049 A 
ATOM     16  N   UNL A   1      43.390  27.552  28.082  1.00  0.00    -0.248 NA
ATOM     17  C   UNL A   1      41.182  27.133  28.689  1.00  0.00     0.031 C 
ATOM     18  C   UNL A   1      42.965  31.745  29.735  1.00  0.00     0.029 A 
ATOM     19  N   UNL A   1      44.319  30.451  28.551  1.00  0.00    -0.354 N 
ATOM     20  C   UNL A   1      43.094  26.212  27.841  1.00  0.00     0.074 A 
ATOM     21  C   UNL A   1      41.737  25.994  28.289  1.00  0.00     0.031 C 
ATOM     22  C   UNL A   1      44.018  32.494  29.440  1.00  0.00     0.029 A 
ATOM     23  C   UNL A   1      44.965  31.647  28.761  1.00  0.00     0.049 A 
ATOM     24  H   UNL A   1      44.718  29.694  28.064  1.00  0.00     0.167 HD
ATOM     25  C   UNL A   1      43.904  25.273  27.294  1.00  0.00     0.037 A 
ATOM     26  C   UNL A   1      46.226  32.014  28.506  1.00  0.00     0.037 A 
ATOM     27  C   UNL A   1      45.256  25.583  26.892  1.00  0.00     0.049 A 
ATOM     28  C   UNL A   1      47.080  30.971  27.885  1.00  0.00     0.074 A 
ATOM     29  C   UNL A   1      46.194  24.772  26.283  1.00  0.00     0.029 A 
ATOM     30  N   UNL A   1      45.860  26.827  27.073  1.00  0.00    -0.354 N 
ATOM     31  N   UNL A   1      46.768  29.723  27.618  1.00  0.00    -0.248 NA
ATOM     32  C   UNL A   1      48.438  31.363  27.530  1.00  0.00     0.031 C 
ATOM     33  C   UNL A   1      47.376  25.507  26.150  1.00  0.00     0.029 A 
ATOM     34  C   UNL A   1      47.160  26.803  26.606  1.00  0.00     0.049 A 
ATOM     35  H   UNL A   1      45.422  27.612  27.477  1.00  0.00     0.167 HD
ATOM     36  C   UNL A   1      47.891  29.173  27.038  1.00  0.00     0.074 A 
ATOM     37  C   UNL A   1      48.883  30.238  26.985  1.00  0.00     0.031 C 
ATOM     38  C   UNL A   1      48.091  27.911  26.588  1.00  0.00     0.037 A 
BRANCH  25  39
ATOM     39  C   UNL A   1      43.375  23.867  27.102  1.00  0.00     0.058 A 
ATOM     40  C   UNL A   1      42.970  23.408  25.836  1.00  0.00     0.135 A 
ATOM     41  C   UNL A   1      43.225  22.976  28.179  1.00  0.00     0.135 A 
ATOM     42  F   UNL A   1      43.086  24.201  24.759  1.00  0.00    -0.206 F 
ATOM     43  C   UNL A   1      42.439  22.131  25.646  1.00  0.00     0.059 A 
ATOM     44  C   UNL A   1      42.725  21.684  28.010  1.00  0.00     0.059 A 
ATOM     45  F   UNL A   1      43.600  23.343  29.415  1.00  0.00    -0.206 F 
ATOM     46  C   UNL A   1      42.324  21.273  26.740  1.00  0.00     0.060 A 
BRANCH  46  47
ATOM     47  S   UNL A   1      41.676  19.607  26.472  1.00  0.00     0.124 S 
ATOM     48  O   UNL A   1      42.163  18.900  27.652  1.00  0.00    -0.237 OA
ATOM     49  O   UNL A   1      40.236  19.844  26.422  1.00  0.00    -0.237 OA
ATOM     50  O   UNL A   1      42.282  19.207  25.205  1.00  0.00    -0.744 OA
ENDBRANCH  46  47
ENDBRANCH  25  39
BRANCH  26  51
ATOM     51  C   UNL A   1      46.644  33.404  28.812  1.00  0.00     0.058 A 
ATOM     52  C   UNL A   1      47.082  33.778  30.097  1.00  0.00     0.135 A 
ATOM     53  C   UNL A   1      46.416  34.423  27.879  1.00  0.00     0.135 A 
ATOM     54  F   UNL A   1      47.243  32.849  31.052  1.00  0.00    -0.206 F 
ATOM     55  C   UNL A   1      47.251  35.113  30.449  1.00  0.00     0.059 A 
ATOM     56  C   UNL A   1      46.612  35.762  28.198  1.00  0.00     0.059 A 
ATOM     57  F   UNL A   1      45.957  34.117  26.656  1.00  0.00    -0.206 F 
ATOM     58  C   UNL A   1      47.016  36.097  29.490  1.00  0.00     0.060 A 
BRANCH  58  59
ATOM     59  S   UNL A   1      47.246  37.823  29.965  1.00  0.00     0.124 S 
ATOM     60  O   UNL A   1      45.895  38.355  29.811  1.00  0.00    -0.237 OA
ATOM     61  O   UNL A   1      47.726  37.696  31.336  1.00  0.00    -0.237 OA
ATOM     62  O   UNL A   1      48.227  38.310  29.000  1.00  0.00    -0.744 OA
ENDBRANCH  58  59
ENDBRANCH  26  51
BRANCH  38  63
ATOM     63  C   UNL A   1      49.427  27.643  25.978  1.00  0.00     0.058 A 
ATOM     64  C   UNL A   1      49.543  27.519  24.586  1.00  0.00     0.135 A 
ATOM     65  C   UNL A   1      50.562  27.425  26.771  1.00  0.00     0.135 A 
ATOM     66  F   UNL A   1      48.478  27.723  23.794  1.00  0.00    -0.206 F 
ATOM     67  C   UNL A   1      50.740  27.144  24.000  1.00  0.00     0.059 A 
ATOM     68  C   UNL A   1      51.780  27.089  26.203  1.00  0.00     0.059 A 
ATOM     69  F   UNL A   1      50.492  27.561  28.106  1.00  0.00    -0.206 F 
ATOM     70  C   UNL A   1      51.851  26.927  24.817  1.00  0.00     0.060 A 
BRANCH  70  71
ATOM     71  S   UNL A   1      53.391  26.420  24.037  1.00  0.00     0.124 S 
ATOM     72  O   UNL A   1      53.425  24.995  24.346  1.00  0.00    -0.237 OA
ATOM     73  O   UNL A   1      53.149  26.763  22.639  1.00  0.00    -0.237 OA
ATOM     74  O   UNL A   1      54.396  27.235  24.711  1.00  0.00    -0.744 OA
ENDBRANCH  70  71
ENDBRANCH  38  63
ENDBRANCH  12  13
ENDBRANCH   5   7
ENDBRANCH   4   5
ENDBRANCH   3   4
ENDBRANCH   2   3
ENDBRANCH   1   2
BRANCH   1  75
ATOM     75  C   UNL A   1      35.148  29.339  27.083  1.00  0.00     0.202 C 
BRANCH  75  76
ATOM     76  C   UNL A   1      34.380  28.998  25.738  1.00  0.00     0.261 C 
BRANCH  76  77
ATOM     77  O   UNL A   1      33.152  28.336  26.006  1.00  0.00    -0.463 OA
BRANCH  77  78
ATOM     78  C   UNL A   1      32.133  29.084  25.554  1.00  0.00     0.309 C 
ATOM     79  O   UNL A   1      32.226  30.310  25.558  1.00  0.00    -0.252 OA
BRANCH  78  80
ATOM     80  C   UNL A   1      30.853  28.297  25.221  1.00  0.00     0.111 C 
ATOM     81  C   UNL A   1      30.436  29.058  23.920  1.00  0.00     0.016 C 
ATOM     82  C   UNL A   1      30.668  26.753  24.924  1.00  0.00     0.093 C 
ATOM     83  C   UNL A   1      31.359  28.660  22.753  1.00  0.00     0.001 C 
ATOM     84  C   UNL A   1      31.181  26.273  23.528  1.00  0.00     0.014 C 
ATOM     85  C   UNL A   1      31.052  27.241  22.354  1.00  0.00     0.001 C 
BRANCH  82  86
ATOM     86  C   UNL A   1      30.608  25.451  25.883  1.00  0.00     0.226 C 
ATOM     87  O   UNL A   1      29.506  25.186  26.391  1.00  0.00    -0.275 OA
ATOM     88  N   UNL A   1      31.609  24.478  25.954  1.00  0.00    -0.340 N 
ATOM     89  C   UNL A   1      31.187  22.864  26.002  1.00  0.00     0.136 C 
ATOM     90  C   UNL A   1      33.089  24.852  25.776  1.00  0.00     0.136 C 
ATOM     91  C   UNL A   1      31.822  21.617  24.829  1.00  0.00     0.124 C 
ATOM     92  C   UNL A   1      33.778  24.208  24.074  1.00  0.00     0.124 C 
ATOM     93  N   UNL A   1      33.390  22.122  23.753  1.00  0.00    -0.194 NA
BRANCH  93  94
ATOM     94  S   UNL A   1      34.477  20.609  25.083  1.00  0.00     0.243 S 
ATOM     95  O   UNL A   1      35.905  20.738  24.869  1.00  0.00    -0.207 OA
ATOM     96  O   UNL A   1      33.905  20.775  26.405  1.00  0.00    -0.207 OA
BRANCH  94  97
ATOM     97  C   UNL A   1      34.026  18.612  24.533  1.00  0.00     0.082 A 
ATOM     98  C   UNL A   1      32.698  18.133  24.550  1.00  0.00     0.025 A 
ATOM     99  C   UNL A   1      35.051  17.643  24.493  1.00  0.00     0.025 A 
ATOM    100  C   UNL A   1      32.420  16.820  24.999  1.00  0.00     0.040 A 
ATOM    101  C   UNL A   1      34.757  16.300  24.851  1.00  0.00     0.040 A 
ATOM    102  C   UNL A   1      33.458  15.925  25.187  1.00  0.00     0.123 A 
ATOM    103  F   UNL A   1      33.212  14.709  25.699  1.00  0.00    -0.207 F 
ENDBRANCH  94  97
ENDBRANCH  93  94
ENDBRANCH  82  86
ENDBRANCH  78  80
ENDBRANCH  77  78
ENDBRANCH  76  77
ENDBRANCH  75  76
ENDBRANCH   1  75
TORSDOF 20
ENDMDL
