MODEL 1
REMARK VINA RESULT:     -10.8      0.000      0.000
REMARK SMILES C[C@@H](C(=O)OCCOCCOC(=O)c1ccc(-c2c3nc(c(-c4c(F)cc(S(=O)(=O)[O-])cc4F)c4ccc([nH]4)c(-c4c(F)cc(S(=O)(=O)[O-])cc4F)c4nc(c(-c5c(F)cc(S(=O)(=O)[O-])cc5F)c5ccc2[nH]5)C=C4)C=C3)cc1)c1ccc(OC2CCCC2)cc1F
REMARK SMILES IDX 8 1 7 2 6 3 5 4 3 5 4 6 2 7 1 8 80 9 81 10 91 11 82 12 90 13
REMARK SMILES IDX 92 14 83 15 84 16 85 17 86 18 89 19 87 20 88 21 9 22 10 23
REMARK SMILES IDX 11 24 12 25 13 26 14 27 15 28 79 29 16 30 78 31 17 32 18 33
REMARK SMILES IDX 19 34 72 35 20 36 77 37 71 38 73 39 21 40 76 41 70 42 69 43
REMARK SMILES IDX 22 45 56 46 35 47 55 48 36 49 39 50 54 51 74 52 37 53 38 54
REMARK SMILES IDX 53 56 75 57 40 58 23 59 24 60 33 61 25 62 26 63 32 64 34 65
REMARK SMILES IDX 27 66 28 67 29 68 30 69 31 70 57 71 58 72 67 73 59 74 60 75
REMARK SMILES IDX 66 76 68 77 61 78 62 79 63 80 64 81 65 82 41 83 42 84 51 85
REMARK SMILES IDX 43 86 44 87 50 88 52 89 45 90 46 91 47 92 48 93 49 94
REMARK H PARENT 73 44 39 55
REMARK Flexibility Score: inf
ROOT
ATOM      1  O   UNL A   1      34.767  31.962  27.262  1.00  0.00    -0.374 OA
ENDROOT
BRANCH   1   2
ATOM      2  C   UNL A   1      33.607  31.187  27.586  1.00  0.00     0.202 C 
BRANCH   2   3
ATOM      3  C   UNL A   1      33.676  29.698  27.231  1.00  0.00     0.261 C 
BRANCH   3   4
ATOM      4  O   UNL A   1      32.405  29.232  26.731  1.00  0.00    -0.463 OA
BRANCH   4   5
ATOM      5  C   UNL A   1      32.006  28.003  27.151  1.00  0.00     0.313 C 
ATOM      6  O   UNL A   1      31.593  27.762  28.282  1.00  0.00    -0.252 OA
BRANCH   5   7
ATOM      7  C   UNL A   1      32.119  26.928  26.059  1.00  0.00     0.129 C 
ATOM      8  C   UNL A   1      33.517  26.324  25.887  1.00  0.00     0.025 C 
BRANCH   7   9
ATOM      9  C   UNL A   1      31.511  27.451  24.762  1.00  0.00     0.002 A 
ATOM     10  C   UNL A   1      30.145  27.257  24.513  1.00  0.00     0.011 A 
ATOM     11  C   UNL A   1      32.223  28.234  23.849  1.00  0.00     0.130 A 
ATOM     12  C   UNL A   1      29.528  27.860  23.410  1.00  0.00     0.047 A 
ATOM     13  C   UNL A   1      31.607  28.852  22.758  1.00  0.00     0.086 A 
ATOM     14  F   UNL A   1      33.537  28.438  24.000  1.00  0.00    -0.207 F 
ATOM     15  C   UNL A   1      30.247  28.687  22.542  1.00  0.00     0.122 A 
BRANCH  15  16
ATOM     16  O   UNL A   1      29.509  29.235  21.538  1.00  0.00    -0.490 OA
BRANCH  16  17
ATOM     17  C   UNL A   1      29.234  30.629  21.455  1.00  0.00     0.173 C 
ATOM     18  C   UNL A   1      28.040  31.067  20.611  1.00  0.00     0.045 C 
ATOM     19  C   UNL A   1      29.119  31.372  22.786  1.00  0.00     0.045 C 
ATOM     20  C   UNL A   1      27.844  32.516  21.028  1.00  0.00     0.004 C 
ATOM     21  C   UNL A   1      28.195  32.558  22.513  1.00  0.00     0.004 C 
ENDBRANCH  16  17
ENDBRANCH  15  16
ENDBRANCH   7   9
ENDBRANCH   5   7
ENDBRANCH   4   5
ENDBRANCH   3   4
ENDBRANCH   2   3
ENDBRANCH   1   2
BRANCH   1  22
ATOM     22  C   UNL A   1      35.210  32.887  28.252  1.00  0.00     0.202 C 
BRANCH  22  23
ATOM     23  C   UNL A   1      34.924  32.518  29.712  1.00  0.00     0.261 C 
BRANCH  23  24
ATOM     24  O   UNL A   1      35.700  31.391  30.151  1.00  0.00    -0.460 OA
BRANCH  24  25
ATOM     25  C   UNL A   1      36.830  31.720  30.819  1.00  0.00     0.338 C 
ATOM     26  O   UNL A   1      36.922  32.441  31.805  1.00  0.00    -0.246 OA
BRANCH  25  27
ATOM     27  C   UNL A   1      37.969  30.940  30.304  1.00  0.00     0.060 A 
ATOM     28  C   UNL A   1      38.936  30.536  31.232  1.00  0.00     0.016 A 
ATOM     29  C   UNL A   1      38.124  30.658  28.945  1.00  0.00     0.016 A 
ATOM     30  C   UNL A   1      40.094  29.898  30.798  1.00  0.00     0.010 A 
ATOM     31  C   UNL A   1      39.292  30.024  28.509  1.00  0.00     0.010 A 
ATOM     32  C   UNL A   1      40.298  29.677  29.429  1.00  0.00    -0.014 A 
BRANCH  32  33
ATOM     33  C   UNL A   1      41.633  29.231  28.963  1.00  0.00     0.031 A 
ATOM     34  C   UNL A   1      42.762  30.225  28.936  1.00  0.00     0.074 A 
ATOM     35  C   UNL A   1      41.847  27.948  28.620  1.00  0.00     0.049 A 
ATOM     36  N   UNL A   1      44.006  30.057  28.573  1.00  0.00    -0.248 NA
ATOM     37  C   UNL A   1      42.445  31.593  29.379  1.00  0.00     0.031 C 
ATOM     38  C   UNL A   1      40.839  26.888  28.646  1.00  0.00     0.029 A 
ATOM     39  N   UNL A   1      42.985  27.319  28.184  1.00  0.00    -0.354 N 
ATOM     40  C   UNL A   1      44.620  31.294  28.736  1.00  0.00     0.074 A 
ATOM     41  C   UNL A   1      43.603  32.211  29.204  1.00  0.00     0.031 C 
ATOM     42  C   UNL A   1      41.404  25.739  28.238  1.00  0.00     0.029 A 
ATOM     43  C   UNL A   1      42.804  25.988  27.895  1.00  0.00     0.049 A 
ATOM     44  H   UNL A   1      43.850  27.778  28.085  1.00  0.00     0.167 HD
ATOM     45  C   UNL A   1      45.913  31.632  28.524  1.00  0.00     0.037 A 
ATOM     46  C   UNL A   1      43.667  25.079  27.399  1.00  0.00     0.037 A 
ATOM     47  C   UNL A   1      46.920  30.710  28.064  1.00  0.00     0.049 A 
ATOM     48  C   UNL A   1      45.088  25.493  27.114  1.00  0.00     0.074 A 
ATOM     49  C   UNL A   1      48.265  30.947  27.840  1.00  0.00     0.029 A 
ATOM     50  N   UNL A   1      46.689  29.378  27.750  1.00  0.00    -0.354 N 
ATOM     51  N   UNL A   1      45.659  26.660  27.297  1.00  0.00    -0.248 NA
ATOM     52  C   UNL A   1      45.981  24.467  26.557  1.00  0.00     0.031 C 
ATOM     53  C   UNL A   1      48.838  29.770  27.345  1.00  0.00     0.029 A 
ATOM     54  C   UNL A   1      47.862  28.787  27.309  1.00  0.00     0.049 A 
ATOM     55  H   UNL A   1      45.822  28.922  27.830  1.00  0.00     0.167 HD
ATOM     56  C   UNL A   1      46.985  26.501  26.905  1.00  0.00     0.074 A 
ATOM     57  C   UNL A   1      47.132  25.122  26.483  1.00  0.00     0.031 C 
ATOM     58  C   UNL A   1      47.990  27.411  26.898  1.00  0.00     0.037 A 
BRANCH  45  59
ATOM     59  C   UNL A   1      46.308  33.063  28.760  1.00  0.00     0.058 A 
ATOM     60  C   UNL A   1      46.250  34.026  27.742  1.00  0.00     0.135 A 
ATOM     61  C   UNL A   1      46.725  33.482  30.034  1.00  0.00     0.135 A 
ATOM     62  F   UNL A   1      45.876  33.676  26.500  1.00  0.00    -0.206 F 
ATOM     63  C   UNL A   1      46.614  35.350  27.970  1.00  0.00     0.059 A 
ATOM     64  C   UNL A   1      47.068  34.806  30.292  1.00  0.00     0.059 A 
ATOM     65  F   UNL A   1      46.802  32.601  31.044  1.00  0.00    -0.206 F 
ATOM     66  C   UNL A   1      47.024  35.729  29.250  1.00  0.00     0.060 A 
BRANCH  66  67
ATOM     67  S   UNL A   1      47.489  37.450  29.533  1.00  0.00     0.124 S 
ATOM     68  O   UNL A   1      46.213  38.036  29.931  1.00  0.00    -0.237 OA
ATOM     69  O   UNL A   1      48.490  37.336  30.589  1.00  0.00    -0.237 OA
ATOM     70  O   UNL A   1      47.999  37.883  28.235  1.00  0.00    -0.744 OA
ENDBRANCH  66  67
ENDBRANCH  45  59
BRANCH  46  71
ATOM     71  C   UNL A   1      43.210  23.689  27.132  1.00  0.00     0.058 A 
ATOM     72  C   UNL A   1      43.057  22.762  28.172  1.00  0.00     0.135 A 
ATOM     73  C   UNL A   1      42.914  23.262  25.827  1.00  0.00     0.135 A 
ATOM     74  F   UNL A   1      43.339  23.118  29.434  1.00  0.00    -0.206 F 
ATOM     75  C   UNL A   1      42.639  21.457  27.929  1.00  0.00     0.059 A 
ATOM     76  C   UNL A   1      42.470  21.970  25.562  1.00  0.00     0.059 A 
ATOM     77  F   UNL A   1      43.034  24.114  24.797  1.00  0.00    -0.206 F 
ATOM     78  C   UNL A   1      42.345  21.072  26.620  1.00  0.00     0.060 A 
BRANCH  78  79
ATOM     79  S   UNL A   1      41.753  19.392  26.322  1.00  0.00     0.124 S 
ATOM     80  O   UNL A   1      42.178  18.710  27.538  1.00  0.00    -0.237 OA
ATOM     81  O   UNL A   1      40.315  19.596  26.172  1.00  0.00    -0.237 OA
ATOM     82  O   UNL A   1      42.453  19.002  25.100  1.00  0.00    -0.744 OA
ENDBRANCH  78  79
ENDBRANCH  46  71
BRANCH  58  83
ATOM     83  C   UNL A   1      49.349  26.942  26.452  1.00  0.00     0.058 A 
ATOM     84  C   UNL A   1      50.250  26.337  27.341  1.00  0.00     0.135 A 
ATOM     85  C   UNL A   1      49.729  27.050  25.105  1.00  0.00     0.135 A 
ATOM     86  F   UNL A   1      49.936  26.213  28.641  1.00  0.00    -0.206 F 
ATOM     87  C   UNL A   1      51.491  25.874  26.915  1.00  0.00     0.059 A 
ATOM     88  C   UNL A   1      50.954  26.571  24.651  1.00  0.00     0.059 A 
ATOM     89  F   UNL A   1      48.900  27.611  24.210  1.00  0.00    -0.206 F 
ATOM     90  C   UNL A   1      51.833  25.995  25.566  1.00  0.00     0.060 A 
BRANCH  90  91
ATOM     91  S   UNL A   1      53.432  25.360  25.019  1.00  0.00     0.124 S 
ATOM     92  O   UNL A   1      54.355  26.160  25.818  1.00  0.00    -0.237 OA
ATOM     93  O   UNL A   1      53.347  23.947  25.373  1.00  0.00    -0.237 OA
ATOM     94  O   UNL A   1      53.437  25.642  23.586  1.00  0.00    -0.744 OA
ENDBRANCH  90  91
ENDBRANCH  58  83
ENDBRANCH  32  33
ENDBRANCH  25  27
ENDBRANCH  24  25
ENDBRANCH  23  24
ENDBRANCH  22  23
ENDBRANCH   1  22
TORSDOF 20
ENDMDL
MODEL 2
REMARK VINA RESULT:     -10.6      1.745      3.864
REMARK SMILES C[C@@H](C(=O)OCCOCCOC(=O)c1ccc(-c2c3nc(c(-c4c(F)cc(S(=O)(=O)[O-])cc4F)c4ccc([nH]4)c(-c4c(F)cc(S(=O)(=O)[O-])cc4F)c4nc(c(-c5c(F)cc(S(=O)(=O)[O-])cc5F)c5ccc2[nH]5)C=C4)C=C3)cc1)c1ccc(OC2CCCC2)cc1F
REMARK SMILES IDX 8 1 7 2 6 3 5 4 3 5 4 6 2 7 1 8 80 9 81 10 91 11 82 12 90 13
REMARK SMILES IDX 92 14 83 15 84 16 85 17 86 18 89 19 87 20 88 21 9 22 10 23
REMARK SMILES IDX 11 24 12 25 13 26 14 27 15 28 79 29 16 30 78 31 17 32 18 33
REMARK SMILES IDX 19 34 72 35 20 36 77 37 71 38 73 39 21 40 76 41 70 42 69 43
REMARK SMILES IDX 22 45 56 46 35 47 55 48 36 49 39 50 54 51 74 52 37 53 38 54
REMARK SMILES IDX 53 56 75 57 40 58 23 59 24 60 33 61 25 62 26 63 32 64 34 65
REMARK SMILES IDX 27 66 28 67 29 68 30 69 31 70 57 71 58 72 67 73 59 74 60 75
REMARK SMILES IDX 66 76 68 77 61 78 62 79 63 80 64 81 65 82 41 83 42 84 51 85
REMARK SMILES IDX 43 86 44 87 50 88 52 89 45 90 46 91 47 92 48 93 49 94
REMARK H PARENT 73 44 39 55
REMARK Flexibility Score: inf
ROOT
ATOM      1  O   UNL A   1      33.666  30.663  27.488  1.00  0.00    -0.374 OA
ENDROOT
BRANCH   1   2
ATOM      2  C   UNL A   1      32.434  30.730  26.761  1.00  0.00     0.202 C 
BRANCH   2   3
ATOM      3  C   UNL A   1      31.826  29.385  26.348  1.00  0.00     0.261 C 
BRANCH   3   4
ATOM      4  O   UNL A   1      31.442  29.402  24.958  1.00  0.00    -0.463 OA
BRANCH   4   5
ATOM      5  C   UNL A   1      32.244  28.716  24.102  1.00  0.00     0.313 C 
ATOM      6  O   UNL A   1      33.293  29.156  23.638  1.00  0.00    -0.252 OA
BRANCH   5   7
ATOM      7  C   UNL A   1      31.709  27.315  23.768  1.00  0.00     0.129 C 
ATOM      8  C   UNL A   1      30.196  27.141  23.942  1.00  0.00     0.025 C 
BRANCH   7   9
ATOM      9  C   UNL A   1      32.537  26.264  24.500  1.00  0.00     0.002 A 
ATOM     10  C   UNL A   1      32.132  25.828  25.769  1.00  0.00     0.011 A 
ATOM     11  C   UNL A   1      33.624  25.608  23.914  1.00  0.00     0.130 A 
ATOM     12  C   UNL A   1      32.780  24.755  26.395  1.00  0.00     0.047 A 
ATOM     13  C   UNL A   1      34.260  24.527  24.528  1.00  0.00     0.086 A 
ATOM     14  F   UNL A   1      34.090  25.988  22.718  1.00  0.00    -0.207 F 
ATOM     15  C   UNL A   1      33.828  24.076  25.766  1.00  0.00     0.122 A 
BRANCH  15  16
ATOM     16  O   UNL A   1      34.335  23.032  26.476  1.00  0.00    -0.490 OA
BRANCH  16  17
ATOM     17  C   UNL A   1      33.993  21.677  26.206  1.00  0.00     0.173 C 
ATOM     18  C   UNL A   1      32.597  21.395  25.657  1.00  0.00     0.045 C 
ATOM     19  C   UNL A   1      34.970  20.900  25.325  1.00  0.00     0.045 C 
ATOM     20  C   UNL A   1      32.708  19.958  25.172  1.00  0.00     0.004 C 
ATOM     21  C   UNL A   1      34.131  19.824  24.635  1.00  0.00     0.004 C 
ENDBRANCH  16  17
ENDBRANCH  15  16
ENDBRANCH   7   9
ENDBRANCH   5   7
ENDBRANCH   4   5
ENDBRANCH   3   4
ENDBRANCH   2   3
ENDBRANCH   1   2
BRANCH   1  22
ATOM     22  C   UNL A   1      34.107  31.871  28.103  1.00  0.00     0.202 C 
BRANCH  22  23
ATOM     23  C   UNL A   1      35.117  31.731  29.246  1.00  0.00     0.261 C 
BRANCH  23  24
ATOM     24  O   UNL A   1      35.800  30.468  29.217  1.00  0.00    -0.460 OA
BRANCH  24  25
ATOM     25  C   UNL A   1      36.561  30.221  30.309  1.00  0.00     0.338 C 
ATOM     26  O   UNL A   1      36.168  29.970  31.442  1.00  0.00    -0.246 OA
BRANCH  25  27
ATOM     27  C   UNL A   1      37.979  30.115  29.926  1.00  0.00     0.060 A 
ATOM     28  C   UNL A   1      38.266  30.028  28.557  1.00  0.00     0.016 A 
ATOM     29  C   UNL A   1      39.003  30.043  30.873  1.00  0.00     0.016 A 
ATOM     30  C   UNL A   1      39.572  29.809  28.133  1.00  0.00     0.010 A 
ATOM     31  C   UNL A   1      40.315  29.816  30.445  1.00  0.00     0.010 A 
ATOM     32  C   UNL A   1      40.598  29.659  29.076  1.00  0.00    -0.014 A 
BRANCH  32  33
ATOM     33  C   UNL A   1      41.927  29.180  28.625  1.00  0.00     0.031 A 
ATOM     34  C   UNL A   1      43.072  30.154  28.578  1.00  0.00     0.074 A 
ATOM     35  C   UNL A   1      42.120  27.886  28.311  1.00  0.00     0.049 A 
ATOM     36  N   UNL A   1      44.315  29.957  28.223  1.00  0.00    -0.248 NA
ATOM     37  C   UNL A   1      42.777  31.537  28.989  1.00  0.00     0.031 C 
ATOM     38  C   UNL A   1      41.094  26.844  28.359  1.00  0.00     0.029 A 
ATOM     39  N   UNL A   1      43.249  27.228  27.894  1.00  0.00    -0.354 N 
ATOM     40  C   UNL A   1      44.948  31.187  28.360  1.00  0.00     0.074 A 
ATOM     41  C   UNL A   1      43.946  32.132  28.803  1.00  0.00     0.031 C 
ATOM     42  C   UNL A   1      41.642  25.677  27.979  1.00  0.00     0.029 A 
ATOM     43  C   UNL A   1      43.046  25.894  27.635  1.00  0.00     0.049 A 
ATOM     44  H   UNL A   1      44.121  27.670  27.787  1.00  0.00     0.167 HD
ATOM     45  C   UNL A   1      46.248  31.498  28.144  1.00  0.00     0.037 A 
ATOM     46  C   UNL A   1      43.895  24.960  27.162  1.00  0.00     0.037 A 
ATOM     47  C   UNL A   1      47.240  30.549  27.709  1.00  0.00     0.049 A 
ATOM     48  C   UNL A   1      45.323  25.343  26.873  1.00  0.00     0.074 A 
ATOM     49  C   UNL A   1      48.590  30.758  27.484  1.00  0.00     0.029 A 
ATOM     50  N   UNL A   1      46.988  29.215  27.425  1.00  0.00    -0.354 N 
ATOM     51  N   UNL A   1      45.914  26.504  27.031  1.00  0.00    -0.248 NA
ATOM     52  C   UNL A   1      46.201  24.290  26.343  1.00  0.00     0.031 C 
ATOM     53  C   UNL A   1      49.145  29.561  27.019  1.00  0.00     0.029 A 
ATOM     54  C   UNL A   1      48.152  28.594  27.002  1.00  0.00     0.049 A 
ATOM     55  H   UNL A   1      46.113  28.775  27.512  1.00  0.00     0.167 HD
ATOM     56  C   UNL A   1      47.238  26.314  26.647  1.00  0.00     0.074 A 
ATOM     57  C   UNL A   1      47.363  24.924  26.257  1.00  0.00     0.031 C 
ATOM     58  C   UNL A   1      48.259  27.207  26.623  1.00  0.00     0.037 A 
BRANCH  45  59
ATOM     59  C   UNL A   1      46.666  32.927  28.349  1.00  0.00     0.058 A 
ATOM     60  C   UNL A   1      47.190  33.379  29.570  1.00  0.00     0.135 A 
ATOM     61  C   UNL A   1      46.566  33.853  27.298  1.00  0.00     0.135 A 
ATOM     62  F   UNL A   1      47.290  32.541  30.615  1.00  0.00    -0.206 F 
ATOM     63  C   UNL A   1      47.578  34.704  29.750  1.00  0.00     0.059 A 
ATOM     64  C   UNL A   1      46.972  35.175  27.447  1.00  0.00     0.059 A 
ATOM     65  F   UNL A   1      46.069  33.475  26.110  1.00  0.00    -0.206 F 
ATOM     66  C   UNL A   1      47.463  35.595  28.681  1.00  0.00     0.060 A 
BRANCH  66  67
ATOM     67  S   UNL A   1      47.974  37.309  28.928  1.00  0.00     0.124 S 
ATOM     68  O   UNL A   1      48.252  37.326  30.361  1.00  0.00    -0.237 OA
ATOM     69  O   UNL A   1      49.139  37.418  28.056  1.00  0.00    -0.237 OA
ATOM     70  O   UNL A   1      46.805  38.076  28.507  1.00  0.00    -0.744 OA
ENDBRANCH  66  67
ENDBRANCH  45  59
BRANCH  46  71
ATOM     71  C   UNL A   1      43.416  23.572  26.926  1.00  0.00     0.058 A 
ATOM     72  C   UNL A   1      43.083  23.128  25.638  1.00  0.00     0.135 A 
ATOM     73  C   UNL A   1      43.285  22.659  27.985  1.00  0.00     0.135 A 
ATOM     74  F   UNL A   1      43.180  23.965  24.595  1.00  0.00    -0.206 F 
ATOM     75  C   UNL A   1      42.626  21.833  25.409  1.00  0.00     0.059 A 
ATOM     76  C   UNL A   1      42.854  21.353  27.778  1.00  0.00     0.059 A 
ATOM     77  F   UNL A   1      43.600  23.031  29.236  1.00  0.00    -0.206 F 
ATOM     78  C   UNL A   1      42.518  20.952  26.486  1.00  0.00     0.060 A 
BRANCH  78  79
ATOM     79  S   UNL A   1      41.974  19.259  26.172  1.00  0.00     0.124 S 
ATOM     80  O   UNL A   1      42.255  18.618  27.450  1.00  0.00    -0.237 OA
ATOM     81  O   UNL A   1      40.563  19.447  25.846  1.00  0.00    -0.237 OA
ATOM     82  O   UNL A   1      42.815  18.838  25.055  1.00  0.00    -0.744 OA
ENDBRANCH  78  79
ENDBRANCH  46  71
BRANCH  58  83
ATOM     83  C   UNL A   1      49.610  26.705  26.192  1.00  0.00     0.058 A 
ATOM     84  C   UNL A   1      50.090  26.903  24.889  1.00  0.00     0.135 A 
ATOM     85  C   UNL A   1      50.456  26.067  27.113  1.00  0.00     0.135 A 
ATOM     86  F   UNL A   1      49.319  27.503  23.968  1.00  0.00    -0.206 F 
ATOM     87  C   UNL A   1      51.355  26.465  24.507  1.00  0.00     0.059 A 
ATOM     88  C   UNL A   1      51.734  25.645  26.761  1.00  0.00     0.059 A 
ATOM     89  F   UNL A   1      50.050  25.862  28.377  1.00  0.00    -0.206 F 
ATOM     90  C   UNL A   1      52.170  25.839  25.451  1.00  0.00     0.060 A 
BRANCH  90  91
ATOM     91  S   UNL A   1      53.822  25.307  24.953  1.00  0.00     0.124 S 
ATOM     92  O   UNL A   1      54.642  25.839  26.036  1.00  0.00    -0.237 OA
ATOM     93  O   UNL A   1      53.686  23.854  24.915  1.00  0.00    -0.237 OA
ATOM     94  O   UNL A   1      54.007  25.947  23.653  1.00  0.00    -0.744 OA
ENDBRANCH  90  91
ENDBRANCH  58  83
ENDBRANCH  32  33
ENDBRANCH  25  27
ENDBRANCH  24  25
ENDBRANCH  23  24
ENDBRANCH  22  23
ENDBRANCH   1  22
TORSDOF 20
ENDMDL
MODEL 3
REMARK VINA RESULT:     -10.6      5.558      7.749
REMARK SMILES C[C@@H](C(=O)OCCOCCOC(=O)c1ccc(-c2c3nc(c(-c4c(F)cc(S(=O)(=O)[O-])cc4F)c4ccc([nH]4)c(-c4c(F)cc(S(=O)(=O)[O-])cc4F)c4nc(c(-c5c(F)cc(S(=O)(=O)[O-])cc5F)c5ccc2[nH]5)C=C4)C=C3)cc1)c1ccc(OC2CCCC2)cc1F
REMARK SMILES IDX 8 1 7 2 6 3 5 4 3 5 4 6 2 7 1 8 80 9 81 10 91 11 82 12 90 13
REMARK SMILES IDX 92 14 83 15 84 16 85 17 86 18 89 19 87 20 88 21 9 22 10 23
REMARK SMILES IDX 11 24 12 25 13 26 14 27 15 28 79 29 16 30 78 31 17 32 18 33
REMARK SMILES IDX 19 34 72 35 20 36 77 37 71 38 73 39 21 40 76 41 70 42 69 43
REMARK SMILES IDX 22 45 56 46 35 47 55 48 36 49 39 50 54 51 74 52 37 53 38 54
REMARK SMILES IDX 53 56 75 57 40 58 23 59 24 60 33 61 25 62 26 63 32 64 34 65
REMARK SMILES IDX 27 66 28 67 29 68 30 69 31 70 57 71 58 72 67 73 59 74 60 75
REMARK SMILES IDX 66 76 68 77 61 78 62 79 63 80 64 81 65 82 41 83 42 84 51 85
REMARK SMILES IDX 43 86 44 87 50 88 52 89 45 90 46 91 47 92 48 93 49 94
REMARK H PARENT 73 44 39 55
REMARK Flexibility Score: inf
ROOT
ATOM      1  O   UNL A   1      33.443  28.236  25.331  1.00  0.00    -0.374 OA
ENDROOT
BRANCH   1   2
ATOM      2  C   UNL A   1      32.588  27.157  25.725  1.00  0.00     0.202 C 
BRANCH   2   3
ATOM      3  C   UNL A   1      33.105  25.746  25.422  1.00  0.00     0.261 C 
BRANCH   3   4
ATOM      4  O   UNL A   1      34.345  25.803  24.686  1.00  0.00    -0.463 OA
BRANCH   4   5
ATOM      5  C   UNL A   1      34.515  24.862  23.720  1.00  0.00     0.313 C 
ATOM      6  O   UNL A   1      34.078  24.960  22.577  1.00  0.00    -0.252 OA
BRANCH   5   7
ATOM      7  C   UNL A   1      35.323  23.646  24.201  1.00  0.00     0.129 C 
ATOM      8  C   UNL A   1      36.487  23.240  23.289  1.00  0.00     0.025 C 
BRANCH   7   9
ATOM      9  C   UNL A   1      34.373  22.500  24.533  1.00  0.00     0.002 A 
ATOM     10  C   UNL A   1      33.363  22.156  23.624  1.00  0.00     0.011 A 
ATOM     11  C   UNL A   1      34.533  21.678  25.653  1.00  0.00     0.130 A 
ATOM     12  C   UNL A   1      32.579  21.013  23.827  1.00  0.00     0.047 A 
ATOM     13  C   UNL A   1      33.765  20.529  25.849  1.00  0.00     0.086 A 
ATOM     14  F   UNL A   1      35.454  21.960  26.582  1.00  0.00    -0.207 F 
ATOM     15  C   UNL A   1      32.795  20.174  24.924  1.00  0.00     0.122 A 
BRANCH  15  16
ATOM     16  O   UNL A   1      31.985  19.081  24.971  1.00  0.00    -0.490 OA
BRANCH  16  17
ATOM     17  C   UNL A   1      32.429  17.776  24.618  1.00  0.00     0.173 C 
ATOM     18  C   UNL A   1      33.543  17.662  23.581  1.00  0.00     0.045 C 
ATOM     19  C   UNL A   1      32.823  16.864  25.779  1.00  0.00     0.045 C 
ATOM     20  C   UNL A   1      33.985  16.214  23.716  1.00  0.00     0.004 C 
ATOM     21  C   UNL A   1      33.850  15.890  25.202  1.00  0.00     0.004 C 
ENDBRANCH  16  17
ENDBRANCH  15  16
ENDBRANCH   7   9
ENDBRANCH   5   7
ENDBRANCH   4   5
ENDBRANCH   3   4
ENDBRANCH   2   3
ENDBRANCH   1   2
BRANCH   1  22
ATOM     22  C   UNL A   1      32.840  29.524  25.243  1.00  0.00     0.202 C 
BRANCH  22  23
ATOM     23  C   UNL A   1      32.458  30.196  26.566  1.00  0.00     0.261 C 
BRANCH  23  24
ATOM     24  O   UNL A   1      33.494  30.080  27.554  1.00  0.00    -0.460 OA
BRANCH  24  25
ATOM     25  C   UNL A   1      34.264  31.185  27.686  1.00  0.00     0.338 C 
ATOM     26  O   UNL A   1      33.892  32.352  27.659  1.00  0.00    -0.246 OA
BRANCH  25  27
ATOM     27  C   UNL A   1      35.639  30.805  28.053  1.00  0.00     0.060 A 
ATOM     28  C   UNL A   1      35.907  29.437  28.193  1.00  0.00     0.016 A 
ATOM     29  C   UNL A   1      36.630  31.755  28.312  1.00  0.00     0.016 A 
ATOM     30  C   UNL A   1      37.151  29.015  28.650  1.00  0.00     0.010 A 
ATOM     31  C   UNL A   1      37.878  31.328  28.779  1.00  0.00     0.010 A 
ATOM     32  C   UNL A   1      38.130  29.960  28.987  1.00  0.00    -0.014 A 
BRANCH  32  33
ATOM     33  C   UNL A   1      39.347  29.512  29.704  1.00  0.00     0.031 A 
ATOM     34  C   UNL A   1      39.709  30.176  31.004  1.00  0.00     0.074 A 
ATOM     35  C   UNL A   1      40.088  28.494  29.230  1.00  0.00     0.049 A 
ATOM     36  N   UNL A   1      40.720  29.945  31.801  1.00  0.00    -0.248 NA
ATOM     37  C   UNL A   1      38.810  31.245  31.471  1.00  0.00     0.031 C 
ATOM     38  C   UNL A   1      39.810  27.749  28.002  1.00  0.00     0.029 A 
ATOM     39  N   UNL A   1      41.226  27.911  29.728  1.00  0.00    -0.354 N 
ATOM     40  C   UNL A   1      40.584  30.840  32.856  1.00  0.00     0.074 A 
ATOM     41  C   UNL A   1      39.408  31.639  32.585  1.00  0.00     0.031 C 
ATOM     42  C   UNL A   1      40.757  26.809  27.840  1.00  0.00     0.029 A 
ATOM     43  C   UNL A   1      41.722  26.904  28.935  1.00  0.00     0.049 A 
ATOM     44  H   UNL A   1      41.648  28.188  30.572  1.00  0.00     0.167 HD
ATOM     45  C   UNL A   1      41.363  30.977  33.955  1.00  0.00     0.037 A 
ATOM     46  C   UNL A   1      42.834  26.156  29.072  1.00  0.00     0.037 A 
ATOM     47  C   UNL A   1      42.527  30.172  34.220  1.00  0.00     0.049 A 
ATOM     48  C   UNL A   1      43.719  26.366  30.274  1.00  0.00     0.074 A 
ATOM     49  C   UNL A   1      43.371  30.216  35.317  1.00  0.00     0.029 A 
ATOM     50  N   UNL A   1      43.017  29.186  33.377  1.00  0.00    -0.354 N 
ATOM     51  N   UNL A   1      43.564  27.199  31.276  1.00  0.00    -0.248 NA
ATOM     52  C   UNL A   1      44.927  25.535  30.365  1.00  0.00     0.031 C 
ATOM     53  C   UNL A   1      44.399  29.288  35.113  1.00  0.00     0.029 A 
ATOM     54  C   UNL A   1      44.167  28.631  33.915  1.00  0.00     0.049 A 
ATOM     55  H   UNL A   1      42.608  28.919  32.523  1.00  0.00     0.167 HD
ATOM     56  C   UNL A   1      44.638  26.972  32.130  1.00  0.00     0.074 A 
ATOM     57  C   UNL A   1      45.432  25.919  31.531  1.00  0.00     0.031 C 
ATOM     58  C   UNL A   1      44.940  27.578  33.306  1.00  0.00     0.037 A 
BRANCH  45  59
ATOM     59  C   UNL A   1      40.997  32.052  34.939  1.00  0.00     0.058 A 
ATOM     60  C   UNL A   1      40.079  31.827  35.978  1.00  0.00     0.135 A 
ATOM     61  C   UNL A   1      41.594  33.320  34.859  1.00  0.00     0.135 A 
ATOM     62  F   UNL A   1      39.464  30.638  36.091  1.00  0.00    -0.206 F 
ATOM     63  C   UNL A   1      39.749  32.828  36.887  1.00  0.00     0.059 A 
ATOM     64  C   UNL A   1      41.299  34.328  35.772  1.00  0.00     0.059 A 
ATOM     65  F   UNL A   1      42.476  33.591  33.884  1.00  0.00    -0.206 F 
ATOM     66  C   UNL A   1      40.364  34.076  36.774  1.00  0.00     0.060 A 
BRANCH  66  67
ATOM     67  S   UNL A   1      39.929  35.363  37.963  1.00  0.00     0.124 S 
ATOM     68  O   UNL A   1      41.113  35.385  38.815  1.00  0.00    -0.237 OA
ATOM     69  O   UNL A   1      39.743  36.531  37.107  1.00  0.00    -0.237 OA
ATOM     70  O   UNL A   1      38.714  34.850  38.591  1.00  0.00    -0.744 OA
ENDBRANCH  66  67
ENDBRANCH  45  59
BRANCH  46  71
ATOM     71  C   UNL A   1      43.179  25.142  28.041  1.00  0.00     0.058 A 
ATOM     72  C   UNL A   1      42.698  23.827  28.123  1.00  0.00     0.135 A 
ATOM     73  C   UNL A   1      43.998  25.470  26.948  1.00  0.00     0.135 A 
ATOM     74  F   UNL A   1      41.922  23.462  29.155  1.00  0.00    -0.206 F 
ATOM     75  C   UNL A   1      43.023  22.870  27.167  1.00  0.00     0.059 A 
ATOM     76  C   UNL A   1      44.317  24.537  25.966  1.00  0.00     0.059 A 
ATOM     77  F   UNL A   1      44.477  26.717  26.816  1.00  0.00    -0.206 F 
ATOM     78  C   UNL A   1      43.832  23.237  26.090  1.00  0.00     0.060 A 
BRANCH  78  79
ATOM     79  S   UNL A   1      44.207  22.002  24.827  1.00  0.00     0.124 S 
ATOM     80  O   UNL A   1      43.439  20.856  25.298  1.00  0.00    -0.237 OA
ATOM     81  O   UNL A   1      43.714  22.646  23.613  1.00  0.00    -0.237 OA
ATOM     82  O   UNL A   1      45.659  21.868  24.910  1.00  0.00    -0.744 OA
ENDBRANCH  78  79
ENDBRANCH  46  71
BRANCH  58  83
ATOM     83  C   UNL A   1      46.161  27.096  34.041  1.00  0.00     0.058 A 
ATOM     84  C   UNL A   1      47.415  27.701  33.867  1.00  0.00     0.135 A 
ATOM     85  C   UNL A   1      46.061  26.052  34.974  1.00  0.00     0.135 A 
ATOM     86  F   UNL A   1      47.566  28.702  32.983  1.00  0.00    -0.206 F 
ATOM     87  C   UNL A   1      48.533  27.273  34.576  1.00  0.00     0.059 A 
ATOM     88  C   UNL A   1      47.159  25.625  35.713  1.00  0.00     0.059 A 
ATOM     89  F   UNL A   1      44.882  25.445  35.188  1.00  0.00    -0.206 F 
ATOM     90  C   UNL A   1      48.394  26.234  35.499  1.00  0.00     0.060 A 
BRANCH  90  91
ATOM     91  S   UNL A   1      49.845  25.710  36.437  1.00  0.00     0.124 S 
ATOM     92  O   UNL A   1      49.729  26.528  37.640  1.00  0.00    -0.237 OA
ATOM     93  O   UNL A   1      49.604  24.282  36.616  1.00  0.00    -0.237 OA
ATOM     94  O   UNL A   1      50.959  26.046  35.555  1.00  0.00    -0.744 OA
ENDBRANCH  90  91
ENDBRANCH  58  83
ENDBRANCH  32  33
ENDBRANCH  25  27
ENDBRANCH  24  25
ENDBRANCH  23  24
ENDBRANCH  22  23
ENDBRANCH   1  22
TORSDOF 20
ENDMDL
