MODEL 1
REMARK VINA RESULT:     -11.7      0.000      0.000
REMARK SMILES COc1ccc2c(c1)c(CC(=O)OCCOCCOC(=O)c1ccc(-c3c4nc(c(-c5c(F)cc(S(=O)(=O)[O-])cc5F)c5ccc([nH]5)c(-c5c(F)cc(S(=O)(=O)[O-])cc5F)c5nc(c(-c6c(F)cc(S(=O)(=O)[O-])cc6F)c6ccc3[nH]6)C=C5)C=C4)cc1)c(C)n2Cc1ccc(Br)cc1
REMARK SMILES IDX 16 1 15 2 14 3 13 4 11 5 12 6 10 7 9 8 3 9 4 10 8 11 5 12
REMARK SMILES IDX 7 13 6 14 90 15 88 16 89 17 2 18 1 19 91 20 92 21 93 22
REMARK SMILES IDX 98 23 94 24 97 25 95 26 96 27 17 28 18 29 19 30 20 31 21 32
REMARK SMILES IDX 22 33 23 34 87 35 24 36 86 37 25 38 26 39 27 40 80 41 28 42
REMARK SMILES IDX 85 43 79 44 81 45 29 46 84 47 78 48 77 49 30 51 64 52 43 53
REMARK SMILES IDX 63 54 44 55 47 56 62 57 82 58 45 59 46 60 61 62 83 63 48 64
REMARK SMILES IDX 31 65 32 66 41 67 33 68 34 69 40 70 42 71 35 72 36 73 37 74
REMARK SMILES IDX 38 75 39 76 65 77 66 78 75 79 67 80 68 81 74 82 76 83 69 84
REMARK SMILES IDX 70 85 71 86 72 87 73 88 49 89 50 90 59 91 51 92 52 93 58 94
REMARK SMILES IDX 60 95 53 96 54 97 55 98 56 99 57 100
REMARK H PARENT 81 50 47 61
REMARK Flexibility Score: inf
ROOT
ATOM      1  O   UNL A   1      40.603  20.263  27.291  1.00  0.00    -0.374 OA
ENDROOT
BRANCH   1   2
ATOM      2  C   UNL A   1      40.284  21.645  27.176  1.00  0.00     0.202 C 
BRANCH   2   3
ATOM      3  C   UNL A   1      39.477  22.185  25.978  1.00  0.00     0.261 C 
BRANCH   3   4
ATOM      4  O   UNL A   1      38.334  21.404  25.585  1.00  0.00    -0.463 OA
BRANCH   4   5
ATOM      5  C   UNL A   1      37.289  22.140  25.122  1.00  0.00     0.310 C 
ATOM      6  O   UNL A   1      37.153  22.478  23.947  1.00  0.00    -0.252 OA
BRANCH   5   7
ATOM      7  C   UNL A   1      36.248  22.534  26.148  1.00  0.00     0.160 C 
BRANCH   7   8
ATOM      8  C   UNL A   1      34.807  22.148  25.934  1.00  0.00    -0.008 A 
ATOM      9  C   UNL A   1      34.230  18.667  24.453  1.00  0.00     0.119 A 
ATOM     10  C   UNL A   1      32.844  18.695  24.529  1.00  0.00     0.048 A 
ATOM     11  C   UNL A   1      34.965  19.788  24.844  1.00  0.00     0.057 A 
ATOM     12  C   UNL A   1      32.169  19.846  24.979  1.00  0.00     0.031 A 
ATOM     13  C   UNL A   1      34.322  20.929  25.372  1.00  0.00     0.007 A 
ATOM     14  C   UNL A   1      32.925  20.962  25.395  1.00  0.00     0.049 A 
ATOM     15  N   UNL A   1      32.557  22.225  25.855  1.00  0.00    -0.340 N 
ATOM     16  C   UNL A   1      33.705  22.986  26.042  1.00  0.00     0.020 A 
ATOM     17  C   UNL A   1      33.731  24.456  26.284  1.00  0.00     0.065 C 
BRANCH   9  18
ATOM     18  O   UNL A   1      34.987  17.560  24.183  1.00  0.00    -0.497 OA
ATOM     19  C   UNL A   1      34.640  16.372  24.875  1.00  0.00     0.278 C 
ENDBRANCH   9  18
BRANCH  15  20
ATOM     20  C   UNL A   1      31.174  22.725  25.890  1.00  0.00     0.157 C 
BRANCH  20  21
ATOM     21  C   UNL A   1      30.932  23.992  25.094  1.00  0.00    -0.028 A 
ATOM     22  C   UNL A   1      30.528  25.184  25.716  1.00  0.00     0.007 A 
ATOM     23  C   UNL A   1      31.164  24.029  23.710  1.00  0.00     0.007 A 
ATOM     24  C   UNL A   1      30.281  26.349  24.988  1.00  0.00     0.016 A 
ATOM     25  C   UNL A   1      30.952  25.206  22.977  1.00  0.00     0.016 A 
ATOM     26  C   UNL A   1      30.491  26.354  23.616  1.00  0.00     0.017 A 
ATOM     27  Br  UNL A   1      30.158  27.928  22.627  1.00  0.00    -0.051 Br
ENDBRANCH  20  21
ENDBRANCH  15  20
ENDBRANCH   7   8
ENDBRANCH   5   7
ENDBRANCH   4   5
ENDBRANCH   3   4
ENDBRANCH   2   3
ENDBRANCH   1   2
BRANCH   1  28
ATOM     28  C   UNL A   1      41.214  19.626  26.172  1.00  0.00     0.202 C 
BRANCH  28  29
ATOM     29  C   UNL A   1      42.747  19.560  26.063  1.00  0.00     0.261 C 
BRANCH  29  30
ATOM     30  O   UNL A   1      43.248  20.258  24.927  1.00  0.00    -0.460 OA
BRANCH  30  31
ATOM     31  C   UNL A   1      44.335  21.030  25.177  1.00  0.00     0.338 C 
ATOM     32  O   UNL A   1      45.422  21.003  24.619  1.00  0.00    -0.246 OA
BRANCH  31  33
ATOM     33  C   UNL A   1      43.797  22.162  25.939  1.00  0.00     0.060 A 
ATOM     34  C   UNL A   1      42.934  23.068  25.319  1.00  0.00     0.016 A 
ATOM     35  C   UNL A   1      44.468  22.477  27.132  1.00  0.00     0.016 A 
ATOM     36  C   UNL A   1      42.809  24.336  25.864  1.00  0.00     0.010 A 
ATOM     37  C   UNL A   1      44.354  23.756  27.661  1.00  0.00     0.010 A 
ATOM     38  C   UNL A   1      43.550  24.692  27.009  1.00  0.00    -0.014 A 
BRANCH  38  39
ATOM     39  C   UNL A   1      43.210  25.962  27.652  1.00  0.00     0.031 A 
ATOM     40  C   UNL A   1      44.242  26.994  27.355  1.00  0.00     0.074 A 
ATOM     41  C   UNL A   1      42.075  26.279  28.307  1.00  0.00     0.049 A 
ATOM     42  N   UNL A   1      45.083  27.533  28.173  1.00  0.00    -0.248 NA
ATOM     43  C   UNL A   1      44.500  27.302  25.938  1.00  0.00     0.031 C 
ATOM     44  C   UNL A   1      40.846  25.497  28.445  1.00  0.00     0.029 A 
ATOM     45  N   UNL A   1      41.757  27.452  28.932  1.00  0.00    -0.354 N 
ATOM     46  C   UNL A   1      45.839  28.412  27.404  1.00  0.00     0.074 A 
ATOM     47  C   UNL A   1      45.576  28.081  26.030  1.00  0.00     0.031 C 
ATOM     48  C   UNL A   1      39.856  26.300  28.909  1.00  0.00     0.029 A 
ATOM     49  C   UNL A   1      40.405  27.610  29.224  1.00  0.00     0.049 A 
ATOM     50  H   UNL A   1      42.431  28.133  29.159  1.00  0.00     0.167 HD
ATOM     51  C   UNL A   1      46.431  29.505  27.954  1.00  0.00     0.037 A 
ATOM     52  C   UNL A   1      39.788  28.750  29.641  1.00  0.00     0.037 A 
ATOM     53  C   UNL A   1      46.542  29.377  29.383  1.00  0.00     0.049 A 
ATOM     54  C   UNL A   1      40.839  29.635  30.205  1.00  0.00     0.074 A 
ATOM     55  C   UNL A   1      47.158  28.482  30.236  1.00  0.00     0.029 A 
ATOM     56  N   UNL A   1      45.643  30.073  30.155  1.00  0.00    -0.354 N 
ATOM     57  N   UNL A   1      41.497  29.383  31.302  1.00  0.00    -0.248 NA
ATOM     58  C   UNL A   1      41.462  30.600  29.311  1.00  0.00     0.031 C 
ATOM     59  C   UNL A   1      46.274  28.360  31.347  1.00  0.00     0.029 A 
ATOM     60  C   UNL A   1      45.200  29.225  31.134  1.00  0.00     0.049 A 
ATOM     61  H   UNL A   1      45.370  31.010  30.028  1.00  0.00     0.167 HD
ATOM     62  C   UNL A   1      42.789  29.814  31.046  1.00  0.00     0.074 A 
ATOM     63  C   UNL A   1      42.687  30.631  29.840  1.00  0.00     0.031 C 
ATOM     64  C   UNL A   1      43.859  29.248  31.674  1.00  0.00     0.037 A 
BRANCH  51  65
ATOM     65  C   UNL A   1      46.529  30.841  27.254  1.00  0.00     0.058 A 
ATOM     66  C   UNL A   1      47.764  31.521  27.254  1.00  0.00     0.135 A 
ATOM     67  C   UNL A   1      45.411  31.612  26.864  1.00  0.00     0.135 A 
ATOM     68  F   UNL A   1      48.895  30.886  27.605  1.00  0.00    -0.206 F 
ATOM     69  C   UNL A   1      47.864  32.886  26.989  1.00  0.00     0.059 A 
ATOM     70  C   UNL A   1      45.496  32.959  26.540  1.00  0.00     0.059 A 
ATOM     71  F   UNL A   1      44.162  31.132  26.874  1.00  0.00    -0.206 F 
ATOM     72  C   UNL A   1      46.716  33.600  26.655  1.00  0.00     0.060 A 
BRANCH  72  73
ATOM     73  S   UNL A   1      46.815  35.384  26.444  1.00  0.00     0.124 S 
ATOM     74  O   UNL A   1      47.277  35.485  25.064  1.00  0.00    -0.237 OA
ATOM     75  O   UNL A   1      45.436  35.790  26.691  1.00  0.00    -0.237 OA
ATOM     76  O   UNL A   1      47.775  35.789  27.465  1.00  0.00    -0.744 OA
ENDBRANCH  72  73
ENDBRANCH  51  65
BRANCH  52  77
ATOM     77  C   UNL A   1      38.429  29.271  29.316  1.00  0.00     0.058 A 
ATOM     78  C   UNL A   1      37.510  29.616  30.330  1.00  0.00     0.135 A 
ATOM     79  C   UNL A   1      38.112  29.730  28.023  1.00  0.00     0.135 A 
ATOM     80  F   UNL A   1      37.737  29.245  31.599  1.00  0.00    -0.206 F 
ATOM     81  C   UNL A   1      36.380  30.408  30.086  1.00  0.00     0.059 A 
ATOM     82  C   UNL A   1      36.988  30.514  27.753  1.00  0.00     0.059 A 
ATOM     83  F   UNL A   1      38.943  29.508  26.994  1.00  0.00    -0.206 F 
ATOM     84  C   UNL A   1      36.139  30.872  28.794  1.00  0.00     0.060 A 
BRANCH  84  85
ATOM     85  S   UNL A   1      34.775  32.028  28.503  1.00  0.00     0.124 S 
ATOM     86  O   UNL A   1      34.454  32.467  29.857  1.00  0.00    -0.237 OA
ATOM     87  O   UNL A   1      35.395  33.026  27.640  1.00  0.00    -0.237 OA
ATOM     88  O   UNL A   1      33.758  31.198  27.860  1.00  0.00    -0.744 OA
ENDBRANCH  84  85
ENDBRANCH  52  77
BRANCH  64  89
ATOM     89  C   UNL A   1      43.619  28.396  32.888  1.00  0.00     0.058 A 
ATOM     90  C   UNL A   1      43.413  28.892  34.187  1.00  0.00     0.135 A 
ATOM     91  C   UNL A   1      43.396  27.026  32.680  1.00  0.00     0.135 A 
ATOM     92  F   UNL A   1      43.522  30.204  34.450  1.00  0.00    -0.206 F 
ATOM     93  C   UNL A   1      43.010  28.058  35.233  1.00  0.00     0.059 A 
ATOM     94  C   UNL A   1      42.965  26.183  33.698  1.00  0.00     0.059 A 
ATOM     95  F   UNL A   1      43.527  26.503  31.448  1.00  0.00    -0.206 F 
ATOM     96  C   UNL A   1      42.775  26.707  34.974  1.00  0.00     0.060 A 
BRANCH  96  97
ATOM     97  S   UNL A   1      42.127  25.655  36.292  1.00  0.00     0.124 S 
ATOM     98  O   UNL A   1      41.909  24.391  35.600  1.00  0.00    -0.237 OA
ATOM     99  O   UNL A   1      43.212  25.667  37.268  1.00  0.00    -0.237 OA
ATOM    100  O   UNL A   1      40.913  26.349  36.719  1.00  0.00    -0.744 OA
ENDBRANCH  96  97
ENDBRANCH  64  89
ENDBRANCH  38  39
ENDBRANCH  31  33
ENDBRANCH  30  31
ENDBRANCH  29  30
ENDBRANCH  28  29
ENDBRANCH   1  28
TORSDOF 21
ENDMDL
MODEL 2
REMARK VINA RESULT:     -10.6      2.401      4.544
REMARK SMILES COc1ccc2c(c1)c(CC(=O)OCCOCCOC(=O)c1ccc(-c3c4nc(c(-c5c(F)cc(S(=O)(=O)[O-])cc5F)c5ccc([nH]5)c(-c5c(F)cc(S(=O)(=O)[O-])cc5F)c5nc(c(-c6c(F)cc(S(=O)(=O)[O-])cc6F)c6ccc3[nH]6)C=C5)C=C4)cc1)c(C)n2Cc1ccc(Br)cc1
REMARK SMILES IDX 16 1 15 2 14 3 13 4 11 5 12 6 10 7 9 8 3 9 4 10 8 11 5 12
REMARK SMILES IDX 7 13 6 14 90 15 88 16 89 17 2 18 1 19 91 20 92 21 93 22
REMARK SMILES IDX 98 23 94 24 97 25 95 26 96 27 17 28 18 29 19 30 20 31 21 32
REMARK SMILES IDX 22 33 23 34 87 35 24 36 86 37 25 38 26 39 27 40 80 41 28 42
REMARK SMILES IDX 85 43 79 44 81 45 29 46 84 47 78 48 77 49 30 51 64 52 43 53
REMARK SMILES IDX 63 54 44 55 47 56 62 57 82 58 45 59 46 60 61 62 83 63 48 64
REMARK SMILES IDX 31 65 32 66 41 67 33 68 34 69 40 70 42 71 35 72 36 73 37 74
REMARK SMILES IDX 38 75 39 76 65 77 66 78 75 79 67 80 68 81 74 82 76 83 69 84
REMARK SMILES IDX 70 85 71 86 72 87 73 88 49 89 50 90 59 91 51 92 52 93 58 94
REMARK SMILES IDX 60 95 53 96 54 97 55 98 56 99 57 100
REMARK H PARENT 81 50 47 61
REMARK Flexibility Score: inf
ROOT
ATOM      1  O   UNL A   1      36.803  21.491  24.612  1.00  0.00    -0.374 OA
ENDROOT
BRANCH   1   2
ATOM      2  C   UNL A   1      35.692  20.688  24.994  1.00  0.00     0.202 C 
BRANCH   2   3
ATOM      3  C   UNL A   1      34.247  21.215  24.882  1.00  0.00     0.261 C 
BRANCH   3   4
ATOM      4  O   UNL A   1      34.084  22.469  24.199  1.00  0.00    -0.463 OA
BRANCH   4   5
ATOM      5  C   UNL A   1      34.175  23.560  25.005  1.00  0.00     0.310 C 
ATOM      6  O   UNL A   1      34.309  23.503  26.226  1.00  0.00    -0.252 OA
BRANCH   5   7
ATOM      7  C   UNL A   1      34.114  24.905  24.312  1.00  0.00     0.160 C 
BRANCH   7   8
ATOM      8  C   UNL A   1      32.911  25.790  24.505  1.00  0.00    -0.008 A 
ATOM      9  C   UNL A   1      33.294  28.555  27.122  1.00  0.00     0.119 A 
ATOM     10  C   UNL A   1      32.060  29.152  26.898  1.00  0.00     0.048 A 
ATOM     11  C   UNL A   1      33.641  27.403  26.415  1.00  0.00     0.057 A 
ATOM     12  C   UNL A   1      31.148  28.599  25.979  1.00  0.00     0.031 A 
ATOM     13  C   UNL A   1      32.780  26.868  25.433  1.00  0.00     0.007 A 
ATOM     14  C   UNL A   1      31.522  27.449  25.254  1.00  0.00     0.049 A 
ATOM     15  N   UNL A   1      30.846  26.671  24.315  1.00  0.00    -0.340 N 
ATOM     16  C   UNL A   1      31.643  25.585  23.975  1.00  0.00     0.020 A 
ATOM     17  C   UNL A   1      31.190  24.396  23.200  1.00  0.00     0.065 C 
BRANCH   9  18
ATOM     18  O   UNL A   1      34.309  29.089  27.868  1.00  0.00    -0.497 OA
ATOM     19  C   UNL A   1      35.514  29.380  27.178  1.00  0.00     0.278 C 
ENDBRANCH   9  18
BRANCH  15  20
ATOM     20  C   UNL A   1      29.432  26.852  23.951  1.00  0.00     0.157 C 
BRANCH  20  21
ATOM     21  C   UNL A   1      29.127  28.122  23.182  1.00  0.00    -0.028 A 
ATOM     22  C   UNL A   1      27.866  28.734  23.248  1.00  0.00     0.007 A 
ATOM     23  C   UNL A   1      30.120  28.761  22.423  1.00  0.00     0.007 A 
ATOM     24  C   UNL A   1      27.569  29.891  22.525  1.00  0.00     0.016 A 
ATOM     25  C   UNL A   1      29.840  29.944  21.723  1.00  0.00     0.016 A 
ATOM     26  C   UNL A   1      28.560  30.491  21.760  1.00  0.00     0.017 A 
ATOM     27  Br  UNL A   1      28.163  32.057  20.781  1.00  0.00    -0.051 Br
ENDBRANCH  20  21
ENDBRANCH  15  20
ENDBRANCH   7   8
ENDBRANCH   5   7
ENDBRANCH   4   5
ENDBRANCH   3   4
ENDBRANCH   2   3
ENDBRANCH   1   2
BRANCH   1  28
ATOM     28  C   UNL A   1      38.016  21.339  25.343  1.00  0.00     0.202 C 
BRANCH  28  29
ATOM     29  C   UNL A   1      38.759  22.578  25.872  1.00  0.00     0.261 C 
BRANCH  29  30
ATOM     30  O   UNL A   1      39.635  22.274  26.953  1.00  0.00    -0.460 OA
BRANCH  30  31
ATOM     31  C   UNL A   1      40.909  22.709  26.782  1.00  0.00     0.338 C 
ATOM     32  O   UNL A   1      41.657  22.497  25.838  1.00  0.00    -0.246 OA
BRANCH  31  33
ATOM     33  C   UNL A   1      41.038  23.813  27.739  1.00  0.00     0.060 A 
ATOM     34  C   UNL A   1      39.980  24.710  27.909  1.00  0.00     0.016 A 
ATOM     35  C   UNL A   1      42.344  24.122  28.154  1.00  0.00     0.016 A 
ATOM     36  C   UNL A   1      40.259  25.964  28.429  1.00  0.00     0.010 A 
ATOM     37  C   UNL A   1      42.619  25.387  28.654  1.00  0.00     0.010 A 
ATOM     38  C   UNL A   1      41.583  26.317  28.762  1.00  0.00    -0.014 A 
BRANCH  38  39
ATOM     39  C   UNL A   1      41.772  27.565  29.501  1.00  0.00     0.031 A 
ATOM     40  C   UNL A   1      42.991  28.276  29.025  1.00  0.00     0.074 A 
ATOM     41  C   UNL A   1      40.934  28.136  30.389  1.00  0.00     0.049 A 
ATOM     42  N   UNL A   1      44.097  28.471  29.664  1.00  0.00    -0.248 NA
ATOM     43  C   UNL A   1      43.054  28.625  27.595  1.00  0.00     0.031 C 
ATOM     44  C   UNL A   1      39.577  27.735  30.758  1.00  0.00     0.029 A 
ATOM     45  N   UNL A   1      41.112  29.288  31.103  1.00  0.00    -0.354 N 
ATOM     46  C   UNL A   1      44.921  29.160  28.780  1.00  0.00     0.074 A 
ATOM     47  C   UNL A   1      44.312  29.048  27.482  1.00  0.00     0.031 C 
ATOM     48  C   UNL A   1      38.984  28.743  31.444  1.00  0.00     0.029 A 
ATOM     49  C   UNL A   1      39.953  29.803  31.677  1.00  0.00     0.049 A 
ATOM     50  H   UNL A   1      41.991  29.720  31.203  1.00  0.00     0.167 HD
ATOM     51  C   UNL A   1      45.910  29.979  29.227  1.00  0.00     0.037 A 
ATOM     52  C   UNL A   1      39.802  31.030  32.249  1.00  0.00     0.037 A 
ATOM     53  C   UNL A   1      46.248  29.693  30.596  1.00  0.00     0.049 A 
ATOM     54  C   UNL A   1      41.160  31.516  32.606  1.00  0.00     0.074 A 
ATOM     55  C   UNL A   1      46.717  28.583  31.273  1.00  0.00     0.029 A 
ATOM     56  N   UNL A   1      45.768  30.546  31.560  1.00  0.00    -0.354 N 
ATOM     57  N   UNL A   1      41.907  30.984  33.532  1.00  0.00    -0.248 NA
ATOM     58  C   UNL A   1      41.861  32.337  31.631  1.00  0.00     0.031 C 
ATOM     59  C   UNL A   1      46.067  28.621  32.540  1.00  0.00     0.029 A 
ATOM     60  C   UNL A   1      45.284  29.776  32.584  1.00  0.00     0.049 A 
ATOM     61  H   UNL A   1      45.772  31.529  31.522  1.00  0.00     0.167 HD
ATOM     62  C   UNL A   1      43.195  31.044  33.023  1.00  0.00     0.074 A 
ATOM     63  C   UNL A   1      43.116  31.963  31.891  1.00  0.00     0.031 C 
ATOM     64  C   UNL A   1      44.143  30.137  33.394  1.00  0.00     0.037 A 
BRANCH  51  65
ATOM     65  C   UNL A   1      46.272  31.288  28.563  1.00  0.00     0.058 A 
ATOM     66  C   UNL A   1      45.278  32.278  28.423  1.00  0.00     0.135 A 
ATOM     67  C   UNL A   1      47.441  31.487  27.795  1.00  0.00     0.135 A 
ATOM     68  F   UNL A   1      44.126  32.193  29.108  1.00  0.00    -0.206 F 
ATOM     69  C   UNL A   1      45.393  33.326  27.511  1.00  0.00     0.059 A 
ATOM     70  C   UNL A   1      47.601  32.555  26.924  1.00  0.00     0.059 A 
ATOM     71  F   UNL A   1      48.448  30.606  27.766  1.00  0.00    -0.206 F 
ATOM     72  C   UNL A   1      46.553  33.442  26.750  1.00  0.00     0.060 A 
BRANCH  72  73
ATOM     73  S   UNL A   1      46.653  34.710  25.478  1.00  0.00     0.124 S 
ATOM     74  O   UNL A   1      46.463  35.922  26.266  1.00  0.00    -0.237 OA
ATOM     75  O   UNL A   1      47.994  34.494  24.945  1.00  0.00    -0.237 OA
ATOM     76  O   UNL A   1      45.562  34.364  24.574  1.00  0.00    -0.744 OA
ENDBRANCH  72  73
ENDBRANCH  51  65
BRANCH  52  77
ATOM     77  C   UNL A   1      38.629  31.950  32.233  1.00  0.00     0.058 A 
ATOM     78  C   UNL A   1      38.065  32.406  31.023  1.00  0.00     0.135 A 
ATOM     79  C   UNL A   1      37.849  32.158  33.387  1.00  0.00     0.135 A 
ATOM     80  F   UNL A   1      38.723  32.232  29.866  1.00  0.00    -0.206 F 
ATOM     81  C   UNL A   1      36.790  32.982  30.955  1.00  0.00     0.059 A 
ATOM     82  C   UNL A   1      36.577  32.737  33.346  1.00  0.00     0.059 A 
ATOM     83  F   UNL A   1      38.261  31.715  34.583  1.00  0.00    -0.206 F 
ATOM     84  C   UNL A   1      36.042  33.123  32.122  1.00  0.00     0.060 A 
BRANCH  84  85
ATOM     85  S   UNL A   1      34.333  33.713  32.020  1.00  0.00     0.124 S 
ATOM     86  O   UNL A   1      33.981  33.392  30.641  1.00  0.00    -0.237 OA
ATOM     87  O   UNL A   1      33.670  32.920  33.048  1.00  0.00    -0.237 OA
ATOM     88  O   UNL A   1      34.448  35.140  32.316  1.00  0.00    -0.744 OA
ENDBRANCH  84  85
ENDBRANCH  52  77
BRANCH  64  89
ATOM     89  C   UNL A   1      43.894  29.282  34.606  1.00  0.00     0.058 A 
ATOM     90  C   UNL A   1      43.206  28.056  34.592  1.00  0.00     0.135 A 
ATOM     91  C   UNL A   1      44.555  29.637  35.791  1.00  0.00     0.135 A 
ATOM     92  F   UNL A   1      42.621  27.604  33.473  1.00  0.00    -0.206 F 
ATOM     93  C   UNL A   1      43.174  27.225  35.715  1.00  0.00     0.059 A 
ATOM     94  C   UNL A   1      44.563  28.811  36.910  1.00  0.00     0.059 A 
ATOM     95  F   UNL A   1      45.271  30.773  35.847  1.00  0.00    -0.206 F 
ATOM     96  C   UNL A   1      43.868  27.606  36.865  1.00  0.00     0.060 A 
BRANCH  96  97
ATOM     97  S   UNL A   1      43.938  26.472  38.270  1.00  0.00     0.124 S 
ATOM     98  O   UNL A   1      42.526  26.230  38.542  1.00  0.00    -0.237 OA
ATOM     99  O   UNL A   1      44.685  25.342  37.727  1.00  0.00    -0.237 OA
ATOM    100  O   UNL A   1      44.647  27.239  39.293  1.00  0.00    -0.744 OA
ENDBRANCH  96  97
ENDBRANCH  64  89
ENDBRANCH  38  39
ENDBRANCH  31  33
ENDBRANCH  30  31
ENDBRANCH  29  30
ENDBRANCH  28  29
ENDBRANCH   1  28
TORSDOF 21
ENDMDL
MODEL 3
REMARK VINA RESULT:     -10.6      3.062      9.866
REMARK SMILES COc1ccc2c(c1)c(CC(=O)OCCOCCOC(=O)c1ccc(-c3c4nc(c(-c5c(F)cc(S(=O)(=O)[O-])cc5F)c5ccc([nH]5)c(-c5c(F)cc(S(=O)(=O)[O-])cc5F)c5nc(c(-c6c(F)cc(S(=O)(=O)[O-])cc6F)c6ccc3[nH]6)C=C5)C=C4)cc1)c(C)n2Cc1ccc(Br)cc1
REMARK SMILES IDX 16 1 15 2 14 3 13 4 11 5 12 6 10 7 9 8 3 9 4 10 8 11 5 12
REMARK SMILES IDX 7 13 6 14 90 15 88 16 89 17 2 18 1 19 91 20 92 21 93 22
REMARK SMILES IDX 98 23 94 24 97 25 95 26 96 27 17 28 18 29 19 30 20 31 21 32
REMARK SMILES IDX 22 33 23 34 87 35 24 36 86 37 25 38 26 39 27 40 80 41 28 42
REMARK SMILES IDX 85 43 79 44 81 45 29 46 84 47 78 48 77 49 30 51 64 52 43 53
REMARK SMILES IDX 63 54 44 55 47 56 62 57 82 58 45 59 46 60 61 62 83 63 48 64
REMARK SMILES IDX 31 65 32 66 41 67 33 68 34 69 40 70 42 71 35 72 36 73 37 74
REMARK SMILES IDX 38 75 39 76 65 77 66 78 75 79 67 80 68 81 74 82 76 83 69 84
REMARK SMILES IDX 70 85 71 86 72 87 73 88 49 89 50 90 59 91 51 92 52 93 58 94
REMARK SMILES IDX 60 95 53 96 54 97 55 98 56 99 57 100
REMARK H PARENT 81 50 47 61
REMARK Flexibility Score: inf
ROOT
ATOM      1  O   UNL A   1      35.064  33.597  28.563  1.00  0.00    -0.374 OA
ENDROOT
BRANCH   1   2
ATOM      2  C   UNL A   1      34.291  32.666  27.812  1.00  0.00     0.202 C 
BRANCH   2   3
ATOM      3  C   UNL A   1      34.362  31.153  28.097  1.00  0.00     0.261 C 
BRANCH   3   4
ATOM      4  O   UNL A   1      34.351  30.293  26.943  1.00  0.00    -0.463 OA
BRANCH   4   5
ATOM      5  C   UNL A   1      33.118  30.095  26.407  1.00  0.00     0.310 C 
ATOM      6  O   UNL A   1      32.082  30.571  26.868  1.00  0.00    -0.252 OA
BRANCH   5   7
ATOM      7  C   UNL A   1      33.066  29.238  25.160  1.00  0.00     0.160 C 
BRANCH   7   8
ATOM      8  C   UNL A   1      31.861  28.372  24.899  1.00  0.00    -0.008 A 
ATOM      9  C   UNL A   1      29.099  29.975  22.791  1.00  0.00     0.119 A 
ATOM     10  C   UNL A   1      28.288  28.850  22.718  1.00  0.00     0.048 A 
ATOM     11  C   UNL A   1      30.277  29.929  23.538  1.00  0.00     0.057 A 
ATOM     12  C   UNL A   1      28.630  27.669  23.402  1.00  0.00     0.031 A 
ATOM     13  C   UNL A   1      30.686  28.736  24.174  1.00  0.00     0.007 A 
ATOM     14  C   UNL A   1      29.836  27.628  24.133  1.00  0.00     0.049 A 
ATOM     15  N   UNL A   1      30.424  26.637  24.918  1.00  0.00    -0.340 N 
ATOM     16  C   UNL A   1      31.580  27.149  25.495  1.00  0.00     0.020 A 
ATOM     17  C   UNL A   1      32.355  26.498  26.588  1.00  0.00     0.065 C 
BRANCH   9  18
ATOM     18  O   UNL A   1      28.946  31.113  22.047  1.00  0.00    -0.497 OA
ATOM     19  C   UNL A   1      28.119  31.011  20.898  1.00  0.00     0.278 C 
ENDBRANCH   9  18
BRANCH  15  20
ATOM     20  C   UNL A   1      29.780  25.360  25.262  1.00  0.00     0.157 C 
BRANCH  20  21
ATOM     21  C   UNL A   1      30.607  24.126  24.961  1.00  0.00    -0.028 A 
ATOM     22  C   UNL A   1      30.805  23.123  25.924  1.00  0.00     0.007 A 
ATOM     23  C   UNL A   1      31.155  23.918  23.686  1.00  0.00     0.007 A 
ATOM     24  C   UNL A   1      31.584  21.995  25.663  1.00  0.00     0.016 A 
ATOM     25  C   UNL A   1      31.910  22.769  23.406  1.00  0.00     0.016 A 
ATOM     26  C   UNL A   1      32.139  21.824  24.403  1.00  0.00     0.017 A 
ATOM     27  Br  UNL A   1      33.194  20.298  24.046  1.00  0.00    -0.051 Br
ENDBRANCH  20  21
ENDBRANCH  15  20
ENDBRANCH   7   8
ENDBRANCH   5   7
ENDBRANCH   4   5
ENDBRANCH   3   4
ENDBRANCH   2   3
ENDBRANCH   1   2
BRANCH   1  28
ATOM     28  C   UNL A   1      34.397  34.734  29.102  1.00  0.00     0.202 C 
BRANCH  28  29
ATOM     29  C   UNL A   1      34.072  34.799  30.604  1.00  0.00     0.261 C 
BRANCH  29  30
ATOM     30  O   UNL A   1      35.152  34.359  31.421  1.00  0.00    -0.460 OA
BRANCH  30  31
ATOM     31  C   UNL A   1      35.024  33.090  31.884  1.00  0.00     0.338 C 
ATOM     32  O   UNL A   1      34.016  32.539  32.301  1.00  0.00    -0.246 OA
BRANCH  31  33
ATOM     33  C   UNL A   1      36.223  32.409  31.383  1.00  0.00     0.060 A 
ATOM     34  C   UNL A   1      36.252  31.014  31.318  1.00  0.00     0.016 A 
ATOM     35  C   UNL A   1      37.399  33.176  31.348  1.00  0.00     0.016 A 
ATOM     36  C   UNL A   1      37.485  30.382  31.299  1.00  0.00     0.010 A 
ATOM     37  C   UNL A   1      38.631  32.535  31.350  1.00  0.00     0.010 A 
ATOM     38  C   UNL A   1      38.672  31.140  31.357  1.00  0.00    -0.014 A 
BRANCH  38  39
ATOM     39  C   UNL A   1      39.927  30.428  31.117  1.00  0.00     0.031 A 
ATOM     40  C   UNL A   1      40.629  30.154  32.402  1.00  0.00     0.074 A 
ATOM     41  C   UNL A   1      40.383  29.924  29.952  1.00  0.00     0.049 A 
ATOM     42  N   UNL A   1      41.737  30.666  32.826  1.00  0.00    -0.248 NA
ATOM     43  C   UNL A   1      39.898  29.377  33.418  1.00  0.00     0.031 C 
ATOM     44  C   UNL A   1      39.703  29.842  28.660  1.00  0.00     0.029 A 
ATOM     45  N   UNL A   1      41.564  29.280  29.713  1.00  0.00    -0.354 N 
ATOM     46  C   UNL A   1      41.949  30.105  34.082  1.00  0.00     0.074 A 
ATOM     47  C   UNL A   1      40.708  29.491  34.470  1.00  0.00     0.031 C 
ATOM     48  C   UNL A   1      40.385  28.997  27.849  1.00  0.00     0.029 A 
ATOM     49  C   UNL A   1      41.612  28.580  28.510  1.00  0.00     0.049 A 
ATOM     50  H   UNL A   1      42.321  29.307  30.341  1.00  0.00     0.167 HD
ATOM     51  C   UNL A   1      43.200  29.975  34.597  1.00  0.00     0.037 A 
ATOM     52  C   UNL A   1      42.567  27.689  28.123  1.00  0.00     0.037 A 
ATOM     53  C   UNL A   1      44.135  30.840  33.926  1.00  0.00     0.049 A 
ATOM     54  C   UNL A   1      43.775  27.956  28.945  1.00  0.00     0.074 A 
ATOM     55  C   UNL A   1      44.239  32.205  33.741  1.00  0.00     0.029 A 
ATOM     56  N   UNL A   1      44.978  30.270  33.003  1.00  0.00    -0.354 N 
ATOM     57  N   UNL A   1      44.499  29.037  28.852  1.00  0.00    -0.248 NA
ATOM     58  C   UNL A   1      43.932  27.203  30.180  1.00  0.00     0.031 C 
ATOM     59  C   UNL A   1      44.760  32.361  32.424  1.00  0.00     0.029 A 
ATOM     60  C   UNL A   1      44.995  31.086  31.905  1.00  0.00     0.049 A 
ATOM     61  H   UNL A   1      45.479  29.430  33.113  1.00  0.00     0.167 HD
ATOM     62  C   UNL A   1      44.867  29.328  30.157  1.00  0.00     0.074 A 
ATOM     63  C   UNL A   1      44.563  28.119  30.917  1.00  0.00     0.031 C 
ATOM     64  C   UNL A   1      45.127  30.608  30.547  1.00  0.00     0.037 A 
BRANCH  51  65
ATOM     65  C   UNL A   1      43.646  28.783  35.413  1.00  0.00     0.058 A 
ATOM     66  C   UNL A   1      44.346  29.006  36.616  1.00  0.00     0.135 A 
ATOM     67  C   UNL A   1      43.692  27.460  34.918  1.00  0.00     0.135 A 
ATOM     68  F   UNL A   1      44.368  30.224  37.180  1.00  0.00    -0.206 F 
ATOM     69  C   UNL A   1      45.118  28.016  37.224  1.00  0.00     0.059 A 
ATOM     70  C   UNL A   1      44.407  26.445  35.538  1.00  0.00     0.059 A 
ATOM     71  F   UNL A   1      43.135  27.102  33.756  1.00  0.00    -0.206 F 
ATOM     72  C   UNL A   1      45.158  26.743  36.661  1.00  0.00     0.060 A 
BRANCH  72  73
ATOM     73  S   UNL A   1      46.255  25.501  37.361  1.00  0.00     0.124 S 
ATOM     74  O   UNL A   1      45.482  24.283  37.149  1.00  0.00    -0.237 OA
ATOM     75  O   UNL A   1      47.448  25.657  36.536  1.00  0.00    -0.237 OA
ATOM     76  O   UNL A   1      46.398  25.926  38.750  1.00  0.00    -0.744 OA
ENDBRANCH  72  73
ENDBRANCH  51  65
BRANCH  52  77
ATOM     77  C   UNL A   1      42.432  26.433  27.330  1.00  0.00     0.058 A 
ATOM     78  C   UNL A   1      42.900  26.345  26.002  1.00  0.00     0.135 A 
ATOM     79  C   UNL A   1      42.122  25.207  27.951  1.00  0.00     0.135 A 
ATOM     80  F   UNL A   1      43.244  27.457  25.334  1.00  0.00    -0.206 F 
ATOM     81  C   UNL A   1      43.098  25.120  25.352  1.00  0.00     0.059 A 
ATOM     82  C   UNL A   1      42.304  23.973  27.321  1.00  0.00     0.059 A 
ATOM     83  F   UNL A   1      41.722  25.168  29.230  1.00  0.00    -0.206 F 
ATOM     84  C   UNL A   1      42.818  23.935  26.030  1.00  0.00     0.060 A 
BRANCH  84  85
ATOM     85  S   UNL A   1      43.226  22.348  25.257  1.00  0.00     0.124 S 
ATOM     86  O   UNL A   1      42.004  21.580  25.477  1.00  0.00    -0.237 OA
ATOM     87  O   UNL A   1      43.495  22.736  23.878  1.00  0.00    -0.237 OA
ATOM     88  O   UNL A   1      44.391  21.892  26.012  1.00  0.00    -0.744 OA
ENDBRANCH  84  85
ENDBRANCH  52  77
BRANCH  64  89
ATOM     89  C   UNL A   1      45.346  31.657  29.493  1.00  0.00     0.058 A 
ATOM     90  C   UNL A   1      46.584  31.941  28.890  1.00  0.00     0.135 A 
ATOM     91  C   UNL A   1      44.207  32.260  28.939  1.00  0.00     0.135 A 
ATOM     92  F   UNL A   1      47.709  31.338  29.305  1.00  0.00    -0.206 F 
ATOM     93  C   UNL A   1      46.681  32.794  27.788  1.00  0.00     0.059 A 
ATOM     94  C   UNL A   1      44.276  33.088  27.824  1.00  0.00     0.059 A 
ATOM     95  F   UNL A   1      42.990  31.987  29.441  1.00  0.00    -0.206 F 
ATOM     96  C   UNL A   1      45.519  33.352  27.254  1.00  0.00     0.060 A 
BRANCH  96  97
ATOM     97  S   UNL A   1      45.627  34.348  25.750  1.00  0.00     0.124 S 
ATOM     98  O   UNL A   1      47.050  34.284  25.439  1.00  0.00    -0.237 OA
ATOM     99  O   UNL A   1      44.743  33.634  24.834  1.00  0.00    -0.237 OA
ATOM    100  O   UNL A   1      45.139  35.660  26.173  1.00  0.00    -0.744 OA
ENDBRANCH  96  97
ENDBRANCH  64  89
ENDBRANCH  38  39
ENDBRANCH  31  33
ENDBRANCH  30  31
ENDBRANCH  29  30
ENDBRANCH  28  29
ENDBRANCH   1  28
TORSDOF 21
ENDMDL
