MODEL 1
REMARK VINA RESULT:     -10.7      0.000      0.000
REMARK SMILES O=C(OCCOCCOC(=O)[C@@H](Cc1ccncc1)c1ccc(Cl)cc1)c1ccc(-c2c3nc(c(-c4c(F)cc(S(=O)(=O)[O-])cc4F)c4ccc([nH]4)c(-c4c(F)cc(S(=O)(=O)[O-])cc4F)c4nc(c(-c5c(F)cc(S(=O)(=O)[O-])cc5F)c5ccc2[nH]5)C=C4)C=C3)cc1
REMARK SMILES IDX 5 1 4 2 3 3 2 4 1 5 27 6 28 7 92 8 29 9 91 10 30 11 31 12
REMARK SMILES IDX 32 13 85 14 33 15 90 16 84 17 86 18 34 19 89 20 83 21 82 22
REMARK SMILES IDX 35 24 69 25 48 26 68 27 49 28 52 29 67 30 87 31 50 32 51 33
REMARK SMILES IDX 66 35 88 36 53 37 36 38 37 39 46 40 38 41 39 42 45 43 47 44
REMARK SMILES IDX 40 45 41 46 42 47 43 48 44 49 70 50 71 51 80 52 72 53 73 54
REMARK SMILES IDX 79 55 81 56 74 57 75 58 76 59 77 60 78 61 54 62 55 63 64 64
REMARK SMILES IDX 56 65 57 66 63 67 65 68 58 69 59 70 60 71 61 72 62 73 6 74
REMARK SMILES IDX 7 75 8 76 9 77 10 78 11 79 12 80 13 81 14 82 15 83 19 84
REMARK SMILES IDX 16 85 18 86 17 87 20 88 21 89 26 90 22 91 25 92 23 93 24 94
REMARK H PARENT 86 23 52 34
REMARK Flexibility Score: inf
ROOT
ATOM      1  C   UNL A   1      40.580  22.005  26.510  1.00  0.00     0.202 C 
ENDROOT
BRANCH   1   2
ATOM      2  C   UNL A   1      41.541  22.646  27.516  1.00  0.00     0.261 C 
BRANCH   2   3
ATOM      3  O   UNL A   1      42.267  23.728  26.908  1.00  0.00    -0.460 OA
BRANCH   3   4
ATOM      4  C   UNL A   1      41.805  24.968  26.609  1.00  0.00     0.338 C 
ATOM      5  O   UNL A   1      41.745  25.316  25.432  1.00  0.00    -0.246 OA
BRANCH   4   6
ATOM      6  C   UNL A   1      41.357  25.934  27.654  1.00  0.00     0.060 A 
ATOM      7  C   UNL A   1      41.982  27.151  27.900  1.00  0.00     0.016 A 
ATOM      8  C   UNL A   1      40.210  25.630  28.402  1.00  0.00     0.016 A 
ATOM      9  C   UNL A   1      41.551  28.029  28.856  1.00  0.00     0.010 A 
ATOM     10  C   UNL A   1      39.747  26.518  29.382  1.00  0.00     0.010 A 
ATOM     11  C   UNL A   1      40.438  27.712  29.609  1.00  0.00    -0.014 A 
BRANCH  11  12
ATOM     12  C   UNL A   1      40.244  28.601  30.756  1.00  0.00     0.031 A 
ATOM     13  C   UNL A   1      41.287  28.556  31.826  1.00  0.00     0.074 A 
ATOM     14  C   UNL A   1      39.365  29.612  30.635  1.00  0.00     0.049 A 
ATOM     15  N   UNL A   1      41.391  29.276  32.904  1.00  0.00    -0.248 NA
ATOM     16  C   UNL A   1      42.389  27.591  31.636  1.00  0.00     0.031 C 
ATOM     17  C   UNL A   1      38.497  29.839  29.470  1.00  0.00     0.029 A 
ATOM     18  N   UNL A   1      39.111  30.677  31.448  1.00  0.00    -0.354 N 
ATOM     19  C   UNL A   1      42.530  28.813  33.550  1.00  0.00     0.074 A 
ATOM     20  C   UNL A   1      43.104  27.770  32.735  1.00  0.00     0.031 C 
ATOM     21  C   UNL A   1      37.830  30.992  29.637  1.00  0.00     0.029 A 
ATOM     22  C   UNL A   1      38.154  31.529  30.950  1.00  0.00     0.049 A 
ATOM     23  H   UNL A   1      39.569  30.822  32.307  1.00  0.00     0.167 HD
ATOM     24  C   UNL A   1      43.021  29.222  34.739  1.00  0.00     0.037 A 
ATOM     25  C   UNL A   1      37.580  32.597  31.532  1.00  0.00     0.037 A 
ATOM     26  C   UNL A   1      42.408  30.277  35.497  1.00  0.00     0.049 A 
ATOM     27  C   UNL A   1      38.062  32.953  32.912  1.00  0.00     0.074 A 
ATOM     28  C   UNL A   1      42.722  30.736  36.759  1.00  0.00     0.029 A 
ATOM     29  N   UNL A   1      41.341  31.044  35.038  1.00  0.00    -0.354 N 
ATOM     30  N   UNL A   1      39.047  32.419  33.601  1.00  0.00    -0.248 NA
ATOM     31  C   UNL A   1      37.351  34.028  33.606  1.00  0.00     0.031 C 
ATOM     32  C   UNL A   1      41.807  31.744  37.086  1.00  0.00     0.029 A 
ATOM     33  C   UNL A   1      40.968  31.961  36.001  1.00  0.00     0.049 A 
ATOM     34  H   UNL A   1      40.915  30.948  34.156  1.00  0.00     0.167 HD
ATOM     35  C   UNL A   1      39.093  33.111  34.802  1.00  0.00     0.074 A 
ATOM     36  C   UNL A   1      38.041  34.111  34.735  1.00  0.00     0.031 C 
ATOM     37  C   UNL A   1      39.918  32.943  35.866  1.00  0.00     0.037 A 
BRANCH  24  38
ATOM     38  C   UNL A   1      44.168  28.441  35.311  1.00  0.00     0.058 A 
ATOM     39  C   UNL A   1      43.989  27.300  36.110  1.00  0.00     0.135 A 
ATOM     40  C   UNL A   1      45.482  28.891  35.104  1.00  0.00     0.135 A 
ATOM     41  F   UNL A   1      42.752  26.851  36.381  1.00  0.00    -0.206 F 
ATOM     42  C   UNL A   1      45.069  26.649  36.702  1.00  0.00     0.059 A 
ATOM     43  C   UNL A   1      46.577  28.243  35.664  1.00  0.00     0.059 A 
ATOM     44  F   UNL A   1      45.710  29.993  34.371  1.00  0.00    -0.206 F 
ATOM     45  C   UNL A   1      46.360  27.132  36.475  1.00  0.00     0.060 A 
BRANCH  45  46
ATOM     46  S   UNL A   1      47.751  26.290  37.260  1.00  0.00     0.124 S 
ATOM     47  O   UNL A   1      47.204  24.952  37.467  1.00  0.00    -0.237 OA
ATOM     48  O   UNL A   1      48.794  26.399  36.246  1.00  0.00    -0.237 OA
ATOM     49  O   UNL A   1      47.977  27.068  38.475  1.00  0.00    -0.744 OA
ENDBRANCH  45  46
ENDBRANCH  24  38
BRANCH  25  50
ATOM     50  C   UNL A   1      36.466  33.323  30.863  1.00  0.00     0.058 A 
ATOM     51  C   UNL A   1      36.694  34.190  29.785  1.00  0.00     0.135 A 
ATOM     52  C   UNL A   1      35.138  33.171  31.300  1.00  0.00     0.135 A 
ATOM     53  F   UNL A   1      37.941  34.378  29.326  1.00  0.00    -0.206 F 
ATOM     54  C   UNL A   1      35.655  34.894  29.179  1.00  0.00     0.059 A 
ATOM     55  C   UNL A   1      34.079  33.838  30.692  1.00  0.00     0.059 A 
ATOM     56  F   UNL A   1      34.855  32.350  32.324  1.00  0.00    -0.206 F 
ATOM     57  C   UNL A   1      34.350  34.711  29.642  1.00  0.00     0.060 A 
BRANCH  57  58
ATOM     58  S   UNL A   1      33.006  35.617  28.844  1.00  0.00     0.124 S 
ATOM     59  O   UNL A   1      33.739  36.638  28.105  1.00  0.00    -0.237 OA
ATOM     60  O   UNL A   1      32.371  34.578  28.040  1.00  0.00    -0.237 OA
ATOM     61  O   UNL A   1      32.211  36.102  29.969  1.00  0.00    -0.744 OA
ENDBRANCH  57  58
ENDBRANCH  25  50
BRANCH  37  62
ATOM     62  C   UNL A   1      39.746  33.903  37.002  1.00  0.00     0.058 A 
ATOM     63  C   UNL A   1      38.939  33.604  38.109  1.00  0.00     0.135 A 
ATOM     64  C   UNL A   1      40.448  35.120  36.999  1.00  0.00     0.135 A 
ATOM     65  F   UNL A   1      38.246  32.455  38.151  1.00  0.00    -0.206 F 
ATOM     66  C   UNL A   1      38.807  34.497  39.164  1.00  0.00     0.059 A 
ATOM     67  C   UNL A   1      40.358  36.010  38.058  1.00  0.00     0.059 A 
ATOM     68  F   UNL A   1      41.244  35.439  35.966  1.00  0.00    -0.206 F 
ATOM     69  C   UNL A   1      39.523  35.696  39.130  1.00  0.00     0.060 A 
BRANCH  69  70
ATOM     70  S   UNL A   1      39.366  36.834  40.519  1.00  0.00     0.124 S 
ATOM     71  O   UNL A   1      38.604  36.031  41.469  1.00  0.00    -0.237 OA
ATOM     72  O   UNL A   1      40.760  37.087  40.874  1.00  0.00    -0.237 OA
ATOM     73  O   UNL A   1      38.655  37.974  39.946  1.00  0.00    -0.744 OA
ENDBRANCH  69  70
ENDBRANCH  37  62
ENDBRANCH  11  12
ENDBRANCH   4   6
ENDBRANCH   3   4
ENDBRANCH   2   3
ENDBRANCH   1   2
BRANCH   1  74
ATOM     74  O   UNL A   1      39.247  22.511  26.473  1.00  0.00    -0.374 OA
BRANCH  74  75
ATOM     75  C   UNL A   1      38.290  21.758  25.730  1.00  0.00     0.202 C 
BRANCH  75  76
ATOM     76  C   UNL A   1      37.287  22.722  25.107  1.00  0.00     0.261 C 
BRANCH  76  77
ATOM     77  O   UNL A   1      36.132  21.974  24.694  1.00  0.00    -0.463 OA
BRANCH  77  78
ATOM     78  C   UNL A   1      35.260  22.555  23.834  1.00  0.00     0.313 C 
ATOM     79  O   UNL A   1      35.569  23.246  22.867  1.00  0.00    -0.252 OA
BRANCH  78  80
ATOM     80  C   UNL A   1      33.813  22.290  24.246  1.00  0.00     0.133 C 
BRANCH  80  81
ATOM     81  C   UNL A   1      33.618  20.922  24.968  1.00  0.00     0.055 C 
BRANCH  81  82
ATOM     82  C   UNL A   1      33.460  19.601  24.225  1.00  0.00    -0.044 A 
ATOM     83  C   UNL A   1      32.476  19.320  23.274  1.00  0.00     0.024 A 
ATOM     84  C   UNL A   1      34.385  18.578  24.490  1.00  0.00     0.024 A 
ATOM     85  C   UNL A   1      32.417  18.058  22.693  1.00  0.00     0.111 A 
ATOM     86  C   UNL A   1      34.273  17.359  23.829  1.00  0.00     0.111 A 
ATOM     87  N   UNL A   1      33.304  17.076  22.937  1.00  0.00    -0.265 NA
ENDBRANCH  81  82
ENDBRANCH  80  81
BRANCH  80  88
ATOM     88  C   UNL A   1      33.168  23.497  24.910  1.00  0.00    -0.033 A 
ATOM     89  C   UNL A   1      31.766  23.597  24.980  1.00  0.00     0.006 A 
ATOM     90  C   UNL A   1      33.939  24.521  25.478  1.00  0.00     0.006 A 
ATOM     91  C   UNL A   1      31.159  24.738  25.499  1.00  0.00     0.021 A 
ATOM     92  C   UNL A   1      33.332  25.657  26.005  1.00  0.00     0.021 A 
ATOM     93  C   UNL A   1      31.946  25.771  25.994  1.00  0.00     0.041 A 
ATOM     94  Cl  UNL A   1      31.206  27.202  26.589  1.00  0.00    -0.084 Cl
ENDBRANCH  80  88
ENDBRANCH  78  80
ENDBRANCH  77  78
ENDBRANCH  76  77
ENDBRANCH  75  76
ENDBRANCH  74  75
ENDBRANCH   1  74
TORSDOF 20
ENDMDL
MODEL 2
REMARK VINA RESULT:     -10.6      1.029      8.463
REMARK SMILES O=C(OCCOCCOC(=O)[C@@H](Cc1ccncc1)c1ccc(Cl)cc1)c1ccc(-c2c3nc(c(-c4c(F)cc(S(=O)(=O)[O-])cc4F)c4ccc([nH]4)c(-c4c(F)cc(S(=O)(=O)[O-])cc4F)c4nc(c(-c5c(F)cc(S(=O)(=O)[O-])cc5F)c5ccc2[nH]5)C=C4)C=C3)cc1
REMARK SMILES IDX 5 1 4 2 3 3 2 4 1 5 27 6 28 7 92 8 29 9 91 10 30 11 31 12
REMARK SMILES IDX 32 13 85 14 33 15 90 16 84 17 86 18 34 19 89 20 83 21 82 22
REMARK SMILES IDX 35 24 69 25 48 26 68 27 49 28 52 29 67 30 87 31 50 32 51 33
REMARK SMILES IDX 66 35 88 36 53 37 36 38 37 39 46 40 38 41 39 42 45 43 47 44
REMARK SMILES IDX 40 45 41 46 42 47 43 48 44 49 70 50 71 51 80 52 72 53 73 54
REMARK SMILES IDX 79 55 81 56 74 57 75 58 76 59 77 60 78 61 54 62 55 63 64 64
REMARK SMILES IDX 56 65 57 66 63 67 65 68 58 69 59 70 60 71 61 72 62 73 6 74
REMARK SMILES IDX 7 75 8 76 9 77 10 78 11 79 12 80 13 81 14 82 15 83 19 84
REMARK SMILES IDX 16 85 18 86 17 87 20 88 21 89 26 90 22 91 25 92 23 93 24 94
REMARK H PARENT 86 23 52 34
REMARK Flexibility Score: inf
ROOT
ATOM      1  C   UNL A   1      39.970  22.015  26.545  1.00  0.00     0.202 C 
ENDROOT
BRANCH   1   2
ATOM      2  C   UNL A   1      40.779  23.023  27.369  1.00  0.00     0.261 C 
BRANCH   2   3
ATOM      3  O   UNL A   1      41.351  24.032  26.519  1.00  0.00    -0.460 OA
BRANCH   3   4
ATOM      4  C   UNL A   1      41.068  25.358  26.507  1.00  0.00     0.338 C 
ATOM      5  O   UNL A   1      40.684  25.877  25.461  1.00  0.00    -0.246 OA
BRANCH   4   6
ATOM      6  C   UNL A   1      41.197  26.221  27.716  1.00  0.00     0.060 A 
ATOM      7  C   UNL A   1      40.283  26.225  28.764  1.00  0.00     0.016 A 
ATOM      8  C   UNL A   1      42.327  27.044  27.838  1.00  0.00     0.016 A 
ATOM      9  C   UNL A   1      40.422  27.017  29.869  1.00  0.00     0.010 A 
ATOM     10  C   UNL A   1      42.493  27.859  28.966  1.00  0.00     0.010 A 
ATOM     11  C   UNL A   1      41.521  27.846  29.971  1.00  0.00    -0.014 A 
BRANCH  11  12
ATOM     12  C   UNL A   1      41.415  28.817  31.061  1.00  0.00     0.031 A 
ATOM     13  C   UNL A   1      40.245  29.747  31.022  1.00  0.00     0.074 A 
ATOM     14  C   UNL A   1      42.146  28.610  32.171  1.00  0.00     0.049 A 
ATOM     15  N   UNL A   1      39.881  30.648  31.886  1.00  0.00    -0.248 NA
ATOM     16  C   UNL A   1      39.334  29.617  29.866  1.00  0.00     0.031 C 
ATOM     17  C   UNL A   1      43.132  27.532  32.342  1.00  0.00     0.029 A 
ATOM     18  N   UNL A   1      42.120  29.228  33.387  1.00  0.00    -0.354 N 
ATOM     19  C   UNL A   1      38.740  31.233  31.353  1.00  0.00     0.074 A 
ATOM     20  C   UNL A   1      38.449  30.571  30.105  1.00  0.00     0.031 C 
ATOM     21  C   UNL A   1      43.592  27.553  33.603  1.00  0.00     0.029 A 
ATOM     22  C   UNL A   1      43.006  28.692  34.292  1.00  0.00     0.049 A 
ATOM     23  H   UNL A   1      41.526  29.984  33.595  1.00  0.00     0.167 HD
ATOM     24  C   UNL A   1      38.026  32.257  31.868  1.00  0.00     0.037 A 
ATOM     25  C   UNL A   1      43.326  29.123  35.524  1.00  0.00     0.037 A 
ATOM     26  C   UNL A   1      38.362  32.866  33.125  1.00  0.00     0.049 A 
ATOM     27  C   UNL A   1      42.603  30.345  36.022  1.00  0.00     0.074 A 
ATOM     28  C   UNL A   1      37.805  33.972  33.731  1.00  0.00     0.029 A 
ATOM     29  N   UNL A   1      39.362  32.397  33.973  1.00  0.00    -0.354 N 
ATOM     30  N   UNL A   1      41.615  31.002  35.454  1.00  0.00    -0.248 NA
ATOM     31  C   UNL A   1      43.040  30.898  37.304  1.00  0.00     0.031 C 
ATOM     32  C   UNL A   1      38.505  34.205  34.921  1.00  0.00     0.029 A 
ATOM     33  C   UNL A   1      39.453  33.204  35.090  1.00  0.00     0.049 A 
ATOM     34  H   UNL A   1      39.921  31.606  33.802  1.00  0.00     0.167 HD
ATOM     35  C   UNL A   1      41.295  32.036  36.321  1.00  0.00     0.074 A 
ATOM     36  C   UNL A   1      42.189  31.902  37.459  1.00  0.00     0.031 C 
ATOM     37  C   UNL A   1      40.357  33.008  36.198  1.00  0.00     0.037 A 
BRANCH  24  38
ATOM     38  C   UNL A   1      36.935  32.829  31.012  1.00  0.00     0.058 A 
ATOM     39  C   UNL A   1      37.182  33.736  29.968  1.00  0.00     0.135 A 
ATOM     40  C   UNL A   1      35.596  32.508  31.293  1.00  0.00     0.135 A 
ATOM     41  F   UNL A   1      38.438  34.116  29.686  1.00  0.00    -0.206 F 
ATOM     42  C   UNL A   1      36.141  34.320  29.251  1.00  0.00     0.059 A 
ATOM     43  C   UNL A   1      34.542  33.059  30.574  1.00  0.00     0.059 A 
ATOM     44  F   UNL A   1      35.301  31.668  32.298  1.00  0.00    -0.206 F 
ATOM     45  C   UNL A   1      34.823  33.977  29.564  1.00  0.00     0.060 A 
BRANCH  45  46
ATOM     46  S   UNL A   1      33.481  34.753  28.638  1.00  0.00     0.124 S 
ATOM     47  O   UNL A   1      32.527  35.052  29.702  1.00  0.00    -0.237 OA
ATOM     48  O   UNL A   1      34.144  35.906  28.039  1.00  0.00    -0.237 OA
ATOM     49  O   UNL A   1      33.069  33.713  27.701  1.00  0.00    -0.744 OA
ENDBRANCH  45  46
ENDBRANCH  24  38
BRANCH  25  50
ATOM     50  C   UNL A   1      44.408  28.463  36.305  1.00  0.00     0.058 A 
ATOM     51  C   UNL A   1      44.143  27.394  37.173  1.00  0.00     0.135 A 
ATOM     52  C   UNL A   1      45.742  28.900  36.206  1.00  0.00     0.135 A 
ATOM     53  F   UNL A   1      42.890  26.936  37.311  1.00  0.00    -0.206 F 
ATOM     54  C   UNL A   1      45.152  26.797  37.927  1.00  0.00     0.059 A 
ATOM     55  C   UNL A   1      46.771  28.299  36.925  1.00  0.00     0.059 A 
ATOM     56  F   UNL A   1      46.060  29.914  35.387  1.00  0.00    -0.206 F 
ATOM     57  C   UNL A   1      46.463  27.258  37.796  1.00  0.00     0.060 A 
BRANCH  57  58
ATOM     58  S   UNL A   1      47.767  26.471  38.768  1.00  0.00     0.124 S 
ATOM     59  O   UNL A   1      46.995  25.816  39.817  1.00  0.00    -0.237 OA
ATOM     60  O   UNL A   1      48.389  25.589  37.786  1.00  0.00    -0.237 OA
ATOM     61  O   UNL A   1      48.591  27.596  39.200  1.00  0.00    -0.744 OA
ENDBRANCH  57  58
ENDBRANCH  25  50
BRANCH  37  62
ATOM     62  C   UNL A   1      40.219  33.953  37.352  1.00  0.00     0.058 A 
ATOM     63  C   UNL A   1      40.964  35.138  37.432  1.00  0.00     0.135 A 
ATOM     64  C   UNL A   1      39.285  33.684  38.365  1.00  0.00     0.135 A 
ATOM     65  F   UNL A   1      41.873  35.432  36.488  1.00  0.00    -0.206 F 
ATOM     66  C   UNL A   1      40.809  36.014  38.498  1.00  0.00     0.059 A 
ATOM     67  C   UNL A   1      39.089  34.563  39.420  1.00  0.00     0.059 A 
ATOM     68  F   UNL A   1      38.539  32.569  38.320  1.00  0.00    -0.206 F 
ATOM     69  C   UNL A   1      39.868  35.717  39.486  1.00  0.00     0.060 A 
BRANCH  69  70
ATOM     70  S   UNL A   1      39.655  36.876  40.851  1.00  0.00     0.124 S 
ATOM     71  O   UNL A   1      38.557  37.703  40.362  1.00  0.00    -0.237 OA
ATOM     72  O   UNL A   1      39.336  35.989  41.966  1.00  0.00    -0.237 OA
ATOM     73  O   UNL A   1      40.953  37.540  40.938  1.00  0.00    -0.744 OA
ENDBRANCH  69  70
ENDBRANCH  37  62
ENDBRANCH  11  12
ENDBRANCH   4   6
ENDBRANCH   3   4
ENDBRANCH   2   3
ENDBRANCH   1   2
BRANCH   1  74
ATOM     74  O   UNL A   1      38.744  22.476  25.981  1.00  0.00    -0.374 OA
BRANCH  74  75
ATOM     75  C   UNL A   1      37.896  21.495  25.388  1.00  0.00     0.202 C 
BRANCH  75  76
ATOM     76  C   UNL A   1      36.463  21.750  25.840  1.00  0.00     0.261 C 
BRANCH  76  77
ATOM     77  O   UNL A   1      35.573  21.066  24.941  1.00  0.00    -0.463 OA
BRANCH  77  78
ATOM     78  C   UNL A   1      34.736  21.807  24.175  1.00  0.00     0.313 C 
ATOM     79  O   UNL A   1      35.063  22.775  23.494  1.00  0.00    -0.252 OA
BRANCH  78  80
ATOM     80  C   UNL A   1      33.292  21.321  24.299  1.00  0.00     0.133 C 
BRANCH  80  81
ATOM     81  C   UNL A   1      33.121  20.150  25.315  1.00  0.00     0.055 C 
BRANCH  81  82
ATOM     82  C   UNL A   1      33.232  18.682  24.923  1.00  0.00    -0.044 A 
ATOM     83  C   UNL A   1      33.807  18.201  23.744  1.00  0.00     0.024 A 
ATOM     84  C   UNL A   1      32.741  17.718  25.819  1.00  0.00     0.024 A 
ATOM     85  C   UNL A   1      33.812  16.835  23.485  1.00  0.00     0.111 A 
ATOM     86  C   UNL A   1      32.827  16.368  25.494  1.00  0.00     0.111 A 
ATOM     87  N   UNL A   1      33.349  15.906  24.342  1.00  0.00    -0.265 NA
ENDBRANCH  81  82
ENDBRANCH  80  81
BRANCH  80  88
ATOM     88  C   UNL A   1      32.302  22.468  24.424  1.00  0.00    -0.033 A 
ATOM     89  C   UNL A   1      31.561  22.884  23.302  1.00  0.00     0.006 A 
ATOM     90  C   UNL A   1      32.089  23.124  25.645  1.00  0.00     0.006 A 
ATOM     91  C   UNL A   1      30.721  23.992  23.375  1.00  0.00     0.021 A 
ATOM     92  C   UNL A   1      31.242  24.226  25.720  1.00  0.00     0.021 A 
ATOM     93  C   UNL A   1      30.579  24.669  24.581  1.00  0.00     0.041 A 
ATOM     94  Cl  UNL A   1      29.584  26.066  24.667  1.00  0.00    -0.084 Cl
ENDBRANCH  80  88
ENDBRANCH  78  80
ENDBRANCH  77  78
ENDBRANCH  76  77
ENDBRANCH  75  76
ENDBRANCH  74  75
ENDBRANCH   1  74
TORSDOF 20
ENDMDL
MODEL 3
REMARK VINA RESULT:     -10.5      5.038      9.494
REMARK SMILES O=C(OCCOCCOC(=O)[C@@H](Cc1ccncc1)c1ccc(Cl)cc1)c1ccc(-c2c3nc(c(-c4c(F)cc(S(=O)(=O)[O-])cc4F)c4ccc([nH]4)c(-c4c(F)cc(S(=O)(=O)[O-])cc4F)c4nc(c(-c5c(F)cc(S(=O)(=O)[O-])cc5F)c5ccc2[nH]5)C=C4)C=C3)cc1
REMARK SMILES IDX 5 1 4 2 3 3 2 4 1 5 27 6 28 7 92 8 29 9 91 10 30 11 31 12
REMARK SMILES IDX 32 13 85 14 33 15 90 16 84 17 86 18 34 19 89 20 83 21 82 22
REMARK SMILES IDX 35 24 69 25 48 26 68 27 49 28 52 29 67 30 87 31 50 32 51 33
REMARK SMILES IDX 66 35 88 36 53 37 36 38 37 39 46 40 38 41 39 42 45 43 47 44
REMARK SMILES IDX 40 45 41 46 42 47 43 48 44 49 70 50 71 51 80 52 72 53 73 54
REMARK SMILES IDX 79 55 81 56 74 57 75 58 76 59 77 60 78 61 54 62 55 63 64 64
REMARK SMILES IDX 56 65 57 66 63 67 65 68 58 69 59 70 60 71 61 72 62 73 6 74
REMARK SMILES IDX 7 75 8 76 9 77 10 78 11 79 12 80 13 81 14 82 15 83 19 84
REMARK SMILES IDX 16 85 18 86 17 87 20 88 21 89 26 90 22 91 25 92 23 93 24 94
REMARK H PARENT 86 23 52 34
REMARK Flexibility Score: inf
ROOT
ATOM      1  C   UNL A   1      32.522  27.946  25.149  1.00  0.00     0.202 C 
ENDROOT
BRANCH   1   2
ATOM      2  C   UNL A   1      33.962  28.005  25.668  1.00  0.00     0.261 C 
BRANCH   2   3
ATOM      3  O   UNL A   1      33.987  28.364  27.061  1.00  0.00    -0.460 OA
BRANCH   3   4
ATOM      4  C   UNL A   1      34.588  29.440  27.625  1.00  0.00     0.338 C 
ATOM      5  O   UNL A   1      33.944  30.478  27.764  1.00  0.00    -0.246 OA
BRANCH   4   6
ATOM      6  C   UNL A   1      36.003  29.420  28.095  1.00  0.00     0.060 A 
ATOM      7  C   UNL A   1      37.095  29.666  27.269  1.00  0.00     0.016 A 
ATOM      8  C   UNL A   1      36.257  29.191  29.455  1.00  0.00     0.016 A 
ATOM      9  C   UNL A   1      38.385  29.652  27.719  1.00  0.00     0.010 A 
ATOM     10  C   UNL A   1      37.572  29.178  29.939  1.00  0.00     0.010 A 
ATOM     11  C   UNL A   1      38.632  29.397  29.054  1.00  0.00    -0.014 A 
BRANCH  11  12
ATOM     12  C   UNL A   1      40.045  29.154  29.345  1.00  0.00     0.031 A 
ATOM     13  C   UNL A   1      40.617  27.856  28.872  1.00  0.00     0.074 A 
ATOM     14  C   UNL A   1      40.810  30.202  29.702  1.00  0.00     0.049 A 
ATOM     15  N   UNL A   1      41.841  27.423  28.940  1.00  0.00    -0.248 NA
ATOM     16  C   UNL A   1      39.687  26.933  28.190  1.00  0.00     0.031 C 
ATOM     17  C   UNL A   1      40.316  31.569  29.926  1.00  0.00     0.029 A 
ATOM     18  N   UNL A   1      42.161  30.311  29.856  1.00  0.00    -0.354 N 
ATOM     19  C   UNL A   1      41.818  26.158  28.369  1.00  0.00     0.074 A 
ATOM     20  C   UNL A   1      40.468  25.897  27.932  1.00  0.00     0.031 C 
ATOM     21  C   UNL A   1      41.359  32.381  30.160  1.00  0.00     0.029 A 
ATOM     22  C   UNL A   1      42.572  31.579  30.193  1.00  0.00     0.049 A 
ATOM     23  H   UNL A   1      42.780  29.555  29.738  1.00  0.00     0.167 HD
ATOM     24  C   UNL A   1      42.847  25.290  28.256  1.00  0.00     0.037 A 
ATOM     25  C   UNL A   1      43.799  32.012  30.533  1.00  0.00     0.037 A 
ATOM     26  C   UNL A   1      44.173  25.616  28.701  1.00  0.00     0.049 A 
ATOM     27  C   UNL A   1      44.904  30.991  30.519  1.00  0.00     0.074 A 
ATOM     28  C   UNL A   1      45.294  24.815  28.751  1.00  0.00     0.029 A 
ATOM     29  N   UNL A   1      44.547  26.870  29.176  1.00  0.00    -0.354 N 
ATOM     30  N   UNL A   1      44.859  29.738  30.120  1.00  0.00    -0.248 NA
ATOM     31  C   UNL A   1      46.211  31.422  31.017  1.00  0.00     0.031 C 
ATOM     32  C   UNL A   1      46.333  25.569  29.308  1.00  0.00     0.029 A 
ATOM     33  C   UNL A   1      45.878  26.861  29.541  1.00  0.00     0.049 A 
ATOM     34  H   UNL A   1      43.950  27.650  29.241  1.00  0.00     0.167 HD
ATOM     35  C   UNL A   1      46.139  29.235  30.295  1.00  0.00     0.074 A 
ATOM     36  C   UNL A   1      46.936  30.329  30.824  1.00  0.00     0.031 C 
ATOM     37  C   UNL A   1      46.620  27.991  30.049  1.00  0.00     0.037 A 
BRANCH  24  38
ATOM     38  C   UNL A   1      42.527  23.910  27.761  1.00  0.00     0.058 A 
ATOM     39  C   UNL A   1      42.376  22.809  28.619  1.00  0.00     0.135 A 
ATOM     40  C   UNL A   1      42.435  23.676  26.379  1.00  0.00     0.135 A 
ATOM     41  F   UNL A   1      42.501  22.965  29.947  1.00  0.00    -0.206 F 
ATOM     42  C   UNL A   1      42.170  21.523  28.125  1.00  0.00     0.059 A 
ATOM     43  C   UNL A   1      42.205  22.406  25.863  1.00  0.00     0.059 A 
ATOM     44  F   UNL A   1      42.598  24.688  25.511  1.00  0.00    -0.206 F 
ATOM     45  C   UNL A   1      42.089  21.332  26.743  1.00  0.00     0.060 A 
BRANCH  45  46
ATOM     46  S   UNL A   1      41.838  19.659  26.113  1.00  0.00     0.124 S 
ATOM     47  O   UNL A   1      42.272  18.851  27.248  1.00  0.00    -0.237 OA
ATOM     48  O   UNL A   1      40.406  19.643  25.834  1.00  0.00    -0.237 OA
ATOM     49  O   UNL A   1      42.704  19.605  24.938  1.00  0.00    -0.744 OA
ENDBRANCH  45  46
ENDBRANCH  24  38
BRANCH  25  50
ATOM     50  C   UNL A   1      44.014  33.415  30.982  1.00  0.00     0.058 A 
ATOM     51  C   UNL A   1      44.342  34.436  30.079  1.00  0.00     0.135 A 
ATOM     52  C   UNL A   1      43.906  33.765  32.341  1.00  0.00     0.135 A 
ATOM     53  F   UNL A   1      44.462  34.162  28.771  1.00  0.00    -0.206 F 
ATOM     54  C   UNL A   1      44.574  35.743  30.504  1.00  0.00     0.059 A 
ATOM     55  C   UNL A   1      44.102  35.068  32.786  1.00  0.00     0.059 A 
ATOM     56  F   UNL A   1      43.588  32.833  33.253  1.00  0.00    -0.206 F 
ATOM     57  C   UNL A   1      44.452  36.048  31.862  1.00  0.00     0.060 A 
BRANCH  57  58
ATOM     58  S   UNL A   1      44.742  37.747  32.404  1.00  0.00     0.124 S 
ATOM     59  O   UNL A   1      45.996  37.611  33.135  1.00  0.00    -0.237 OA
ATOM     60  O   UNL A   1      44.816  38.464  31.135  1.00  0.00    -0.237 OA
ATOM     61  O   UNL A   1      43.567  38.047  33.217  1.00  0.00    -0.744 OA
ENDBRANCH  57  58
ENDBRANCH  25  50
BRANCH  37  62
ATOM     62  C   UNL A   1      48.083  27.780  30.292  1.00  0.00     0.058 A 
ATOM     63  C   UNL A   1      48.576  27.381  31.543  1.00  0.00     0.135 A 
ATOM     64  C   UNL A   1      48.994  27.932  29.234  1.00  0.00     0.135 A 
ATOM     65  F   UNL A   1      47.740  27.229  32.583  1.00  0.00    -0.206 F 
ATOM     66  C   UNL A   1      49.933  27.169  31.746  1.00  0.00     0.059 A 
ATOM     67  C   UNL A   1      50.349  27.691  29.407  1.00  0.00     0.059 A 
ATOM     68  F   UNL A   1      48.563  28.297  28.017  1.00  0.00    -0.206 F 
ATOM     69  C   UNL A   1      50.810  27.325  30.671  1.00  0.00     0.060 A 
BRANCH  69  70
ATOM     70  S   UNL A   1      52.566  27.020  30.940  1.00  0.00     0.124 S 
ATOM     71  O   UNL A   1      52.557  25.626  31.371  1.00  0.00    -0.237 OA
ATOM     72  O   UNL A   1      53.133  27.274  29.619  1.00  0.00    -0.237 OA
ATOM     73  O   UNL A   1      52.927  27.993  31.967  1.00  0.00    -0.744 OA
ENDBRANCH  69  70
ENDBRANCH  37  62
ENDBRANCH  11  12
ENDBRANCH   4   6
ENDBRANCH   3   4
ENDBRANCH   2   3
ENDBRANCH   1   2
BRANCH   1  74
ATOM     74  O   UNL A   1      32.146  26.784  24.412  1.00  0.00    -0.374 OA
BRANCH  74  75
ATOM     75  C   UNL A   1      32.415  25.521  25.016  1.00  0.00     0.202 C 
BRANCH  75  76
ATOM     76  C   UNL A   1      31.335  24.534  24.587  1.00  0.00     0.261 C 
BRANCH  76  77
ATOM     77  O   UNL A   1      31.940  23.242  24.415  1.00  0.00    -0.463 OA
BRANCH  77  78
ATOM     78  C   UNL A   1      31.567  22.239  25.247  1.00  0.00     0.313 C 
ATOM     79  O   UNL A   1      30.548  22.224  25.931  1.00  0.00    -0.252 OA
BRANCH  78  80
ATOM     80  C   UNL A   1      32.612  21.125  25.277  1.00  0.00     0.133 C 
BRANCH  80  81
ATOM     81  C   UNL A   1      32.412  20.060  24.156  1.00  0.00     0.055 C 
BRANCH  81  82
ATOM     82  C   UNL A   1      32.853  18.608  24.294  1.00  0.00    -0.044 A 
ATOM     83  C   UNL A   1      33.598  17.895  23.351  1.00  0.00     0.024 A 
ATOM     84  C   UNL A   1      32.510  17.921  25.470  1.00  0.00     0.024 A 
ATOM     85  C   UNL A   1      33.905  16.559  23.581  1.00  0.00     0.111 A 
ATOM     86  C   UNL A   1      32.897  16.595  25.632  1.00  0.00     0.111 A 
ATOM     87  N   UNL A   1      33.585  15.897  24.708  1.00  0.00    -0.265 NA
ENDBRANCH  81  82
ENDBRANCH  80  81
BRANCH  80  88
ATOM     88  C   UNL A   1      34.026  21.659  25.450  1.00  0.00    -0.033 A 
ATOM     89  C   UNL A   1      34.366  22.388  26.606  1.00  0.00     0.006 A 
ATOM     90  C   UNL A   1      35.019  21.431  24.488  1.00  0.00     0.006 A 
ATOM     91  C   UNL A   1      35.627  22.964  26.737  1.00  0.00     0.021 A 
ATOM     92  C   UNL A   1      36.282  21.999  24.624  1.00  0.00     0.021 A 
ATOM     93  C   UNL A   1      36.574  22.781  25.736  1.00  0.00     0.041 A 
ATOM     94  Cl  UNL A   1      38.114  23.531  25.867  1.00  0.00    -0.084 Cl
ENDBRANCH  80  88
ENDBRANCH  78  80
ENDBRANCH  77  78
ENDBRANCH  76  77
ENDBRANCH  75  76
ENDBRANCH  74  75
ENDBRANCH   1  74
TORSDOF 20
ENDMDL
