MODEL 1
REMARK VINA RESULT:     -10.3      0.000      0.000
REMARK SMILES C/C=C/C[C@H](Cc1cccc(F)c1)C(=O)OCCOCCOC(=O)c1ccc(-c2c3nc(c(-c4c(F)cc(S(=O)(=O)[O-])cc4F)c4ccc([nH]4)c(-c4c(F)cc(S(=O)(=O)[O-])cc4F)c4nc(c(-c5c(F)cc(S(=O)(=O)[O-])cc5F)c5ccc2[nH]5)C=C4)C=C3)cc1
REMARK SMILES IDX 20 1 19 2 18 3 17 4 16 5 14 6 15 7 5 8 4 9 3 10 1 11 2 12
REMARK SMILES IDX 6 13 7 14 8 15 13 16 9 17 11 18 10 19 12 20 21 21 22 22
REMARK SMILES IDX 23 23 24 24 25 25 26 26 90 27 27 28 89 29 28 30 29 31 30 32
REMARK SMILES IDX 83 33 31 34 88 35 82 36 84 37 32 38 87 39 81 40 80 41 33 43
REMARK SMILES IDX 67 44 46 45 66 46 47 47 50 48 65 49 85 50 48 51 49 52 64 54
REMARK SMILES IDX 86 55 51 56 34 57 35 58 44 59 36 60 37 61 43 62 45 63 38 64
REMARK SMILES IDX 39 65 40 66 41 67 42 68 68 69 69 70 78 71 70 72 71 73 77 74
REMARK SMILES IDX 79 75 72 76 73 77 74 78 75 79 76 80 52 81 53 82 62 83 54 84
REMARK SMILES IDX 55 85 61 86 63 87 56 88 57 89 58 90 59 91 60 92
REMARK H PARENT 84 42 50 53
REMARK Flexibility Score: inf
ROOT
ATOM      1  C   UNL A   1      39.299  22.011  26.500  1.00  0.00     0.202 C 
ENDROOT
BRANCH   1   2
ATOM      2  O   UNL A   1      38.564  21.867  25.290  1.00  0.00    -0.374 OA
BRANCH   2   3
ATOM      3  C   UNL A   1      37.202  22.302  25.310  1.00  0.00     0.202 C 
BRANCH   3   4
ATOM      4  C   UNL A   1      36.836  23.427  24.335  1.00  0.00     0.261 C 
BRANCH   4   5
ATOM      5  O   UNL A   1      35.649  24.132  24.755  1.00  0.00    -0.463 OA
BRANCH   5   6
ATOM      6  C   UNL A   1      34.620  24.194  23.865  1.00  0.00     0.309 C 
ATOM      7  O   UNL A   1      34.546  23.546  22.829  1.00  0.00    -0.252 OA
BRANCH   6   8
ATOM      8  C   UNL A   1      33.563  25.206  24.280  1.00  0.00     0.107 C 
BRANCH   8   9
ATOM      9  C   UNL A   1      33.802  25.507  25.770  1.00  0.00     0.042 C 
BRANCH   9  10
ATOM     10  C   UNL A   1      33.469  26.920  26.163  1.00  0.00    -0.031 C 
ATOM     11  C   UNL A   1      31.917  28.640  27.127  1.00  0.00     0.035 C 
ATOM     12  C   UNL A   1      32.318  27.248  26.769  1.00  0.00    -0.035 C 
ENDBRANCH   9  10
ENDBRANCH   8   9
BRANCH   8  13
ATOM     13  C   UNL A   1      32.128  24.743  23.941  1.00  0.00     0.051 C 
BRANCH  13  14
ATOM     14  C   UNL A   1      31.191  25.887  23.596  1.00  0.00    -0.044 A 
ATOM     15  C   UNL A   1      31.686  27.066  23.019  1.00  0.00     0.004 A 
ATOM     16  C   UNL A   1      29.820  25.809  23.880  1.00  0.00     0.043 A 
ATOM     17  C   UNL A   1      30.839  28.150  22.766  1.00  0.00     0.003 A 
ATOM     18  C   UNL A   1      28.988  26.899  23.640  1.00  0.00     0.123 A 
ATOM     19  C   UNL A   1      29.486  28.072  23.090  1.00  0.00     0.039 A 
ATOM     20  F   UNL A   1      27.689  26.818  23.958  1.00  0.00    -0.207 F 
ENDBRANCH  13  14
ENDBRANCH   8  13
ENDBRANCH   6   8
ENDBRANCH   5   6
ENDBRANCH   4   5
ENDBRANCH   3   4
ENDBRANCH   2   3
ENDBRANCH   1   2
BRANCH   1  21
ATOM     21  C   UNL A   1      40.366  23.113  26.536  1.00  0.00     0.261 C 
BRANCH  21  22
ATOM     22  O   UNL A   1      39.800  24.426  26.414  1.00  0.00    -0.460 OA
BRANCH  22  23
ATOM     23  C   UNL A   1      40.721  25.414  26.311  1.00  0.00     0.338 C 
ATOM     24  O   UNL A   1      41.318  25.762  25.299  1.00  0.00    -0.246 OA
BRANCH  23  25
ATOM     25  C   UNL A   1      40.810  26.168  27.573  1.00  0.00     0.060 A 
ATOM     26  C   UNL A   1      39.775  25.984  28.498  1.00  0.00     0.016 A 
ATOM     27  C   UNL A   1      41.832  27.088  27.822  1.00  0.00     0.016 A 
ATOM     28  C   UNL A   1      39.722  26.767  29.646  1.00  0.00     0.010 A 
ATOM     29  C   UNL A   1      41.774  27.877  28.975  1.00  0.00     0.010 A 
ATOM     30  C   UNL A   1      40.697  27.747  29.869  1.00  0.00    -0.014 A 
BRANCH  30  31
ATOM     31  C   UNL A   1      40.486  28.733  30.957  1.00  0.00     0.031 A 
ATOM     32  C   UNL A   1      41.376  28.678  32.168  1.00  0.00     0.074 A 
ATOM     33  C   UNL A   1      39.562  29.701  30.832  1.00  0.00     0.049 A 
ATOM     34  N   UNL A   1      41.381  29.445  33.227  1.00  0.00    -0.248 NA
ATOM     35  C   UNL A   1      42.401  27.621  32.187  1.00  0.00     0.031 C 
ATOM     36  C   UNL A   1      38.680  29.880  29.680  1.00  0.00     0.029 A 
ATOM     37  N   UNL A   1      39.219  30.723  31.682  1.00  0.00    -0.354 N 
ATOM     38  C   UNL A   1      42.406  28.966  34.035  1.00  0.00     0.074 A 
ATOM     39  C   UNL A   1      42.979  27.822  33.362  1.00  0.00     0.031 C 
ATOM     40  C   UNL A   1      37.896  30.951  29.893  1.00  0.00     0.029 A 
ATOM     41  C   UNL A   1      38.201  31.516  31.207  1.00  0.00     0.049 A 
ATOM     42  H   UNL A   1      39.659  30.873  32.549  1.00  0.00     0.167 HD
ATOM     43  C   UNL A   1      42.840  29.449  35.224  1.00  0.00     0.037 A 
ATOM     44  C   UNL A   1      37.581  32.570  31.774  1.00  0.00     0.037 A 
ATOM     45  C   UNL A   1      42.264  30.590  35.884  1.00  0.00     0.049 A 
ATOM     46  C   UNL A   1      38.029  33.044  33.130  1.00  0.00     0.074 A 
ATOM     47  C   UNL A   1      42.631  31.161  37.090  1.00  0.00     0.029 A 
ATOM     48  N   UNL A   1      41.198  31.334  35.398  1.00  0.00    -0.354 N 
ATOM     49  N   UNL A   1      39.000  32.583  33.883  1.00  0.00    -0.248 NA
ATOM     50  C   UNL A   1      37.301  34.178  33.717  1.00  0.00     0.031 C 
ATOM     51  C   UNL A   1      41.759  32.222  37.354  1.00  0.00     0.029 A 
ATOM     52  C   UNL A   1      40.879  32.343  36.289  1.00  0.00     0.049 A 
ATOM     53  H   UNL A   1      40.737  31.168  34.544  1.00  0.00     0.167 HD
ATOM     54  C   UNL A   1      39.013  33.381  35.022  1.00  0.00     0.074 A 
ATOM     55  C   UNL A   1      37.957  34.360  34.855  1.00  0.00     0.031 C 
ATOM     56  C   UNL A   1      39.823  33.309  36.107  1.00  0.00     0.037 A 
BRANCH  43  57
ATOM     57  C   UNL A   1      43.981  28.737  35.893  1.00  0.00     0.058 A 
ATOM     58  C   UNL A   1      43.736  27.679  36.784  1.00  0.00     0.135 A 
ATOM     59  C   UNL A   1      45.315  29.128  35.692  1.00  0.00     0.135 A 
ATOM     60  F   UNL A   1      42.482  27.258  37.006  1.00  0.00    -0.206 F 
ATOM     61  C   UNL A   1      44.773  27.043  37.460  1.00  0.00     0.059 A 
ATOM     62  C   UNL A   1      46.368  28.491  36.340  1.00  0.00     0.059 A 
ATOM     63  F   UNL A   1      45.604  30.117  34.832  1.00  0.00    -0.206 F 
ATOM     64  C   UNL A   1      46.086  27.457  37.232  1.00  0.00     0.060 A 
BRANCH  64  65
ATOM     65  S   UNL A   1      47.421  26.595  38.090  1.00  0.00     0.124 S 
ATOM     66  O   UNL A   1      46.975  26.656  39.477  1.00  0.00    -0.237 OA
ATOM     67  O   UNL A   1      47.384  25.276  37.467  1.00  0.00    -0.237 OA
ATOM     68  O   UNL A   1      48.600  27.396  37.771  1.00  0.00    -0.744 OA
ENDBRANCH  64  65
ENDBRANCH  43  57
BRANCH  44  69
ATOM     69  C   UNL A   1      36.472  33.244  31.049  1.00  0.00     0.058 A 
ATOM     70  C   UNL A   1      36.727  34.074  29.947  1.00  0.00     0.135 A 
ATOM     71  C   UNL A   1      35.142  33.109  31.472  1.00  0.00     0.135 A 
ATOM     72  F   UNL A   1      37.983  34.240  29.504  1.00  0.00    -0.206 F 
ATOM     73  C   UNL A   1      35.708  34.775  29.311  1.00  0.00     0.059 A 
ATOM     74  C   UNL A   1      34.101  33.783  30.838  1.00  0.00     0.059 A 
ATOM     75  F   UNL A   1      34.847  32.314  32.511  1.00  0.00    -0.206 F 
ATOM     76  C   UNL A   1      34.398  34.630  29.770  1.00  0.00     0.060 A 
BRANCH  76  77
ATOM     77  S   UNL A   1      33.097  35.580  28.956  1.00  0.00     0.124 S 
ATOM     78  O   UNL A   1      32.342  36.079  30.101  1.00  0.00    -0.237 OA
ATOM     79  O   UNL A   1      33.863  36.577  28.217  1.00  0.00    -0.237 OA
ATOM     80  O   UNL A   1      32.413  34.583  28.138  1.00  0.00    -0.744 OA
ENDBRANCH  76  77
ENDBRANCH  44  69
BRANCH  56  81
ATOM     81  C   UNL A   1      39.620  34.319  37.201  1.00  0.00     0.058 A 
ATOM     82  C   UNL A   1      40.190  35.599  37.103  1.00  0.00     0.135 A 
ATOM     83  C   UNL A   1      38.939  33.992  38.384  1.00  0.00     0.135 A 
ATOM     84  F   UNL A   1      40.856  35.961  35.995  1.00  0.00    -0.206 F 
ATOM     85  C   UNL A   1      40.113  36.511  38.150  1.00  0.00     0.059 A 
ATOM     86  C   UNL A   1      38.828  34.898  39.434  1.00  0.00     0.059 A 
ATOM     87  F   UNL A   1      38.368  32.785  38.521  1.00  0.00    -0.206 F 
ATOM     88  C   UNL A   1      39.434  36.148  39.315  1.00  0.00     0.060 A 
BRANCH  88  89
ATOM     89  S   UNL A   1      39.343  37.345  40.664  1.00  0.00     0.124 S 
ATOM     90  O   UNL A   1      38.407  38.327  40.129  1.00  0.00    -0.237 OA
ATOM     91  O   UNL A   1      38.846  36.529  41.767  1.00  0.00    -0.237 OA
ATOM     92  O   UNL A   1      40.722  37.802  40.805  1.00  0.00    -0.744 OA
ENDBRANCH  88  89
ENDBRANCH  56  81
ENDBRANCH  30  31
ENDBRANCH  23  25
ENDBRANCH  22  23
ENDBRANCH  21  22
ENDBRANCH   1  21
TORSDOF 21
ENDMDL
MODEL 2
REMARK VINA RESULT:     -10.2      5.052     12.067
REMARK SMILES C/C=C/C[C@H](Cc1cccc(F)c1)C(=O)OCCOCCOC(=O)c1ccc(-c2c3nc(c(-c4c(F)cc(S(=O)(=O)[O-])cc4F)c4ccc([nH]4)c(-c4c(F)cc(S(=O)(=O)[O-])cc4F)c4nc(c(-c5c(F)cc(S(=O)(=O)[O-])cc5F)c5ccc2[nH]5)C=C4)C=C3)cc1
REMARK SMILES IDX 20 1 19 2 18 3 17 4 16 5 14 6 15 7 5 8 4 9 3 10 1 11 2 12
REMARK SMILES IDX 6 13 7 14 8 15 13 16 9 17 11 18 10 19 12 20 21 21 22 22
REMARK SMILES IDX 23 23 24 24 25 25 26 26 90 27 27 28 89 29 28 30 29 31 30 32
REMARK SMILES IDX 83 33 31 34 88 35 82 36 84 37 32 38 87 39 81 40 80 41 33 43
REMARK SMILES IDX 67 44 46 45 66 46 47 47 50 48 65 49 85 50 48 51 49 52 64 54
REMARK SMILES IDX 86 55 51 56 34 57 35 58 44 59 36 60 37 61 43 62 45 63 38 64
REMARK SMILES IDX 39 65 40 66 41 67 42 68 68 69 69 70 78 71 70 72 71 73 77 74
REMARK SMILES IDX 79 75 72 76 73 77 74 78 75 79 76 80 52 81 53 82 62 83 54 84
REMARK SMILES IDX 55 85 61 86 63 87 56 88 57 89 58 90 59 91 60 92
REMARK H PARENT 84 42 50 53
REMARK Flexibility Score: inf
ROOT
ATOM      1  C   UNL A   1      33.913  34.670  29.434  1.00  0.00     0.202 C 
ENDROOT
BRANCH   1   2
ATOM      2  O   UNL A   1      32.893  34.988  30.374  1.00  0.00    -0.374 OA
BRANCH   2   3
ATOM      3  C   UNL A   1      33.271  34.998  31.753  1.00  0.00     0.202 C 
BRANCH   3   4
ATOM      4  C   UNL A   1      34.775  34.945  32.045  1.00  0.00     0.261 C 
BRANCH   4   5
ATOM      5  O   UNL A   1      35.217  33.601  32.329  1.00  0.00    -0.463 OA
BRANCH   5   6
ATOM      6  C   UNL A   1      36.485  33.276  31.955  1.00  0.00     0.309 C 
ATOM      7  O   UNL A   1      36.922  33.349  30.813  1.00  0.00    -0.252 OA
BRANCH   6   8
ATOM      8  C   UNL A   1      37.313  32.760  33.122  1.00  0.00     0.107 C 
BRANCH   8   9
ATOM      9  C   UNL A   1      38.716  33.374  32.971  1.00  0.00     0.042 C 
BRANCH   9  10
ATOM     10  C   UNL A   1      38.936  34.596  33.819  1.00  0.00    -0.031 C 
ATOM     11  C   UNL A   1      39.834  35.734  35.867  1.00  0.00     0.035 C 
ATOM     12  C   UNL A   1      39.636  34.563  34.963  1.00  0.00    -0.035 C 
ENDBRANCH   9  10
ENDBRANCH   8   9
BRANCH   8  13
ATOM     13  C   UNL A   1      37.295  31.219  33.230  1.00  0.00     0.051 C 
BRANCH  13  14
ATOM     14  C   UNL A   1      38.549  30.644  33.865  1.00  0.00    -0.044 A 
ATOM     15  C   UNL A   1      38.846  30.897  35.213  1.00  0.00     0.004 A 
ATOM     16  C   UNL A   1      39.455  29.881  33.115  1.00  0.00     0.043 A 
ATOM     17  C   UNL A   1      40.036  30.430  35.783  1.00  0.00     0.003 A 
ATOM     18  C   UNL A   1      40.643  29.436  33.687  1.00  0.00     0.123 A 
ATOM     19  C   UNL A   1      40.945  29.708  35.014  1.00  0.00     0.039 A 
ATOM     20  F   UNL A   1      41.515  28.745  32.940  1.00  0.00    -0.207 F 
ENDBRANCH  13  14
ENDBRANCH   8  13
ENDBRANCH   6   8
ENDBRANCH   5   6
ENDBRANCH   4   5
ENDBRANCH   3   4
ENDBRANCH   2   3
ENDBRANCH   1   2
BRANCH   1  21
ATOM     21  C   UNL A   1      33.701  33.415  28.578  1.00  0.00     0.261 C 
BRANCH  21  22
ATOM     22  O   UNL A   1      34.296  32.247  29.163  1.00  0.00    -0.460 OA
BRANCH  22  23
ATOM     23  C   UNL A   1      34.310  31.169  28.344  1.00  0.00     0.338 C 
ATOM     24  O   UNL A   1      33.452  30.851  27.530  1.00  0.00    -0.246 OA
BRANCH  23  25
ATOM     25  C   UNL A   1      35.607  30.475  28.429  1.00  0.00     0.060 A 
ATOM     26  C   UNL A   1      36.043  30.095  29.703  1.00  0.00     0.016 A 
ATOM     27  C   UNL A   1      36.415  30.266  27.308  1.00  0.00     0.016 A 
ATOM     28  C   UNL A   1      37.317  29.564  29.873  1.00  0.00     0.010 A 
ATOM     29  C   UNL A   1      37.698  29.736  27.481  1.00  0.00     0.010 A 
ATOM     30  C   UNL A   1      38.167  29.422  28.769  1.00  0.00    -0.014 A 
BRANCH  30  31
ATOM     31  C   UNL A   1      39.595  29.096  29.001  1.00  0.00     0.031 A 
ATOM     32  C   UNL A   1      40.476  30.124  29.657  1.00  0.00     0.074 A 
ATOM     33  C   UNL A   1      40.077  27.880  28.693  1.00  0.00     0.049 A 
ATOM     34  N   UNL A   1      41.743  30.050  29.967  1.00  0.00    -0.248 NA
ATOM     35  C   UNL A   1      39.843  31.405  30.015  1.00  0.00     0.031 C 
ATOM     36  C   UNL A   1      39.301  26.791  28.101  1.00  0.00     0.029 A 
ATOM     37  N   UNL A   1      41.335  27.354  28.845  1.00  0.00    -0.354 N 
ATOM     38  C   UNL A   1      42.059  31.268  30.558  1.00  0.00     0.074 A 
ATOM     39  C   UNL A   1      40.861  32.077  30.531  1.00  0.00     0.031 C 
ATOM     40  C   UNL A   1      40.100  25.722  27.943  1.00  0.00     0.029 A 
ATOM     41  C   UNL A   1      41.450  26.060  28.394  1.00  0.00     0.049 A 
ATOM     42  H   UNL A   1      42.085  27.855  29.239  1.00  0.00     0.167 HD
ATOM     43  C   UNL A   1      43.239  31.669  31.089  1.00  0.00     0.037 A 
ATOM     44  C   UNL A   1      42.523  25.247  28.342  1.00  0.00     0.037 A 
ATOM     45  C   UNL A   1      44.426  30.855  31.112  1.00  0.00     0.049 A 
ATOM     46  C   UNL A   1      43.844  25.740  28.870  1.00  0.00     0.074 A 
ATOM     47  C   UNL A   1      45.671  31.167  31.629  1.00  0.00     0.029 A 
ATOM     48  N   UNL A   1      44.516  29.570  30.596  1.00  0.00    -0.354 N 
ATOM     49  N   UNL A   1      44.129  26.893  29.426  1.00  0.00    -0.248 NA
ATOM     50  C   UNL A   1      44.990  24.825  28.763  1.00  0.00     0.031 C 
ATOM     51  C   UNL A   1      46.527  30.088  31.384  1.00  0.00     0.029 A 
ATOM     52  C   UNL A   1      45.802  29.084  30.760  1.00  0.00     0.049 A 
ATOM     53  H   UNL A   1      43.775  29.077  30.175  1.00  0.00     0.167 HD
ATOM     54  C   UNL A   1      45.479  26.837  29.753  1.00  0.00     0.074 A 
ATOM     55  C   UNL A   1      45.953  25.531  29.340  1.00  0.00     0.031 C 
ATOM     56  C   UNL A   1      46.257  27.780  30.341  1.00  0.00     0.037 A 
BRANCH  43  57
ATOM     57  C   UNL A   1      43.310  33.051  31.673  1.00  0.00     0.058 A 
ATOM     58  C   UNL A   1      43.745  34.134  30.891  1.00  0.00     0.135 A 
ATOM     59  C   UNL A   1      42.991  33.301  33.018  1.00  0.00     0.135 A 
ATOM     60  F   UNL A   1      44.052  33.954  29.597  1.00  0.00    -0.206 F 
ATOM     61  C   UNL A   1      43.874  35.412  31.426  1.00  0.00     0.059 A 
ATOM     62  C   UNL A   1      43.091  34.576  33.567  1.00  0.00     0.059 A 
ATOM     63  F   UNL A   1      42.547  32.306  33.801  1.00  0.00    -0.206 F 
ATOM     64  C   UNL A   1      43.545  35.623  32.766  1.00  0.00     0.060 A 
BRANCH  64  65
ATOM     65  S   UNL A   1      43.683  37.296  33.432  1.00  0.00     0.124 S 
ATOM     66  O   UNL A   1      44.895  37.199  34.238  1.00  0.00    -0.237 OA
ATOM     67  O   UNL A   1      43.787  38.101  32.219  1.00  0.00    -0.237 OA
ATOM     68  O   UNL A   1      42.440  37.464  34.180  1.00  0.00    -0.744 OA
ENDBRANCH  64  65
ENDBRANCH  43  57
BRANCH  44  69
ATOM     69  C   UNL A   1      42.382  23.881  27.771  1.00  0.00     0.058 A 
ATOM     70  C   UNL A   1      42.306  22.754  28.602  1.00  0.00     0.135 A 
ATOM     71  C   UNL A   1      42.366  23.674  26.384  1.00  0.00     0.135 A 
ATOM     72  F   UNL A   1      42.322  22.897  29.937  1.00  0.00    -0.206 F 
ATOM     73  C   UNL A   1      42.257  21.466  28.080  1.00  0.00     0.059 A 
ATOM     74  C   UNL A   1      42.293  22.396  25.838  1.00  0.00     0.059 A 
ATOM     75  F   UNL A   1      42.419  24.723  25.550  1.00  0.00    -0.206 F 
ATOM     76  C   UNL A   1      42.260  21.296  26.695  1.00  0.00     0.060 A 
BRANCH  76  77
ATOM     77  S   UNL A   1      42.234  19.615  26.040  1.00  0.00     0.124 S 
ATOM     78  O   UNL A   1      43.167  19.724  24.922  1.00  0.00    -0.237 OA
ATOM     79  O   UNL A   1      42.699  18.834  27.181  1.00  0.00    -0.237 OA
ATOM     80  O   UNL A   1      40.836  19.416  25.673  1.00  0.00    -0.744 OA
ENDBRANCH  76  77
ENDBRANCH  44  69
BRANCH  56  81
ATOM     81  C   UNL A   1      47.699  27.444  30.591  1.00  0.00     0.058 A 
ATOM     82  C   UNL A   1      48.666  27.672  29.597  1.00  0.00     0.135 A 
ATOM     83  C   UNL A   1      48.111  26.813  31.775  1.00  0.00     0.135 A 
ATOM     84  F   UNL A   1      48.323  28.267  28.443  1.00  0.00    -0.206 F 
ATOM     85  C   UNL A   1      49.985  27.265  29.760  1.00  0.00     0.059 A 
ATOM     86  C   UNL A   1      49.432  26.420  31.970  1.00  0.00     0.059 A 
ATOM     87  F   UNL A   1      47.227  26.583  32.759  1.00  0.00    -0.206 F 
ATOM     88  C   UNL A   1      50.357  26.634  30.948  1.00  0.00     0.060 A 
BRANCH  88  89
ATOM     89  S   UNL A   1      52.075  26.113  31.143  1.00  0.00     0.124 S 
ATOM     90  O   UNL A   1      52.604  27.149  32.023  1.00  0.00    -0.237 OA
ATOM     91  O   UNL A   1      51.930  24.788  31.738  1.00  0.00    -0.237 OA
ATOM     92  O   UNL A   1      52.589  26.124  29.777  1.00  0.00    -0.744 OA
ENDBRANCH  88  89
ENDBRANCH  56  81
ENDBRANCH  30  31
ENDBRANCH  23  25
ENDBRANCH  22  23
ENDBRANCH  21  22
ENDBRANCH   1  21
TORSDOF 21
ENDMDL
MODEL 3
REMARK VINA RESULT:     -10.0      1.731      2.943
REMARK SMILES C/C=C/C[C@H](Cc1cccc(F)c1)C(=O)OCCOCCOC(=O)c1ccc(-c2c3nc(c(-c4c(F)cc(S(=O)(=O)[O-])cc4F)c4ccc([nH]4)c(-c4c(F)cc(S(=O)(=O)[O-])cc4F)c4nc(c(-c5c(F)cc(S(=O)(=O)[O-])cc5F)c5ccc2[nH]5)C=C4)C=C3)cc1
REMARK SMILES IDX 20 1 19 2 18 3 17 4 16 5 14 6 15 7 5 8 4 9 3 10 1 11 2 12
REMARK SMILES IDX 6 13 7 14 8 15 13 16 9 17 11 18 10 19 12 20 21 21 22 22
REMARK SMILES IDX 23 23 24 24 25 25 26 26 90 27 27 28 89 29 28 30 29 31 30 32
REMARK SMILES IDX 83 33 31 34 88 35 82 36 84 37 32 38 87 39 81 40 80 41 33 43
REMARK SMILES IDX 67 44 46 45 66 46 47 47 50 48 65 49 85 50 48 51 49 52 64 54
REMARK SMILES IDX 86 55 51 56 34 57 35 58 44 59 36 60 37 61 43 62 45 63 38 64
REMARK SMILES IDX 39 65 40 66 41 67 42 68 68 69 69 70 78 71 70 72 71 73 77 74
REMARK SMILES IDX 79 75 72 76 73 77 74 78 75 79 76 80 52 81 53 82 62 83 54 84
REMARK SMILES IDX 55 85 61 86 63 87 56 88 57 89 58 90 59 91 60 92
REMARK H PARENT 84 42 50 53
REMARK Flexibility Score: inf
ROOT
ATOM      1  C   UNL A   1      39.759  22.178  26.746  1.00  0.00     0.202 C 
ENDROOT
BRANCH   1   2
ATOM      2  O   UNL A   1      39.186  21.683  25.542  1.00  0.00    -0.374 OA
BRANCH   2   3
ATOM      3  C   UNL A   1      37.818  21.271  25.603  1.00  0.00     0.202 C 
BRANCH   3   4
ATOM      4  C   UNL A   1      36.795  22.221  24.969  1.00  0.00     0.261 C 
BRANCH   4   5
ATOM      5  O   UNL A   1      35.560  21.545  24.656  1.00  0.00    -0.463 OA
BRANCH   5   6
ATOM      6  C   UNL A   1      34.596  21.541  25.618  1.00  0.00     0.309 C 
ATOM      7  O   UNL A   1      34.791  21.742  26.810  1.00  0.00    -0.252 OA
BRANCH   6   8
ATOM      8  C   UNL A   1      33.223  21.214  25.053  1.00  0.00     0.107 C 
BRANCH   8   9
ATOM      9  C   UNL A   1      32.935  19.747  25.415  1.00  0.00     0.042 C 
BRANCH   9  10
ATOM     10  C   UNL A   1      33.072  18.799  24.256  1.00  0.00    -0.031 C 
ATOM     11  C   UNL A   1      34.079  16.780  23.157  1.00  0.00     0.035 C 
ATOM     12  C   UNL A   1      33.865  17.718  24.298  1.00  0.00    -0.035 C 
ENDBRANCH   9  10
ENDBRANCH   8   9
BRANCH   8  13
ATOM     13  C   UNL A   1      33.106  21.538  23.546  1.00  0.00     0.051 C 
BRANCH  13  14
ATOM     14  C   UNL A   1      32.578  22.935  23.268  1.00  0.00    -0.044 A 
ATOM     15  C   UNL A   1      31.224  23.239  23.476  1.00  0.00     0.004 A 
ATOM     16  C   UNL A   1      33.417  23.938  22.765  1.00  0.00     0.043 A 
ATOM     17  C   UNL A   1      30.718  24.504  23.154  1.00  0.00     0.003 A 
ATOM     18  C   UNL A   1      32.901  25.187  22.432  1.00  0.00     0.123 A 
ATOM     19  C   UNL A   1      31.556  25.478  22.617  1.00  0.00     0.039 A 
ATOM     20  F   UNL A   1      33.712  26.118  21.912  1.00  0.00    -0.207 F 
ENDBRANCH  13  14
ENDBRANCH   8  13
ENDBRANCH   6   8
ENDBRANCH   5   6
ENDBRANCH   4   5
ENDBRANCH   3   4
ENDBRANCH   2   3
ENDBRANCH   1   2
BRANCH   1  21
ATOM     21  C   UNL A   1      41.291  22.189  26.832  1.00  0.00     0.261 C 
BRANCH  21  22
ATOM     22  O   UNL A   1      41.789  23.308  27.582  1.00  0.00    -0.460 OA
BRANCH  22  23
ATOM     23  C   UNL A   1      41.806  24.471  26.889  1.00  0.00     0.338 C 
ATOM     24  O   UNL A   1      42.032  24.614  25.694  1.00  0.00    -0.246 OA
BRANCH  23  25
ATOM     25  C   UNL A   1      41.340  25.581  27.738  1.00  0.00     0.060 A 
ATOM     26  C   UNL A   1      42.183  26.693  27.849  1.00  0.00     0.016 A 
ATOM     27  C   UNL A   1      40.150  25.513  28.468  1.00  0.00     0.016 A 
ATOM     28  C   UNL A   1      41.873  27.715  28.740  1.00  0.00     0.010 A 
ATOM     29  C   UNL A   1      39.843  26.540  29.368  1.00  0.00     0.010 A 
ATOM     30  C   UNL A   1      40.724  27.622  29.536  1.00  0.00    -0.014 A 
BRANCH  30  31
ATOM     31  C   UNL A   1      40.544  28.585  30.650  1.00  0.00     0.031 A 
ATOM     32  C   UNL A   1      41.456  28.492  31.842  1.00  0.00     0.074 A 
ATOM     33  C   UNL A   1      39.628  29.564  30.566  1.00  0.00     0.049 A 
ATOM     34  N   UNL A   1      41.488  29.234  32.918  1.00  0.00    -0.248 NA
ATOM     35  C   UNL A   1      42.470  27.425  31.817  1.00  0.00     0.031 C 
ATOM     36  C   UNL A   1      38.726  29.779  29.434  1.00  0.00     0.029 A 
ATOM     37  N   UNL A   1      39.311  30.569  31.445  1.00  0.00    -0.354 N 
ATOM     38  C   UNL A   1      42.524  28.726  33.695  1.00  0.00     0.074 A 
ATOM     39  C   UNL A   1      43.072  27.592  32.985  1.00  0.00     0.031 C 
ATOM     40  C   UNL A   1      37.958  30.852  29.687  1.00  0.00     0.029 A 
ATOM     41  C   UNL A   1      38.293  31.383  31.008  1.00  0.00     0.049 A 
ATOM     42  H   UNL A   1      39.769  30.695  32.307  1.00  0.00     0.167 HD
ATOM     43  C   UNL A   1      42.984  29.177  34.887  1.00  0.00     0.037 A 
ATOM     44  C   UNL A   1      37.694  32.429  31.611  1.00  0.00     0.037 A 
ATOM     45  C   UNL A   1      42.433  30.308  35.585  1.00  0.00     0.049 A 
ATOM     46  C   UNL A   1      38.173  32.867  32.969  1.00  0.00     0.074 A 
ATOM     47  C   UNL A   1      42.829  30.846  36.796  1.00  0.00     0.029 A 
ATOM     48  N   UNL A   1      41.366  31.073  35.136  1.00  0.00    -0.354 N 
ATOM     49  N   UNL A   1      39.153  32.379  33.693  1.00  0.00    -0.248 NA
ATOM     50  C   UNL A   1      37.467  33.994  33.596  1.00  0.00     0.031 C 
ATOM     51  C   UNL A   1      41.973  31.909  37.102  1.00  0.00     0.029 A 
ATOM     52  C   UNL A   1      41.074  32.064  36.057  1.00  0.00     0.049 A 
ATOM     53  H   UNL A   1      40.887  30.931  34.287  1.00  0.00     0.167 HD
ATOM     54  C   UNL A   1      39.194  33.149  34.849  1.00  0.00     0.074 A 
ATOM     55  C   UNL A   1      38.146  34.142  34.726  1.00  0.00     0.031 C 
ATOM     56  C   UNL A   1      40.025  33.045  35.917  1.00  0.00     0.037 A 
BRANCH  43  57
ATOM     57  C   UNL A   1      44.131  28.438  35.518  1.00  0.00     0.058 A 
ATOM     58  C   UNL A   1      45.456  28.780  35.206  1.00  0.00     0.135 A 
ATOM     59  C   UNL A   1      43.920  27.362  36.397  1.00  0.00     0.135 A 
ATOM     60  F   UNL A   1      45.715  29.805  34.381  1.00  0.00    -0.206 F 
ATOM     61  C   UNL A   1      46.533  28.073  35.733  1.00  0.00     0.059 A 
ATOM     62  C   UNL A   1      44.983  26.656  36.953  1.00  0.00     0.059 A 
ATOM     63  F   UNL A   1      42.673  27.011  36.746  1.00  0.00    -0.206 F 
ATOM     64  C   UNL A   1      46.286  27.011  36.605  1.00  0.00     0.060 A 
BRANCH  64  65
ATOM     65  S   UNL A   1      47.696  26.129  37.309  1.00  0.00     0.124 S 
ATOM     66  O   UNL A   1      47.149  24.791  37.500  1.00  0.00    -0.237 OA
ATOM     67  O   UNL A   1      48.697  26.264  36.255  1.00  0.00    -0.237 OA
ATOM     68  O   UNL A   1      47.983  26.874  38.532  1.00  0.00    -0.744 OA
ENDBRANCH  64  65
ENDBRANCH  43  57
BRANCH  44  69
ATOM     69  C   UNL A   1      36.578  33.131  30.923  1.00  0.00     0.058 A 
ATOM     70  C   UNL A   1      36.823  33.996  29.846  1.00  0.00     0.135 A 
ATOM     71  C   UNL A   1      35.253  32.987  31.360  1.00  0.00     0.135 A 
ATOM     72  F   UNL A   1      38.074  34.171  29.392  1.00  0.00    -0.206 F 
ATOM     73  C   UNL A   1      35.798  34.722  29.247  1.00  0.00     0.059 A 
ATOM     74  C   UNL A   1      34.208  33.686  30.761  1.00  0.00     0.059 A 
ATOM     75  F   UNL A   1      34.969  32.159  32.376  1.00  0.00    -0.206 F 
ATOM     76  C   UNL A   1      34.495  34.566  29.718  1.00  0.00     0.060 A 
BRANCH  76  77
ATOM     77  S   UNL A   1      33.187  35.547  28.953  1.00  0.00     0.124 S 
ATOM     78  O   UNL A   1      32.418  35.969  30.120  1.00  0.00    -0.237 OA
ATOM     79  O   UNL A   1      33.945  36.595  28.279  1.00  0.00    -0.237 OA
ATOM     80  O   UNL A   1      32.519  34.593  28.072  1.00  0.00    -0.744 OA
ENDBRANCH  76  77
ENDBRANCH  44  69
BRANCH  56  81
ATOM     81  C   UNL A   1      39.852  34.030  37.038  1.00  0.00     0.058 A 
ATOM     82  C   UNL A   1      39.109  33.687  38.179  1.00  0.00     0.135 A 
ATOM     83  C   UNL A   1      40.345  35.341  36.944  1.00  0.00     0.135 A 
ATOM     84  F   UNL A   1      38.611  32.448  38.316  1.00  0.00    -0.206 F 
ATOM     85  C   UNL A   1      38.839  34.617  39.177  1.00  0.00     0.059 A 
ATOM     86  C   UNL A   1      40.109  36.281  37.943  1.00  0.00     0.059 A 
ATOM     87  F   UNL A   1      41.071  35.713  35.878  1.00  0.00    -0.206 F 
ATOM     88  C   UNL A   1      39.339  35.914  39.047  1.00  0.00     0.060 A 
BRANCH  88  89
ATOM     89  S   UNL A   1      38.981  37.109  40.353  1.00  0.00     0.124 S 
ATOM     90  O   UNL A   1      40.319  37.451  40.820  1.00  0.00    -0.237 OA
ATOM     91  O   UNL A   1      38.274  38.158  39.625  1.00  0.00    -0.237 OA
ATOM     92  O   UNL A   1      38.161  36.348  41.292  1.00  0.00    -0.744 OA
ENDBRANCH  88  89
ENDBRANCH  56  81
ENDBRANCH  30  31
ENDBRANCH  23  25
ENDBRANCH  22  23
ENDBRANCH  21  22
ENDBRANCH   1  21
TORSDOF 21
ENDMDL
