MODEL 1
REMARK VINA RESULT:     -10.6      0.000      0.000
REMARK SMILES O=C(OCCOCCOC(=O)C1CCN(C(=O)CSCc2ccccc2)CC1)c1ccc(-c2c3nc(c(-c4c(F)cc(S(=O)(=O)[O-])cc4F)c4ccc([nH]4)c(-c4c(F)cc(S(=O)(=O)[O-])cc4F)c4nc(c(-c5c(F)cc(S(=O)(=O)[O-])cc5F)c5ccc2[nH]5)C=C4)C=C3)cc1
REMARK SMILES IDX 7 1 6 2 5 3 4 4 3 5 2 6 1 7 29 8 30 9 94 10 31 11 93 12
REMARK SMILES IDX 32 13 33 14 34 15 87 16 35 17 92 18 86 19 88 20 36 21 91 22
REMARK SMILES IDX 85 23 84 24 37 26 71 27 50 28 70 29 51 30 54 31 69 32 89 33
REMARK SMILES IDX 52 34 53 35 68 37 90 38 55 39 38 40 39 41 48 42 40 43 41 44
REMARK SMILES IDX 47 45 49 46 42 47 43 48 44 49 45 50 46 51 72 52 73 53 82 54
REMARK SMILES IDX 74 55 75 56 81 57 83 58 76 59 77 60 78 61 79 62 80 63 56 64
REMARK SMILES IDX 57 65 66 66 58 67 59 68 65 69 67 70 60 71 61 72 62 73 63 74
REMARK SMILES IDX 64 75 8 76 9 77 10 78 11 79 12 80 13 81 28 82 14 83 27 84
REMARK SMILES IDX 15 85 16 86 17 87 18 88 19 89 20 90 21 91 22 92 26 93 23 94
REMARK SMILES IDX 25 95 24 96
REMARK H PARENT 88 25 54 36
REMARK Flexibility Score: inf
ROOT
ATOM      1  C   UNL A   1      31.024  31.022  25.806  1.00  0.00     0.202 C 
ENDROOT
BRANCH   1   2
ATOM      2  O   UNL A   1      31.977  31.551  26.723  1.00  0.00    -0.374 OA
BRANCH   2   3
ATOM      3  C   UNL A   1      32.946  30.653  27.233  1.00  0.00     0.202 C 
BRANCH   3   4
ATOM      4  C   UNL A   1      34.383  31.123  27.489  1.00  0.00     0.261 C 
BRANCH   4   5
ATOM      5  O   UNL A   1      35.110  30.248  28.376  1.00  0.00    -0.460 OA
BRANCH   5   6
ATOM      6  C   UNL A   1      35.903  30.680  29.399  1.00  0.00     0.338 C 
ATOM      7  O   UNL A   1      35.450  31.358  30.316  1.00  0.00    -0.246 OA
BRANCH   6   8
ATOM      8  C   UNL A   1      37.327  30.286  29.389  1.00  0.00     0.060 A 
ATOM      9  C   UNL A   1      38.036  30.395  28.207  1.00  0.00     0.016 A 
ATOM     10  C   UNL A   1      37.980  29.794  30.511  1.00  0.00     0.016 A 
ATOM     11  C   UNL A   1      39.201  29.716  28.000  1.00  0.00     0.010 A 
ATOM     12  C   UNL A   1      39.315  29.388  30.384  1.00  0.00     0.010 A 
ATOM     13  C   UNL A   1      39.920  29.335  29.114  1.00  0.00    -0.014 A 
BRANCH  13  14
ATOM     14  C   UNL A   1      41.325  28.967  28.874  1.00  0.00     0.031 A 
ATOM     15  C   UNL A   1      42.373  30.008  29.051  1.00  0.00     0.074 A 
ATOM     16  C   UNL A   1      41.621  27.675  28.602  1.00  0.00     0.049 A 
ATOM     17  N   UNL A   1      43.628  29.959  28.716  1.00  0.00    -0.248 NA
ATOM     18  C   UNL A   1      41.960  31.277  29.680  1.00  0.00     0.031 C 
ATOM     19  C   UNL A   1      40.651  26.567  28.546  1.00  0.00     0.029 A 
ATOM     20  N   UNL A   1      42.816  27.056  28.355  1.00  0.00    -0.354 N 
ATOM     21  C   UNL A   1      44.138  31.213  29.013  1.00  0.00     0.074 A 
ATOM     22  C   UNL A   1      43.070  31.994  29.590  1.00  0.00     0.031 C 
ATOM     23  C   UNL A   1      41.293  25.411  28.337  1.00  0.00     0.029 A 
ATOM     24  C   UNL A   1      42.688  25.712  28.079  1.00  0.00     0.049 A 
ATOM     25  H   UNL A   1      43.681  27.524  28.372  1.00  0.00     0.167 HD
ATOM     26  C   UNL A   1      45.391  31.655  28.778  1.00  0.00     0.037 A 
ATOM     27  C   UNL A   1      43.578  24.841  27.574  1.00  0.00     0.037 A 
ATOM     28  C   UNL A   1      46.418  30.812  28.228  1.00  0.00     0.049 A 
ATOM     29  C   UNL A   1      44.937  25.387  27.250  1.00  0.00     0.074 A 
ATOM     30  C   UNL A   1      47.725  31.135  27.922  1.00  0.00     0.029 A 
ATOM     31  N   UNL A   1      46.242  29.472  27.903  1.00  0.00    -0.354 N 
ATOM     32  N   UNL A   1      45.407  26.595  27.468  1.00  0.00    -0.248 NA
ATOM     33  C   UNL A   1      45.876  24.481  26.585  1.00  0.00     0.031 C 
ATOM     34  C   UNL A   1      48.323  30.004  27.359  1.00  0.00     0.029 A 
ATOM     35  C   UNL A   1      47.407  28.960  27.368  1.00  0.00     0.049 A 
ATOM     36  H   UNL A   1      45.410  28.963  28.036  1.00  0.00     0.167 HD
ATOM     37  C   UNL A   1      46.697  26.596  26.965  1.00  0.00     0.074 A 
ATOM     38  C   UNL A   1      46.946  25.255  26.467  1.00  0.00     0.031 C 
ATOM     39  C   UNL A   1      47.596  27.609  26.901  1.00  0.00     0.037 A 
BRANCH  26  40
ATOM     40  C   UNL A   1      45.681  33.104  29.022  1.00  0.00     0.058 A 
ATOM     41  C   UNL A   1      46.166  33.581  30.248  1.00  0.00     0.135 A 
ATOM     42  C   UNL A   1      45.488  34.032  27.985  1.00  0.00     0.135 A 
ATOM     43  F   UNL A   1      46.323  32.745  31.285  1.00  0.00    -0.206 F 
ATOM     44  C   UNL A   1      46.462  34.929  30.434  1.00  0.00     0.059 A 
ATOM     45  C   UNL A   1      45.798  35.378  28.140  1.00  0.00     0.059 A 
ATOM     46  F   UNL A   1      44.996  33.630  26.802  1.00  0.00    -0.206 F 
ATOM     47  C   UNL A   1      46.286  35.817  29.370  1.00  0.00     0.060 A 
BRANCH  47  48
ATOM     48  S   UNL A   1      46.733  37.549  29.608  1.00  0.00     0.124 S 
ATOM     49  O   UNL A   1      45.613  38.032  30.412  1.00  0.00    -0.237 OA
ATOM     50  O   UNL A   1      48.012  37.444  30.301  1.00  0.00    -0.237 OA
ATOM     51  O   UNL A   1      46.799  38.074  28.248  1.00  0.00    -0.744 OA
ENDBRANCH  47  48
ENDBRANCH  26  40
BRANCH  27  52
ATOM     52  C   UNL A   1      43.182  23.447  27.222  1.00  0.00     0.058 A 
ATOM     53  C   UNL A   1      43.080  22.447  28.199  1.00  0.00     0.135 A 
ATOM     54  C   UNL A   1      42.926  23.075  25.888  1.00  0.00     0.135 A 
ATOM     55  F   UNL A   1      43.311  22.744  29.486  1.00  0.00    -0.206 F 
ATOM     56  C   UNL A   1      42.783  21.128  27.867  1.00  0.00     0.059 A 
ATOM     57  C   UNL A   1      42.589  21.773  25.536  1.00  0.00     0.059 A 
ATOM     58  F   UNL A   1      42.991  23.988  24.906  1.00  0.00    -0.206 F 
ATOM     59  C   UNL A   1      42.547  20.799  26.531  1.00  0.00     0.060 A 
BRANCH  59  60
ATOM     60  S   UNL A   1      42.189  19.081  26.103  1.00  0.00     0.124 S 
ATOM     61  O   UNL A   1      43.066  18.878  24.956  1.00  0.00    -0.237 OA
ATOM     62  O   UNL A   1      42.564  18.376  27.325  1.00  0.00    -0.237 OA
ATOM     63  O   UNL A   1      40.759  19.097  25.811  1.00  0.00    -0.744 OA
ENDBRANCH  59  60
ENDBRANCH  27  52
BRANCH  39  64
ATOM     64  C   UNL A   1      48.925  27.283  26.293  1.00  0.00     0.058 A 
ATOM     65  C   UNL A   1      49.964  26.739  27.063  1.00  0.00     0.135 A 
ATOM     66  C   UNL A   1      49.129  27.452  24.917  1.00  0.00     0.135 A 
ATOM     67  F   UNL A   1      49.813  26.575  28.386  1.00  0.00    -0.206 F 
ATOM     68  C   UNL A   1      51.173  26.382  26.484  1.00  0.00     0.059 A 
ATOM     69  C   UNL A   1      50.318  27.069  24.312  1.00  0.00     0.059 A 
ATOM     70  F   UNL A   1      48.157  27.962  24.144  1.00  0.00    -0.206 F 
ATOM     71  C   UNL A   1      51.336  26.541  25.105  1.00  0.00     0.060 A 
BRANCH  71  72
ATOM     72  S   UNL A   1      52.888  26.013  24.358  1.00  0.00     0.124 S 
ATOM     73  O   UNL A   1      53.792  27.079  24.774  1.00  0.00    -0.237 OA
ATOM     74  O   UNL A   1      53.107  24.713  24.986  1.00  0.00    -0.237 OA
ATOM     75  O   UNL A   1      52.580  25.969  22.932  1.00  0.00    -0.744 OA
ENDBRANCH  71  72
ENDBRANCH  39  64
ENDBRANCH  13  14
ENDBRANCH   6   8
ENDBRANCH   5   6
ENDBRANCH   4   5
ENDBRANCH   3   4
ENDBRANCH   2   3
ENDBRANCH   1   2
BRANCH   1  76
ATOM     76  C   UNL A   1      31.628  29.799  25.128  1.00  0.00     0.261 C 
BRANCH  76  77
ATOM     77  O   UNL A   1      30.760  29.429  24.038  1.00  0.00    -0.463 OA
BRANCH  77  78
ATOM     78  C   UNL A   1      31.330  28.666  23.067  1.00  0.00     0.309 C 
ATOM     79  O   UNL A   1      32.301  28.996  22.401  1.00  0.00    -0.252 OA
BRANCH  78  80
ATOM     80  C   UNL A   1      30.568  27.359  22.856  1.00  0.00     0.103 C 
ATOM     81  C   UNL A   1      29.851  26.776  24.091  1.00  0.00     0.037 C 
ATOM     82  C   UNL A   1      31.435  26.322  22.127  1.00  0.00     0.037 C 
ATOM     83  C   UNL A   1      30.531  25.631  24.846  1.00  0.00     0.120 C 
ATOM     84  C   UNL A   1      32.227  25.421  23.056  1.00  0.00     0.120 C 
ATOM     85  N   UNL A   1      31.364  24.761  24.026  1.00  0.00    -0.342 N 
ATOM     86  C   UNL A   1      31.437  23.413  24.374  1.00  0.00     0.232 C 
ATOM     87  O   UNL A   1      30.758  22.960  25.302  1.00  0.00    -0.274 OA
BRANCH  86  88
ATOM     88  C   UNL A   1      32.399  22.485  23.642  1.00  0.00     0.169 C 
BRANCH  88  89
ATOM     89  S   UNL A   1      33.837  21.929  24.618  1.00  0.00    -0.147 SA
BRANCH  89  90
ATOM     90  C   UNL A   1      33.175  20.412  25.373  1.00  0.00     0.105 C 
BRANCH  90  91
ATOM     91  C   UNL A   1      33.400  19.202  24.511  1.00  0.00    -0.038 A 
ATOM     92  C   UNL A   1      34.570  18.439  24.652  1.00  0.00     0.004 A 
ATOM     93  C   UNL A   1      32.457  18.827  23.547  1.00  0.00     0.004 A 
ATOM     94  C   UNL A   1      34.776  17.304  23.873  1.00  0.00     0.000 A 
ATOM     95  C   UNL A   1      32.674  17.700  22.753  1.00  0.00     0.000 A 
ATOM     96  C   UNL A   1      33.828  16.937  22.922  1.00  0.00     0.000 A 
ENDBRANCH  90  91
ENDBRANCH  89  90
ENDBRANCH  88  89
ENDBRANCH  86  88
ENDBRANCH  78  80
ENDBRANCH  77  78
ENDBRANCH  76  77
ENDBRANCH   1  76
TORSDOF 21
ENDMDL
MODEL 2
REMARK VINA RESULT:     -10.4      1.639      8.384
REMARK SMILES O=C(OCCOCCOC(=O)C1CCN(C(=O)CSCc2ccccc2)CC1)c1ccc(-c2c3nc(c(-c4c(F)cc(S(=O)(=O)[O-])cc4F)c4ccc([nH]4)c(-c4c(F)cc(S(=O)(=O)[O-])cc4F)c4nc(c(-c5c(F)cc(S(=O)(=O)[O-])cc5F)c5ccc2[nH]5)C=C4)C=C3)cc1
REMARK SMILES IDX 7 1 6 2 5 3 4 4 3 5 2 6 1 7 29 8 30 9 94 10 31 11 93 12
REMARK SMILES IDX 32 13 33 14 34 15 87 16 35 17 92 18 86 19 88 20 36 21 91 22
REMARK SMILES IDX 85 23 84 24 37 26 71 27 50 28 70 29 51 30 54 31 69 32 89 33
REMARK SMILES IDX 52 34 53 35 68 37 90 38 55 39 38 40 39 41 48 42 40 43 41 44
REMARK SMILES IDX 47 45 49 46 42 47 43 48 44 49 45 50 46 51 72 52 73 53 82 54
REMARK SMILES IDX 74 55 75 56 81 57 83 58 76 59 77 60 78 61 79 62 80 63 56 64
REMARK SMILES IDX 57 65 66 66 58 67 59 68 65 69 67 70 60 71 61 72 62 73 63 74
REMARK SMILES IDX 64 75 8 76 9 77 10 78 11 79 12 80 13 81 28 82 14 83 27 84
REMARK SMILES IDX 15 85 16 86 17 87 18 88 19 89 20 90 21 91 22 92 26 93 23 94
REMARK SMILES IDX 25 95 24 96
REMARK H PARENT 88 25 54 36
REMARK Flexibility Score: inf
ROOT
ATOM      1  C   UNL A   1      33.226  30.536  27.528  1.00  0.00     0.202 C 
ENDROOT
BRANCH   1   2
ATOM      2  O   UNL A   1      34.602  30.173  27.473  1.00  0.00    -0.374 OA
BRANCH   2   3
ATOM      3  C   UNL A   1      35.546  31.163  27.839  1.00  0.00     0.202 C 
BRANCH   3   4
ATOM      4  C   UNL A   1      35.574  31.719  29.268  1.00  0.00     0.261 C 
BRANCH   4   5
ATOM      5  O   UNL A   1      36.167  30.804  30.214  1.00  0.00    -0.460 OA
BRANCH   5   6
ATOM      6  C   UNL A   1      37.226  31.111  31.017  1.00  0.00     0.338 C 
ATOM      7  O   UNL A   1      37.069  31.691  32.088  1.00  0.00    -0.246 OA
BRANCH   6   8
ATOM      8  C   UNL A   1      38.575  30.704  30.575  1.00  0.00     0.060 A 
ATOM      9  C   UNL A   1      38.884  30.784  29.229  1.00  0.00     0.016 A 
ATOM     10  C   UNL A   1      39.543  30.227  31.449  1.00  0.00     0.016 A 
ATOM     11  C   UNL A   1      39.925  30.089  28.686  1.00  0.00     0.010 A 
ATOM     12  C   UNL A   1      40.771  29.806  30.924  1.00  0.00     0.010 A 
ATOM     13  C   UNL A   1      40.953  29.723  29.530  1.00  0.00    -0.014 A 
BRANCH  13  14
ATOM     14  C   UNL A   1      42.213  29.338  28.875  1.00  0.00     0.031 A 
ATOM     15  C   UNL A   1      42.335  27.964  28.318  1.00  0.00     0.074 A 
ATOM     16  C   UNL A   1      43.174  30.276  28.713  1.00  0.00     0.049 A 
ATOM     17  N   UNL A   1      43.398  27.359  27.879  1.00  0.00    -0.248 NA
ATOM     18  C   UNL A   1      41.104  27.154  28.253  1.00  0.00     0.031 C 
ATOM     19  C   UNL A   1      43.068  31.690  29.116  1.00  0.00     0.029 A 
ATOM     20  N   UNL A   1      44.414  30.208  28.139  1.00  0.00    -0.354 N 
ATOM     21  C   UNL A   1      42.988  26.073  27.562  1.00  0.00     0.074 A 
ATOM     22  C   UNL A   1      41.570  25.991  27.824  1.00  0.00     0.031 C 
ATOM     23  C   UNL A   1      44.164  32.355  28.731  1.00  0.00     0.029 A 
ATOM     24  C   UNL A   1      45.115  31.393  28.209  1.00  0.00     0.049 A 
ATOM     25  H   UNL A   1      44.772  29.393  27.719  1.00  0.00     0.167 HD
ATOM     26  C   UNL A   1      43.763  25.060  27.124  1.00  0.00     0.037 A 
ATOM     27  C   UNL A   1      46.413  31.649  27.973  1.00  0.00     0.037 A 
ATOM     28  C   UNL A   1      45.165  25.220  26.853  1.00  0.00     0.049 A 
ATOM     29  C   UNL A   1      47.261  30.481  27.565  1.00  0.00     0.074 A 
ATOM     30  C   UNL A   1      46.073  24.273  26.422  1.00  0.00     0.029 A 
ATOM     31  N   UNL A   1      45.859  26.417  26.990  1.00  0.00    -0.354 N 
ATOM     32  N   UNL A   1      46.889  29.243  27.328  1.00  0.00    -0.248 NA
ATOM     33  C   UNL A   1      48.699  30.721  27.427  1.00  0.00     0.031 C 
ATOM     34  C   UNL A   1      47.328  24.885  26.354  1.00  0.00     0.029 A 
ATOM     35  C   UNL A   1      47.193  26.227  26.685  1.00  0.00     0.049 A 
ATOM     36  H   UNL A   1      45.459  27.273  27.263  1.00  0.00     0.167 HD
ATOM     37  C   UNL A   1      48.048  28.554  27.012  1.00  0.00     0.074 A 
ATOM     38  C   UNL A   1      49.128  29.524  27.052  1.00  0.00     0.031 C 
ATOM     39  C   UNL A   1      48.219  27.239  26.730  1.00  0.00     0.037 A 
BRANCH  26  40
ATOM     40  C   UNL A   1      43.141  23.702  27.007  1.00  0.00     0.058 A 
ATOM     41  C   UNL A   1      42.982  22.846  28.106  1.00  0.00     0.135 A 
ATOM     42  C   UNL A   1      42.670  23.263  25.758  1.00  0.00     0.135 A 
ATOM     43  F   UNL A   1      43.456  23.197  29.311  1.00  0.00    -0.206 F 
ATOM     44  C   UNL A   1      42.366  21.605  27.973  1.00  0.00     0.059 A 
ATOM     45  C   UNL A   1      42.031  22.038  25.606  1.00  0.00     0.059 A 
ATOM     46  F   UNL A   1      42.826  24.032  24.669  1.00  0.00    -0.206 F 
ATOM     47  C   UNL A   1      41.883  21.215  26.721  1.00  0.00     0.060 A 
BRANCH  47  48
ATOM     48  S   UNL A   1      41.032  19.631  26.580  1.00  0.00     0.124 S 
ATOM     49  O   UNL A   1      40.895  19.246  27.981  1.00  0.00    -0.237 OA
ATOM     50  O   UNL A   1      39.796  20.005  25.901  1.00  0.00    -0.237 OA
ATOM     51  O   UNL A   1      41.955  18.817  25.795  1.00  0.00    -0.744 OA
ENDBRANCH  47  48
ENDBRANCH  26  40
BRANCH  27  52
ATOM     52  C   UNL A   1      46.997  32.993  28.247  1.00  0.00     0.058 A 
ATOM     53  C   UNL A   1      47.475  33.338  29.520  1.00  0.00     0.135 A 
ATOM     54  C   UNL A   1      47.063  33.980  27.245  1.00  0.00     0.135 A 
ATOM     55  F   UNL A   1      47.438  32.438  30.514  1.00  0.00    -0.206 F 
ATOM     56  C   UNL A   1      47.954  34.614  29.801  1.00  0.00     0.059 A 
ATOM     57  C   UNL A   1      47.573  35.250  27.491  1.00  0.00     0.059 A 
ATOM     58  F   UNL A   1      46.637  33.710  26.001  1.00  0.00    -0.206 F 
ATOM     59  C   UNL A   1      47.991  35.567  28.781  1.00  0.00     0.060 A 
BRANCH  59  60
ATOM     60  S   UNL A   1      48.588  37.229  29.158  1.00  0.00     0.124 S 
ATOM     61  O   UNL A   1      50.031  37.021  29.183  1.00  0.00    -0.237 OA
ATOM     62  O   UNL A   1      48.074  38.004  28.033  1.00  0.00    -0.237 OA
ATOM     63  O   UNL A   1      47.970  37.524  30.447  1.00  0.00    -0.744 OA
ENDBRANCH  59  60
ENDBRANCH  27  52
BRANCH  39  64
ATOM     64  C   UNL A   1      49.616  26.799  26.424  1.00  0.00     0.058 A 
ATOM     65  C   UNL A   1      50.423  26.201  27.403  1.00  0.00     0.135 A 
ATOM     66  C   UNL A   1      50.120  26.915  25.121  1.00  0.00     0.135 A 
ATOM     67  F   UNL A   1      49.983  26.085  28.665  1.00  0.00    -0.206 F 
ATOM     68  C   UNL A   1      51.695  25.739  27.099  1.00  0.00     0.059 A 
ATOM     69  C   UNL A   1      51.376  26.429  24.787  1.00  0.00     0.059 A 
ATOM     70  F   UNL A   1      49.376  27.475  24.153  1.00  0.00    -0.206 F 
ATOM     71  C   UNL A   1      52.159  25.849  25.785  1.00  0.00     0.060 A 
BRANCH  71  72
ATOM     72  S   UNL A   1      53.788  25.187  25.392  1.00  0.00     0.124 S 
ATOM     73  O   UNL A   1      54.025  25.757  24.071  1.00  0.00    -0.237 OA
ATOM     74  O   UNL A   1      54.609  25.723  26.474  1.00  0.00    -0.237 OA
ATOM     75  O   UNL A   1      53.584  23.741  25.426  1.00  0.00    -0.744 OA
ENDBRANCH  71  72
ENDBRANCH  39  64
ENDBRANCH  13  14
ENDBRANCH   6   8
ENDBRANCH   5   6
ENDBRANCH   4   5
ENDBRANCH   3   4
ENDBRANCH   2   3
ENDBRANCH   1   2
BRANCH   1  76
ATOM     76  C   UNL A   1      32.513  29.920  26.331  1.00  0.00     0.261 C 
BRANCH  76  77
ATOM     77  O   UNL A   1      33.521  29.419  25.431  1.00  0.00    -0.463 OA
BRANCH  77  78
ATOM     78  C   UNL A   1      33.059  28.696  24.376  1.00  0.00     0.309 C 
ATOM     79  O   UNL A   1      32.145  29.041  23.640  1.00  0.00    -0.252 OA
BRANCH  78  80
ATOM     80  C   UNL A   1      33.780  27.355  24.252  1.00  0.00     0.103 C 
ATOM     81  C   UNL A   1      33.654  26.631  22.895  1.00  0.00     0.037 C 
ATOM     82  C   UNL A   1      33.463  26.441  25.445  1.00  0.00     0.037 C 
ATOM     83  C   UNL A   1      32.644  25.487  22.779  1.00  0.00     0.120 C 
ATOM     84  C   UNL A   1      32.265  25.536  25.224  1.00  0.00     0.120 C 
ATOM     85  N   UNL A   1      32.410  24.744  24.011  1.00  0.00    -0.342 N 
ATOM     86  C   UNL A   1      32.125  23.383  23.905  1.00  0.00     0.232 C 
ATOM     87  O   UNL A   1      32.146  22.814  22.808  1.00  0.00    -0.274 OA
BRANCH  86  88
ATOM     88  C   UNL A   1      31.734  22.585  25.143  1.00  0.00     0.169 C 
BRANCH  88  89
ATOM     89  S   UNL A   1      32.354  20.869  25.190  1.00  0.00    -0.147 SA
BRANCH  89  90
ATOM     90  C   UNL A   1      33.785  21.050  26.298  1.00  0.00     0.105 C 
BRANCH  90  91
ATOM     91  C   UNL A   1      34.869  21.897  25.693  1.00  0.00    -0.038 A 
ATOM     92  C   UNL A   1      35.600  21.431  24.589  1.00  0.00     0.004 A 
ATOM     93  C   UNL A   1      35.174  23.154  26.228  1.00  0.00     0.004 A 
ATOM     94  C   UNL A   1      36.590  22.219  24.009  1.00  0.00     0.000 A 
ATOM     95  C   UNL A   1      36.180  23.934  25.657  1.00  0.00     0.000 A 
ATOM     96  C   UNL A   1      36.881  23.469  24.546  1.00  0.00     0.000 A 
ENDBRANCH  90  91
ENDBRANCH  89  90
ENDBRANCH  88  89
ENDBRANCH  86  88
ENDBRANCH  78  80
ENDBRANCH  77  78
ENDBRANCH  76  77
ENDBRANCH   1  76
TORSDOF 21
ENDMDL
MODEL 3
REMARK VINA RESULT:     -10.3      6.523     11.914
REMARK SMILES O=C(OCCOCCOC(=O)C1CCN(C(=O)CSCc2ccccc2)CC1)c1ccc(-c2c3nc(c(-c4c(F)cc(S(=O)(=O)[O-])cc4F)c4ccc([nH]4)c(-c4c(F)cc(S(=O)(=O)[O-])cc4F)c4nc(c(-c5c(F)cc(S(=O)(=O)[O-])cc5F)c5ccc2[nH]5)C=C4)C=C3)cc1
REMARK SMILES IDX 7 1 6 2 5 3 4 4 3 5 2 6 1 7 29 8 30 9 94 10 31 11 93 12
REMARK SMILES IDX 32 13 33 14 34 15 87 16 35 17 92 18 86 19 88 20 36 21 91 22
REMARK SMILES IDX 85 23 84 24 37 26 71 27 50 28 70 29 51 30 54 31 69 32 89 33
REMARK SMILES IDX 52 34 53 35 68 37 90 38 55 39 38 40 39 41 48 42 40 43 41 44
REMARK SMILES IDX 47 45 49 46 42 47 43 48 44 49 45 50 46 51 72 52 73 53 82 54
REMARK SMILES IDX 74 55 75 56 81 57 83 58 76 59 77 60 78 61 79 62 80 63 56 64
REMARK SMILES IDX 57 65 66 66 58 67 59 68 65 69 67 70 60 71 61 72 62 73 63 74
REMARK SMILES IDX 64 75 8 76 9 77 10 78 11 79 12 80 13 81 28 82 14 83 27 84
REMARK SMILES IDX 15 85 16 86 17 87 18 88 19 89 20 90 21 91 22 92 26 93 23 94
REMARK SMILES IDX 25 95 24 96
REMARK H PARENT 88 25 54 36
REMARK Flexibility Score: inf
ROOT
ATOM      1  C   UNL A   1      38.098  20.912  25.748  1.00  0.00     0.202 C 
ENDROOT
BRANCH   1   2
ATOM      2  O   UNL A   1      39.132  21.871  25.547  1.00  0.00    -0.374 OA
BRANCH   2   3
ATOM      3  C   UNL A   1      39.382  22.780  26.603  1.00  0.00     0.202 C 
BRANCH   3   4
ATOM      4  C   UNL A   1      40.760  22.831  27.275  1.00  0.00     0.261 C 
BRANCH   4   5
ATOM      5  O   UNL A   1      41.624  23.835  26.704  1.00  0.00    -0.460 OA
BRANCH   5   6
ATOM      6  C   UNL A   1      41.230  25.106  26.404  1.00  0.00     0.338 C 
ATOM      7  O   UNL A   1      41.069  25.468  25.242  1.00  0.00    -0.246 OA
BRANCH   6   8
ATOM      8  C   UNL A   1      40.974  26.037  27.522  1.00  0.00     0.060 A 
ATOM      9  C   UNL A   1      41.761  27.169  27.634  1.00  0.00     0.016 A 
ATOM     10  C   UNL A   1      39.990  25.818  28.476  1.00  0.00     0.016 A 
ATOM     11  C   UNL A   1      41.864  27.863  28.804  1.00  0.00     0.010 A 
ATOM     12  C   UNL A   1      39.867  26.728  29.534  1.00  0.00     0.010 A 
ATOM     13  C   UNL A   1      40.824  27.747  29.704  1.00  0.00    -0.014 A 
BRANCH  13  14
ATOM     14  C   UNL A   1      40.765  28.779  30.751  1.00  0.00     0.031 A 
ATOM     15  C   UNL A   1      41.771  28.741  31.846  1.00  0.00     0.074 A 
ATOM     16  C   UNL A   1      39.865  29.782  30.624  1.00  0.00     0.049 A 
ATOM     17  N   UNL A   1      41.789  29.421  32.953  1.00  0.00    -0.248 NA
ATOM     18  C   UNL A   1      42.903  27.809  31.686  1.00  0.00     0.031 C 
ATOM     19  C   UNL A   1      38.931  29.958  29.498  1.00  0.00     0.029 A 
ATOM     20  N   UNL A   1      39.600  30.862  31.421  1.00  0.00    -0.354 N 
ATOM     21  C   UNL A   1      42.882  28.946  33.661  1.00  0.00     0.074 A 
ATOM     22  C   UNL A   1      43.528  27.944  32.846  1.00  0.00     0.031 C 
ATOM     23  C   UNL A   1      38.245  31.098  29.651  1.00  0.00     0.029 A 
ATOM     24  C   UNL A   1      38.563  31.642  30.956  1.00  0.00     0.049 A 
ATOM     25  H   UNL A   1      40.100  31.063  32.244  1.00  0.00     0.167 HD
ATOM     26  C   UNL A   1      43.268  29.313  34.901  1.00  0.00     0.037 A 
ATOM     27  C   UNL A   1      37.877  32.625  31.564  1.00  0.00     0.037 A 
ATOM     28  C   UNL A   1      42.597  30.343  35.645  1.00  0.00     0.049 A 
ATOM     29  C   UNL A   1      38.281  32.952  32.971  1.00  0.00     0.074 A 
ATOM     30  C   UNL A   1      42.871  30.803  36.918  1.00  0.00     0.029 A 
ATOM     31  N   UNL A   1      41.513  31.075  35.173  1.00  0.00    -0.354 N 
ATOM     32  N   UNL A   1      39.276  32.456  33.672  1.00  0.00    -0.248 NA
ATOM     33  C   UNL A   1      37.463  33.932  33.687  1.00  0.00     0.031 C 
ATOM     34  C   UNL A   1      41.915  31.772  37.236  1.00  0.00     0.029 A 
ATOM     35  C   UNL A   1      41.082  31.959  36.141  1.00  0.00     0.049 A 
ATOM     36  H   UNL A   1      41.112  30.976  34.279  1.00  0.00     0.167 HD
ATOM     37  C   UNL A   1      39.204  33.065  34.914  1.00  0.00     0.074 A 
ATOM     38  C   UNL A   1      38.090  33.993  34.854  1.00  0.00     0.031 C 
ATOM     39  C   UNL A   1      39.972  32.870  36.015  1.00  0.00     0.037 A 
BRANCH  26  40
ATOM     40  C   UNL A   1      44.382  28.546  35.544  1.00  0.00     0.058 A 
ATOM     41  C   UNL A   1      45.727  28.921  35.421  1.00  0.00     0.135 A 
ATOM     42  C   UNL A   1      44.083  27.418  36.327  1.00  0.00     0.135 A 
ATOM     43  F   UNL A   1      46.071  29.962  34.647  1.00  0.00    -0.206 F 
ATOM     44  C   UNL A   1      46.738  28.210  36.061  1.00  0.00     0.059 A 
ATOM     45  C   UNL A   1      45.073  26.707  36.994  1.00  0.00     0.059 A 
ATOM     46  F   UNL A   1      42.813  27.000  36.451  1.00  0.00    -0.206 F 
ATOM     47  C   UNL A   1      46.399  27.111  36.855  1.00  0.00     0.060 A 
BRANCH  47  48
ATOM     48  S   UNL A   1      47.715  26.239  37.728  1.00  0.00     0.124 S 
ATOM     49  O   UNL A   1      48.186  25.315  36.700  1.00  0.00    -0.237 OA
ATOM     50  O   UNL A   1      48.628  27.324  38.072  1.00  0.00    -0.237 OA
ATOM     51  O   UNL A   1      47.025  25.621  38.856  1.00  0.00    -0.744 OA
ENDBRANCH  47  48
ENDBRANCH  26  40
BRANCH  27  52
ATOM     52  C   UNL A   1      36.687  33.250  30.919  1.00  0.00     0.058 A 
ATOM     53  C   UNL A   1      36.822  34.175  29.873  1.00  0.00     0.135 A 
ATOM     54  C   UNL A   1      35.381  32.959  31.357  1.00  0.00     0.135 A 
ATOM     55  F   UNL A   1      38.043  34.490  29.413  1.00  0.00    -0.206 F 
ATOM     56  C   UNL A   1      35.719  34.817  29.317  1.00  0.00     0.059 A 
ATOM     57  C   UNL A   1      34.261  33.558  30.791  1.00  0.00     0.059 A 
ATOM     58  F   UNL A   1      35.180  32.072  32.344  1.00  0.00    -0.206 F 
ATOM     59  C   UNL A   1      34.442  34.508  29.788  1.00  0.00     0.060 A 
BRANCH  59  60
ATOM     60  S   UNL A   1      33.018  35.364  29.082  1.00  0.00     0.124 S 
ATOM     61  O   UNL A   1      32.178  35.552  30.259  1.00  0.00    -0.237 OA
ATOM     62  O   UNL A   1      33.627  36.572  28.533  1.00  0.00    -0.237 OA
ATOM     63  O   UNL A   1      32.514  34.419  28.090  1.00  0.00    -0.744 OA
ENDBRANCH  59  60
ENDBRANCH  27  52
BRANCH  39  64
ATOM     64  C   UNL A   1      39.635  33.697  37.216  1.00  0.00     0.058 A 
ATOM     65  C   UNL A   1      38.789  33.209  38.223  1.00  0.00     0.135 A 
ATOM     66  C   UNL A   1      40.224  34.957  37.390  1.00  0.00     0.135 A 
ATOM     67  F   UNL A   1      38.195  32.013  38.087  1.00  0.00    -0.206 F 
ATOM     68  C   UNL A   1      38.528  33.954  39.363  1.00  0.00     0.059 A 
ATOM     69  C   UNL A   1      40.004  35.704  38.538  1.00  0.00     0.059 A 
ATOM     70  F   UNL A   1      41.046  35.458  36.453  1.00  0.00    -0.206 F 
ATOM     71  C   UNL A   1      39.149  35.196  39.516  1.00  0.00     0.060 A 
BRANCH  71  72
ATOM     72  S   UNL A   1      38.851  36.123  41.033  1.00  0.00     0.124 S 
ATOM     73  O   UNL A   1      40.124  35.968  41.727  1.00  0.00    -0.237 OA
ATOM     74  O   UNL A   1      38.562  37.461  40.525  1.00  0.00    -0.237 OA
ATOM     75  O   UNL A   1      37.716  35.430  41.636  1.00  0.00    -0.744 OA
ENDBRANCH  71  72
ENDBRANCH  39  64
ENDBRANCH  13  14
ENDBRANCH   6   8
ENDBRANCH   5   6
ENDBRANCH   4   5
ENDBRANCH   3   4
ENDBRANCH   2   3
ENDBRANCH   1   2
BRANCH   1  76
ATOM     76  C   UNL A   1      37.078  21.054  24.625  1.00  0.00     0.261 C 
BRANCH  76  77
ATOM     77  O   UNL A   1      36.526  22.384  24.701  1.00  0.00    -0.463 OA
BRANCH  77  78
ATOM     78  C   UNL A   1      35.986  22.862  23.547  1.00  0.00     0.309 C 
ATOM     79  O   UNL A   1      36.613  23.074  22.519  1.00  0.00    -0.252 OA
BRANCH  78  80
ATOM     80  C   UNL A   1      34.498  23.170  23.706  1.00  0.00     0.103 C 
ATOM     81  C   UNL A   1      33.636  23.057  22.432  1.00  0.00     0.037 C 
ATOM     82  C   UNL A   1      34.281  24.493  24.455  1.00  0.00     0.037 C 
ATOM     83  C   UNL A   1      33.272  24.346  21.690  1.00  0.00     0.120 C 
ATOM     84  C   UNL A   1      34.182  25.705  23.548  1.00  0.00     0.120 C 
ATOM     85  N   UNL A   1      33.153  25.529  22.532  1.00  0.00    -0.342 N 
ATOM     86  C   UNL A   1      32.216  26.496  22.167  1.00  0.00     0.232 C 
ATOM     87  O   UNL A   1      31.463  26.317  21.204  1.00  0.00    -0.274 OA
BRANCH  86  88
ATOM     88  C   UNL A   1      32.143  27.815  22.926  1.00  0.00     0.169 C 
BRANCH  88  89
ATOM     89  S   UNL A   1      30.862  27.897  24.222  1.00  0.00    -0.147 SA
BRANCH  89  90
ATOM     90  C   UNL A   1      29.982  26.330  23.936  1.00  0.00     0.105 C 
BRANCH  90  91
ATOM     91  C   UNL A   1      30.515  25.215  24.789  1.00  0.00    -0.038 A 
ATOM     92  C   UNL A   1      31.010  25.480  26.076  1.00  0.00     0.004 A 
ATOM     93  C   UNL A   1      30.539  23.899  24.311  1.00  0.00     0.004 A 
ATOM     94  C   UNL A   1      31.484  24.449  26.881  1.00  0.00     0.000 A 
ATOM     95  C   UNL A   1      31.034  22.870  25.113  1.00  0.00     0.000 A 
ATOM     96  C   UNL A   1      31.498  23.145  26.397  1.00  0.00     0.000 A 
ENDBRANCH  90  91
ENDBRANCH  89  90
ENDBRANCH  88  89
ENDBRANCH  86  88
ENDBRANCH  78  80
ENDBRANCH  77  78
ENDBRANCH  76  77
ENDBRANCH   1  76
TORSDOF 21
ENDMDL
