MODEL 1
REMARK VINA RESULT:     -12.1      0.000      0.000
REMARK SMILES O=C(OCCOCCOC(=O)[C@@H]1[C@H](C(=O)Nc2ccc(Cn3cncn3)cc2)[C@@H]2C=C[C@H]1CC2)c1ccc(-c2c3nc(c(-c4c(F)cc(S(=O)(=O)[O-])cc4F)c4ccc([nH]4)c(-c4c(F)cc(S(=O)(=O)[O-])cc4F)c4nc(c(-c5c(F)cc(S(=O)(=O)[O-])cc5F)c5ccc2[nH]5)C=C4)C=C3)cc1
REMARK SMILES IDX 7 1 6 2 5 3 4 4 3 5 2 6 1 7 35 8 36 9 100 10 37 11 99 12
REMARK SMILES IDX 38 13 39 14 40 15 93 16 41 17 98 18 92 19 94 20 42 21 97 22
REMARK SMILES IDX 91 23 90 24 43 26 77 27 56 28 76 29 57 30 60 31 75 32 95 33
REMARK SMILES IDX 58 34 59 35 74 37 96 38 61 39 44 40 45 41 54 42 46 43 47 44
REMARK SMILES IDX 53 45 55 46 48 47 49 48 50 49 51 50 52 51 78 52 79 53 88 54
REMARK SMILES IDX 80 55 81 56 87 57 89 58 82 59 83 60 84 61 85 62 86 63 62 64
REMARK SMILES IDX 63 65 72 66 64 67 65 68 71 69 73 70 66 71 67 72 68 73 69 74
REMARK SMILES IDX 70 75 8 76 9 77 10 78 11 79 12 80 13 81 32 82 29 83 31 84
REMARK SMILES IDX 33 85 30 86 34 87 14 88 15 89 16 90 17 92 18 93 28 94 19 95
REMARK SMILES IDX 27 96 20 97 21 98 22 99 23 100 26 101 24 102 25 103
REMARK H PARENT 94 25 60 36 16 91
REMARK Flexibility Score: inf
ROOT
ATOM      1  C   UNL A   1      37.398  21.477  24.610  1.00  0.00     0.202 C 
ENDROOT
BRANCH   1   2
ATOM      2  O   UNL A   1      38.439  21.436  25.601  1.00  0.00    -0.374 OA
BRANCH   2   3
ATOM      3  C   UNL A   1      39.153  20.205  25.669  1.00  0.00     0.202 C 
BRANCH   3   4
ATOM      4  C   UNL A   1      40.424  20.272  26.507  1.00  0.00     0.261 C 
BRANCH   4   5
ATOM      5  O   UNL A   1      40.691  21.583  27.043  1.00  0.00    -0.460 OA
BRANCH   5   6
ATOM      6  C   UNL A   1      41.594  22.372  26.402  1.00  0.00     0.338 C 
ATOM      7  O   UNL A   1      42.124  22.085  25.356  1.00  0.00    -0.246 OA
BRANCH   6   8
ATOM      8  C   UNL A   1      41.599  23.751  26.899  1.00  0.00     0.060 A 
ATOM      9  C   UNL A   1      42.606  24.223  27.730  1.00  0.00     0.016 A 
ATOM     10  C   UNL A   1      40.531  24.571  26.509  1.00  0.00     0.016 A 
ATOM     11  C   UNL A   1      42.468  25.466  28.299  1.00  0.00     0.010 A 
ATOM     12  C   UNL A   1      40.422  25.846  27.037  1.00  0.00     0.010 A 
ATOM     13  C   UNL A   1      41.366  26.264  27.970  1.00  0.00    -0.014 A 
BRANCH  13  14
ATOM     14  C   UNL A   1      41.333  27.558  28.621  1.00  0.00     0.031 A 
ATOM     15  C   UNL A   1      42.420  28.492  28.229  1.00  0.00     0.074 A 
ATOM     16  C   UNL A   1      40.430  27.909  29.548  1.00  0.00     0.049 A 
ATOM     17  N   UNL A   1      43.423  28.883  28.945  1.00  0.00    -0.248 NA
ATOM     18  C   UNL A   1      42.453  28.944  26.834  1.00  0.00     0.031 C 
ATOM     19  C   UNL A   1      39.158  27.270  29.881  1.00  0.00     0.029 A 
ATOM     20  N   UNL A   1      40.458  29.006  30.350  1.00  0.00    -0.354 N 
ATOM     21  C   UNL A   1      44.126  29.782  28.152  1.00  0.00     0.074 A 
ATOM     22  C   UNL A   1      43.558  29.691  26.829  1.00  0.00     0.031 C 
ATOM     23  C   UNL A   1      38.441  28.111  30.659  1.00  0.00     0.029 A 
ATOM     24  C   UNL A   1      39.259  29.268  30.984  1.00  0.00     0.049 A 
ATOM     25  H   UNL A   1      41.261  29.564  30.468  1.00  0.00     0.167 HD
ATOM     26  C   UNL A   1      45.015  30.668  28.676  1.00  0.00     0.037 A 
ATOM     27  C   UNL A   1      38.947  30.405  31.649  1.00  0.00     0.037 A 
ATOM     28  C   UNL A   1      45.435  30.299  30.003  1.00  0.00     0.049 A 
ATOM     29  C   UNL A   1      40.219  31.057  32.062  1.00  0.00     0.074 A 
ATOM     30  C   UNL A   1      46.069  29.199  30.547  1.00  0.00     0.029 A 
ATOM     31  N   UNL A   1      44.921  30.995  31.069  1.00  0.00    -0.354 N 
ATOM     32  N   UNL A   1      41.029  30.584  32.970  1.00  0.00    -0.248 NA
ATOM     33  C   UNL A   1      40.798  32.063  31.183  1.00  0.00     0.031 C 
ATOM     34  C   UNL A   1      45.503  29.042  31.846  1.00  0.00     0.029 A 
ATOM     35  C   UNL A   1      44.572  30.068  32.019  1.00  0.00     0.049 A 
ATOM     36  H   UNL A   1      44.823  31.972  31.140  1.00  0.00     0.167 HD
ATOM     37  C   UNL A   1      42.302  30.919  32.528  1.00  0.00     0.074 A 
ATOM     38  C   UNL A   1      42.089  31.921  31.490  1.00  0.00     0.031 C 
ATOM     39  C   UNL A   1      43.393  30.166  32.854  1.00  0.00     0.037 A 
BRANCH  26  40
ATOM     40  C   UNL A   1      45.266  32.035  28.098  1.00  0.00     0.058 A 
ATOM     41  C   UNL A   1      46.570  32.412  27.723  1.00  0.00     0.135 A 
ATOM     42  C   UNL A   1      44.316  33.080  28.162  1.00  0.00     0.135 A 
ATOM     43  F   UNL A   1      47.551  31.498  27.647  1.00  0.00    -0.206 F 
ATOM     44  C   UNL A   1      46.921  33.742  27.490  1.00  0.00     0.059 A 
ATOM     45  C   UNL A   1      44.631  34.402  27.881  1.00  0.00     0.059 A 
ATOM     46  F   UNL A   1      43.067  32.875  28.598  1.00  0.00    -0.206 F 
ATOM     47  C   UNL A   1      45.946  34.732  27.595  1.00  0.00     0.060 A 
BRANCH  47  48
ATOM     48  S   UNL A   1      46.416  36.463  27.434  1.00  0.00     0.124 S 
ATOM     49  O   UNL A   1      47.506  36.375  26.469  1.00  0.00    -0.237 OA
ATOM     50  O   UNL A   1      45.182  37.074  26.952  1.00  0.00    -0.237 OA
ATOM     51  O   UNL A   1      46.801  36.831  28.793  1.00  0.00    -0.744 OA
ENDBRANCH  47  48
ENDBRANCH  26  40
BRANCH  27  52
ATOM     52  C   UNL A   1      37.637  31.098  31.652  1.00  0.00     0.058 A 
ATOM     53  C   UNL A   1      36.970  31.372  32.856  1.00  0.00     0.135 A 
ATOM     54  C   UNL A   1      37.136  31.738  30.499  1.00  0.00     0.135 A 
ATOM     55  F   UNL A   1      37.400  30.830  34.006  1.00  0.00    -0.206 F 
ATOM     56  C   UNL A   1      35.894  32.262  32.921  1.00  0.00     0.059 A 
ATOM     57  C   UNL A   1      36.055  32.612  30.535  1.00  0.00     0.059 A 
ATOM     58  F   UNL A   1      37.742  31.609  29.309  1.00  0.00    -0.206 F 
ATOM     59  C   UNL A   1      35.456  32.891  31.755  1.00  0.00     0.060 A 
BRANCH  59  60
ATOM     60  S   UNL A   1      34.187  34.171  31.862  1.00  0.00     0.124 S 
ATOM     61  O   UNL A   1      34.969  35.336  32.262  1.00  0.00    -0.237 OA
ATOM     62  O   UNL A   1      33.658  34.193  30.503  1.00  0.00    -0.237 OA
ATOM     63  O   UNL A   1      33.270  33.657  32.875  1.00  0.00    -0.744 OA
ENDBRANCH  59  60
ENDBRANCH  27  52
BRANCH  39  64
ATOM     64  C   UNL A   1      43.272  29.173  33.979  1.00  0.00     0.058 A 
ATOM     65  C   UNL A   1      43.514  29.477  35.331  1.00  0.00     0.135 A 
ATOM     66  C   UNL A   1      42.752  27.900  33.694  1.00  0.00     0.135 A 
ATOM     67  F   UNL A   1      43.901  30.707  35.702  1.00  0.00    -0.206 F 
ATOM     68  C   UNL A   1      43.300  28.541  36.343  1.00  0.00     0.059 A 
ATOM     69  C   UNL A   1      42.500  26.961  34.691  1.00  0.00     0.059 A 
ATOM     70  F   UNL A   1      42.435  27.570  32.430  1.00  0.00    -0.206 F 
ATOM     71  C   UNL A   1      42.794  27.284  36.014  1.00  0.00     0.060 A 
BRANCH  71  72
ATOM     72  S   UNL A   1      42.439  26.104  37.336  1.00  0.00     0.124 S 
ATOM     73  O   UNL A   1      43.409  26.487  38.356  1.00  0.00    -0.237 OA
ATOM     74  O   UNL A   1      41.041  26.386  37.652  1.00  0.00    -0.237 OA
ATOM     75  O   UNL A   1      42.673  24.806  36.707  1.00  0.00    -0.744 OA
ENDBRANCH  71  72
ENDBRANCH  39  64
ENDBRANCH  13  14
ENDBRANCH   6   8
ENDBRANCH   5   6
ENDBRANCH   4   5
ENDBRANCH   3   4
ENDBRANCH   2   3
ENDBRANCH   1   2
BRANCH   1  76
ATOM     76  C   UNL A   1      37.036  22.864  24.065  1.00  0.00     0.261 C 
BRANCH  76  77
ATOM     77  O   UNL A   1      35.953  22.781  23.107  1.00  0.00    -0.463 OA
BRANCH  77  78
ATOM     78  C   UNL A   1      34.849  23.515  23.347  1.00  0.00     0.310 C 
ATOM     79  O   UNL A   1      34.405  24.362  22.576  1.00  0.00    -0.252 OA
BRANCH  78  80
ATOM     80  C   UNL A   1      34.134  23.181  24.641  1.00  0.00     0.119 C 
ATOM     81  C   UNL A   1      32.774  22.468  24.598  1.00  0.00     0.100 C 
ATOM     82  C   UNL A   1      34.182  24.189  25.845  1.00  0.00     0.026 C 
ATOM     83  C   UNL A   1      32.087  22.629  25.985  1.00  0.00     0.025 C 
ATOM     84  C   UNL A   1      32.858  24.884  26.128  1.00  0.00    -0.027 C 
ATOM     85  C   UNL A   1      34.309  23.307  27.114  1.00  0.00     0.009 C 
ATOM     86  C   UNL A   1      31.782  24.081  26.207  1.00  0.00    -0.027 C 
ATOM     87  C   UNL A   1      33.133  22.276  27.108  1.00  0.00     0.009 C 
BRANCH  81  88
ATOM     88  C   UNL A   1      31.890  22.507  23.337  1.00  0.00     0.228 C 
ATOM     89  O   UNL A   1      31.780  21.438  22.705  1.00  0.00    -0.274 OA
ATOM     90  N   UNL A   1      31.110  23.510  22.858  1.00  0.00    -0.326 N 
ATOM     91  H   UNL A   1      30.437  23.169  22.224  1.00  0.00     0.169 HD
BRANCH  90  92
ATOM     92  C   UNL A   1      30.998  24.899  23.017  1.00  0.00     0.041 A 
ATOM     93  C   UNL A   1      29.828  25.407  23.595  1.00  0.00     0.026 A 
ATOM     94  C   UNL A   1      31.936  25.813  22.586  1.00  0.00     0.026 A 
ATOM     95  C   UNL A   1      29.679  26.782  23.856  1.00  0.00     0.008 A 
ATOM     96  C   UNL A   1      31.819  27.173  22.885  1.00  0.00     0.008 A 
ATOM     97  C   UNL A   1      30.697  27.681  23.528  1.00  0.00    -0.026 A 
BRANCH  97  98
ATOM     98  C   UNL A   1      30.635  29.157  23.830  1.00  0.00     0.181 C 
BRANCH  98  99
ATOM     99  N   UNL A   1      29.676  29.872  23.006  1.00  0.00    -0.249 N 
ATOM    100  C   UNL A   1      29.726  30.069  21.660  1.00  0.00     0.220 A 
ATOM    101  N   UNL A   1      28.476  30.248  23.497  1.00  0.00    -0.160 NA
ATOM    102  N   UNL A   1      28.607  30.616  21.249  1.00  0.00    -0.224 NA
ATOM    103  C   UNL A   1      27.879  30.722  22.401  1.00  0.00     0.246 A 
ENDBRANCH  98  99
ENDBRANCH  97  98
ENDBRANCH  90  92
ENDBRANCH  81  88
ENDBRANCH  78  80
ENDBRANCH  77  78
ENDBRANCH  76  77
ENDBRANCH   1  76
TORSDOF 21
ENDMDL
MODEL 2
REMARK VINA RESULT:     -12.0      2.622      8.806
REMARK SMILES O=C(OCCOCCOC(=O)[C@@H]1[C@H](C(=O)Nc2ccc(Cn3cncn3)cc2)[C@@H]2C=C[C@H]1CC2)c1ccc(-c2c3nc(c(-c4c(F)cc(S(=O)(=O)[O-])cc4F)c4ccc([nH]4)c(-c4c(F)cc(S(=O)(=O)[O-])cc4F)c4nc(c(-c5c(F)cc(S(=O)(=O)[O-])cc5F)c5ccc2[nH]5)C=C4)C=C3)cc1
REMARK SMILES IDX 7 1 6 2 5 3 4 4 3 5 2 6 1 7 35 8 36 9 100 10 37 11 99 12
REMARK SMILES IDX 38 13 39 14 40 15 93 16 41 17 98 18 92 19 94 20 42 21 97 22
REMARK SMILES IDX 91 23 90 24 43 26 77 27 56 28 76 29 57 30 60 31 75 32 95 33
REMARK SMILES IDX 58 34 59 35 74 37 96 38 61 39 44 40 45 41 54 42 46 43 47 44
REMARK SMILES IDX 53 45 55 46 48 47 49 48 50 49 51 50 52 51 78 52 79 53 88 54
REMARK SMILES IDX 80 55 81 56 87 57 89 58 82 59 83 60 84 61 85 62 86 63 62 64
REMARK SMILES IDX 63 65 72 66 64 67 65 68 71 69 73 70 66 71 67 72 68 73 69 74
REMARK SMILES IDX 70 75 8 76 9 77 10 78 11 79 12 80 13 81 32 82 29 83 31 84
REMARK SMILES IDX 33 85 30 86 34 87 14 88 15 89 16 90 17 92 18 93 28 94 19 95
REMARK SMILES IDX 27 96 20 97 21 98 22 99 23 100 26 101 24 102 25 103
REMARK H PARENT 94 25 60 36 16 91
REMARK Flexibility Score: inf
ROOT
ATOM      1  C   UNL A   1      33.636  27.518  25.540  1.00  0.00     0.202 C 
ENDROOT
BRANCH   1   2
ATOM      2  O   UNL A   1      33.510  28.919  25.244  1.00  0.00    -0.374 OA
BRANCH   2   3
ATOM      3  C   UNL A   1      32.387  29.560  25.844  1.00  0.00     0.202 C 
BRANCH   3   4
ATOM      4  C   UNL A   1      32.731  30.848  26.582  1.00  0.00     0.261 C 
BRANCH   4   5
ATOM      5  O   UNL A   1      33.523  30.638  27.768  1.00  0.00    -0.460 OA
BRANCH   5   6
ATOM      6  C   UNL A   1      34.459  31.569  28.094  1.00  0.00     0.338 C 
ATOM      7  O   UNL A   1      34.203  32.665  28.529  1.00  0.00    -0.246 OA
BRANCH   6   8
ATOM      8  C   UNL A   1      35.805  31.002  28.214  1.00  0.00     0.060 A 
ATOM      9  C   UNL A   1      36.075  29.683  27.876  1.00  0.00     0.016 A 
ATOM     10  C   UNL A   1      36.811  31.849  28.699  1.00  0.00     0.016 A 
ATOM     11  C   UNL A   1      37.311  29.162  28.168  1.00  0.00     0.010 A 
ATOM     12  C   UNL A   1      38.075  31.340  28.941  1.00  0.00     0.010 A 
ATOM     13  C   UNL A   1      38.300  29.984  28.721  1.00  0.00    -0.014 A 
BRANCH  13  14
ATOM     14  C   UNL A   1      39.568  29.330  28.975  1.00  0.00     0.031 A 
ATOM     15  C   UNL A   1      39.909  29.147  30.409  1.00  0.00     0.074 A 
ATOM     16  C   UNL A   1      40.420  28.943  28.014  1.00  0.00     0.049 A 
ATOM     17  N   UNL A   1      40.828  29.754  31.087  1.00  0.00    -0.248 NA
ATOM     18  C   UNL A   1      39.041  28.272  31.205  1.00  0.00     0.031 C 
ATOM     19  C   UNL A   1      40.179  28.787  26.581  1.00  0.00     0.029 A 
ATOM     20  N   UNL A   1      41.703  28.524  28.172  1.00  0.00    -0.354 N 
ATOM     21  C   UNL A   1      40.780  29.207  32.364  1.00  0.00     0.074 A 
ATOM     22  C   UNL A   1      39.591  28.391  32.415  1.00  0.00     0.031 C 
ATOM     23  C   UNL A   1      41.212  28.103  26.040  1.00  0.00     0.029 A 
ATOM     24  C   UNL A   1      42.232  27.905  27.057  1.00  0.00     0.049 A 
ATOM     25  H   UNL A   1      42.209  28.650  29.007  1.00  0.00     0.167 HD
ATOM     26  C   UNL A   1      41.814  29.322  33.240  1.00  0.00     0.037 A 
ATOM     27  C   UNL A   1      43.389  27.204  27.014  1.00  0.00     0.037 A 
ATOM     28  C   UNL A   1      42.725  30.374  32.872  1.00  0.00     0.049 A 
ATOM     29  C   UNL A   1      44.242  27.660  28.145  1.00  0.00     0.074 A 
ATOM     30  C   UNL A   1      42.606  31.739  32.690  1.00  0.00     0.029 A 
ATOM     31  N   UNL A   1      43.931  30.030  32.314  1.00  0.00    -0.354 N 
ATOM     32  N   UNL A   1      44.798  28.839  28.220  1.00  0.00    -0.248 NA
ATOM     33  C   UNL A   1      44.172  26.929  29.402  1.00  0.00     0.031 C 
ATOM     34  C   UNL A   1      43.506  32.056  31.631  1.00  0.00     0.029 A 
ATOM     35  C   UNL A   1      44.129  30.869  31.246  1.00  0.00     0.049 A 
ATOM     36  H   UNL A   1      44.539  29.319  32.621  1.00  0.00     0.167 HD
ATOM     37  C   UNL A   1      44.775  29.163  29.570  1.00  0.00     0.074 A 
ATOM     38  C   UNL A   1      44.485  27.908  30.254  1.00  0.00     0.031 C 
ATOM     39  C   UNL A   1      44.730  30.460  29.994  1.00  0.00     0.037 A 
BRANCH  26  40
ATOM     40  C   UNL A   1      42.159  28.272  34.262  1.00  0.00     0.058 A 
ATOM     41  C   UNL A   1      41.938  28.523  35.631  1.00  0.00     0.135 A 
ATOM     42  C   UNL A   1      42.954  27.144  33.963  1.00  0.00     0.135 A 
ATOM     43  F   UNL A   1      41.208  29.581  36.022  1.00  0.00    -0.206 F 
ATOM     44  C   UNL A   1      42.520  27.746  36.632  1.00  0.00     0.059 A 
ATOM     45  C   UNL A   1      43.498  26.324  34.942  1.00  0.00     0.059 A 
ATOM     46  F   UNL A   1      43.321  26.848  32.709  1.00  0.00    -0.206 F 
ATOM     47  C   UNL A   1      43.317  26.661  36.274  1.00  0.00     0.060 A 
BRANCH  47  48
ATOM     48  S   UNL A   1      44.185  25.736  37.553  1.00  0.00     0.124 S 
ATOM     49  O   UNL A   1      43.936  26.567  38.726  1.00  0.00    -0.237 OA
ATOM     50  O   UNL A   1      43.498  24.449  37.524  1.00  0.00    -0.237 OA
ATOM     51  O   UNL A   1      45.563  25.714  37.072  1.00  0.00    -0.744 OA
ENDBRANCH  47  48
ENDBRANCH  26  40
BRANCH  27  52
ATOM     52  C   UNL A   1      43.641  25.958  26.253  1.00  0.00     0.058 A 
ATOM     53  C   UNL A   1      44.800  25.812  25.474  1.00  0.00     0.135 A 
ATOM     54  C   UNL A   1      42.887  24.788  26.479  1.00  0.00     0.135 A 
ATOM     55  F   UNL A   1      45.592  26.868  25.235  1.00  0.00    -0.206 F 
ATOM     56  C   UNL A   1      45.210  24.569  24.982  1.00  0.00     0.059 A 
ATOM     57  C   UNL A   1      43.265  23.544  25.984  1.00  0.00     0.059 A 
ATOM     58  F   UNL A   1      41.805  24.795  27.272  1.00  0.00    -0.206 F 
ATOM     59  C   UNL A   1      44.443  23.438  25.259  1.00  0.00     0.060 A 
BRANCH  59  60
ATOM     60  S   UNL A   1      45.059  21.809  24.779  1.00  0.00     0.124 S 
ATOM     61  O   UNL A   1      44.298  20.929  25.660  1.00  0.00    -0.237 OA
ATOM     62  O   UNL A   1      44.712  21.753  23.364  1.00  0.00    -0.237 OA
ATOM     63  O   UNL A   1      46.490  21.891  25.063  1.00  0.00    -0.744 OA
ENDBRANCH  59  60
ENDBRANCH  27  52
BRANCH  39  64
ATOM     64  C   UNL A   1      45.059  31.550  29.009  1.00  0.00     0.058 A 
ATOM     65  C   UNL A   1      46.334  32.123  28.861  1.00  0.00     0.135 A 
ATOM     66  C   UNL A   1      44.076  31.929  28.080  1.00  0.00     0.135 A 
ATOM     67  F   UNL A   1      47.360  31.730  29.631  1.00  0.00    -0.206 F 
ATOM     68  C   UNL A   1      46.604  33.068  27.869  1.00  0.00     0.059 A 
ATOM     69  C   UNL A   1      44.331  32.846  27.063  1.00  0.00     0.059 A 
ATOM     70  F   UNL A   1      42.855  31.369  28.124  1.00  0.00    -0.206 F 
ATOM     71  C   UNL A   1      45.595  33.425  26.975  1.00  0.00     0.060 A 
BRANCH  71  72
ATOM     72  S   UNL A   1      45.971  34.586  25.642  1.00  0.00     0.124 S 
ATOM     73  O   UNL A   1      47.376  34.302  25.376  1.00  0.00    -0.237 OA
ATOM     74  O   UNL A   1      45.033  34.188  24.596  1.00  0.00    -0.237 OA
ATOM     75  O   UNL A   1      45.700  35.891  26.241  1.00  0.00    -0.744 OA
ENDBRANCH  71  72
ENDBRANCH  39  64
ENDBRANCH  13  14
ENDBRANCH   6   8
ENDBRANCH   5   6
ENDBRANCH   4   5
ENDBRANCH   3   4
ENDBRANCH   2   3
ENDBRANCH   1   2
BRANCH   1  76
ATOM     76  C   UNL A   1      32.672  26.959  26.594  1.00  0.00     0.261 C 
BRANCH  76  77
ATOM     77  O   UNL A   1      31.957  25.806  26.086  1.00  0.00    -0.463 OA
BRANCH  77  78
ATOM     78  C   UNL A   1      32.294  24.597  26.574  1.00  0.00     0.310 C 
ATOM     79  O   UNL A   1      31.669  24.012  27.456  1.00  0.00    -0.252 OA
BRANCH  78  80
ATOM     80  C   UNL A   1      33.495  23.956  25.907  1.00  0.00     0.119 C 
ATOM     81  C   UNL A   1      33.391  23.470  24.454  1.00  0.00     0.100 C 
ATOM     82  C   UNL A   1      34.434  23.005  26.733  1.00  0.00     0.026 C 
ATOM     83  C   UNL A   1      34.575  22.501  24.171  1.00  0.00     0.025 C 
ATOM     84  C   UNL A   1      34.334  21.538  26.341  1.00  0.00    -0.027 C 
ATOM     85  C   UNL A   1      35.872  23.324  26.247  1.00  0.00     0.009 C 
ATOM     86  C   UNL A   1      34.413  21.278  25.024  1.00  0.00    -0.027 C 
ATOM     87  C   UNL A   1      35.904  23.165  24.691  1.00  0.00     0.009 C 
BRANCH  81  88
ATOM     88  C   UNL A   1      32.025  23.163  23.810  1.00  0.00     0.228 C 
ATOM     89  O   UNL A   1      31.739  21.958  23.668  1.00  0.00    -0.274 OA
ATOM     90  N   UNL A   1      31.020  24.010  23.467  1.00  0.00    -0.326 N 
ATOM     91  H   UNL A   1      30.168  23.529  23.361  1.00  0.00     0.169 HD
BRANCH  90  92
ATOM     92  C   UNL A   1      30.863  25.381  23.222  1.00  0.00     0.041 A 
ATOM     93  C   UNL A   1      31.784  26.012  22.375  1.00  0.00     0.026 A 
ATOM     94  C   UNL A   1      29.900  26.175  23.806  1.00  0.00     0.026 A 
ATOM     95  C   UNL A   1      31.644  27.367  22.023  1.00  0.00     0.008 A 
ATOM     96  C   UNL A   1      29.723  27.507  23.425  1.00  0.00     0.008 A 
ATOM     97  C   UNL A   1      30.583  28.126  22.525  1.00  0.00    -0.026 A 
BRANCH  97  98
ATOM     98  C   UNL A   1      30.334  29.564  22.148  1.00  0.00     0.181 C 
BRANCH  98  99
ATOM     99  N   UNL A   1      29.065  30.074  22.634  1.00  0.00    -0.249 N 
ATOM    100  C   UNL A   1      27.842  29.486  22.528  1.00  0.00     0.220 A 
ATOM    101  N   UNL A   1      29.010  31.138  23.464  1.00  0.00    -0.160 NA
ATOM    102  N   UNL A   1      26.961  30.163  23.226  1.00  0.00    -0.224 NA
ATOM    103  C   UNL A   1      27.710  31.169  23.768  1.00  0.00     0.246 A 
ENDBRANCH  98  99
ENDBRANCH  97  98
ENDBRANCH  90  92
ENDBRANCH  81  88
ENDBRANCH  78  80
ENDBRANCH  77  78
ENDBRANCH  76  77
ENDBRANCH   1  76
TORSDOF 21
ENDMDL
MODEL 3
REMARK VINA RESULT:     -11.8      3.194      9.544
REMARK SMILES O=C(OCCOCCOC(=O)[C@@H]1[C@H](C(=O)Nc2ccc(Cn3cncn3)cc2)[C@@H]2C=C[C@H]1CC2)c1ccc(-c2c3nc(c(-c4c(F)cc(S(=O)(=O)[O-])cc4F)c4ccc([nH]4)c(-c4c(F)cc(S(=O)(=O)[O-])cc4F)c4nc(c(-c5c(F)cc(S(=O)(=O)[O-])cc5F)c5ccc2[nH]5)C=C4)C=C3)cc1
REMARK SMILES IDX 7 1 6 2 5 3 4 4 3 5 2 6 1 7 35 8 36 9 100 10 37 11 99 12
REMARK SMILES IDX 38 13 39 14 40 15 93 16 41 17 98 18 92 19 94 20 42 21 97 22
REMARK SMILES IDX 91 23 90 24 43 26 77 27 56 28 76 29 57 30 60 31 75 32 95 33
REMARK SMILES IDX 58 34 59 35 74 37 96 38 61 39 44 40 45 41 54 42 46 43 47 44
REMARK SMILES IDX 53 45 55 46 48 47 49 48 50 49 51 50 52 51 78 52 79 53 88 54
REMARK SMILES IDX 80 55 81 56 87 57 89 58 82 59 83 60 84 61 85 62 86 63 62 64
REMARK SMILES IDX 63 65 72 66 64 67 65 68 71 69 73 70 66 71 67 72 68 73 69 74
REMARK SMILES IDX 70 75 8 76 9 77 10 78 11 79 12 80 13 81 32 82 29 83 31 84
REMARK SMILES IDX 33 85 30 86 34 87 14 88 15 89 16 90 17 92 18 93 28 94 19 95
REMARK SMILES IDX 27 96 20 97 21 98 22 99 23 100 26 101 24 102 25 103
REMARK H PARENT 94 25 60 36 16 91
REMARK Flexibility Score: inf
ROOT
ATOM      1  C   UNL A   1      32.756  29.316  23.517  1.00  0.00     0.202 C 
ENDROOT
BRANCH   1   2
ATOM      2  O   UNL A   1      33.229  29.276  24.874  1.00  0.00    -0.374 OA
BRANCH   2   3
ATOM      3  C   UNL A   1      32.285  29.707  25.850  1.00  0.00     0.202 C 
BRANCH   3   4
ATOM      4  C   UNL A   1      32.799  30.817  26.760  1.00  0.00     0.261 C 
BRANCH   4   5
ATOM      5  O   UNL A   1      33.969  30.446  27.515  1.00  0.00    -0.460 OA
BRANCH   5   6
ATOM      6  C   UNL A   1      34.986  31.343  27.614  1.00  0.00     0.338 C 
ATOM      7  O   UNL A   1      34.839  32.541  27.589  1.00  0.00    -0.246 OA
BRANCH   6   8
ATOM      8  C   UNL A   1      36.226  30.742  28.114  1.00  0.00     0.060 A 
ATOM      9  C   UNL A   1      37.230  31.513  28.686  1.00  0.00     0.016 A 
ATOM     10  C   UNL A   1      36.362  29.354  27.977  1.00  0.00     0.016 A 
ATOM     11  C   UNL A   1      38.434  30.921  28.980  1.00  0.00     0.010 A 
ATOM     12  C   UNL A   1      37.556  28.747  28.327  1.00  0.00     0.010 A 
ATOM     13  C   UNL A   1      38.602  29.546  28.779  1.00  0.00    -0.014 A 
BRANCH  13  14
ATOM     14  C   UNL A   1      39.909  29.031  29.136  1.00  0.00     0.031 A 
ATOM     15  C   UNL A   1      40.240  29.093  30.582  1.00  0.00     0.074 A 
ATOM     16  C   UNL A   1      40.800  28.566  28.248  1.00  0.00     0.049 A 
ATOM     17  N   UNL A   1      41.103  29.861  31.164  1.00  0.00    -0.248 NA
ATOM     18  C   UNL A   1      39.425  28.288  31.498  1.00  0.00     0.031 C 
ATOM     19  C   UNL A   1      40.593  28.179  26.854  1.00  0.00     0.029 A 
ATOM     20  N   UNL A   1      42.107  28.270  28.473  1.00  0.00    -0.354 N 
ATOM     21  C   UNL A   1      41.075  29.510  32.509  1.00  0.00     0.074 A 
ATOM     22  C   UNL A   1      39.946  28.628  32.677  1.00  0.00     0.031 C 
ATOM     23  C   UNL A   1      41.680  27.498  26.427  1.00  0.00     0.029 A 
ATOM     24  C   UNL A   1      42.696  27.530  27.467  1.00  0.00     0.049 A 
ATOM     25  H   UNL A   1      42.591  28.558  29.281  1.00  0.00     0.167 HD
ATOM     26  C   UNL A   1      42.085  29.832  33.361  1.00  0.00     0.037 A 
ATOM     27  C   UNL A   1      43.900  26.917  27.536  1.00  0.00     0.037 A 
ATOM     28  C   UNL A   1      42.924  30.880  32.842  1.00  0.00     0.049 A 
ATOM     29  C   UNL A   1      44.702  27.599  28.588  1.00  0.00     0.074 A 
ATOM     30  C   UNL A   1      42.711  32.189  32.454  1.00  0.00     0.029 A 
ATOM     31  N   UNL A   1      44.160  30.544  32.348  1.00  0.00    -0.354 N 
ATOM     32  N   UNL A   1      45.171  28.813  28.486  1.00  0.00    -0.248 NA
ATOM     33  C   UNL A   1      44.665  27.064  29.941  1.00  0.00     0.031 C 
ATOM     34  C   UNL A   1      43.602  32.407  31.362  1.00  0.00     0.029 A 
ATOM     35  C   UNL A   1      44.314  31.223  31.165  1.00  0.00     0.049 A 
ATOM     36  H   UNL A   1      44.812  29.933  32.762  1.00  0.00     0.167 HD
ATOM     37  C   UNL A   1      45.105  29.335  29.770  1.00  0.00     0.074 A 
ATOM     38  C   UNL A   1      44.895  28.181  30.636  1.00  0.00     0.031 C 
ATOM     39  C   UNL A   1      44.961  30.675  29.992  1.00  0.00     0.037 A 
BRANCH  26  40
ATOM     40  C   UNL A   1      42.488  28.976  34.532  1.00  0.00     0.058 A 
ATOM     41  C   UNL A   1      42.702  29.566  35.794  1.00  0.00     0.135 A 
ATOM     42  C   UNL A   1      42.940  27.645  34.389  1.00  0.00     0.135 A 
ATOM     43  F   UNL A   1      42.324  30.833  36.029  1.00  0.00    -0.206 F 
ATOM     44  C   UNL A   1      43.375  28.902  36.819  1.00  0.00     0.059 A 
ATOM     45  C   UNL A   1      43.563  26.947  35.414  1.00  0.00     0.059 A 
ATOM     46  F   UNL A   1      42.886  27.002  33.217  1.00  0.00    -0.206 F 
ATOM     47  C   UNL A   1      43.821  27.599  36.609  1.00  0.00     0.060 A 
BRANCH  47  48
ATOM     48  S   UNL A   1      44.811  26.784  37.873  1.00  0.00     0.124 S 
ATOM     49  O   UNL A   1      45.197  25.556  37.187  1.00  0.00    -0.237 OA
ATOM     50  O   UNL A   1      45.879  27.752  38.101  1.00  0.00    -0.237 OA
ATOM     51  O   UNL A   1      43.874  26.625  38.981  1.00  0.00    -0.744 OA
ENDBRANCH  47  48
ENDBRANCH  26  40
BRANCH  27  52
ATOM     52  C   UNL A   1      44.253  25.592  26.974  1.00  0.00     0.058 A 
ATOM     53  C   UNL A   1      43.779  24.410  27.564  1.00  0.00     0.135 A 
ATOM     54  C   UNL A   1      44.842  25.462  25.699  1.00  0.00     0.135 A 
ATOM     55  F   UNL A   1      43.177  24.446  28.763  1.00  0.00    -0.206 F 
ATOM     56  C   UNL A   1      43.848  23.176  26.910  1.00  0.00     0.059 A 
ATOM     57  C   UNL A   1      44.940  24.243  25.037  1.00  0.00     0.059 A 
ATOM     58  F   UNL A   1      45.259  26.535  25.009  1.00  0.00    -0.206 F 
ATOM     59  C   UNL A   1      44.415  23.108  25.638  1.00  0.00     0.060 A 
BRANCH  59  60
ATOM     60  S   UNL A   1      44.345  21.555  24.718  1.00  0.00     0.124 S 
ATOM     61  O   UNL A   1      43.088  20.983  25.190  1.00  0.00    -0.237 OA
ATOM     62  O   UNL A   1      44.358  22.016  23.335  1.00  0.00    -0.237 OA
ATOM     63  O   UNL A   1      45.551  20.851  25.148  1.00  0.00    -0.744 OA
ENDBRANCH  59  60
ENDBRANCH  27  52
BRANCH  39  64
ATOM     64  C   UNL A   1      45.226  31.624  28.854  1.00  0.00     0.058 A 
ATOM     65  C   UNL A   1      44.292  31.936  27.851  1.00  0.00     0.135 A 
ATOM     66  C   UNL A   1      46.425  32.356  28.862  1.00  0.00     0.135 A 
ATOM     67  F   UNL A   1      43.076  31.368  27.839  1.00  0.00    -0.206 F 
ATOM     68  C   UNL A   1      44.561  32.892  26.869  1.00  0.00     0.059 A 
ATOM     69  C   UNL A   1      46.701  33.337  27.912  1.00  0.00     0.059 A 
ATOM     70  F   UNL A   1      47.331  32.155  29.833  1.00  0.00    -0.206 F 
ATOM     71  C   UNL A   1      45.769  33.587  26.907  1.00  0.00     0.060 A 
BRANCH  71  72
ATOM     72  S   UNL A   1      46.078  34.882  25.684  1.00  0.00     0.124 S 
ATOM     73  O   UNL A   1      45.306  34.412  24.539  1.00  0.00    -0.237 OA
ATOM     74  O   UNL A   1      45.564  36.077  26.348  1.00  0.00    -0.237 OA
ATOM     75  O   UNL A   1      47.529  34.852  25.516  1.00  0.00    -0.744 OA
ENDBRANCH  71  72
ENDBRANCH  39  64
ENDBRANCH  13  14
ENDBRANCH   6   8
ENDBRANCH   5   6
ENDBRANCH   4   5
ENDBRANCH   3   4
ENDBRANCH   2   3
ENDBRANCH   1   2
BRANCH   1  76
ATOM     76  C   UNL A   1      33.578  28.525  22.491  1.00  0.00     0.261 C 
BRANCH  76  77
ATOM     77  O   UNL A   1      34.014  27.257  23.039  1.00  0.00    -0.463 OA
BRANCH  77  78
ATOM     78  C   UNL A   1      33.272  26.168  22.762  1.00  0.00     0.310 C 
ATOM     79  O   UNL A   1      33.519  25.379  21.853  1.00  0.00    -0.252 OA
BRANCH  78  80
ATOM     80  C   UNL A   1      32.108  25.937  23.706  1.00  0.00     0.119 C 
ATOM     81  C   UNL A   1      32.376  25.672  25.194  1.00  0.00     0.100 C 
ATOM     82  C   UNL A   1      30.860  25.114  23.223  1.00  0.00     0.026 C 
ATOM     83  C   UNL A   1      31.092  25.062  25.827  1.00  0.00     0.025 C 
ATOM     84  C   UNL A   1      30.729  23.743  23.871  1.00  0.00    -0.027 C 
ATOM     85  C   UNL A   1      29.631  25.831  23.841  1.00  0.00     0.009 C 
ATOM     86  C   UNL A   1      30.841  23.718  25.211  1.00  0.00    -0.027 C 
ATOM     87  C   UNL A   1      29.854  25.928  25.386  1.00  0.00     0.009 C 
BRANCH  81  88
ATOM     88  C   UNL A   1      33.745  25.159  25.682  1.00  0.00     0.228 C 
ATOM     89  O   UNL A   1      34.537  26.020  26.112  1.00  0.00    -0.274 OA
ATOM     90  N   UNL A   1      34.191  23.883  25.823  1.00  0.00    -0.326 N 
ATOM     91  H   UNL A   1      34.969  23.841  26.425  1.00  0.00     0.169 HD
BRANCH  90  92
ATOM     92  C   UNL A   1      33.849  22.611  25.345  1.00  0.00     0.041 A 
ATOM     93  C   UNL A   1      33.566  21.607  26.280  1.00  0.00     0.026 A 
ATOM     94  C   UNL A   1      33.829  22.254  24.014  1.00  0.00     0.026 A 
ATOM     95  C   UNL A   1      33.141  20.328  25.875  1.00  0.00     0.008 A 
ATOM     96  C   UNL A   1      33.361  21.004  23.601  1.00  0.00     0.008 A 
ATOM     97  C   UNL A   1      33.004  20.022  24.518  1.00  0.00    -0.026 A 
BRANCH  97  98
ATOM     98  C   UNL A   1      32.498  18.696  24.009  1.00  0.00     0.181 C 
BRANCH  98  99
ATOM     99  N   UNL A   1      33.242  17.562  24.526  1.00  0.00    -0.249 N 
ATOM    100  C   UNL A   1      32.739  16.428  25.085  1.00  0.00     0.220 A 
ATOM    101  N   UNL A   1      34.567  17.431  24.297  1.00  0.00    -0.160 NA
ATOM    102  N   UNL A   1      33.705  15.562  25.282  1.00  0.00    -0.224 NA
ATOM    103  C   UNL A   1      34.803  16.218  24.803  1.00  0.00     0.246 A 
ENDBRANCH  98  99
ENDBRANCH  97  98
ENDBRANCH  90  92
ENDBRANCH  81  88
ENDBRANCH  78  80
ENDBRANCH  77  78
ENDBRANCH  76  77
ENDBRANCH   1  76
TORSDOF 21
ENDMDL
