MODEL 1
REMARK VINA RESULT:     -11.4      0.000      0.000
REMARK SMILES Cc1cc2c(c(C)c1Br)C=C(C(=O)OCCOCCOC(=O)c1ccc(-c3c4nc(c(-c5c(F)cc(S(=O)(=O)[O-])cc5F)c5ccc([nH]5)c(-c5c(F)cc(S(=O)(=O)[O-])cc5F)c5nc(c(-c6c(F)cc(S(=O)(=O)[O-])cc6F)c6ccc3[nH]6)C=C5)C=C4)cc1)[C@@H](C(F)(F)F)O2
REMARK SMILES IDX 18 1 17 2 16 3 15 4 14 5 12 6 13 7 11 8 1 9 2 10 3 11 8 12
REMARK SMILES IDX 4 13 6 14 9 15 5 16 94 17 7 18 10 19 89 20 90 21 91 22 92 23
REMARK SMILES IDX 93 24 19 25 20 26 21 27 22 28 23 29 24 30 88 31 25 32 87 33
REMARK SMILES IDX 26 34 27 35 28 36 81 37 29 38 86 39 80 40 82 41 30 42 85 43
REMARK SMILES IDX 79 44 78 45 31 47 65 48 44 49 64 50 45 51 48 52 63 53 83 54
REMARK SMILES IDX 46 55 47 56 62 58 84 59 49 60 32 61 33 62 42 63 34 64 35 65
REMARK SMILES IDX 41 66 43 67 36 68 37 69 38 70 39 71 40 72 66 73 67 74 76 75
REMARK SMILES IDX 68 76 69 77 75 78 77 79 70 80 71 81 72 82 73 83 74 84 50 85
REMARK SMILES IDX 51 86 60 87 52 88 53 89 59 90 61 91 54 92 55 93 56 94 57 95
REMARK SMILES IDX 58 96
REMARK H PARENT 82 46 48 57
REMARK Flexibility Score: inf
ROOT
ATOM      1  C   UNL A   1      34.079  31.936  27.770  1.00  0.00     0.202 C 
ENDROOT
BRANCH   1   2
ATOM      2  O   UNL A   1      33.681  30.818  26.975  1.00  0.00    -0.374 OA
BRANCH   2   3
ATOM      3  C   UNL A   1      32.287  30.515  26.905  1.00  0.00     0.202 C 
BRANCH   3   4
ATOM      4  C   UNL A   1      31.764  30.003  25.561  1.00  0.00     0.261 C 
BRANCH   4   5
ATOM      5  O   UNL A   1      31.425  28.608  25.620  1.00  0.00    -0.460 OA
BRANCH   5   6
ATOM      6  C   UNL A   1      31.008  28.081  24.448  1.00  0.00     0.338 C 
ATOM      7  O   UNL A   1      30.111  28.500  23.730  1.00  0.00    -0.246 OA
BRANCH   6   8
ATOM      8  C   UNL A   1      31.896  26.972  24.053  1.00  0.00     0.087 C 
ATOM      9  C   UNL A   1      36.295  22.248  24.114  1.00  0.00     0.046 C 
ATOM     10  C   UNL A   1      35.072  23.102  24.318  1.00  0.00    -0.033 A 
ATOM     11  C   UNL A   1      34.779  24.082  23.360  1.00  0.00     0.051 A 
ATOM     12  C   UNL A   1      34.231  22.973  25.443  1.00  0.00     0.024 A 
ATOM     13  C   UNL A   1      33.726  24.974  23.549  1.00  0.00     0.128 A 
ATOM     14  C   UNL A   1      33.134  23.846  25.632  1.00  0.00    -0.026 A 
ATOM     15  Br  UNL A   1      34.633  21.614  26.731  1.00  0.00    -0.050 Br
ATOM     16  C   UNL A   1      32.931  24.892  24.695  1.00  0.00     0.021 A 
ATOM     17  O   UNL A   1      33.553  25.893  22.552  1.00  0.00    -0.475 OA
ATOM     18  C   UNL A   1      32.189  23.720  26.806  1.00  0.00     0.046 C 
ATOM     19  C   UNL A   1      31.960  25.957  24.923  1.00  0.00     0.027 C 
ATOM     20  C   UNL A   1      32.683  27.035  22.778  1.00  0.00     0.316 C 
BRANCH  20  21
ATOM     21  C   UNL A   1      33.525  28.313  22.660  1.00  0.00     0.430 C 
ATOM     22  F   UNL A   1      32.741  29.393  22.418  1.00  0.00    -0.167 F 
ATOM     23  F   UNL A   1      34.209  28.573  23.797  1.00  0.00    -0.167 F 
ATOM     24  F   UNL A   1      34.425  28.231  21.653  1.00  0.00    -0.167 F 
ENDBRANCH  20  21
ENDBRANCH   6   8
ENDBRANCH   5   6
ENDBRANCH   4   5
ENDBRANCH   3   4
ENDBRANCH   2   3
ENDBRANCH   1   2
BRANCH   1  25
ATOM     25  C   UNL A   1      35.012  31.663  28.955  1.00  0.00     0.261 C 
BRANCH  25  26
ATOM     26  O   UNL A   1      35.666  30.385  28.852  1.00  0.00    -0.460 OA
BRANCH  26  27
ATOM     27  C   UNL A   1      36.373  30.023  29.948  1.00  0.00     0.338 C 
ATOM     28  O   UNL A   1      35.924  29.635  31.020  1.00  0.00    -0.246 OA
BRANCH  27  29
ATOM     29  C   UNL A   1      37.810  29.968  29.632  1.00  0.00     0.060 A 
ATOM     30  C   UNL A   1      38.172  29.836  28.285  1.00  0.00     0.016 A 
ATOM     31  C   UNL A   1      38.781  29.946  30.635  1.00  0.00     0.016 A 
ATOM     32  C   UNL A   1      39.505  29.633  27.938  1.00  0.00     0.010 A 
ATOM     33  C   UNL A   1      40.118  29.727  30.286  1.00  0.00     0.010 A 
ATOM     34  C   UNL A   1      40.478  29.531  28.940  1.00  0.00    -0.014 A 
BRANCH  34  35
ATOM     35  C   UNL A   1      41.837  29.054  28.584  1.00  0.00     0.031 A 
ATOM     36  C   UNL A   1      42.980  30.032  28.624  1.00  0.00     0.074 A 
ATOM     37  C   UNL A   1      42.057  27.763  28.282  1.00  0.00     0.049 A 
ATOM     38  N   UNL A   1      44.241  29.845  28.335  1.00  0.00    -0.248 NA
ATOM     39  C   UNL A   1      42.659  31.406  29.050  1.00  0.00     0.031 C 
ATOM     40  C   UNL A   1      41.038  26.715  28.265  1.00  0.00     0.029 A 
ATOM     41  N   UNL A   1      43.214  27.114  27.932  1.00  0.00    -0.354 N 
ATOM     42  C   UNL A   1      44.864  31.068  28.547  1.00  0.00     0.074 A 
ATOM     43  C   UNL A   1      43.839  32.002  28.959  1.00  0.00     0.031 C 
ATOM     44  C   UNL A   1      41.616  25.552  27.918  1.00  0.00     0.029 A 
ATOM     45  C   UNL A   1      43.036  25.780  27.659  1.00  0.00     0.049 A 
ATOM     46  H   UNL A   1      44.088  27.563  27.881  1.00  0.00     0.167 HD
ATOM     47  C   UNL A   1      46.175  31.382  28.421  1.00  0.00     0.037 A 
ATOM     48  C   UNL A   1      43.918  24.853  27.231  1.00  0.00     0.037 A 
ATOM     49  C   UNL A   1      47.192  30.450  28.009  1.00  0.00     0.049 A 
ATOM     50  C   UNL A   1      45.356  25.248  27.016  1.00  0.00     0.074 A 
ATOM     51  C   UNL A   1      48.548  30.672  27.851  1.00  0.00     0.029 A 
ATOM     52  N   UNL A   1      46.963  29.120  27.687  1.00  0.00    -0.354 N 
ATOM     53  N   UNL A   1      45.932  26.409  27.217  1.00  0.00    -0.248 NA
ATOM     54  C   UNL A   1      46.263  24.207  26.512  1.00  0.00     0.031 C 
ATOM     55  C   UNL A   1      49.134  29.488  27.393  1.00  0.00     0.029 A 
ATOM     56  C   UNL A   1      48.150  28.515  27.309  1.00  0.00     0.049 A 
ATOM     57  H   UNL A   1      46.087  28.673  27.723  1.00  0.00     0.167 HD
ATOM     58  C   UNL A   1      47.271  26.235  26.883  1.00  0.00     0.074 A 
ATOM     59  C   UNL A   1      47.423  24.852  26.479  1.00  0.00     0.031 C 
ATOM     60  C   UNL A   1      48.284  27.137  26.908  1.00  0.00     0.037 A 
BRANCH  47  61
ATOM     61  C   UNL A   1      46.587  32.797  28.717  1.00  0.00     0.058 A 
ATOM     62  C   UNL A   1      46.638  33.773  27.708  1.00  0.00     0.135 A 
ATOM     63  C   UNL A   1      46.883  33.194  30.029  1.00  0.00     0.135 A 
ATOM     64  F   UNL A   1      46.384  33.441  26.432  1.00  0.00    -0.206 F 
ATOM     65  C   UNL A   1      46.980  35.090  27.991  1.00  0.00     0.059 A 
ATOM     66  C   UNL A   1      47.206  34.511  30.339  1.00  0.00     0.059 A 
ATOM     67  F   UNL A   1      46.854  32.298  31.029  1.00  0.00    -0.206 F 
ATOM     68  C   UNL A   1      47.260  35.451  29.311  1.00  0.00     0.060 A 
BRANCH  68  69
ATOM     69  S   UNL A   1      47.680  37.172  29.661  1.00  0.00     0.124 S 
ATOM     70  O   UNL A   1      48.875  37.352  28.843  1.00  0.00    -0.237 OA
ATOM     71  O   UNL A   1      46.489  37.881  29.208  1.00  0.00    -0.237 OA
ATOM     72  O   UNL A   1      47.900  37.181  31.104  1.00  0.00    -0.744 OA
ENDBRANCH  68  69
ENDBRANCH  47  61
BRANCH  48  73
ATOM     73  C   UNL A   1      43.463  23.462  26.969  1.00  0.00     0.058 A 
ATOM     74  C   UNL A   1      43.278  22.996  25.660  1.00  0.00     0.135 A 
ATOM     75  C   UNL A   1      43.214  22.569  28.023  1.00  0.00     0.135 A 
ATOM     76  F   UNL A   1      43.492  23.817  24.619  1.00  0.00    -0.206 F 
ATOM     77  C   UNL A   1      42.856  21.696  25.403  1.00  0.00     0.059 A 
ATOM     78  C   UNL A   1      42.813  21.258  27.790  1.00  0.00     0.059 A 
ATOM     79  F   UNL A   1      43.382  22.966  29.294  1.00  0.00    -0.206 F 
ATOM     80  C   UNL A   1      42.630  20.832  26.476  1.00  0.00     0.060 A 
BRANCH  80  81
ATOM     81  S   UNL A   1      42.136  19.130  26.127  1.00  0.00     0.124 S 
ATOM     82  O   UNL A   1      40.712  19.286  25.862  1.00  0.00    -0.237 OA
ATOM     83  O   UNL A   1      42.970  18.802  24.975  1.00  0.00    -0.237 OA
ATOM     84  O   UNL A   1      42.476  18.423  27.359  1.00  0.00    -0.744 OA
ENDBRANCH  80  81
ENDBRANCH  48  73
BRANCH  60  85
ATOM     85  C   UNL A   1      49.651  26.661  26.501  1.00  0.00     0.058 A 
ATOM     86  C   UNL A   1      50.504  26.017  27.410  1.00  0.00     0.135 A 
ATOM     87  C   UNL A   1      50.083  26.788  25.172  1.00  0.00     0.135 A 
ATOM     88  F   UNL A   1      50.139  25.874  28.694  1.00  0.00    -0.206 F 
ATOM     89  C   UNL A   1      51.746  25.530  27.019  1.00  0.00     0.059 A 
ATOM     90  C   UNL A   1      51.312  26.287  24.752  1.00  0.00     0.059 A 
ATOM     91  F   UNL A   1      49.299  27.386  24.260  1.00  0.00    -0.206 F 
ATOM     92  C   UNL A   1      52.140  25.667  25.686  1.00  0.00     0.060 A 
BRANCH  92  93
ATOM     93  S   UNL A   1      53.739  24.996  25.185  1.00  0.00     0.124 S 
ATOM     94  O   UNL A   1      53.436  23.574  25.060  1.00  0.00    -0.237 OA
ATOM     95  O   UNL A   1      53.995  25.701  23.932  1.00  0.00    -0.237 OA
ATOM     96  O   UNL A   1      54.622  25.355  26.290  1.00  0.00    -0.744 OA
ENDBRANCH  92  93
ENDBRANCH  60  85
ENDBRANCH  34  35
ENDBRANCH  27  29
ENDBRANCH  26  27
ENDBRANCH  25  26
ENDBRANCH   1  25
TORSDOF 18
ENDMDL
MODEL 2
REMARK VINA RESULT:     -11.4      1.386      2.050
REMARK SMILES Cc1cc2c(c(C)c1Br)C=C(C(=O)OCCOCCOC(=O)c1ccc(-c3c4nc(c(-c5c(F)cc(S(=O)(=O)[O-])cc5F)c5ccc([nH]5)c(-c5c(F)cc(S(=O)(=O)[O-])cc5F)c5nc(c(-c6c(F)cc(S(=O)(=O)[O-])cc6F)c6ccc3[nH]6)C=C5)C=C4)cc1)[C@@H](C(F)(F)F)O2
REMARK SMILES IDX 18 1 17 2 16 3 15 4 14 5 12 6 13 7 11 8 1 9 2 10 3 11 8 12
REMARK SMILES IDX 4 13 6 14 9 15 5 16 94 17 7 18 10 19 89 20 90 21 91 22 92 23
REMARK SMILES IDX 93 24 19 25 20 26 21 27 22 28 23 29 24 30 88 31 25 32 87 33
REMARK SMILES IDX 26 34 27 35 28 36 81 37 29 38 86 39 80 40 82 41 30 42 85 43
REMARK SMILES IDX 79 44 78 45 31 47 65 48 44 49 64 50 45 51 48 52 63 53 83 54
REMARK SMILES IDX 46 55 47 56 62 58 84 59 49 60 32 61 33 62 42 63 34 64 35 65
REMARK SMILES IDX 41 66 43 67 36 68 37 69 38 70 39 71 40 72 66 73 67 74 76 75
REMARK SMILES IDX 68 76 69 77 75 78 77 79 70 80 71 81 72 82 73 83 74 84 50 85
REMARK SMILES IDX 51 86 60 87 52 88 53 89 59 90 61 91 54 92 55 93 56 94 57 95
REMARK SMILES IDX 58 96
REMARK H PARENT 82 46 48 57
REMARK Flexibility Score: inf
ROOT
ATOM      1  C   UNL A   1      33.725  30.729  27.580  1.00  0.00     0.202 C 
ENDROOT
BRANCH   1   2
ATOM      2  O   UNL A   1      34.299  29.437  27.782  1.00  0.00    -0.374 OA
BRANCH   2   3
ATOM      3  C   UNL A   1      34.419  28.578  26.648  1.00  0.00     0.202 C 
BRANCH   3   4
ATOM      4  C   UNL A   1      33.554  28.923  25.432  1.00  0.00     0.261 C 
BRANCH   4   5
ATOM      5  O   UNL A   1      32.696  27.831  25.066  1.00  0.00    -0.460 OA
BRANCH   5   6
ATOM      6  C   UNL A   1      33.143  27.089  24.028  1.00  0.00     0.338 C 
ATOM      7  O   UNL A   1      33.625  27.502  22.983  1.00  0.00    -0.246 OA
BRANCH   6   8
ATOM      8  C   UNL A   1      33.106  25.658  24.381  1.00  0.00     0.087 C 
ATOM      9  C   UNL A   1      34.342  19.329  24.690  1.00  0.00     0.046 C 
ATOM     10  C   UNL A   1      34.394  20.831  24.794  1.00  0.00    -0.033 A 
ATOM     11  C   UNL A   1      33.186  21.539  24.795  1.00  0.00     0.051 A 
ATOM     12  C   UNL A   1      35.607  21.548  24.863  1.00  0.00     0.024 A 
ATOM     13  C   UNL A   1      33.172  22.932  24.778  1.00  0.00     0.128 A 
ATOM     14  C   UNL A   1      35.613  22.962  24.885  1.00  0.00    -0.026 A 
ATOM     15  Br  UNL A   1      37.249  20.563  24.884  1.00  0.00    -0.050 Br
ATOM     16  C   UNL A   1      34.373  23.646  24.780  1.00  0.00     0.021 A 
ATOM     17  O   UNL A   1      31.932  23.504  24.763  1.00  0.00    -0.475 OA
ATOM     18  C   UNL A   1      36.888  23.768  24.993  1.00  0.00     0.046 C 
ATOM     19  C   UNL A   1      34.301  25.091  24.583  1.00  0.00     0.027 C 
ATOM     20  C   UNL A   1      31.804  24.920  24.458  1.00  0.00     0.316 C 
BRANCH  20  21
ATOM     21  C   UNL A   1      30.961  25.063  23.182  1.00  0.00     0.430 C 
ATOM     22  F   UNL A   1      31.748  25.089  22.079  1.00  0.00    -0.167 F 
ATOM     23  F   UNL A   1      30.103  24.029  23.027  1.00  0.00    -0.167 F 
ATOM     24  F   UNL A   1      30.230  26.201  23.187  1.00  0.00    -0.167 F 
ENDBRANCH  20  21
ENDBRANCH   6   8
ENDBRANCH   5   6
ENDBRANCH   4   5
ENDBRANCH   3   4
ENDBRANCH   2   3
ENDBRANCH   1   2
BRANCH   1  25
ATOM     25  C   UNL A   1      34.535  31.943  28.053  1.00  0.00     0.261 C 
BRANCH  25  26
ATOM     26  O   UNL A   1      35.953  31.707  27.999  1.00  0.00    -0.460 OA
BRANCH  26  27
ATOM     27  C   UNL A   1      36.515  31.364  29.182  1.00  0.00     0.338 C 
ATOM     28  O   UNL A   1      36.052  31.555  30.300  1.00  0.00    -0.246 OA
BRANCH  27  29
ATOM     29  C   UNL A   1      37.711  30.535  28.957  1.00  0.00     0.060 A 
ATOM     30  C   UNL A   1      38.628  30.422  30.010  1.00  0.00     0.016 A 
ATOM     31  C   UNL A   1      37.980  29.961  27.713  1.00  0.00     0.016 A 
ATOM     32  C   UNL A   1      39.844  29.774  29.808  1.00  0.00     0.010 A 
ATOM     33  C   UNL A   1      39.208  29.322  27.508  1.00  0.00     0.010 A 
ATOM     34  C   UNL A   1      40.159  29.261  28.543  1.00  0.00    -0.014 A 
BRANCH  34  35
ATOM     35  C   UNL A   1      41.546  28.814  28.268  1.00  0.00     0.031 A 
ATOM     36  C   UNL A   1      42.658  29.827  28.328  1.00  0.00     0.074 A 
ATOM     37  C   UNL A   1      41.817  27.522  28.019  1.00  0.00     0.049 A 
ATOM     38  N   UNL A   1      43.936  29.669  28.105  1.00  0.00    -0.248 NA
ATOM     39  C   UNL A   1      42.277  31.203  28.693  1.00  0.00     0.031 C 
ATOM     40  C   UNL A   1      40.831  26.443  27.990  1.00  0.00     0.029 A 
ATOM     41  N   UNL A   1      43.008  26.897  27.746  1.00  0.00    -0.354 N 
ATOM     42  C   UNL A   1      44.513  30.917  28.305  1.00  0.00     0.074 A 
ATOM     43  C   UNL A   1      43.443  31.832  28.637  1.00  0.00     0.031 C 
ATOM     44  C   UNL A   1      41.458  25.287  27.708  1.00  0.00     0.029 A 
ATOM     45  C   UNL A   1      42.882  25.549  27.509  1.00  0.00     0.049 A 
ATOM     46  H   UNL A   1      43.871  27.370  27.721  1.00  0.00     0.167 HD
ATOM     47  C   UNL A   1      45.819  31.266  28.230  1.00  0.00     0.037 A 
ATOM     48  C   UNL A   1      43.809  24.637  27.154  1.00  0.00     0.037 A 
ATOM     49  C   UNL A   1      46.880  30.352  27.897  1.00  0.00     0.049 A 
ATOM     50  C   UNL A   1      45.244  25.068  26.994  1.00  0.00     0.074 A 
ATOM     51  C   UNL A   1      48.235  30.610  27.796  1.00  0.00     0.029 A 
ATOM     52  N   UNL A   1      46.706  29.006  27.610  1.00  0.00    -0.354 N 
ATOM     53  N   UNL A   1      45.776  26.252  27.183  1.00  0.00    -0.248 NA
ATOM     54  C   UNL A   1      46.204  24.039  26.567  1.00  0.00     0.031 C 
ATOM     55  C   UNL A   1      48.876  29.430  27.405  1.00  0.00     0.029 A 
ATOM     56  C   UNL A   1      47.926  28.425  27.308  1.00  0.00     0.049 A 
ATOM     57  H   UNL A   1      45.842  28.535  27.619  1.00  0.00     0.167 HD
ATOM     58  C   UNL A   1      47.134  26.107  26.917  1.00  0.00     0.074 A 
ATOM     59  C   UNL A   1      47.344  24.717  26.568  1.00  0.00     0.031 C 
ATOM     60  C   UNL A   1      48.118  27.040  26.960  1.00  0.00     0.037 A 
BRANCH  47  61
ATOM     61  C   UNL A   1      46.175  32.701  28.498  1.00  0.00     0.058 A 
ATOM     62  C   UNL A   1      46.523  33.143  29.784  1.00  0.00     0.135 A 
ATOM     63  C   UNL A   1      46.219  33.632  27.450  1.00  0.00     0.135 A 
ATOM     64  F   UNL A   1      46.476  32.297  30.826  1.00  0.00    -0.206 F 
ATOM     65  C   UNL A   1      46.891  34.462  30.023  1.00  0.00     0.059 A 
ATOM     66  C   UNL A   1      46.606  34.952  27.661  1.00  0.00     0.059 A 
ATOM     67  F   UNL A   1      45.890  33.262  26.202  1.00  0.00    -0.206 F 
ATOM     68  C   UNL A   1      46.933  35.360  28.953  1.00  0.00     0.060 A 
BRANCH  68  69
ATOM     69  S   UNL A   1      47.436  37.063  29.279  1.00  0.00     0.124 S 
ATOM     70  O   UNL A   1      46.211  37.626  29.839  1.00  0.00    -0.237 OA
ATOM     71  O   UNL A   1      48.539  36.888  30.217  1.00  0.00    -0.237 OA
ATOM     72  O   UNL A   1      47.811  37.565  27.961  1.00  0.00    -0.744 OA
ENDBRANCH  68  69
ENDBRANCH  47  61
BRANCH  48  73
ATOM     73  C   UNL A   1      43.408  23.225  26.917  1.00  0.00     0.058 A 
ATOM     74  C   UNL A   1      43.326  22.704  25.619  1.00  0.00     0.135 A 
ATOM     75  C   UNL A   1      43.106  22.367  27.987  1.00  0.00     0.135 A 
ATOM     76  F   UNL A   1      43.593  23.489  24.563  1.00  0.00    -0.206 F 
ATOM     77  C   UNL A   1      42.954  21.384  25.386  1.00  0.00     0.059 A 
ATOM     78  C   UNL A   1      42.754  21.037  27.780  1.00  0.00     0.059 A 
ATOM     79  F   UNL A   1      43.175  22.817  29.250  1.00  0.00    -0.206 F 
ATOM     80  C   UNL A   1      42.675  20.556  26.474  1.00  0.00     0.060 A 
BRANCH  80  81
ATOM     81  S   UNL A   1      42.248  18.830  26.162  1.00  0.00     0.124 S 
ATOM     82  O   UNL A   1      40.838  18.935  25.806  1.00  0.00    -0.237 OA
ATOM     83  O   UNL A   1      43.158  18.484  25.074  1.00  0.00    -0.237 OA
ATOM     84  O   UNL A   1      42.531  18.178  27.438  1.00  0.00    -0.744 OA
ENDBRANCH  80  81
ENDBRANCH  48  73
BRANCH  60  85
ATOM     85  C   UNL A   1      49.516  26.592  26.634  1.00  0.00     0.058 A 
ATOM     86  C   UNL A   1      50.397  26.150  27.633  1.00  0.00     0.135 A 
ATOM     87  C   UNL A   1      49.955  26.540  25.302  1.00  0.00     0.135 A 
ATOM     88  F   UNL A   1      50.027  26.184  28.923  1.00  0.00    -0.206 F 
ATOM     89  C   UNL A   1      51.671  25.687  27.323  1.00  0.00     0.059 A 
ATOM     90  C   UNL A   1      51.216  26.057  24.966  1.00  0.00     0.059 A 
ATOM     91  F   UNL A   1      49.147  26.941  24.307  1.00  0.00    -0.206 F 
ATOM     92  C   UNL A   1      52.071  25.641  25.986  1.00  0.00     0.060 A 
BRANCH  92  93
ATOM     93  S   UNL A   1      53.713  25.001  25.597  1.00  0.00     0.124 S 
ATOM     94  O   UNL A   1      53.414  23.619  25.238  1.00  0.00    -0.237 OA
ATOM     95  O   UNL A   1      54.132  25.865  24.497  1.00  0.00    -0.237 OA
ATOM     96  O   UNL A   1      54.453  25.180  26.843  1.00  0.00    -0.744 OA
ENDBRANCH  92  93
ENDBRANCH  60  85
ENDBRANCH  34  35
ENDBRANCH  27  29
ENDBRANCH  26  27
ENDBRANCH  25  26
ENDBRANCH   1  25
TORSDOF 18
ENDMDL
MODEL 3
REMARK VINA RESULT:     -11.4      6.357     11.878
REMARK SMILES Cc1cc2c(c(C)c1Br)C=C(C(=O)OCCOCCOC(=O)c1ccc(-c3c4nc(c(-c5c(F)cc(S(=O)(=O)[O-])cc5F)c5ccc([nH]5)c(-c5c(F)cc(S(=O)(=O)[O-])cc5F)c5nc(c(-c6c(F)cc(S(=O)(=O)[O-])cc6F)c6ccc3[nH]6)C=C5)C=C4)cc1)[C@@H](C(F)(F)F)O2
REMARK SMILES IDX 18 1 17 2 16 3 15 4 14 5 12 6 13 7 11 8 1 9 2 10 3 11 8 12
REMARK SMILES IDX 4 13 6 14 9 15 5 16 94 17 7 18 10 19 89 20 90 21 91 22 92 23
REMARK SMILES IDX 93 24 19 25 20 26 21 27 22 28 23 29 24 30 88 31 25 32 87 33
REMARK SMILES IDX 26 34 27 35 28 36 81 37 29 38 86 39 80 40 82 41 30 42 85 43
REMARK SMILES IDX 79 44 78 45 31 47 65 48 44 49 64 50 45 51 48 52 63 53 83 54
REMARK SMILES IDX 46 55 47 56 62 58 84 59 49 60 32 61 33 62 42 63 34 64 35 65
REMARK SMILES IDX 41 66 43 67 36 68 37 69 38 70 39 71 40 72 66 73 67 74 76 75
REMARK SMILES IDX 68 76 69 77 75 78 77 79 70 80 71 81 72 82 73 83 74 84 50 85
REMARK SMILES IDX 51 86 60 87 52 88 53 89 59 90 61 91 54 92 55 93 56 94 57 95
REMARK SMILES IDX 58 96
REMARK H PARENT 82 46 48 57
REMARK Flexibility Score: inf
ROOT
ATOM      1  C   UNL A   1      40.238  21.680  26.696  1.00  0.00     0.202 C 
ENDROOT
BRANCH   1   2
ATOM      2  O   UNL A   1      39.127  21.680  25.799  1.00  0.00    -0.374 OA
BRANCH   2   3
ATOM      3  C   UNL A   1      38.207  22.769  25.880  1.00  0.00     0.202 C 
BRANCH   3   4
ATOM      4  C   UNL A   1      36.747  22.461  25.535  1.00  0.00     0.261 C 
BRANCH   4   5
ATOM      5  O   UNL A   1      36.107  23.576  24.895  1.00  0.00    -0.460 OA
BRANCH   5   6
ATOM      6  C   UNL A   1      35.758  23.359  23.607  1.00  0.00     0.338 C 
ATOM      7  O   UNL A   1      36.431  22.811  22.745  1.00  0.00    -0.246 OA
BRANCH   6   8
ATOM      8  C   UNL A   1      34.355  23.756  23.394  1.00  0.00     0.087 C 
ATOM      9  C   UNL A   1      28.604  26.650  23.875  1.00  0.00     0.046 C 
ATOM     10  C   UNL A   1      30.053  26.320  23.634  1.00  0.00    -0.033 A 
ATOM     11  C   UNL A   1      30.400  24.983  23.399  1.00  0.00     0.051 A 
ATOM     12  C   UNL A   1      31.071  27.296  23.661  1.00  0.00     0.024 A 
ATOM     13  C   UNL A   1      31.734  24.601  23.278  1.00  0.00     0.128 A 
ATOM     14  C   UNL A   1      32.429  26.932  23.501  1.00  0.00    -0.026 A 
ATOM     15  Br  UNL A   1      30.578  29.122  23.959  1.00  0.00    -0.050 Br
ATOM     16  C   UNL A   1      32.750  25.555  23.370  1.00  0.00     0.021 A 
ATOM     17  O   UNL A   1      31.943  23.266  23.069  1.00  0.00    -0.475 OA
ATOM     18  C   UNL A   1      33.548  27.950  23.490  1.00  0.00     0.046 C 
ATOM     19  C   UNL A   1      34.127  25.075  23.413  1.00  0.00     0.027 C 
ATOM     20  C   UNL A   1      33.283  22.723  23.214  1.00  0.00     0.316 C 
BRANCH  20  21
ATOM     21  C   UNL A   1      33.261  21.683  24.343  1.00  0.00     0.430 C 
ATOM     22  F   UNL A   1      33.402  22.275  25.554  1.00  0.00    -0.167 F 
ATOM     23  F   UNL A   1      32.095  20.999  24.375  1.00  0.00    -0.167 F 
ATOM     24  F   UNL A   1      34.260  20.780  24.215  1.00  0.00    -0.167 F 
ENDBRANCH  20  21
ENDBRANCH   6   8
ENDBRANCH   5   6
ENDBRANCH   4   5
ENDBRANCH   3   4
ENDBRANCH   2   3
ENDBRANCH   1   2
BRANCH   1  25
ATOM     25  C   UNL A   1      41.561  22.258  26.180  1.00  0.00     0.261 C 
BRANCH  25  26
ATOM     26  O   UNL A   1      42.088  23.276  27.050  1.00  0.00    -0.460 OA
BRANCH  26  27
ATOM     27  C   UNL A   1      42.266  24.484  26.464  1.00  0.00     0.338 C 
ATOM     28  O   UNL A   1      42.642  24.698  25.317  1.00  0.00    -0.246 OA
BRANCH  27  29
ATOM     29  C   UNL A   1      41.756  25.554  27.338  1.00  0.00     0.060 A 
ATOM     30  C   UNL A   1      42.470  26.759  27.369  1.00  0.00     0.016 A 
ATOM     31  C   UNL A   1      40.663  25.352  28.182  1.00  0.00     0.016 A 
ATOM     32  C   UNL A   1      42.123  27.751  28.282  1.00  0.00     0.010 A 
ATOM     33  C   UNL A   1      40.325  26.344  29.108  1.00  0.00     0.010 A 
ATOM     34  C   UNL A   1      41.077  27.529  29.187  1.00  0.00    -0.014 A 
BRANCH  34  35
ATOM     35  C   UNL A   1      40.888  28.469  30.319  1.00  0.00     0.031 A 
ATOM     36  C   UNL A   1      41.795  28.355  31.515  1.00  0.00     0.074 A 
ATOM     37  C   UNL A   1      39.959  29.440  30.261  1.00  0.00     0.049 A 
ATOM     38  N   UNL A   1      41.800  29.051  32.620  1.00  0.00    -0.248 NA
ATOM     39  C   UNL A   1      42.839  27.317  31.453  1.00  0.00     0.031 C 
ATOM     40  C   UNL A   1      39.062  29.682  29.132  1.00  0.00     0.029 A 
ATOM     41  N   UNL A   1      39.620  30.405  31.175  1.00  0.00    -0.354 N 
ATOM     42  C   UNL A   1      42.844  28.543  33.383  1.00  0.00     0.074 A 
ATOM     43  C   UNL A   1      43.433  27.458  32.629  1.00  0.00     0.031 C 
ATOM     44  C   UNL A   1      38.269  30.728  29.424  1.00  0.00     0.029 A 
ATOM     45  C   UNL A   1      38.582  31.208  30.769  1.00  0.00     0.049 A 
ATOM     46  H   UNL A   1      40.077  30.510  32.041  1.00  0.00     0.167 HD
ATOM     47  C   UNL A   1      43.280  28.952  34.598  1.00  0.00     0.037 A 
ATOM     48  C   UNL A   1      37.948  32.206  31.417  1.00  0.00     0.037 A 
ATOM     49  C   UNL A   1      42.690  30.032  35.345  1.00  0.00     0.049 A 
ATOM     50  C   UNL A   1      38.397  32.587  32.804  1.00  0.00     0.074 A 
ATOM     51  C   UNL A   1      43.060  30.522  36.585  1.00  0.00     0.029 A 
ATOM     52  N   UNL A   1      41.605  30.786  34.924  1.00  0.00    -0.354 N 
ATOM     53  N   UNL A   1      39.384  32.097  33.516  1.00  0.00    -0.248 NA
ATOM     54  C   UNL A   1      37.643  33.654  33.478  1.00  0.00     0.031 C 
ATOM     55  C   UNL A   1      42.172  31.545  36.933  1.00  0.00     0.029 A 
ATOM     56  C   UNL A   1      41.277  31.723  35.890  1.00  0.00     0.049 A 
ATOM     57  H   UNL A   1      41.137  30.672  34.066  1.00  0.00     0.167 HD
ATOM     58  C   UNL A   1      39.382  32.807  34.712  1.00  0.00     0.074 A 
ATOM     59  C   UNL A   1      38.304  33.771  34.622  1.00  0.00     0.031 C 
ATOM     60  C   UNL A   1      40.199  32.675  35.786  1.00  0.00     0.037 A 
BRANCH  47  61
ATOM     61  C   UNL A   1      44.444  28.221  35.205  1.00  0.00     0.058 A 
ATOM     62  C   UNL A   1      44.260  27.073  35.993  1.00  0.00     0.135 A 
ATOM     63  C   UNL A   1      45.759  28.642  34.956  1.00  0.00     0.135 A 
ATOM     64  F   UNL A   1      43.021  26.641  36.279  1.00  0.00    -0.206 F 
ATOM     65  C   UNL A   1      45.340  26.375  36.521  1.00  0.00     0.059 A 
ATOM     66  C   UNL A   1      46.855  27.946  35.455  1.00  0.00     0.059 A 
ATOM     67  F   UNL A   1      45.989  29.736  34.214  1.00  0.00    -0.206 F 
ATOM     68  C   UNL A   1      46.635  26.817  36.244  1.00  0.00     0.060 A 
BRANCH  68  69
ATOM     69  S   UNL A   1      48.026  25.884  36.919  1.00  0.00     0.124 S 
ATOM     70  O   UNL A   1      47.436  24.557  37.076  1.00  0.00    -0.237 OA
ATOM     71  O   UNL A   1      49.027  26.012  35.866  1.00  0.00    -0.237 OA
ATOM     72  O   UNL A   1      48.334  26.584  38.162  1.00  0.00    -0.744 OA
ENDBRANCH  68  69
ENDBRANCH  47  61
BRANCH  48  73
ATOM     73  C   UNL A   1      36.812  32.910  30.765  1.00  0.00     0.058 A 
ATOM     74  C   UNL A   1      35.485  32.604  31.097  1.00  0.00     0.135 A 
ATOM     75  C   UNL A   1      37.033  33.908  29.803  1.00  0.00     0.135 A 
ATOM     76  F   UNL A   1      35.223  31.648  32.003  1.00  0.00    -0.206 F 
ATOM     77  C   UNL A   1      34.415  33.258  30.496  1.00  0.00     0.059 A 
ATOM     78  C   UNL A   1      35.979  34.592  29.204  1.00  0.00     0.059 A 
ATOM     79  F   UNL A   1      38.285  34.241  29.455  1.00  0.00    -0.206 F 
ATOM     80  C   UNL A   1      34.672  34.255  29.553  1.00  0.00     0.060 A 
BRANCH  80  81
ATOM     81  S   UNL A   1      33.276  35.135  28.820  1.00  0.00     0.124 S 
ATOM     82  O   UNL A   1      32.694  34.106  27.968  1.00  0.00    -0.237 OA
ATOM     83  O   UNL A   1      32.498  35.506  29.999  1.00  0.00    -0.237 OA
ATOM     84  O   UNL A   1      33.911  36.250  28.122  1.00  0.00    -0.744 OA
ENDBRANCH  80  81
ENDBRANCH  48  73
BRANCH  60  85
ATOM     85  C   UNL A   1      39.973  33.598  36.951  1.00  0.00     0.058 A 
ATOM     86  C   UNL A   1      40.674  34.808  37.075  1.00  0.00     0.135 A 
ATOM     87  C   UNL A   1      38.996  33.304  37.915  1.00  0.00     0.135 A 
ATOM     88  F   UNL A   1      41.621  35.133  36.182  1.00  0.00    -0.206 F 
ATOM     89  C   UNL A   1      40.426  35.685  38.124  1.00  0.00     0.059 A 
ATOM     90  C   UNL A   1      38.713  34.179  38.959  1.00  0.00     0.059 A 
ATOM     91  F   UNL A   1      38.289  32.165  37.835  1.00  0.00    -0.206 F 
ATOM     92  C   UNL A   1      39.441  35.364  39.060  1.00  0.00     0.060 A 
BRANCH  92  93
ATOM     93  S   UNL A   1      39.103  36.532  40.395  1.00  0.00     0.124 S 
ATOM     94  O   UNL A   1      38.155  35.781  41.211  1.00  0.00    -0.237 OA
ATOM     95  O   UNL A   1      40.426  36.728  40.980  1.00  0.00    -0.237 OA
ATOM     96  O   UNL A   1      38.553  37.693  39.701  1.00  0.00    -0.744 OA
ENDBRANCH  92  93
ENDBRANCH  60  85
ENDBRANCH  34  35
ENDBRANCH  27  29
ENDBRANCH  26  27
ENDBRANCH  25  26
ENDBRANCH   1  25
TORSDOF 18
ENDMDL
