MODEL 1
REMARK VINA RESULT:     -10.5      0.000      0.000
REMARK SMILES COCCN1C[C@H](C(=O)N2CCC(C(=O)OCCOCCOC(=O)c3ccc(-c4c5nc(c(-c6c(F)cc(S(=O)(=O)[O-])cc6F)c6ccc([nH]6)c(-c6c(F)cc(S(=O)(=O)[O-])cc6F)c6nc(c(-c7c(F)cc(S(=O)(=O)[O-])cc7F)c7ccc4[nH]7)C=C6)C=C5)cc3)CC2)CC1=O
REMARK SMILES IDX 18 1 17 2 16 3 14 4 15 5 13 6 8 7 9 8 10 9 11 10 92 11 12 12
REMARK SMILES IDX 91 13 7 14 5 15 6 16 94 17 93 18 95 19 4 20 3 21 2 22 1 23
REMARK SMILES IDX 19 24 20 25 21 26 22 27 23 28 24 29 25 30 26 31 90 32 27 33
REMARK SMILES IDX 89 34 28 35 29 36 30 37 83 38 31 39 88 40 82 41 84 42 32 43
REMARK SMILES IDX 87 44 81 45 80 46 33 48 67 49 46 50 66 51 47 52 50 53 65 54
REMARK SMILES IDX 85 55 48 56 49 57 64 59 86 60 51 61 34 62 35 63 44 64 36 65
REMARK SMILES IDX 37 66 43 67 45 68 38 69 39 70 40 71 41 72 42 73 68 74 69 75
REMARK SMILES IDX 78 76 70 77 71 78 77 79 79 80 72 81 73 82 74 83 75 84 76 85
REMARK SMILES IDX 52 86 53 87 62 88 54 89 55 90 61 91 63 92 56 93 57 94 58 95
REMARK SMILES IDX 59 96 60 97
REMARK H PARENT 84 47 50 58
REMARK Flexibility Score: inf
ROOT
ATOM      1  C   UNL A   1      36.036  22.675  25.551  1.00  0.00     0.202 C 
ENDROOT
BRANCH   1   2
ATOM      2  C   UNL A   1      35.542  21.233  25.693  1.00  0.00     0.261 C 
BRANCH   2   3
ATOM      3  O   UNL A   1      34.514  20.924  24.739  1.00  0.00    -0.463 OA
BRANCH   3   4
ATOM      4  C   UNL A   1      33.335  20.501  25.257  1.00  0.00     0.309 C 
ATOM      5  O   UNL A   1      33.126  19.395  25.744  1.00  0.00    -0.252 OA
BRANCH   4   6
ATOM      6  C   UNL A   1      32.251  21.553  25.174  1.00  0.00     0.103 C 
ATOM      7  C   UNL A   1      31.636  25.543  24.964  1.00  0.00     0.227 C 
ATOM      8  O   UNL A   1      32.190  26.022  25.952  1.00  0.00    -0.274 OA
ATOM      9  N   UNL A   1      31.232  24.214  24.918  1.00  0.00    -0.342 N 
ATOM     10  C   UNL A   1      31.037  23.504  26.173  1.00  0.00     0.120 C 
ATOM     11  C   UNL A   1      31.318  23.378  23.724  1.00  0.00     0.120 C 
ATOM     12  C   UNL A   1      32.135  22.479  26.395  1.00  0.00     0.037 C 
ATOM     13  C   UNL A   1      32.446  22.362  23.891  1.00  0.00     0.037 C 
BRANCH   7  14
ATOM     14  C   UNL A   1      31.114  26.419  23.838  1.00  0.00     0.107 C 
ATOM     15  N   UNL A   1      31.984  28.558  24.196  1.00  0.00    -0.340 N 
ATOM     16  C   UNL A   1      30.808  27.772  24.459  1.00  0.00     0.133 C 
ATOM     17  C   UNL A   1      32.751  28.030  23.172  1.00  0.00     0.223 C 
ATOM     18  C   UNL A   1      32.144  26.715  22.752  1.00  0.00     0.115 C 
ATOM     19  O   UNL A   1      33.720  28.564  22.655  1.00  0.00    -0.275 OA
BRANCH  15  20
ATOM     20  C   UNL A   1      32.364  29.740  24.959  1.00  0.00     0.148 C 
BRANCH  20  21
ATOM     21  C   UNL A   1      33.352  29.470  26.097  1.00  0.00     0.181 C 
BRANCH  21  22
ATOM     22  O   UNL A   1      33.094  30.230  27.283  1.00  0.00    -0.383 OA
ATOM     23  C   UNL A   1      34.224  30.921  27.786  1.00  0.00     0.194 C 
ENDBRANCH  21  22
ENDBRANCH  20  21
ENDBRANCH  15  20
ENDBRANCH   7  14
ENDBRANCH   4   6
ENDBRANCH   3   4
ENDBRANCH   2   3
ENDBRANCH   1   2
BRANCH   1  24
ATOM     24  O   UNL A   1      37.388  22.870  25.138  1.00  0.00    -0.374 OA
BRANCH  24  25
ATOM     25  C   UNL A   1      38.383  22.029  25.716  1.00  0.00     0.202 C 
BRANCH  25  26
ATOM     26  C   UNL A   1      39.515  22.697  26.513  1.00  0.00     0.261 C 
BRANCH  26  27
ATOM     27  O   UNL A   1      39.390  24.129  26.584  1.00  0.00    -0.460 OA
BRANCH  27  28
ATOM     28  C   UNL A   1      40.566  24.804  26.576  1.00  0.00     0.338 C 
ATOM     29  O   UNL A   1      41.409  24.803  25.688  1.00  0.00    -0.246 OA
BRANCH  28  30
ATOM     30  C   UNL A   1      40.627  25.725  27.723  1.00  0.00     0.060 A 
ATOM     31  C   UNL A   1      39.519  25.775  28.581  1.00  0.00     0.016 A 
ATOM     32  C   UNL A   1      41.717  26.573  27.921  1.00  0.00     0.016 A 
ATOM     33  C   UNL A   1      39.491  26.688  29.634  1.00  0.00     0.010 A 
ATOM     34  C   UNL A   1      41.679  27.498  28.969  1.00  0.00     0.010 A 
ATOM     35  C   UNL A   1      40.561  27.573  29.819  1.00  0.00    -0.014 A 
BRANCH  35  36
ATOM     36  C   UNL A   1      40.475  28.644  30.841  1.00  0.00     0.031 A 
ATOM     37  C   UNL A   1      41.377  28.591  32.041  1.00  0.00     0.074 A 
ATOM     38  C   UNL A   1      39.598  29.654  30.696  1.00  0.00     0.049 A 
ATOM     39  N   UNL A   1      41.408  29.370  33.091  1.00  0.00    -0.248 NA
ATOM     40  C   UNL A   1      42.382  27.516  32.057  1.00  0.00     0.031 C 
ATOM     41  C   UNL A   1      38.714  29.844  29.547  1.00  0.00     0.029 A 
ATOM     42  N   UNL A   1      39.300  30.703  31.528  1.00  0.00    -0.354 N 
ATOM     43  C   UNL A   1      42.427  28.878  33.897  1.00  0.00     0.074 A 
ATOM     44  C   UNL A   1      42.971  27.716  33.226  1.00  0.00     0.031 C 
ATOM     45  C   UNL A   1      37.963  30.939  29.753  1.00  0.00     0.029 A 
ATOM     46  C   UNL A   1      38.280  31.499  31.066  1.00  0.00     0.049 A 
ATOM     47  H   UNL A   1      39.772  30.869  32.376  1.00  0.00     0.167 HD
ATOM     48  C   UNL A   1      42.871  29.356  35.085  1.00  0.00     0.037 A 
ATOM     49  C   UNL A   1      37.652  32.539  31.649  1.00  0.00     0.037 A 
ATOM     50  C   UNL A   1      42.308  30.502  35.752  1.00  0.00     0.049 A 
ATOM     51  C   UNL A   1      38.079  32.978  33.025  1.00  0.00     0.074 A 
ATOM     52  C   UNL A   1      42.686  31.071  36.956  1.00  0.00     0.029 A 
ATOM     53  N   UNL A   1      41.233  31.244  35.282  1.00  0.00    -0.354 N 
ATOM     54  N   UNL A   1      39.052  32.517  33.774  1.00  0.00    -0.248 NA
ATOM     55  C   UNL A   1      37.315  34.073  33.641  1.00  0.00     0.031 C 
ATOM     56  C   UNL A   1      41.806  32.120  37.239  1.00  0.00     0.029 A 
ATOM     57  C   UNL A   1      40.912  32.242  36.187  1.00  0.00     0.049 A 
ATOM     58  H   UNL A   1      40.767  31.083  34.430  1.00  0.00     0.167 HD
ATOM     59  C   UNL A   1      39.033  33.277  34.938  1.00  0.00     0.074 A 
ATOM     60  C   UNL A   1      37.957  34.236  34.791  1.00  0.00     0.031 C 
ATOM     61  C   UNL A   1      39.836  33.192  36.028  1.00  0.00     0.037 A 
BRANCH  48  62
ATOM     62  C   UNL A   1      43.997  28.612  35.752  1.00  0.00     0.058 A 
ATOM     63  C   UNL A   1      45.343  28.920  35.496  1.00  0.00     0.135 A 
ATOM     64  C   UNL A   1      43.727  27.574  36.660  1.00  0.00     0.135 A 
ATOM     65  F   UNL A   1      45.660  29.893  34.627  1.00  0.00    -0.206 F 
ATOM     66  C   UNL A   1      46.379  28.199  36.081  1.00  0.00     0.059 A 
ATOM     67  C   UNL A   1      44.748  26.859  37.280  1.00  0.00     0.059 A 
ATOM     68  F   UNL A   1      42.459  27.238  36.946  1.00  0.00    -0.206 F 
ATOM     69  C   UNL A   1      46.071  27.165  36.966  1.00  0.00     0.060 A 
BRANCH  69  70
ATOM     70  S   UNL A   1      47.426  26.216  37.690  1.00  0.00     0.124 S 
ATOM     71  O   UNL A   1      46.733  25.474  38.738  1.00  0.00    -0.237 OA
ATOM     72  O   UNL A   1      47.893  25.424  36.557  1.00  0.00    -0.237 OA
ATOM     73  O   UNL A   1      48.352  27.243  38.156  1.00  0.00    -0.744 OA
ENDBRANCH  69  70
ENDBRANCH  48  62
BRANCH  49  74
ATOM     74  C   UNL A   1      36.545  33.230  30.934  1.00  0.00     0.058 A 
ATOM     75  C   UNL A   1      35.213  33.049  31.329  1.00  0.00     0.135 A 
ATOM     76  C   UNL A   1      36.797  34.099  29.862  1.00  0.00     0.135 A 
ATOM     77  F   UNL A   1      34.920  32.216  32.339  1.00  0.00    -0.206 F 
ATOM     78  C   UNL A   1      34.168  33.708  30.691  1.00  0.00     0.059 A 
ATOM     79  C   UNL A   1      35.771  34.790  29.223  1.00  0.00     0.059 A 
ATOM     80  F   UNL A   1      38.057  34.312  29.448  1.00  0.00    -0.206 F 
ATOM     81  C   UNL A   1      34.458  34.585  29.644  1.00  0.00     0.060 A 
BRANCH  81  82
ATOM     82  S   UNL A   1      33.100  35.495  28.877  1.00  0.00     0.124 S 
ATOM     83  O   UNL A   1      33.819  36.507  28.110  1.00  0.00    -0.237 OA
ATOM     84  O   UNL A   1      32.438  34.453  28.097  1.00  0.00    -0.237 OA
ATOM     85  O   UNL A   1      32.338  35.990  30.019  1.00  0.00    -0.744 OA
ENDBRANCH  81  82
ENDBRANCH  49  74
BRANCH  61  86
ATOM     86  C   UNL A   1      39.604  34.173  37.145  1.00  0.00     0.058 A 
ATOM     87  C   UNL A   1      38.935  33.803  38.323  1.00  0.00     0.135 A 
ATOM     88  C   UNL A   1      40.125  35.476  37.070  1.00  0.00     0.135 A 
ATOM     89  F   UNL A   1      38.409  32.575  38.444  1.00  0.00    -0.206 F 
ATOM     90  C   UNL A   1      38.784  34.693  39.382  1.00  0.00     0.059 A 
ATOM     91  C   UNL A   1      40.009  36.373  38.127  1.00  0.00     0.059 A 
ATOM     92  F   UNL A   1      40.779  35.879  35.969  1.00  0.00    -0.206 F 
ATOM     93  C   UNL A   1      39.332  35.973  39.279  1.00  0.00     0.060 A 
BRANCH  93  94
ATOM     94  S   UNL A   1      39.184  37.094  40.687  1.00  0.00     0.124 S 
ATOM     95  O   UNL A   1      38.498  36.253  41.662  1.00  0.00    -0.237 OA
ATOM     96  O   UNL A   1      40.579  37.404  40.986  1.00  0.00    -0.237 OA
ATOM     97  O   UNL A   1      38.401  38.207  40.156  1.00  0.00    -0.744 OA
ENDBRANCH  93  94
ENDBRANCH  61  86
ENDBRANCH  35  36
ENDBRANCH  28  30
ENDBRANCH  27  28
ENDBRANCH  26  27
ENDBRANCH  25  26
ENDBRANCH  24  25
ENDBRANCH   1  24
TORSDOF 21
ENDMDL
MODEL 2
REMARK VINA RESULT:     -10.4      1.037      2.003
REMARK SMILES COCCN1C[C@H](C(=O)N2CCC(C(=O)OCCOCCOC(=O)c3ccc(-c4c5nc(c(-c6c(F)cc(S(=O)(=O)[O-])cc6F)c6ccc([nH]6)c(-c6c(F)cc(S(=O)(=O)[O-])cc6F)c6nc(c(-c7c(F)cc(S(=O)(=O)[O-])cc7F)c7ccc4[nH]7)C=C6)C=C5)cc3)CC2)CC1=O
REMARK SMILES IDX 18 1 17 2 16 3 14 4 15 5 13 6 8 7 9 8 10 9 11 10 92 11 12 12
REMARK SMILES IDX 91 13 7 14 5 15 6 16 94 17 93 18 95 19 4 20 3 21 2 22 1 23
REMARK SMILES IDX 19 24 20 25 21 26 22 27 23 28 24 29 25 30 26 31 90 32 27 33
REMARK SMILES IDX 89 34 28 35 29 36 30 37 83 38 31 39 88 40 82 41 84 42 32 43
REMARK SMILES IDX 87 44 81 45 80 46 33 48 67 49 46 50 66 51 47 52 50 53 65 54
REMARK SMILES IDX 85 55 48 56 49 57 64 59 86 60 51 61 34 62 35 63 44 64 36 65
REMARK SMILES IDX 37 66 43 67 45 68 38 69 39 70 40 71 41 72 42 73 68 74 69 75
REMARK SMILES IDX 78 76 70 77 71 78 77 79 79 80 72 81 73 82 74 83 75 84 76 85
REMARK SMILES IDX 52 86 53 87 62 88 54 89 55 90 61 91 63 92 56 93 57 94 58 95
REMARK SMILES IDX 59 96 60 97
REMARK H PARENT 84 47 50 58
REMARK Flexibility Score: inf
ROOT
ATOM      1  C   UNL A   1      38.328  21.578  25.362  1.00  0.00     0.202 C 
ENDROOT
BRANCH   1   2
ATOM      2  C   UNL A   1      37.131  20.634  25.212  1.00  0.00     0.261 C 
BRANCH   2   3
ATOM      3  O   UNL A   1      35.941  21.184  25.797  1.00  0.00    -0.463 OA
BRANCH   3   4
ATOM      4  C   UNL A   1      34.815  21.087  25.048  1.00  0.00     0.309 C 
ATOM      5  O   UNL A   1      34.254  20.042  24.737  1.00  0.00    -0.252 OA
BRANCH   4   6
ATOM      6  C   UNL A   1      34.293  22.436  24.605  1.00  0.00     0.103 C 
ATOM      7  C   UNL A   1      33.141  26.060  25.976  1.00  0.00     0.227 C 
ATOM      8  O   UNL A   1      32.239  25.844  26.785  1.00  0.00    -0.274 OA
ATOM      9  N   UNL A   1      33.469  25.150  24.978  1.00  0.00    -0.342 N 
ATOM     10  C   UNL A   1      32.477  24.162  24.585  1.00  0.00     0.120 C 
ATOM     11  C   UNL A   1      34.836  24.886  24.535  1.00  0.00     0.120 C 
ATOM     12  C   UNL A   1      32.868  22.776  25.068  1.00  0.00     0.037 C 
ATOM     13  C   UNL A   1      35.282  23.517  25.042  1.00  0.00     0.037 C 
BRANCH   7  14
ATOM     14  C   UNL A   1      33.777  27.433  25.836  1.00  0.00     0.107 C 
ATOM     15  N   UNL A   1      32.111  28.862  25.033  1.00  0.00    -0.340 N 
ATOM     16  C   UNL A   1      33.197  28.042  24.569  1.00  0.00     0.133 C 
ATOM     17  C   UNL A   1      32.215  29.162  26.380  1.00  0.00     0.223 C 
ATOM     18  C   UNL A   1      33.395  28.410  26.945  1.00  0.00     0.115 C 
ATOM     19  O   UNL A   1      31.511  29.946  26.996  1.00  0.00    -0.275 OA
BRANCH  15  20
ATOM     20  C   UNL A   1      30.990  29.280  24.201  1.00  0.00     0.148 C 
BRANCH  20  21
ATOM     21  C   UNL A   1      30.204  28.127  23.569  1.00  0.00     0.181 C 
BRANCH  21  22
ATOM     22  O   UNL A   1      30.542  27.875  22.200  1.00  0.00    -0.383 OA
ATOM     23  C   UNL A   1      31.207  26.643  21.985  1.00  0.00     0.194 C 
ENDBRANCH  21  22
ENDBRANCH  20  21
ENDBRANCH  15  20
ENDBRANCH   7  14
ENDBRANCH   4   6
ENDBRANCH   3   4
ENDBRANCH   2   3
ENDBRANCH   1   2
BRANCH   1  24
ATOM     24  O   UNL A   1      39.181  21.386  26.489  1.00  0.00    -0.374 OA
BRANCH  24  25
ATOM     25  C   UNL A   1      40.569  21.180  26.240  1.00  0.00     0.202 C 
BRANCH  25  26
ATOM     26  C   UNL A   1      41.530  22.347  26.514  1.00  0.00     0.261 C 
BRANCH  26  27
ATOM     27  O   UNL A   1      40.856  23.605  26.699  1.00  0.00    -0.460 OA
BRANCH  27  28
ATOM     28  C   UNL A   1      41.617  24.700  26.453  1.00  0.00     0.338 C 
ATOM     29  O   UNL A   1      42.357  24.883  25.495  1.00  0.00    -0.246 OA
BRANCH  28  30
ATOM     30  C   UNL A   1      41.291  25.767  27.415  1.00  0.00     0.060 A 
ATOM     31  C   UNL A   1      42.143  26.879  27.471  1.00  0.00     0.016 A 
ATOM     32  C   UNL A   1      40.213  25.654  28.293  1.00  0.00     0.016 A 
ATOM     33  C   UNL A   1      41.927  27.878  28.419  1.00  0.00     0.010 A 
ATOM     34  C   UNL A   1      40.008  26.650  29.252  1.00  0.00     0.010 A 
ATOM     35  C   UNL A   1      40.873  27.757  29.333  1.00  0.00    -0.014 A 
BRANCH  35  36
ATOM     36  C   UNL A   1      40.726  28.736  30.437  1.00  0.00     0.031 A 
ATOM     37  C   UNL A   1      41.606  28.618  31.648  1.00  0.00     0.074 A 
ATOM     38  C   UNL A   1      39.813  29.720  30.356  1.00  0.00     0.049 A 
ATOM     39  N   UNL A   1      41.587  29.308  32.758  1.00  0.00    -0.248 NA
ATOM     40  C   UNL A   1      42.652  27.584  31.598  1.00  0.00     0.031 C 
ATOM     41  C   UNL A   1      38.944  29.971  29.207  1.00  0.00     0.029 A 
ATOM     42  N   UNL A   1      39.458  30.686  31.264  1.00  0.00    -0.354 N 
ATOM     43  C   UNL A   1      42.609  28.790  33.544  1.00  0.00     0.074 A 
ATOM     44  C   UNL A   1      43.211  27.709  32.793  1.00  0.00     0.031 C 
ATOM     45  C   UNL A   1      38.146  31.017  29.485  1.00  0.00     0.029 A 
ATOM     46  C   UNL A   1      38.416  31.478  30.846  1.00  0.00     0.049 A 
ATOM     47  H   UNL A   1      39.906  30.799  32.133  1.00  0.00     0.167 HD
ATOM     48  C   UNL A   1      43.011  29.184  34.777  1.00  0.00     0.037 A 
ATOM     49  C   UNL A   1      37.737  32.442  31.498  1.00  0.00     0.037 A 
ATOM     50  C   UNL A   1      42.391  30.249  35.523  1.00  0.00     0.049 A 
ATOM     51  C   UNL A   1      38.120  32.781  32.915  1.00  0.00     0.074 A 
ATOM     52  C   UNL A   1      42.723  30.731  36.777  1.00  0.00     0.029 A 
ATOM     53  N   UNL A   1      41.296  30.986  35.092  1.00  0.00    -0.354 N 
ATOM     54  N   UNL A   1      39.096  32.297  33.644  1.00  0.00    -0.248 NA
ATOM     55  C   UNL A   1      37.302  33.792  33.601  1.00  0.00     0.031 C 
ATOM     56  C   UNL A   1      41.797  31.719  37.126  1.00  0.00     0.029 A 
ATOM     57  C   UNL A   1      40.919  31.894  36.068  1.00  0.00     0.049 A 
ATOM     58  H   UNL A   1      40.853  30.879  34.219  1.00  0.00     0.167 HD
ATOM     59  C   UNL A   1      39.025  32.957  34.866  1.00  0.00     0.074 A 
ATOM     60  C   UNL A   1      37.916  33.884  34.774  1.00  0.00     0.031 C 
ATOM     61  C   UNL A   1      39.810  32.813  35.963  1.00  0.00     0.037 A 
BRANCH  48  62
ATOM     62  C   UNL A   1      44.153  28.431  35.405  1.00  0.00     0.058 A 
ATOM     63  C   UNL A   1      45.491  28.792  35.182  1.00  0.00     0.135 A 
ATOM     64  C   UNL A   1      43.905  27.331  36.243  1.00  0.00     0.135 A 
ATOM     65  F   UNL A   1      45.787  29.826  34.379  1.00  0.00    -0.206 F 
ATOM     66  C   UNL A   1      46.543  28.064  35.729  1.00  0.00     0.059 A 
ATOM     67  C   UNL A   1      44.941  26.606  36.826  1.00  0.00     0.059 A 
ATOM     68  F   UNL A   1      42.645  26.942  36.496  1.00  0.00    -0.206 F 
ATOM     69  C   UNL A   1      46.258  26.967  36.544  1.00  0.00     0.060 A 
BRANCH  69  70
ATOM     70  S   UNL A   1      47.633  26.012  37.219  1.00  0.00     0.124 S 
ATOM     71  O   UNL A   1      47.795  24.978  36.201  1.00  0.00    -0.237 OA
ATOM     72  O   UNL A   1      48.700  27.005  37.286  1.00  0.00    -0.237 OA
ATOM     73  O   UNL A   1      47.129  25.550  38.507  1.00  0.00    -0.744 OA
ENDBRANCH  69  70
ENDBRANCH  48  62
BRANCH  49  74
ATOM     74  C   UNL A   1      36.618  33.147  30.818  1.00  0.00     0.058 A 
ATOM     75  C   UNL A   1      35.286  32.882  31.165  1.00  0.00     0.135 A 
ATOM     76  C   UNL A   1      36.856  34.114  29.828  1.00  0.00     0.135 A 
ATOM     77  F   UNL A   1      35.006  31.955  32.094  1.00  0.00    -0.206 F 
ATOM     78  C   UNL A   1      34.228  33.552  30.560  1.00  0.00     0.059 A 
ATOM     79  C   UNL A   1      35.815  34.816  29.226  1.00  0.00     0.059 A 
ATOM     80  F   UNL A   1      38.113  34.409  29.463  1.00  0.00    -0.206 F 
ATOM     81  C   UNL A   1      34.504  34.525  29.597  1.00  0.00     0.060 A 
BRANCH  81  82
ATOM     82  S   UNL A   1      33.126  35.443  28.877  1.00  0.00     0.124 S 
ATOM     83  O   UNL A   1      32.419  35.898  30.069  1.00  0.00    -0.237 OA
ATOM     84  O   UNL A   1      33.815  36.476  28.110  1.00  0.00    -0.237 OA
ATOM     85  O   UNL A   1      32.432  34.438  28.076  1.00  0.00    -0.744 OA
ENDBRANCH  81  82
ENDBRANCH  49  74
BRANCH  61  86
ATOM     86  C   UNL A   1      39.519  33.689  37.151  1.00  0.00     0.058 A 
ATOM     87  C   UNL A   1      38.686  33.258  38.197  1.00  0.00     0.135 A 
ATOM     88  C   UNL A   1      40.141  34.941  37.284  1.00  0.00     0.135 A 
ATOM     89  F   UNL A   1      38.058  32.075  38.118  1.00  0.00    -0.206 F 
ATOM     90  C   UNL A   1      38.475  34.043  39.326  1.00  0.00     0.059 A 
ATOM     91  C   UNL A   1      39.965  35.730  38.416  1.00  0.00     0.059 A 
ATOM     92  F   UNL A   1      40.951  35.398  36.316  1.00  0.00    -0.206 F 
ATOM     93  C   UNL A   1      39.126  35.274  39.432  1.00  0.00     0.060 A 
BRANCH  93  94
ATOM     94  S   UNL A   1      38.892  36.251  40.932  1.00  0.00     0.124 S 
ATOM     95  O   UNL A   1      38.531  37.554  40.382  1.00  0.00    -0.237 OA
ATOM     96  O   UNL A   1      37.819  35.530  41.610  1.00  0.00    -0.237 OA
ATOM     97  O   UNL A   1      40.194  36.185  41.589  1.00  0.00    -0.744 OA
ENDBRANCH  93  94
ENDBRANCH  61  86
ENDBRANCH  35  36
ENDBRANCH  28  30
ENDBRANCH  27  28
ENDBRANCH  26  27
ENDBRANCH  25  26
ENDBRANCH  24  25
ENDBRANCH   1  24
TORSDOF 21
ENDMDL
MODEL 3
REMARK VINA RESULT:     -10.2      1.438      8.394
REMARK SMILES COCCN1C[C@H](C(=O)N2CCC(C(=O)OCCOCCOC(=O)c3ccc(-c4c5nc(c(-c6c(F)cc(S(=O)(=O)[O-])cc6F)c6ccc([nH]6)c(-c6c(F)cc(S(=O)(=O)[O-])cc6F)c6nc(c(-c7c(F)cc(S(=O)(=O)[O-])cc7F)c7ccc4[nH]7)C=C6)C=C5)cc3)CC2)CC1=O
REMARK SMILES IDX 18 1 17 2 16 3 14 4 15 5 13 6 8 7 9 8 10 9 11 10 92 11 12 12
REMARK SMILES IDX 91 13 7 14 5 15 6 16 94 17 93 18 95 19 4 20 3 21 2 22 1 23
REMARK SMILES IDX 19 24 20 25 21 26 22 27 23 28 24 29 25 30 26 31 90 32 27 33
REMARK SMILES IDX 89 34 28 35 29 36 30 37 83 38 31 39 88 40 82 41 84 42 32 43
REMARK SMILES IDX 87 44 81 45 80 46 33 48 67 49 46 50 66 51 47 52 50 53 65 54
REMARK SMILES IDX 85 55 48 56 49 57 64 59 86 60 51 61 34 62 35 63 44 64 36 65
REMARK SMILES IDX 37 66 43 67 45 68 38 69 39 70 40 71 41 72 42 73 68 74 69 75
REMARK SMILES IDX 78 76 70 77 71 78 77 79 79 80 72 81 73 82 74 83 75 84 76 85
REMARK SMILES IDX 52 86 53 87 62 88 54 89 55 90 61 91 63 92 56 93 57 94 58 95
REMARK SMILES IDX 59 96 60 97
REMARK H PARENT 84 47 50 58
REMARK Flexibility Score: inf
ROOT
ATOM      1  C   UNL A   1      41.164  20.673  26.513  1.00  0.00     0.202 C 
ENDROOT
BRANCH   1   2
ATOM      2  C   UNL A   1      40.005  21.603  26.886  1.00  0.00     0.261 C 
BRANCH   2   3
ATOM      3  O   UNL A   1      39.155  21.873  25.760  1.00  0.00    -0.463 OA
BRANCH   3   4
ATOM      4  C   UNL A   1      38.256  22.874  25.925  1.00  0.00     0.309 C 
ATOM      5  O   UNL A   1      38.522  24.023  26.260  1.00  0.00    -0.252 OA
BRANCH   4   6
ATOM      6  C   UNL A   1      36.835  22.430  25.656  1.00  0.00     0.103 C 
ATOM      7  C   UNL A   1      33.212  23.760  24.455  1.00  0.00     0.227 C 
ATOM      8  O   UNL A   1      32.908  24.662  25.233  1.00  0.00    -0.274 OA
ATOM      9  N   UNL A   1      34.129  22.772  24.793  1.00  0.00    -0.342 N 
ATOM     10  C   UNL A   1      34.391  22.521  26.201  1.00  0.00     0.120 C 
ATOM     11  C   UNL A   1      35.097  22.206  23.858  1.00  0.00     0.120 C 
ATOM     12  C   UNL A   1      35.771  23.018  26.595  1.00  0.00     0.037 C 
ATOM     13  C   UNL A   1      36.494  22.722  24.194  1.00  0.00     0.037 C 
BRANCH   7  14
ATOM     14  C   UNL A   1      32.420  23.501  23.184  1.00  0.00     0.107 C 
ATOM     15  N   UNL A   1      31.726  25.587  22.392  1.00  0.00    -0.340 N 
ATOM     16  C   UNL A   1      31.263  24.488  23.195  1.00  0.00     0.133 C 
ATOM     17  C   UNL A   1      32.786  25.233  21.576  1.00  0.00     0.223 C 
ATOM     18  C   UNL A   1      33.184  23.815  21.901  1.00  0.00     0.115 C 
ATOM     19  O   UNL A   1      33.279  25.927  20.700  1.00  0.00    -0.275 OA
BRANCH  15  20
ATOM     20  C   UNL A   1      31.188  26.940  22.470  1.00  0.00     0.148 C 
BRANCH  20  21
ATOM     21  C   UNL A   1      31.744  27.779  23.624  1.00  0.00     0.181 C 
BRANCH  21  22
ATOM     22  O   UNL A   1      30.871  28.832  24.050  1.00  0.00    -0.383 OA
ATOM     23  C   UNL A   1      31.435  29.693  25.023  1.00  0.00     0.194 C 
ENDBRANCH  21  22
ENDBRANCH  20  21
ENDBRANCH  15  20
ENDBRANCH   7  14
ENDBRANCH   4   6
ENDBRANCH   3   4
ENDBRANCH   2   3
ENDBRANCH   1   2
BRANCH   1  24
ATOM     24  O   UNL A   1      42.232  21.227  25.747  1.00  0.00    -0.374 OA
BRANCH  24  25
ATOM     25  C   UNL A   1      42.863  22.404  26.246  1.00  0.00     0.202 C 
BRANCH  25  26
ATOM     26  C   UNL A   1      42.808  23.672  25.380  1.00  0.00     0.261 C 
BRANCH  26  27
ATOM     27  O   UNL A   1      43.105  24.873  26.115  1.00  0.00    -0.460 OA
BRANCH  27  28
ATOM     28  C   UNL A   1      42.159  25.840  26.032  1.00  0.00     0.338 C 
ATOM     29  O   UNL A   1      41.391  26.042  25.099  1.00  0.00    -0.246 OA
BRANCH  28  30
ATOM     30  C   UNL A   1      42.028  26.531  27.326  1.00  0.00     0.060 A 
ATOM     31  C   UNL A   1      41.029  26.089  28.205  1.00  0.00     0.016 A 
ATOM     32  C   UNL A   1      42.823  27.631  27.650  1.00  0.00     0.016 A 
ATOM     33  C   UNL A   1      40.808  26.760  29.407  1.00  0.00     0.010 A 
ATOM     34  C   UNL A   1      42.589  28.310  28.850  1.00  0.00     0.010 A 
ATOM     35  C   UNL A   1      41.571  27.891  29.725  1.00  0.00    -0.014 A 
BRANCH  35  36
ATOM     36  C   UNL A   1      41.245  28.696  30.927  1.00  0.00     0.031 A 
ATOM     37  C   UNL A   1      40.126  29.696  30.862  1.00  0.00     0.074 A 
ATOM     38  C   UNL A   1      41.944  28.535  32.064  1.00  0.00     0.049 A 
ATOM     39  N   UNL A   1      39.733  30.561  31.761  1.00  0.00    -0.248 NA
ATOM     40  C   UNL A   1      39.343  29.722  29.616  1.00  0.00     0.031 C 
ATOM     41  C   UNL A   1      43.011  27.555  32.265  1.00  0.00     0.029 A 
ATOM     42  N   UNL A   1      41.868  29.200  33.261  1.00  0.00    -0.354 N 
ATOM     43  C   UNL A   1      38.663  31.240  31.190  1.00  0.00     0.074 A 
ATOM     44  C   UNL A   1      38.488  30.704  29.856  1.00  0.00     0.031 C 
ATOM     45  C   UNL A   1      43.499  27.692  33.510  1.00  0.00     0.029 A 
ATOM     46  C   UNL A   1      42.811  28.797  34.175  1.00  0.00     0.049 A 
ATOM     47  H   UNL A   1      41.202  29.900  33.447  1.00  0.00     0.167 HD
ATOM     48  C   UNL A   1      37.895  32.217  31.732  1.00  0.00     0.037 A 
ATOM     49  C   UNL A   1      43.107  29.286  35.396  1.00  0.00     0.037 A 
ATOM     50  C   UNL A   1      38.093  32.755  33.054  1.00  0.00     0.049 A 
ATOM     51  C   UNL A   1      42.322  30.455  35.931  1.00  0.00     0.074 A 
ATOM     52  C   UNL A   1      37.369  33.742  33.700  1.00  0.00     0.029 A 
ATOM     53  N   UNL A   1      39.100  32.365  33.926  1.00  0.00    -0.354 N 
ATOM     54  N   UNL A   1      41.303  31.081  35.391  1.00  0.00    -0.248 NA
ATOM     55  C   UNL A   1      42.732  30.990  37.237  1.00  0.00     0.031 C 
ATOM     56  C   UNL A   1      37.971  33.987  34.938  1.00  0.00     0.029 A 
ATOM     57  C   UNL A   1      39.038  33.115  35.089  1.00  0.00     0.049 A 
ATOM     58  H   UNL A   1      39.761  31.659  33.744  1.00  0.00     0.167 HD
ATOM     59  C   UNL A   1      40.936  32.068  36.299  1.00  0.00     0.074 A 
ATOM     60  C   UNL A   1      41.836  31.951  37.428  1.00  0.00     0.031 C 
ATOM     61  C   UNL A   1      39.942  32.986  36.208  1.00  0.00     0.037 A 
BRANCH  48  62
ATOM     62  C   UNL A   1      36.797  32.787  30.876  1.00  0.00     0.058 A 
ATOM     63  C   UNL A   1      37.065  33.682  29.827  1.00  0.00     0.135 A 
ATOM     64  C   UNL A   1      35.457  32.434  31.106  1.00  0.00     0.135 A 
ATOM     65  F   UNL A   1      38.326  34.065  29.571  1.00  0.00    -0.206 F 
ATOM     66  C   UNL A   1      36.042  34.242  29.068  1.00  0.00     0.059 A 
ATOM     67  C   UNL A   1      34.419  32.958  30.339  1.00  0.00     0.059 A 
ATOM     68  F   UNL A   1      35.142  31.580  32.092  1.00  0.00    -0.206 F 
ATOM     69  C   UNL A   1      34.721  33.879  29.337  1.00  0.00     0.060 A 
BRANCH  69  70
ATOM     70  S   UNL A   1      33.402  34.639  28.366  1.00  0.00     0.124 S 
ATOM     71  O   UNL A   1      34.150  35.606  27.568  1.00  0.00    -0.237 OA
ATOM     72  O   UNL A   1      32.858  33.501  27.633  1.00  0.00    -0.237 OA
ATOM     73  O   UNL A   1      32.519  35.210  29.377  1.00  0.00    -0.744 OA
ENDBRANCH  69  70
ENDBRANCH  48  62
BRANCH  49  74
ATOM     74  C   UNL A   1      44.207  28.676  36.190  1.00  0.00     0.058 A 
ATOM     75  C   UNL A   1      45.504  29.206  36.147  1.00  0.00     0.135 A 
ATOM     76  C   UNL A   1      43.981  27.569  37.023  1.00  0.00     0.135 A 
ATOM     77  F   UNL A   1      45.774  30.254  35.355  1.00  0.00    -0.206 F 
ATOM     78  C   UNL A   1      46.538  28.666  36.905  1.00  0.00     0.059 A 
ATOM     79  C   UNL A   1      44.993  27.026  37.810  1.00  0.00     0.059 A 
ATOM     80  F   UNL A   1      42.755  27.027  37.105  1.00  0.00    -0.206 F 
ATOM     81  C   UNL A   1      46.269  27.580  37.741  1.00  0.00     0.060 A 
BRANCH  81  82
ATOM     82  S   UNL A   1      47.601  26.939  38.778  1.00  0.00     0.124 S 
ATOM     83  O   UNL A   1      46.857  26.377  39.900  1.00  0.00    -0.237 OA
ATOM     84  O   UNL A   1      48.242  25.975  37.889  1.00  0.00    -0.237 OA
ATOM     85  O   UNL A   1      48.396  28.126  39.078  1.00  0.00    -0.744 OA
ENDBRANCH  81  82
ENDBRANCH  49  74
BRANCH  61  86
ATOM     86  C   UNL A   1      39.752  33.928  37.366  1.00  0.00     0.058 A 
ATOM     87  C   UNL A   1      38.969  33.579  38.479  1.00  0.00     0.135 A 
ATOM     88  C   UNL A   1      40.421  35.163  37.399  1.00  0.00     0.135 A 
ATOM     89  F   UNL A   1      38.299  32.417  38.496  1.00  0.00    -0.206 F 
ATOM     90  C   UNL A   1      38.852  34.424  39.578  1.00  0.00     0.059 A 
ATOM     91  C   UNL A   1      40.340  36.011  38.499  1.00  0.00     0.059 A 
ATOM     92  F   UNL A   1      41.187  35.543  36.364  1.00  0.00    -0.206 F 
ATOM     93  C   UNL A   1      39.548  35.635  39.584  1.00  0.00     0.060 A 
BRANCH  93  94
ATOM     94  S   UNL A   1      39.437  36.691  41.044  1.00  0.00     0.124 S 
ATOM     95  O   UNL A   1      40.826  36.722  41.491  1.00  0.00    -0.237 OA
ATOM     96  O   UNL A   1      38.922  37.938  40.487  1.00  0.00    -0.237 OA
ATOM     97  O   UNL A   1      38.513  35.972  41.916  1.00  0.00    -0.744 OA
ENDBRANCH  93  94
ENDBRANCH  61  86
ENDBRANCH  35  36
ENDBRANCH  28  30
ENDBRANCH  27  28
ENDBRANCH  26  27
ENDBRANCH  25  26
ENDBRANCH  24  25
ENDBRANCH   1  24
TORSDOF 21
ENDMDL
