MODEL 1
REMARK VINA RESULT:      -9.0      0.000      0.000
REMARK SMILES Cc1cccc(S(=O)(=O)Nc2cc(C(=O)OCCOCCOC(=O)c3ccc(-c4c5nc(c(-c6c(F)cc(S(=O)(=O)[O-])cc6F)c6ccc([nH]6)c(-c6c(F)cc(S(=O)(=O)[O-])cc6F)c6nc(c(-c7c(F)cc(S(=O)(=O)[O-])cc7F)c7ccc4[nH]7)C=C6)C=C5)cc3)ccc2N2CCC[C@H](C[NH+]3CCCC3)C2)c1
REMARK SMILES IDX 19 1 18 2 17 3 16 4 14 5 15 6 13 7 11 8 12 9 93 10 92 11
REMARK SMILES IDX 91 12 10 13 7 15 8 16 9 17 6 18 1 19 2 20 3 21 106 22 4 23
REMARK SMILES IDX 5 24 94 25 95 26 105 27 96 28 98 29 97 30 99 31 100 32
REMARK SMILES IDX 101 33 104 34 102 36 103 37 20 38 21 39 22 40 23 41 24 42
REMARK SMILES IDX 25 43 26 44 90 45 27 46 89 47 28 48 29 49 30 50 83 51 31 52
REMARK SMILES IDX 88 53 82 54 84 55 32 56 87 57 81 58 80 59 33 61 67 62 46 63
REMARK SMILES IDX 66 64 47 65 50 66 65 67 85 68 48 69 49 70 64 72 86 73 51 74
REMARK SMILES IDX 34 75 35 76 44 77 36 78 37 79 43 80 45 81 38 82 39 83 40 84
REMARK SMILES IDX 41 85 42 86 68 87 69 88 78 89 70 90 71 91 77 92 79 93 72 94
REMARK SMILES IDX 73 95 74 96 75 97 76 98 52 99 53 100 62 101 54 102 55 103
REMARK SMILES IDX 61 104 63 105 56 106 57 107 58 108 59 109 60 110
REMARK H PARENT 10 14 100 35 84 60 50 71
REMARK Flexibility Score: inf
ROOT
ATOM      1  O   UNL A   1      39.786  34.350  40.650  1.00  0.00    -0.374 OA
ENDROOT
BRANCH   1   2
ATOM      2  C   UNL A   1      38.585  34.301  39.916  1.00  0.00     0.202 C 
BRANCH   2   3
ATOM      3  C   UNL A   1      38.430  32.860  39.645  1.00  0.00     0.261 C 
BRANCH   3   4
ATOM      4  O   UNL A   1      37.988  32.720  38.305  1.00  0.00    -0.460 OA
BRANCH   4   5
ATOM      5  C   UNL A   1      37.595  31.621  37.636  1.00  0.00     0.338 C 
ATOM      6  O   UNL A   1      37.205  30.523  37.971  1.00  0.00    -0.246 OA
BRANCH   5   7
ATOM      7  C   UNL A   1      37.957  31.973  36.270  1.00  0.00     0.062 A 
ATOM      8  C   UNL A   1      37.899  30.856  34.195  1.00  0.00     0.073 A 
ATOM      9  C   UNL A   1      38.373  30.903  35.457  1.00  0.00     0.044 A 
ATOM     10  C   UNL A   1      37.534  32.074  33.609  1.00  0.00     0.061 A 
ATOM     11  C   UNL A   1      37.303  33.223  34.402  1.00  0.00     0.029 A 
ATOM     12  C   UNL A   1      37.433  33.154  35.766  1.00  0.00     0.018 A 
BRANCH   8  13
ATOM     13  N   UNL A   1      37.847  29.564  33.573  1.00  0.00    -0.277 N 
ATOM     14  H   UNL A   1      37.007  29.052  33.607  1.00  0.00     0.180 HD
BRANCH  13  15
ATOM     15  S   UNL A   1      39.233  28.868  32.755  1.00  0.00     0.261 S 
ATOM     16  O   UNL A   1      39.236  29.521  31.458  1.00  0.00    -0.201 OA
ATOM     17  O   UNL A   1      38.999  27.437  32.806  1.00  0.00    -0.201 OA
BRANCH  15  18
ATOM     18  C   UNL A   1      40.899  29.148  33.551  1.00  0.00     0.088 A 
ATOM     19  C   UNL A   1      42.782  33.376  35.070  1.00  0.00     0.044 C 
ATOM     20  C   UNL A   1      42.859  31.893  34.889  1.00  0.00    -0.050 A 
ATOM     21  C   UNL A   1      43.680  30.314  36.092  1.00  0.00     0.003 A 
ATOM     22  C   UNL A   1      41.398  31.151  33.670  1.00  0.00     0.025 A 
ATOM     23  C   UNL A   1      43.322  28.300  35.963  1.00  0.00     0.002 A 
ATOM     24  C   UNL A   1      41.722  27.642  34.673  1.00  0.00     0.022 A 
ENDBRANCH  15  18
ENDBRANCH  13  15
ENDBRANCH   8  13
BRANCH  10  25
ATOM     25  N   UNL A   1      37.554  32.194  32.239  1.00  0.00    -0.369 N 
ATOM     26  C   UNL A   1      38.672  32.965  31.709  1.00  0.00     0.116 C 
ATOM     27  C   UNL A   1      36.313  31.982  31.524  1.00  0.00     0.126 C 
ATOM     28  C   UNL A   1      38.166  34.252  31.092  1.00  0.00     0.022 C 
ATOM     29  C   UNL A   1      35.844  33.256  30.813  1.00  0.00     0.064 C 
ATOM     30  C   UNL A   1      37.059  33.893  30.113  1.00  0.00     0.013 C 
BRANCH  29  31
ATOM     31  C   UNL A   1      35.049  34.180  31.778  1.00  0.00     0.267 C 
BRANCH  31  32
ATOM     32  N   UNL A   1      33.667  34.550  31.447  1.00  0.00    -0.335 N 
ATOM     33  C   UNL A   1      33.416  34.731  30.019  1.00  0.00     0.262 C 
ATOM     34  C   UNL A   1      33.127  35.724  32.128  1.00  0.00     0.262 C 
ATOM     35  H   UNL A   1      33.177  33.725  31.794  1.00  0.00     0.348 HD
ATOM     36  C   UNL A   1      33.539  36.225  29.792  1.00  0.00     0.067 C 
ATOM     37  C   UNL A   1      32.989  36.823  31.076  1.00  0.00     0.067 C 
ENDBRANCH  31  32
ENDBRANCH  29  31
ENDBRANCH  10  25
ENDBRANCH   5   7
ENDBRANCH   4   5
ENDBRANCH   3   4
ENDBRANCH   2   3
ENDBRANCH   1   2
BRANCH   1  38
ATOM     38  C   UNL A   1      40.986  34.639  40.002  1.00  0.00     0.202 C 
BRANCH  38  39
ATOM     39  C   UNL A   1      41.018  36.134  39.868  1.00  0.00     0.261 C 
BRANCH  39  40
ATOM     40  O   UNL A   1      42.411  36.554  39.619  1.00  0.00    -0.460 OA
BRANCH  40  41
ATOM     41  C   UNL A   1      42.715  37.622  38.795  1.00  0.00     0.338 C 
ATOM     42  O   UNL A   1      42.622  38.778  39.185  1.00  0.00    -0.246 OA
BRANCH  41  43
ATOM     43  C   UNL A   1      43.242  37.260  37.404  1.00  0.00     0.060 A 
ATOM     44  C   UNL A   1      44.535  37.620  36.987  1.00  0.00     0.016 A 
ATOM     45  C   UNL A   1      42.368  36.872  36.405  1.00  0.00     0.016 A 
ATOM     46  C   UNL A   1      44.805  37.949  35.621  1.00  0.00     0.010 A 
ATOM     47  C   UNL A   1      42.603  37.341  35.094  1.00  0.00     0.010 A 
ATOM     48  C   UNL A   1      43.765  38.050  34.691  1.00  0.00    -0.014 A 
BRANCH  48  49
ATOM     49  C   UNL A   1      43.807  38.573  33.214  1.00  0.00     0.031 A 
ATOM     50  C   UNL A   1      44.319  37.124  32.420  1.00  0.00     0.074 A 
ATOM     51  C   UNL A   1      43.211  39.913  32.494  1.00  0.00     0.049 A 
ATOM     52  N   UNL A   1      44.236  36.801  31.162  1.00  0.00    -0.248 NA
ATOM     53  C   UNL A   1      44.759  35.907  33.169  1.00  0.00     0.031 C 
ATOM     54  C   UNL A   1      42.776  40.150  30.368  1.00  0.00     0.029 A 
ATOM     55  N   UNL A   1      42.572  40.916  32.779  1.00  0.00    -0.354 N 
ATOM     56  C   UNL A   1      44.240  35.396  31.007  1.00  0.00     0.074 A 
ATOM     57  C   UNL A   1      44.567  34.895  32.309  1.00  0.00     0.031 C 
ATOM     58  C   UNL A   1      41.878  40.974  29.816  1.00  0.00     0.029 A 
ATOM     59  C   UNL A   1      42.574  41.247  30.958  1.00  0.00     0.049 A 
ATOM     60  H   UNL A   1      42.223  41.346  33.593  1.00  0.00     0.167 HD
ATOM     61  C   UNL A   1      43.889  34.829  29.798  1.00  0.00     0.037 A 
ATOM     62  C   UNL A   1      43.599  41.855  30.812  1.00  0.00     0.037 A 
ATOM     63  C   UNL A   1      43.804  35.907  28.792  1.00  0.00     0.049 A 
ATOM     64  C   UNL A   1      44.448  41.766  29.248  1.00  0.00     0.074 A 
ATOM     65  C   UNL A   1      42.805  36.454  28.011  1.00  0.00     0.029 A 
ATOM     66  N   UNL A   1      44.886  36.769  28.655  1.00  0.00    -0.354 N 
ATOM     67  N   UNL A   1      44.225  40.762  28.406  1.00  0.00    -0.248 NA
ATOM     68  C   UNL A   1      45.759  42.366  29.013  1.00  0.00     0.031 C 
ATOM     69  C   UNL A   1      43.273  37.722  27.520  1.00  0.00     0.029 A 
ATOM     70  C   UNL A   1      44.596  37.903  27.903  1.00  0.00     0.049 A 
ATOM     71  H   UNL A   1      45.770  36.594  29.051  1.00  0.00     0.167 HD
ATOM     72  C   UNL A   1      45.452  40.215  28.092  1.00  0.00     0.074 A 
ATOM     73  C   UNL A   1      46.364  41.279  28.508  1.00  0.00     0.031 C 
ATOM     74  C   UNL A   1      45.680  38.900  27.721  1.00  0.00     0.037 A 
BRANCH  61  75
ATOM     75  C   UNL A   1      43.524  33.344  29.412  1.00  0.00     0.058 A 
ATOM     76  C   UNL A   1      42.474  32.688  30.118  1.00  0.00     0.135 A 
ATOM     77  C   UNL A   1      44.140  32.486  28.462  1.00  0.00     0.135 A 
ATOM     78  F   UNL A   1      41.724  33.340  31.014  1.00  0.00    -0.206 F 
ATOM     79  C   UNL A   1      42.111  31.341  29.960  1.00  0.00     0.059 A 
ATOM     80  C   UNL A   1      43.765  31.120  28.259  1.00  0.00     0.059 A 
ATOM     81  F   UNL A   1      45.135  32.918  27.676  1.00  0.00    -0.206 F 
ATOM     82  C   UNL A   1      42.758  30.550  29.031  1.00  0.00     0.060 A 
BRANCH  82  83
ATOM     83  S   UNL A   1      42.221  28.822  28.877  1.00  0.00     0.124 S 
ATOM     84  O   UNL A   1      42.451  28.306  30.223  1.00  0.00    -0.237 OA
ATOM     85  O   UNL A   1      40.819  28.962  28.493  1.00  0.00    -0.237 OA
ATOM     86  O   UNL A   1      43.096  28.276  27.844  1.00  0.00    -0.744 OA
ENDBRANCH  82  83
ENDBRANCH  61  75
BRANCH  62  87
ATOM     87  C   UNL A   1      44.163  41.935  32.977  1.00  0.00     0.058 A 
ATOM     88  C   UNL A   1      43.416  42.856  34.097  1.00  0.00     0.135 A 
ATOM     89  C   UNL A   1      45.330  41.388  33.774  1.00  0.00     0.135 A 
ATOM     90  F   UNL A   1      42.424  43.714  33.772  1.00  0.00    -0.206 F 
ATOM     91  C   UNL A   1      43.642  42.964  35.466  1.00  0.00     0.059 A 
ATOM     92  C   UNL A   1      45.506  41.506  35.193  1.00  0.00     0.059 A 
ATOM     93  F   UNL A   1      46.319  40.675  33.194  1.00  0.00    -0.206 F 
ATOM     94  C   UNL A   1      44.620  42.194  36.020  1.00  0.00     0.060 A 
BRANCH  94  95
ATOM     95  S   UNL A   1      44.492  41.891  37.802  1.00  0.00     0.124 S 
ATOM     96  O   UNL A   1      45.186  40.621  37.955  1.00  0.00    -0.237 OA
ATOM     97  O   UNL A   1      45.183  43.051  38.364  1.00  0.00    -0.237 OA
ATOM     98  O   UNL A   1      43.053  41.867  38.020  1.00  0.00    -0.744 OA
ENDBRANCH  94  95
ENDBRANCH  62  87
BRANCH  74  99
ATOM     99  C   UNL A   1      47.001  38.403  27.092  1.00  0.00     0.058 A 
ATOM    100  C   UNL A   1      47.278  38.426  25.717  1.00  0.00     0.135 A 
ATOM    101  C   UNL A   1      47.966  37.667  27.849  1.00  0.00     0.135 A 
ATOM    102  F   UNL A   1      46.522  39.030  24.806  1.00  0.00    -0.206 F 
ATOM    103  C   UNL A   1      48.326  37.737  25.133  1.00  0.00     0.059 A 
ATOM    104  C   UNL A   1      49.026  36.961  27.280  1.00  0.00     0.059 A 
ATOM    105  F   UNL A   1      47.903  37.537  29.180  1.00  0.00    -0.206 F 
ATOM    106  C   UNL A   1      49.159  36.962  25.908  1.00  0.00     0.060 A 
BRANCH 106 107
ATOM    107  S   UNL A   1      50.303  35.899  25.044  1.00  0.00     0.124 S 
ATOM    108  O   UNL A   1      51.435  35.884  25.967  1.00  0.00    -0.237 OA
ATOM    109  O   UNL A   1      49.543  34.655  24.958  1.00  0.00    -0.237 OA
ATOM    110  O   UNL A   1      50.527  36.590  23.780  1.00  0.00    -0.744 OA
ENDBRANCH 106 107
ENDBRANCH  74  99
ENDBRANCH  48  49
ENDBRANCH  41  43
ENDBRANCH  40  41
ENDBRANCH  39  40
ENDBRANCH  38  39
ENDBRANCH   1  38
TORSDOF 23
ENDMDL
MODEL 2
REMARK VINA RESULT:      -8.9      5.802     12.401
REMARK SMILES Cc1cccc(S(=O)(=O)Nc2cc(C(=O)OCCOCCOC(=O)c3ccc(-c4c5nc(c(-c6c(F)cc(S(=O)(=O)[O-])cc6F)c6ccc([nH]6)c(-c6c(F)cc(S(=O)(=O)[O-])cc6F)c6nc(c(-c7c(F)cc(S(=O)(=O)[O-])cc7F)c7ccc4[nH]7)C=C6)C=C5)cc3)ccc2N2CCC[C@H](C[NH+]3CCCC3)C2)c1
REMARK SMILES IDX 19 1 18 2 17 3 16 4 14 5 15 6 13 7 11 8 12 9 93 10 92 11
REMARK SMILES IDX 91 12 10 13 7 15 8 16 9 17 6 18 1 19 2 20 3 21 106 22 4 23
REMARK SMILES IDX 5 24 94 25 95 26 105 27 96 28 98 29 97 30 99 31 100 32
REMARK SMILES IDX 101 33 104 34 102 36 103 37 20 38 21 39 22 40 23 41 24 42
REMARK SMILES IDX 25 43 26 44 90 45 27 46 89 47 28 48 29 49 30 50 83 51 31 52
REMARK SMILES IDX 88 53 82 54 84 55 32 56 87 57 81 58 80 59 33 61 67 62 46 63
REMARK SMILES IDX 66 64 47 65 50 66 65 67 85 68 48 69 49 70 64 72 86 73 51 74
REMARK SMILES IDX 34 75 35 76 44 77 36 78 37 79 43 80 45 81 38 82 39 83 40 84
REMARK SMILES IDX 41 85 42 86 68 87 69 88 78 89 70 90 71 91 77 92 79 93 72 94
REMARK SMILES IDX 73 95 74 96 75 97 76 98 52 99 53 100 62 101 54 102 55 103
REMARK SMILES IDX 61 104 63 105 56 106 57 107 58 108 59 109 60 110
REMARK H PARENT 10 14 100 35 84 60 50 71
REMARK Flexibility Score: inf
ROOT
ATOM      1  O   UNL A   1      34.081  32.830  28.417  1.00  0.00    -0.374 OA
ENDROOT
BRANCH   1   2
ATOM      2  C   UNL A   1      34.275  31.482  28.057  1.00  0.00     0.202 C 
BRANCH   2   3
ATOM      3  C   UNL A   1      35.740  31.390  27.920  1.00  0.00     0.261 C 
BRANCH   3   4
ATOM      4  O   UNL A   1      36.129  30.086  28.317  1.00  0.00    -0.460 OA
BRANCH   4   5
ATOM      5  C   UNL A   1      36.692  29.665  29.464  1.00  0.00     0.338 C 
ATOM      6  O   UNL A   1      36.284  29.496  30.593  1.00  0.00    -0.246 OA
BRANCH   5   7
ATOM      7  C   UNL A   1      38.101  29.633  29.095  1.00  0.00     0.062 A 
ATOM      8  C   UNL A   1      40.052  28.733  30.064  1.00  0.00     0.073 A 
ATOM      9  C   UNL A   1      39.009  29.581  30.169  1.00  0.00     0.044 A 
ATOM     10  C   UNL A   1      40.485  28.417  28.771  1.00  0.00     0.061 A 
ATOM     11  C   UNL A   1      39.656  28.649  27.648  1.00  0.00     0.029 A 
ATOM     12  C   UNL A   1      38.406  29.188  27.817  1.00  0.00     0.018 A 
BRANCH   8  13
ATOM     13  N   UNL A   1      40.630  28.266  31.292  1.00  0.00    -0.277 N 
ATOM     14  H   UNL A   1      40.384  27.373  31.626  1.00  0.00     0.180 HD
BRANCH  13  15
ATOM     15  S   UNL A   1      41.760  29.236  32.217  1.00  0.00     0.261 S 
ATOM     16  O   UNL A   1      40.911  30.167  32.938  1.00  0.00    -0.201 OA
ATOM     17  O   UNL A   1      42.676  29.766  31.223  1.00  0.00    -0.201 OA
BRANCH  15  18
ATOM     18  C   UNL A   1      42.817  28.328  33.461  1.00  0.00     0.088 A 
ATOM     19  C   UNL A   1      41.564  24.462  36.147  1.00  0.00     0.044 C 
ATOM     20  C   UNL A   1      42.558  25.491  35.708  1.00  0.00    -0.050 A 
ATOM     21  C   UNL A   1      44.679  25.425  35.374  1.00  0.00     0.003 A 
ATOM     22  C   UNL A   1      41.727  27.001  34.613  1.00  0.00     0.025 A 
ATOM     23  C   UNL A   1      45.844  26.759  34.342  1.00  0.00     0.002 A 
ATOM     24  C   UNL A   1      44.847  28.283  33.185  1.00  0.00     0.022 A 
ENDBRANCH  15  18
ENDBRANCH  13  15
ENDBRANCH   8  13
BRANCH  10  25
ATOM     25  N   UNL A   1      41.790  28.025  28.576  1.00  0.00    -0.369 N 
ATOM     26  C   UNL A   1      42.598  28.955  27.796  1.00  0.00     0.116 C 
ATOM     27  C   UNL A   1      42.102  26.619  28.725  1.00  0.00     0.126 C 
ATOM     28  C   UNL A   1      42.969  28.329  26.468  1.00  0.00     0.022 C 
ATOM     29  C   UNL A   1      42.575  26.000  27.406  1.00  0.00     0.064 C 
ATOM     30  C   UNL A   1      43.581  26.966  26.753  1.00  0.00     0.013 C 
BRANCH  29  31
ATOM     31  C   UNL A   1      41.372  25.567  26.523  1.00  0.00     0.267 C 
BRANCH  31  32
ATOM     32  N   UNL A   1      41.296  24.183  26.036  1.00  0.00    -0.335 N 
ATOM     33  C   UNL A   1      40.343  23.341  26.756  1.00  0.00     0.262 C 
ATOM     34  C   UNL A   1      42.556  23.447  25.973  1.00  0.00     0.262 C 
ATOM     35  H   UNL A   1      40.976  24.351  25.082  1.00  0.00     0.348 HD
ATOM     36  C   UNL A   1      41.180  22.603  27.782  1.00  0.00     0.067 C 
ATOM     37  C   UNL A   1      42.501  22.380  27.067  1.00  0.00     0.067 C 
ENDBRANCH  31  32
ENDBRANCH  29  31
ENDBRANCH  10  25
ENDBRANCH   5   7
ENDBRANCH   4   5
ENDBRANCH   3   4
ENDBRANCH   2   3
ENDBRANCH   1   2
BRANCH   1  38
ATOM     38  C   UNL A   1      35.049  33.496  29.168  1.00  0.00     0.202 C 
BRANCH  38  39
ATOM     39  C   UNL A   1      34.375  33.853  30.461  1.00  0.00     0.261 C 
BRANCH  39  40
ATOM     40  O   UNL A   1      34.514  32.716  31.392  1.00  0.00    -0.460 OA
BRANCH  40  41
ATOM     41  C   UNL A   1      34.936  32.890  32.698  1.00  0.00     0.338 C 
ATOM     42  O   UNL A   1      34.143  33.107  33.603  1.00  0.00    -0.246 OA
BRANCH  41  43
ATOM     43  C   UNL A   1      36.439  32.722  32.940  1.00  0.00     0.060 A 
ATOM     44  C   UNL A   1      36.980  31.514  33.411  1.00  0.00     0.016 A 
ATOM     45  C   UNL A   1      37.261  33.830  33.028  1.00  0.00     0.016 A 
ATOM     46  C   UNL A   1      38.120  31.502  34.275  1.00  0.00     0.010 A 
ATOM     47  C   UNL A   1      38.287  33.824  33.997  1.00  0.00     0.010 A 
ATOM     48  C   UNL A   1      38.644  32.696  34.781  1.00  0.00    -0.014 A 
BRANCH  48  49
ATOM     49  C   UNL A   1      39.748  32.905  35.874  1.00  0.00     0.031 A 
ATOM     50  C   UNL A   1      38.742  33.371  37.201  1.00  0.00     0.074 A 
ATOM     51  C   UNL A   1      41.323  32.478  35.957  1.00  0.00     0.049 A 
ATOM     52  N   UNL A   1      39.006  33.374  38.475  1.00  0.00    -0.248 NA
ATOM     53  C   UNL A   1      37.281  33.650  37.045  1.00  0.00     0.031 C 
ATOM     54  C   UNL A   1      42.504  32.250  37.779  1.00  0.00     0.029 A 
ATOM     55  N   UNL A   1      42.166  31.897  35.288  1.00  0.00    -0.354 N 
ATOM     56  C   UNL A   1      37.816  33.283  39.232  1.00  0.00     0.074 A 
ATOM     57  C   UNL A   1      36.769  33.456  38.270  1.00  0.00     0.031 C 
ATOM     58  C   UNL A   1      43.576  31.468  37.952  1.00  0.00     0.029 A 
ATOM     59  C   UNL A   1      43.252  32.081  36.776  1.00  0.00     0.049 A 
ATOM     60  H   UNL A   1      42.235  31.512  34.385  1.00  0.00     0.167 HD
ATOM     61  C   UNL A   1      37.870  32.996  40.582  1.00  0.00     0.037 A 
ATOM     62  C   UNL A   1      43.749  33.159  36.594  1.00  0.00     0.037 A 
ATOM     63  C   UNL A   1      39.280  33.082  41.013  1.00  0.00     0.049 A 
ATOM     64  C   UNL A   1      44.256  34.131  37.999  1.00  0.00     0.074 A 
ATOM     65  C   UNL A   1      40.215  32.199  41.517  1.00  0.00     0.029 A 
ATOM     66  N   UNL A   1      39.995  34.234  40.709  1.00  0.00    -0.354 N 
ATOM     67  N   UNL A   1      43.747  33.906  39.206  1.00  0.00    -0.248 NA
ATOM     68  C   UNL A   1      44.754  35.500  37.887  1.00  0.00     0.031 C 
ATOM     69  C   UNL A   1      41.512  32.804  41.379  1.00  0.00     0.029 A 
ATOM     70  C   UNL A   1      41.367  34.098  40.898  1.00  0.00     0.049 A 
ATOM     71  H   UNL A   1      39.572  35.064  40.391  1.00  0.00     0.167 HD
ATOM     72  C   UNL A   1      43.262  35.110  39.673  1.00  0.00     0.074 A 
ATOM     73  C   UNL A   1      43.936  36.061  38.792  1.00  0.00     0.031 C 
ATOM     74  C   UNL A   1      42.222  35.267  40.575  1.00  0.00     0.037 A 
BRANCH  61  75
ATOM     75  C   UNL A   1      36.748  32.553  41.597  1.00  0.00     0.058 A 
ATOM     76  C   UNL A   1      36.717  33.149  42.891  1.00  0.00     0.135 A 
ATOM     77  C   UNL A   1      35.740  31.563  41.446  1.00  0.00     0.135 A 
ATOM     78  F   UNL A   1      37.544  34.150  43.217  1.00  0.00    -0.206 F 
ATOM     79  C   UNL A   1      35.850  32.781  43.932  1.00  0.00     0.059 A 
ATOM     80  C   UNL A   1      34.823  31.194  42.480  1.00  0.00     0.059 A 
ATOM     81  F   UNL A   1      35.584  30.899  40.293  1.00  0.00    -0.206 F 
ATOM     82  C   UNL A   1      34.900  31.798  43.730  1.00  0.00     0.060 A 
BRANCH  82  83
ATOM     83  S   UNL A   1      33.806  31.389  45.121  1.00  0.00     0.124 S 
ATOM     84  O   UNL A   1      32.675  32.285  44.898  1.00  0.00    -0.237 OA
ATOM     85  O   UNL A   1      33.534  29.972  44.901  1.00  0.00    -0.237 OA
ATOM     86  O   UNL A   1      34.614  31.691  46.300  1.00  0.00    -0.744 OA
ENDBRANCH  82  83
ENDBRANCH  61  75
BRANCH  62  87
ATOM     87  C   UNL A   1      42.822  33.537  34.593  1.00  0.00     0.058 A 
ATOM     88  C   UNL A   1      43.262  32.792  33.210  1.00  0.00     0.135 A 
ATOM     89  C   UNL A   1      41.842  34.569  34.073  1.00  0.00     0.135 A 
ATOM     90  F   UNL A   1      44.296  31.923  33.163  1.00  0.00    -0.206 F 
ATOM     91  C   UNL A   1      42.744  32.907  31.923  1.00  0.00     0.059 A 
ATOM     92  C   UNL A   1      41.318  34.632  32.739  1.00  0.00     0.059 A 
ATOM     93  F   UNL A   1      41.325  35.529  34.870  1.00  0.00    -0.206 F 
ATOM     94  C   UNL A   1      41.692  33.751  31.726  1.00  0.00     0.060 A 
BRANCH  94  95
ATOM     95  S   UNL A   1      40.675  33.439  30.259  1.00  0.00     0.124 S 
ATOM     96  O   UNL A   1      40.668  34.737  29.600  1.00  0.00    -0.237 OA
ATOM     97  O   UNL A   1      41.435  32.395  29.572  1.00  0.00    -0.237 OA
ATOM     98  O   UNL A   1      39.410  33.003  30.834  1.00  0.00    -0.744 OA
ENDBRANCH  94  95
ENDBRANCH  62  87
BRANCH  74  99
ATOM     99  C   UNL A   1      41.908  36.596  41.298  1.00  0.00     0.058 A 
ATOM    100  C   UNL A   1      42.108  36.814  42.671  1.00  0.00     0.135 A 
ATOM    101  C   UNL A   1      41.173  37.645  40.663  1.00  0.00     0.135 A 
ATOM    102  F   UNL A   1      42.748  35.976  43.481  1.00  0.00    -0.206 F 
ATOM    103  C   UNL A   1      41.578  37.886  43.363  1.00  0.00     0.059 A 
ATOM    104  C   UNL A   1      40.625  38.732  41.344  1.00  0.00     0.059 A 
ATOM    105  F   UNL A   1      40.889  37.648  39.354  1.00  0.00    -0.206 F 
ATOM    106  C   UNL A   1      40.791  38.808  42.710  1.00  0.00     0.060 A 
BRANCH 106 107
ATOM    107  S   UNL A   1      39.929  39.994  43.727  1.00  0.00     0.124 S 
ATOM    108  O   UNL A   1      39.301  39.122  44.717  1.00  0.00    -0.237 OA
ATOM    109  O   UNL A   1      41.030  40.815  44.220  1.00  0.00    -0.237 OA
ATOM    110  O   UNL A   1      39.020  40.650  42.796  1.00  0.00    -0.744 OA
ENDBRANCH 106 107
ENDBRANCH  74  99
ENDBRANCH  48  49
ENDBRANCH  41  43
ENDBRANCH  40  41
ENDBRANCH  39  40
ENDBRANCH  38  39
ENDBRANCH   1  38
TORSDOF 23
ENDMDL
MODEL 3
REMARK VINA RESULT:      -8.4      5.162     11.430
REMARK SMILES Cc1cccc(S(=O)(=O)Nc2cc(C(=O)OCCOCCOC(=O)c3ccc(-c4c5nc(c(-c6c(F)cc(S(=O)(=O)[O-])cc6F)c6ccc([nH]6)c(-c6c(F)cc(S(=O)(=O)[O-])cc6F)c6nc(c(-c7c(F)cc(S(=O)(=O)[O-])cc7F)c7ccc4[nH]7)C=C6)C=C5)cc3)ccc2N2CCC[C@H](C[NH+]3CCCC3)C2)c1
REMARK SMILES IDX 19 1 18 2 17 3 16 4 14 5 15 6 13 7 11 8 12 9 93 10 92 11
REMARK SMILES IDX 91 12 10 13 7 15 8 16 9 17 6 18 1 19 2 20 3 21 106 22 4 23
REMARK SMILES IDX 5 24 94 25 95 26 105 27 96 28 98 29 97 30 99 31 100 32
REMARK SMILES IDX 101 33 104 34 102 36 103 37 20 38 21 39 22 40 23 41 24 42
REMARK SMILES IDX 25 43 26 44 90 45 27 46 89 47 28 48 29 49 30 50 83 51 31 52
REMARK SMILES IDX 88 53 82 54 84 55 32 56 87 57 81 58 80 59 33 61 67 62 46 63
REMARK SMILES IDX 66 64 47 65 50 66 65 67 85 68 48 69 49 70 64 72 86 73 51 74
REMARK SMILES IDX 34 75 35 76 44 77 36 78 37 79 43 80 45 81 38 82 39 83 40 84
REMARK SMILES IDX 41 85 42 86 68 87 69 88 78 89 70 90 71 91 77 92 79 93 72 94
REMARK SMILES IDX 73 95 74 96 75 97 76 98 52 99 53 100 62 101 54 102 55 103
REMARK SMILES IDX 61 104 63 105 56 106 57 107 58 108 59 109 60 110
REMARK H PARENT 10 14 100 35 84 60 50 71
REMARK Flexibility Score: inf
ROOT
ATOM      1  O   UNL A   1      33.850  35.597  32.836  1.00  0.00    -0.374 OA
ENDROOT
BRANCH   1   2
ATOM      2  C   UNL A   1      33.305  35.487  31.542  1.00  0.00     0.202 C 
BRANCH   2   3
ATOM      3  C   UNL A   1      34.199  34.508  30.896  1.00  0.00     0.261 C 
BRANCH   3   4
ATOM      4  O   UNL A   1      33.627  34.162  29.646  1.00  0.00    -0.460 OA
BRANCH   4   5
ATOM      5  C   UNL A   1      33.968  34.549  28.404  1.00  0.00     0.338 C 
ATOM      6  O   UNL A   1      34.189  35.622  27.884  1.00  0.00    -0.246 OA
BRANCH   5   7
ATOM      7  C   UNL A   1      33.812  33.304  27.663  1.00  0.00     0.062 A 
ATOM      8  C   UNL A   1      34.529  31.081  27.981  1.00  0.00     0.073 A 
ATOM      9  C   UNL A   1      34.861  32.377  27.806  1.00  0.00     0.044 A 
ATOM     10  C   UNL A   1      33.300  30.665  27.458  1.00  0.00     0.061 A 
ATOM     11  C   UNL A   1      32.297  31.604  27.118  1.00  0.00     0.029 A 
ATOM     12  C   UNL A   1      32.522  32.945  27.303  1.00  0.00     0.018 A 
BRANCH   8  13
ATOM     13  N   UNL A   1      35.488  30.256  28.659  1.00  0.00    -0.277 N 
ATOM     14  H   UNL A   1      35.166  29.546  29.260  1.00  0.00     0.180 HD
BRANCH  13  15
ATOM     15  S   UNL A   1      37.215  30.473  28.451  1.00  0.00     0.261 S 
ATOM     16  O   UNL A   1      37.446  31.847  28.858  1.00  0.00    -0.201 OA
ATOM     17  O   UNL A   1      37.458  30.114  27.066  1.00  0.00    -0.201 OA
BRANCH  15  18
ATOM     18  C   UNL A   1      38.324  29.369  29.472  1.00  0.00     0.088 A 
ATOM     19  C   UNL A   1      43.192  29.413  29.649  1.00  0.00     0.044 C 
ATOM     20  C   UNL A   1      41.866  28.875  30.086  1.00  0.00    -0.050 A 
ATOM     21  C   UNL A   1      41.126  28.170  31.975  1.00  0.00     0.003 A 
ATOM     22  C   UNL A   1      40.312  29.513  28.924  1.00  0.00     0.025 A 
ATOM     23  C   UNL A   1      39.179  27.894  32.554  1.00  0.00     0.002 A 
ATOM     24  C   UNL A   1      37.626  28.652  31.261  1.00  0.00     0.022 A 
ENDBRANCH  15  18
ENDBRANCH  13  15
ENDBRANCH   8  13
BRANCH  10  25
ATOM     25  N   UNL A   1      33.125  29.342  27.123  1.00  0.00    -0.369 N 
ATOM     26  C   UNL A   1      34.285  28.707  26.510  1.00  0.00     0.116 C 
ATOM     27  C   UNL A   1      31.768  28.859  26.967  1.00  0.00     0.126 C 
ATOM     28  C   UNL A   1      33.986  28.365  25.066  1.00  0.00     0.022 C 
ATOM     29  C   UNL A   1      31.487  28.417  25.527  1.00  0.00     0.064 C 
ATOM     30  C   UNL A   1      32.683  27.580  25.036  1.00  0.00     0.013 C 
BRANCH  29  31
ATOM     31  C   UNL A   1      31.084  29.624  24.635  1.00  0.00     0.267 C 
BRANCH  31  32
ATOM     32  N   UNL A   1      29.770  29.629  23.978  1.00  0.00    -0.335 N 
ATOM     33  C   UNL A   1      29.727  28.907  22.709  1.00  0.00     0.262 C 
ATOM     34  C   UNL A   1      29.166  30.939  23.747  1.00  0.00     0.262 C 
ATOM     35  H   UNL A   1      29.219  29.143  24.685  1.00  0.00     0.348 HD
ATOM     36  C   UNL A   1      29.913  29.976  21.650  1.00  0.00     0.067 C 
ATOM     37  C   UNL A   1      29.200  31.182  22.238  1.00  0.00     0.067 C 
ENDBRANCH  31  32
ENDBRANCH  29  31
ENDBRANCH  10  25
ENDBRANCH   5   7
ENDBRANCH   4   5
ENDBRANCH   3   4
ENDBRANCH   2   3
ENDBRANCH   1   2
BRANCH   1  38
ATOM     38  C   UNL A   1      34.948  34.818  33.197  1.00  0.00     0.202 C 
BRANCH  38  39
ATOM     39  C   UNL A   1      34.378  33.496  33.624  1.00  0.00     0.261 C 
BRANCH  39  40
ATOM     40  O   UNL A   1      35.493  32.596  33.975  1.00  0.00    -0.460 OA
BRANCH  40  41
ATOM     41  C   UNL A   1      36.283  32.002  33.007  1.00  0.00     0.338 C 
ATOM     42  O   UNL A   1      35.793  31.461  32.024  1.00  0.00    -0.246 OA
BRANCH  41  43
ATOM     43  C   UNL A   1      37.795  32.131  33.210  1.00  0.00     0.060 A 
ATOM     44  C   UNL A   1      38.539  31.138  33.868  1.00  0.00     0.016 A 
ATOM     45  C   UNL A   1      38.418  33.357  33.059  1.00  0.00     0.016 A 
ATOM     46  C   UNL A   1      39.675  31.475  34.669  1.00  0.00     0.010 A 
ATOM     47  C   UNL A   1      39.442  33.700  33.968  1.00  0.00     0.010 A 
ATOM     48  C   UNL A   1      39.995  32.812  34.927  1.00  0.00    -0.014 A 
BRANCH  48  49
ATOM     49  C   UNL A   1      41.061  33.400  35.915  1.00  0.00     0.031 A 
ATOM     50  C   UNL A   1      40.021  33.811  37.234  1.00  0.00     0.074 A 
ATOM     51  C   UNL A   1      42.693  33.339  35.952  1.00  0.00     0.049 A 
ATOM     52  N   UNL A   1      40.321  34.041  38.479  1.00  0.00    -0.248 NA
ATOM     53  C   UNL A   1      38.530  33.742  37.136  1.00  0.00     0.031 C 
ATOM     54  C   UNL A   1      43.956  33.618  37.710  1.00  0.00     0.029 A 
ATOM     55  N   UNL A   1      43.621  32.870  35.308  1.00  0.00    -0.354 N 
ATOM     56  C   UNL A   1      39.207  33.797  39.314  1.00  0.00     0.074 A 
ATOM     57  C   UNL A   1      38.116  33.608  38.406  1.00  0.00     0.031 C 
ATOM     58  C   UNL A   1      45.181  33.118  37.911  1.00  0.00     0.029 A 
ATOM     59  C   UNL A   1      44.688  33.483  36.691  1.00  0.00     0.049 A 
ATOM     60  H   UNL A   1      43.744  32.391  34.456  1.00  0.00     0.167 HD
ATOM     61  C   UNL A   1      39.370  33.711  40.683  1.00  0.00     0.037 A 
ATOM     62  C   UNL A   1      44.926  34.608  36.347  1.00  0.00     0.037 A 
ATOM     63  C   UNL A   1      40.738  34.158  41.012  1.00  0.00     0.049 A 
ATOM     64  C   UNL A   1      45.251  35.846  37.586  1.00  0.00     0.074 A 
ATOM     65  C   UNL A   1      41.863  33.575  41.561  1.00  0.00     0.029 A 
ATOM     66  N   UNL A   1      41.168  35.386  40.524  1.00  0.00    -0.354 N 
ATOM     67  N   UNL A   1      44.846  35.680  38.841  1.00  0.00    -0.248 NA
ATOM     68  C   UNL A   1      45.428  37.263  37.276  1.00  0.00     0.031 C 
ATOM     69  C   UNL A   1      42.987  34.421  41.270  1.00  0.00     0.029 A 
ATOM     70  C   UNL A   1      42.541  35.577  40.642  1.00  0.00     0.049 A 
ATOM     71  H   UNL A   1      40.560  36.055  40.134  1.00  0.00     0.167 HD
ATOM     72  C   UNL A   1      44.121  36.802  39.186  1.00  0.00     0.074 A 
ATOM     73  C   UNL A   1      44.536  37.750  38.154  1.00  0.00     0.031 C 
ATOM     74  C   UNL A   1      43.103  36.850  40.125  1.00  0.00     0.037 A 
BRANCH  61  75
ATOM     75  C   UNL A   1      38.409  33.176  41.814  1.00  0.00     0.058 A 
ATOM     76  C   UNL A   1      38.528  31.819  42.231  1.00  0.00     0.135 A 
ATOM     77  C   UNL A   1      37.349  33.846  42.483  1.00  0.00     0.135 A 
ATOM     78  F   UNL A   1      39.504  31.030  41.767  1.00  0.00    -0.206 F 
ATOM     79  C   UNL A   1      37.676  31.175  43.143  1.00  0.00     0.059 A 
ATOM     80  C   UNL A   1      36.491  33.221  43.441  1.00  0.00     0.059 A 
ATOM     81  F   UNL A   1      37.086  35.138  42.250  1.00  0.00    -0.206 F 
ATOM     82  C   UNL A   1      36.651  31.874  43.750  1.00  0.00     0.060 A 
BRANCH  82  83
ATOM     83  S   UNL A   1      35.604  30.975  44.930  1.00  0.00     0.124 S 
ATOM     84  O   UNL A   1      36.367  29.750  45.149  1.00  0.00    -0.237 OA
ATOM     85  O   UNL A   1      35.551  31.891  46.066  1.00  0.00    -0.237 OA
ATOM     86  O   UNL A   1      34.343  30.801  44.213  1.00  0.00    -0.744 OA
ENDBRANCH  82  83
ENDBRANCH  61  75
BRANCH  62  87
ATOM     87  C   UNL A   1      43.872  34.505  34.376  1.00  0.00     0.058 A 
ATOM     88  C   UNL A   1      44.359  33.602  33.108  1.00  0.00     0.135 A 
ATOM     89  C   UNL A   1      42.729  35.287  33.759  1.00  0.00     0.135 A 
ATOM     90  F   UNL A   1      45.507  32.889  33.137  1.00  0.00    -0.206 F 
ATOM     91  C   UNL A   1      43.777  33.421  31.857  1.00  0.00     0.059 A 
ATOM     92  C   UNL A   1      42.146  35.047  32.470  1.00  0.00     0.059 A 
ATOM     93  F   UNL A   1      42.110  36.289  34.420  1.00  0.00    -0.206 F 
ATOM     94  C   UNL A   1      42.605  34.065  31.593  1.00  0.00     0.060 A 
BRANCH  94  95
ATOM     95  S   UNL A   1      41.585  33.368  30.268  1.00  0.00     0.124 S 
ATOM     96  O   UNL A   1      40.735  34.491  29.901  1.00  0.00    -0.237 OA
ATOM     97  O   UNL A   1      42.587  32.991  29.271  1.00  0.00    -0.237 OA
ATOM     98  O   UNL A   1      40.923  32.251  30.927  1.00  0.00    -0.744 OA
ENDBRANCH  94  95
ENDBRANCH  62  87
BRANCH  74  99
ATOM     99  C   UNL A   1      42.525  38.163  40.697  1.00  0.00     0.058 A 
ATOM    100  C   UNL A   1      41.344  38.771  40.242  1.00  0.00     0.135 A 
ATOM    101  C   UNL A   1      43.273  38.989  41.593  1.00  0.00     0.135 A 
ATOM    102  F   UNL A   1      40.489  38.212  39.391  1.00  0.00    -0.206 F 
ATOM    103  C   UNL A   1      40.978  40.067  40.553  1.00  0.00     0.059 A 
ATOM    104  C   UNL A   1      42.925  40.301  41.916  1.00  0.00     0.059 A 
ATOM    105  F   UNL A   1      44.421  38.596  42.161  1.00  0.00    -0.206 F 
ATOM    106  C   UNL A   1      41.798  40.845  41.339  1.00  0.00     0.060 A 
BRANCH 106 107
ATOM    107  S   UNL A   1      41.387  42.578  41.460  1.00  0.00     0.124 S 
ATOM    108  O   UNL A   1      41.513  42.804  42.898  1.00  0.00    -0.237 OA
ATOM    109  O   UNL A   1      42.426  43.186  40.634  1.00  0.00    -0.237 OA
ATOM    110  O   UNL A   1      40.033  42.649  40.926  1.00  0.00    -0.744 OA
ENDBRANCH 106 107
ENDBRANCH  74  99
ENDBRANCH  48  49
ENDBRANCH  41  43
ENDBRANCH  40  41
ENDBRANCH  39  40
ENDBRANCH  38  39
ENDBRANCH   1  38
TORSDOF 23
ENDMDL
