MODEL 1
REMARK VINA RESULT:     -13.1      0.000      0.000
REMARK SMILES O=C(Cn1nc(C(=O)OCCOCCOC(=O)c2ccc(-c3c4nc(c(-c5c(F)cc(S(=O)(=O)[O-])cc5F)c5ccc([nH]5)c(-c5c(F)cc(S(=O)(=O)[O-])cc5F)c5nc(c(-c6c(F)cc(S(=O)(=O)[O-])cc6F)c6ccc3[nH]6)C=C5)C=C4)cc2)c2ccccc2c1=O)Nc1ccc2c(c1)C(=O)c1ccccc1C2=O
REMARK SMILES IDX 12 1 11 2 10 3 9 4 7 5 8 6 6 7 4 8 5 9 90 10 89 11 91 12
REMARK SMILES IDX 84 13 88 14 85 15 87 16 86 17 3 18 2 19 1 20 92 21 93 23
REMARK SMILES IDX 94 24 98 25 95 26 97 27 96 28 99 29 107 30 100 31 101 32
REMARK SMILES IDX 106 33 108 34 102 35 105 36 103 37 104 38 13 39 14 40 15 41
REMARK SMILES IDX 16 42 17 43 18 44 19 45 83 46 20 47 82 48 21 49 22 50 23 51
REMARK SMILES IDX 76 52 24 53 81 54 75 55 77 56 25 57 80 58 74 59 73 60 26 62
REMARK SMILES IDX 60 63 39 64 59 65 40 66 43 67 58 68 78 69 41 70 42 71 57 73
REMARK SMILES IDX 79 74 44 75 27 76 28 77 37 78 29 79 30 80 36 81 38 82 31 83
REMARK SMILES IDX 32 84 33 85 34 86 35 87 61 88 62 89 71 90 63 91 64 92 70 93
REMARK SMILES IDX 72 94 65 95 66 96 67 97 68 98 69 99 45 100 46 101 55 102
REMARK SMILES IDX 47 103 48 104 54 105 56 106 49 107 50 108 51 109 52 110
REMARK SMILES IDX 53 111
REMARK H PARENT 92 22 77 61 43 72
REMARK Flexibility Score: inf
ROOT
ATOM      1  O   UNL A   1      43.176  38.677  29.329  1.00  0.00    -0.374 OA
ENDROOT
BRANCH   1   2
ATOM      2  C   UNL A   1      42.999  40.079  29.574  1.00  0.00     0.202 C 
BRANCH   2   3
ATOM      3  C   UNL A   1      43.606  40.932  28.458  1.00  0.00     0.261 C 
BRANCH   3   4
ATOM      4  O   UNL A   1      43.288  40.309  27.206  1.00  0.00    -0.458 OA
BRANCH   4   5
ATOM      5  C   UNL A   1      44.206  40.427  26.229  1.00  0.00     0.359 C 
ATOM      6  O   UNL A   1      45.041  39.622  25.862  1.00  0.00    -0.244 OA
BRANCH   5   7
ATOM      7  C   UNL A   1      43.852  41.673  25.437  1.00  0.00     0.176 A 
ATOM      8  N   UNL A   1      42.528  42.721  23.863  1.00  0.00    -0.219 N 
ATOM      9  N   UNL A   1      42.785  41.645  24.691  1.00  0.00    -0.161 NA
ATOM     10  C   UNL A   1      43.380  43.819  23.743  1.00  0.00     0.275 A 
ATOM     11  C   UNL A   1      44.507  43.896  24.687  1.00  0.00     0.051 A 
ATOM     12  O   UNL A   1      43.230  44.713  22.917  1.00  0.00    -0.267 OA
ATOM     13  C   UNL A   1      44.779  42.815  25.513  1.00  0.00     0.022 A 
ATOM     14  C   UNL A   1      45.319  45.038  24.725  1.00  0.00     0.014 A 
ATOM     15  C   UNL A   1      45.902  42.848  26.353  1.00  0.00     0.011 A 
ATOM     16  C   UNL A   1      46.424  45.079  25.576  1.00  0.00     0.001 A 
ATOM     17  C   UNL A   1      46.722  43.980  26.379  1.00  0.00     0.001 A 
BRANCH   8  18
ATOM     18  C   UNL A   1      41.468  42.550  22.853  1.00  0.00     0.248 C 
BRANCH  18  19
ATOM     19  C   UNL A   1      42.024  42.452  21.427  1.00  0.00     0.246 C 
ATOM     20  O   UNL A   1      42.907  41.657  21.110  1.00  0.00    -0.273 OA
ATOM     21  N   UNL A   1      41.316  43.201  20.510  1.00  0.00    -0.324 N 
ATOM     22  H   UNL A   1      40.367  43.386  20.690  1.00  0.00     0.169 HD
BRANCH  21  23
ATOM     23  C   UNL A   1      41.884  43.713  19.335  1.00  0.00     0.042 A 
ATOM     24  C   UNL A   1      41.025  44.109  18.306  1.00  0.00     0.027 A 
ATOM     25  C   UNL A   1      43.177  44.233  19.423  1.00  0.00     0.039 A 
ATOM     26  C   UNL A   1      41.410  45.115  17.419  1.00  0.00     0.015 A 
ATOM     27  C   UNL A   1      43.519  45.302  18.600  1.00  0.00     0.036 A 
ATOM     28  C   UNL A   1      42.619  45.774  17.642  1.00  0.00     0.034 A 
ATOM     29  C   UNL A   1      44.669  46.142  18.985  1.00  0.00     0.194 C 
ATOM     30  C   UNL A   1      42.797  47.146  17.121  1.00  0.00     0.194 C 
ATOM     31  O   UNL A   1      45.699  45.678  19.448  1.00  0.00    -0.289 OA
ATOM     32  C   UNL A   1      44.423  47.594  18.938  1.00  0.00     0.034 A 
ATOM     33  C   UNL A   1      43.480  48.089  18.036  1.00  0.00     0.034 A 
ATOM     34  O   UNL A   1      42.289  47.519  16.074  1.00  0.00    -0.289 OA
ATOM     35  C   UNL A   1      44.989  48.423  19.909  1.00  0.00     0.013 A 
ATOM     36  C   UNL A   1      43.072  49.420  18.112  1.00  0.00     0.013 A 
ATOM     37  C   UNL A   1      44.558  49.746  20.006  1.00  0.00     0.001 A 
ATOM     38  C   UNL A   1      43.598  50.240  19.115  1.00  0.00     0.001 A 
ENDBRANCH  21  23
ENDBRANCH  18  19
ENDBRANCH   8  18
ENDBRANCH   5   7
ENDBRANCH   4   5
ENDBRANCH   3   4
ENDBRANCH   2   3
ENDBRANCH   1   2
BRANCH   1  39
ATOM     39  C   UNL A   1      44.309  38.073  29.966  1.00  0.00     0.202 C 
BRANCH  39  40
ATOM     40  C   UNL A   1      45.442  37.722  28.997  1.00  0.00     0.261 C 
BRANCH  40  41
ATOM     41  O   UNL A   1      46.655  37.481  29.732  1.00  0.00    -0.460 OA
BRANCH  41  42
ATOM     42  C   UNL A   1      47.647  36.856  29.053  1.00  0.00     0.338 C 
ATOM     43  O   UNL A   1      48.723  37.333  28.736  1.00  0.00    -0.246 OA
BRANCH  42  44
ATOM     44  C   UNL A   1      47.308  35.421  28.890  1.00  0.00     0.060 A 
ATOM     45  C   UNL A   1      47.305  34.521  29.962  1.00  0.00     0.016 A 
ATOM     46  C   UNL A   1      46.990  34.976  27.600  1.00  0.00     0.016 A 
ATOM     47  C   UNL A   1      46.960  33.183  29.744  1.00  0.00     0.010 A 
ATOM     48  C   UNL A   1      46.651  33.640  27.384  1.00  0.00     0.010 A 
ATOM     49  C   UNL A   1      46.620  32.738  28.457  1.00  0.00    -0.014 A 
BRANCH  49  50
ATOM     50  C   UNL A   1      46.109  31.365  28.241  1.00  0.00     0.031 A 
ATOM     51  C   UNL A   1      44.680  31.009  28.520  1.00  0.00     0.074 A 
ATOM     52  C   UNL A   1      46.973  30.421  27.823  1.00  0.00     0.049 A 
ATOM     53  N   UNL A   1      44.076  29.859  28.364  1.00  0.00    -0.248 NA
ATOM     54  C   UNL A   1      43.819  32.078  29.047  1.00  0.00     0.031 C 
ATOM     55  C   UNL A   1      48.394  30.646  27.547  1.00  0.00     0.029 A 
ATOM     56  N   UNL A   1      46.788  29.088  27.567  1.00  0.00    -0.354 N 
ATOM     57  C   UNL A   1      42.759  30.066  28.749  1.00  0.00     0.074 A 
ATOM     58  C   UNL A   1      42.661  31.445  29.185  1.00  0.00     0.031 C 
ATOM     59  C   UNL A   1      48.951  29.489  27.157  1.00  0.00     0.029 A 
ATOM     60  C   UNL A   1      47.932  28.444  27.163  1.00  0.00     0.049 A 
ATOM     61  H   UNL A   1      45.919  28.635  27.663  1.00  0.00     0.167 HD
ATOM     62  C   UNL A   1      41.726  29.188  28.725  1.00  0.00     0.037 A 
ATOM     63  C   UNL A   1      48.136  27.156  26.829  1.00  0.00     0.037 A 
ATOM     64  C   UNL A   1      41.833  27.814  28.308  1.00  0.00     0.049 A 
ATOM     65  C   UNL A   1      46.986  26.194  26.851  1.00  0.00     0.074 A 
ATOM     66  C   UNL A   1      40.832  26.861  28.214  1.00  0.00     0.029 A 
ATOM     67  N   UNL A   1      43.011  27.189  27.928  1.00  0.00    -0.354 N 
ATOM     68  N   UNL A   1      45.731  26.421  27.162  1.00  0.00    -0.248 NA
ATOM     69  C   UNL A   1      47.274  24.804  26.474  1.00  0.00     0.031 C 
ATOM     70  C   UNL A   1      41.410  25.654  27.803  1.00  0.00     0.029 A 
ATOM     71  C   UNL A   1      42.767  25.862  27.618  1.00  0.00     0.049 A 
ATOM     72  H   UNL A   1      43.893  27.625  27.885  1.00  0.00     0.167 HD
ATOM     73  C   UNL A   1      45.077  25.207  27.001  1.00  0.00     0.074 A 
ATOM     74  C   UNL A   1      46.072  24.248  26.563  1.00  0.00     0.031 C 
ATOM     75  C   UNL A   1      43.769  24.915  27.195  1.00  0.00     0.037 A 
BRANCH  62  76
ATOM     76  C   UNL A   1      40.379  29.695  29.147  1.00  0.00     0.058 A 
ATOM     77  C   UNL A   1      39.351  29.881  28.209  1.00  0.00     0.135 A 
ATOM     78  C   UNL A   1      40.091  29.945  30.497  1.00  0.00     0.135 A 
ATOM     79  F   UNL A   1      39.581  29.666  26.904  1.00  0.00    -0.206 F 
ATOM     80  C   UNL A   1      38.087  30.313  28.594  1.00  0.00     0.059 A 
ATOM     81  C   UNL A   1      38.829  30.367  30.906  1.00  0.00     0.059 A 
ATOM     82  F   UNL A   1      41.041  29.784  31.431  1.00  0.00    -0.206 F 
ATOM     83  C   UNL A   1      37.836  30.558  29.945  1.00  0.00     0.060 A 
BRANCH  83  84
ATOM     84  S   UNL A   1      36.191  31.119  30.430  1.00  0.00     0.124 S 
ATOM     85  O   UNL A   1      36.396  32.560  30.532  1.00  0.00    -0.237 OA
ATOM     86  O   UNL A   1      35.363  30.675  29.313  1.00  0.00    -0.237 OA
ATOM     87  O   UNL A   1      35.955  30.427  31.694  1.00  0.00    -0.744 OA
ENDBRANCH  83  84
ENDBRANCH  62  76
BRANCH  63  88
ATOM     88  C   UNL A   1      49.488  26.720  26.409  1.00  0.00     0.058 A 
ATOM     89  C   UNL A   1      50.369  26.142  27.332  1.00  0.00     0.135 A 
ATOM     90  C   UNL A   1      49.905  26.826  25.074  1.00  0.00     0.135 A 
ATOM     91  F   UNL A   1      50.008  26.023  28.620  1.00  0.00    -0.206 F 
ATOM     92  C   UNL A   1      51.622  25.681  26.948  1.00  0.00     0.059 A 
ATOM     93  C   UNL A   1      51.149  26.361  24.663  1.00  0.00     0.059 A 
ATOM     94  F   UNL A   1      49.085  27.360  24.155  1.00  0.00    -0.206 F 
ATOM     95  C   UNL A   1      52.002  25.793  25.609  1.00  0.00     0.060 A 
BRANCH  95  96
ATOM     96  S   UNL A   1      53.602  25.125  25.101  1.00  0.00     0.124 S 
ATOM     97  O   UNL A   1      53.390  23.693  25.274  1.00  0.00    -0.237 OA
ATOM     98  O   UNL A   1      53.710  25.594  23.722  1.00  0.00    -0.237 OA
ATOM     99  O   UNL A   1      54.533  25.746  26.039  1.00  0.00    -0.744 OA
ENDBRANCH  95  96
ENDBRANCH  63  88
BRANCH  75 100
ATOM    100  C   UNL A   1      43.335  23.505  26.930  1.00  0.00     0.058 A 
ATOM    101  C   UNL A   1      43.251  23.003  25.622  1.00  0.00     0.135 A 
ATOM    102  C   UNL A   1      43.044  22.634  27.991  1.00  0.00     0.135 A 
ATOM    103  F   UNL A   1      43.512  23.801  24.575  1.00  0.00    -0.206 F 
ATOM    104  C   UNL A   1      42.883  21.685  25.375  1.00  0.00     0.059 A 
ATOM    105  C   UNL A   1      42.686  21.308  27.767  1.00  0.00     0.059 A 
ATOM    106  F   UNL A   1      43.113  23.068  29.260  1.00  0.00    -0.206 F 
ATOM    107  C   UNL A   1      42.601  20.845  26.454  1.00  0.00     0.060 A 
BRANCH 107 108
ATOM    108  S   UNL A   1      42.161  19.124  26.127  1.00  0.00     0.124 S 
ATOM    109  O   UNL A   1      40.720  19.226  25.919  1.00  0.00    -0.237 OA
ATOM    110  O   UNL A   1      42.951  18.816  24.940  1.00  0.00    -0.237 OA
ATOM    111  O   UNL A   1      42.574  18.433  27.344  1.00  0.00    -0.744 OA
ENDBRANCH 107 108
ENDBRANCH  75 100
ENDBRANCH  49  50
ENDBRANCH  42  44
ENDBRANCH  41  42
ENDBRANCH  40  41
ENDBRANCH  39  40
ENDBRANCH   1  39
TORSDOF 20
ENDMDL
MODEL 2
REMARK VINA RESULT:     -12.4      0.518      7.608
REMARK SMILES O=C(Cn1nc(C(=O)OCCOCCOC(=O)c2ccc(-c3c4nc(c(-c5c(F)cc(S(=O)(=O)[O-])cc5F)c5ccc([nH]5)c(-c5c(F)cc(S(=O)(=O)[O-])cc5F)c5nc(c(-c6c(F)cc(S(=O)(=O)[O-])cc6F)c6ccc3[nH]6)C=C5)C=C4)cc2)c2ccccc2c1=O)Nc1ccc2c(c1)C(=O)c1ccccc1C2=O
REMARK SMILES IDX 12 1 11 2 10 3 9 4 7 5 8 6 6 7 4 8 5 9 90 10 89 11 91 12
REMARK SMILES IDX 84 13 88 14 85 15 87 16 86 17 3 18 2 19 1 20 92 21 93 23
REMARK SMILES IDX 94 24 98 25 95 26 97 27 96 28 99 29 107 30 100 31 101 32
REMARK SMILES IDX 106 33 108 34 102 35 105 36 103 37 104 38 13 39 14 40 15 41
REMARK SMILES IDX 16 42 17 43 18 44 19 45 83 46 20 47 82 48 21 49 22 50 23 51
REMARK SMILES IDX 76 52 24 53 81 54 75 55 77 56 25 57 80 58 74 59 73 60 26 62
REMARK SMILES IDX 60 63 39 64 59 65 40 66 43 67 58 68 78 69 41 70 42 71 57 73
REMARK SMILES IDX 79 74 44 75 27 76 28 77 37 78 29 79 30 80 36 81 38 82 31 83
REMARK SMILES IDX 32 84 33 85 34 86 35 87 61 88 62 89 71 90 63 91 64 92 70 93
REMARK SMILES IDX 72 94 65 95 66 96 67 97 68 98 69 99 45 100 46 101 55 102
REMARK SMILES IDX 47 103 48 104 54 105 56 106 49 107 50 108 51 109 52 110
REMARK SMILES IDX 53 111
REMARK H PARENT 92 22 77 61 43 72
REMARK Flexibility Score: inf
ROOT
ATOM      1  O   UNL A   1      43.376  38.372  28.796  1.00  0.00    -0.374 OA
ENDROOT
BRANCH   1   2
ATOM      2  C   UNL A   1      42.989  39.685  29.227  1.00  0.00     0.202 C 
BRANCH   2   3
ATOM      3  C   UNL A   1      42.933  40.673  28.060  1.00  0.00     0.261 C 
BRANCH   3   4
ATOM      4  O   UNL A   1      43.187  39.942  26.852  1.00  0.00    -0.458 OA
BRANCH   4   5
ATOM      5  C   UNL A   1      44.256  40.328  26.134  1.00  0.00     0.359 C 
ATOM      6  O   UNL A   1      45.285  39.721  25.904  1.00  0.00    -0.244 OA
BRANCH   5   7
ATOM      7  C   UNL A   1      43.860  41.593  25.394  1.00  0.00     0.176 A 
ATOM      8  N   UNL A   1      42.524  42.650  23.835  1.00  0.00    -0.219 N 
ATOM      9  N   UNL A   1      42.815  41.549  24.617  1.00  0.00    -0.161 NA
ATOM     10  C   UNL A   1      43.321  43.795  23.792  1.00  0.00     0.275 A 
ATOM     11  C   UNL A   1      44.417  43.881  24.771  1.00  0.00     0.051 A 
ATOM     12  O   UNL A   1      43.147  44.720  23.007  1.00  0.00    -0.267 OA
ATOM     13  C   UNL A   1      44.724  42.775  25.551  1.00  0.00     0.022 A 
ATOM     14  C   UNL A   1      45.168  45.059  24.888  1.00  0.00     0.014 A 
ATOM     15  C   UNL A   1      45.821  42.822  26.423  1.00  0.00     0.011 A 
ATOM     16  C   UNL A   1      46.247  45.113  25.771  1.00  0.00     0.001 A 
ATOM     17  C   UNL A   1      46.581  43.991  26.528  1.00  0.00     0.001 A 
BRANCH   8  18
ATOM     18  C   UNL A   1      41.501  42.477  22.788  1.00  0.00     0.248 C 
BRANCH  18  19
ATOM     19  C   UNL A   1      42.106  42.403  21.380  1.00  0.00     0.246 C 
ATOM     20  O   UNL A   1      43.010  41.624  21.085  1.00  0.00    -0.273 OA
ATOM     21  N   UNL A   1      41.419  43.153  20.448  1.00  0.00    -0.324 N 
ATOM     22  H   UNL A   1      40.461  43.322  20.599  1.00  0.00     0.169 HD
BRANCH  21  23
ATOM     23  C   UNL A   1      42.017  43.686  19.299  1.00  0.00     0.042 A 
ATOM     24  C   UNL A   1      41.189  44.060  18.237  1.00  0.00     0.027 A 
ATOM     25  C   UNL A   1      43.289  44.245  19.441  1.00  0.00     0.039 A 
ATOM     26  C   UNL A   1      41.579  45.081  17.369  1.00  0.00     0.015 A 
ATOM     27  C   UNL A   1      43.632  45.327  18.635  1.00  0.00     0.036 A 
ATOM     28  C   UNL A   1      42.758  45.775  17.643  1.00  0.00     0.034 A 
ATOM     29  C   UNL A   1      44.739  46.200  19.069  1.00  0.00     0.194 C 
ATOM     30  C   UNL A   1      42.915  47.155  17.133  1.00  0.00     0.194 C 
ATOM     31  O   UNL A   1      45.763  45.765  19.573  1.00  0.00    -0.289 OA
ATOM     32  C   UNL A   1      44.452  47.643  19.016  1.00  0.00     0.034 A 
ATOM     33  C   UNL A   1      43.531  48.114  18.078  1.00  0.00     0.034 A 
ATOM     34  O   UNL A   1      42.439  47.516  16.068  1.00  0.00    -0.289 OA
ATOM     35  C   UNL A   1      44.952  48.486  20.012  1.00  0.00     0.013 A 
ATOM     36  C   UNL A   1      43.081  49.432  18.141  1.00  0.00     0.013 A 
ATOM     37  C   UNL A   1      44.478  49.794  20.094  1.00  0.00     0.001 A 
ATOM     38  C   UNL A   1      43.541  50.263  19.167  1.00  0.00     0.001 A 
ENDBRANCH  21  23
ENDBRANCH  18  19
ENDBRANCH   8  18
ENDBRANCH   5   7
ENDBRANCH   4   5
ENDBRANCH   3   4
ENDBRANCH   2   3
ENDBRANCH   1   2
BRANCH   1  39
ATOM     39  C   UNL A   1      44.231  37.652  29.693  1.00  0.00     0.202 C 
BRANCH  39  40
ATOM     40  C   UNL A   1      45.374  36.913  28.990  1.00  0.00     0.261 C 
BRANCH  40  41
ATOM     41  O   UNL A   1      46.636  37.471  29.394  1.00  0.00    -0.460 OA
BRANCH  41  42
ATOM     42  C   UNL A   1      47.741  36.852  28.913  1.00  0.00     0.338 C 
ATOM     43  O   UNL A   1      48.847  37.346  28.770  1.00  0.00    -0.246 OA
BRANCH  42  44
ATOM     44  C   UNL A   1      47.462  35.406  28.738  1.00  0.00     0.060 A 
ATOM     45  C   UNL A   1      47.518  34.494  29.798  1.00  0.00     0.016 A 
ATOM     46  C   UNL A   1      47.140  34.962  27.449  1.00  0.00     0.016 A 
ATOM     47  C   UNL A   1      47.228  33.144  29.570  1.00  0.00     0.010 A 
ATOM     48  C   UNL A   1      46.856  33.615  27.222  1.00  0.00     0.010 A 
ATOM     49  C   UNL A   1      46.884  32.700  28.284  1.00  0.00    -0.014 A 
BRANCH  49  50
ATOM     50  C   UNL A   1      46.430  31.308  28.060  1.00  0.00     0.031 A 
ATOM     51  C   UNL A   1      47.362  30.254  27.544  1.00  0.00     0.074 A 
ATOM     52  C   UNL A   1      45.136  31.015  28.292  1.00  0.00     0.049 A 
ATOM     53  N   UNL A   1      47.122  28.989  27.314  1.00  0.00    -0.248 NA
ATOM     54  C   UNL A   1      48.738  30.673  27.243  1.00  0.00     0.031 C 
ATOM     55  C   UNL A   1      44.131  31.968  28.767  1.00  0.00     0.029 A 
ATOM     56  N   UNL A   1      44.446  29.840  28.152  1.00  0.00    -0.354 N 
ATOM     57  C   UNL A   1      48.318  28.450  26.864  1.00  0.00     0.074 A 
ATOM     58  C   UNL A   1      49.276  29.538  26.815  1.00  0.00     0.031 C 
ATOM     59  C   UNL A   1      42.951  31.337  28.882  1.00  0.00     0.029 A 
ATOM     60  C   UNL A   1      43.116  29.944  28.482  1.00  0.00     0.049 A 
ATOM     61  H   UNL A   1      44.862  29.003  27.843  1.00  0.00     0.167 HD
ATOM     62  C   UNL A   1      48.593  27.164  26.537  1.00  0.00     0.037 A 
ATOM     63  C   UNL A   1      42.141  29.017  28.469  1.00  0.00     0.037 A 
ATOM     64  C   UNL A   1      47.634  26.090  26.569  1.00  0.00     0.049 A 
ATOM     65  C   UNL A   1      42.461  27.609  28.062  1.00  0.00     0.074 A 
ATOM     66  C   UNL A   1      47.832  24.748  26.292  1.00  0.00     0.029 A 
ATOM     67  N   UNL A   1      46.292  26.235  26.885  1.00  0.00    -0.354 N 
ATOM     68  N   UNL A   1      43.614  27.103  27.695  1.00  0.00    -0.248 NA
ATOM     69  C   UNL A   1      41.352  26.645  28.072  1.00  0.00     0.031 C 
ATOM     70  C   UNL A   1      46.604  24.087  26.415  1.00  0.00     0.029 A 
ATOM     71  C   UNL A   1      45.646  25.014  26.793  1.00  0.00     0.049 A 
ATOM     72  H   UNL A   1      45.860  27.083  27.140  1.00  0.00     0.167 HD
ATOM     73  C   UNL A   1      43.374  25.758  27.446  1.00  0.00     0.074 A 
ATOM     74  C   UNL A   1      41.966  25.527  27.707  1.00  0.00     0.031 C 
ATOM     75  C   UNL A   1      44.243  24.801  27.043  1.00  0.00     0.037 A 
BRANCH  62  76
ATOM     76  C   UNL A   1      50.001  26.841  26.130  1.00  0.00     0.058 A 
ATOM     77  C   UNL A   1      50.405  26.933  24.789  1.00  0.00     0.135 A 
ATOM     78  C   UNL A   1      50.966  26.490  27.085  1.00  0.00     0.135 A 
ATOM     79  F   UNL A   1      49.515  27.254  23.837  1.00  0.00    -0.206 F 
ATOM     80  C   UNL A   1      51.716  26.673  24.406  1.00  0.00     0.059 A 
ATOM     81  C   UNL A   1      52.287  26.238  26.726  1.00  0.00     0.059 A 
ATOM     82  F   UNL A   1      50.629  26.386  28.381  1.00  0.00    -0.206 F 
ATOM     83  C   UNL A   1      52.650  26.322  25.382  1.00  0.00     0.060 A 
BRANCH  83  84
ATOM     84  S   UNL A   1      54.348  25.986  24.871  1.00  0.00     0.124 S 
ATOM     85  O   UNL A   1      55.103  26.750  25.859  1.00  0.00    -0.237 OA
ATOM     86  O   UNL A   1      54.433  24.534  24.992  1.00  0.00    -0.237 OA
ATOM     87  O   UNL A   1      54.400  26.502  23.506  1.00  0.00    -0.744 OA
ENDBRANCH  83  84
ENDBRANCH  62  76
BRANCH  63  88
ATOM     88  C   UNL A   1      40.773  29.397  28.894  1.00  0.00     0.058 A 
ATOM     89  C   UNL A   1      39.755  29.567  27.947  1.00  0.00     0.135 A 
ATOM     90  C   UNL A   1      40.448  29.546  30.250  1.00  0.00     0.135 A 
ATOM     91  F   UNL A   1      40.026  29.434  26.639  1.00  0.00    -0.206 F 
ATOM     92  C   UNL A   1      38.454  29.874  28.329  1.00  0.00     0.059 A 
ATOM     93  C   UNL A   1      39.151  29.840  30.657  1.00  0.00     0.059 A 
ATOM     94  F   UNL A   1      41.391  29.376  31.190  1.00  0.00    -0.206 F 
ATOM     95  C   UNL A   1      38.161  30.006  29.688  1.00  0.00     0.060 A 
BRANCH  95  96
ATOM     96  S   UNL A   1      36.455  30.332  30.181  1.00  0.00     0.124 S 
ATOM     97  O   UNL A   1      35.714  29.772  29.058  1.00  0.00    -0.237 OA
ATOM     98  O   UNL A   1      36.352  29.603  31.442  1.00  0.00    -0.237 OA
ATOM     99  O   UNL A   1      36.417  31.787  30.305  1.00  0.00    -0.744 OA
ENDBRANCH  95  96
ENDBRANCH  63  88
BRANCH  75 100
ATOM    100  C   UNL A   1      43.700  23.415  26.863  1.00  0.00     0.058 A 
ATOM    101  C   UNL A   1      43.441  22.586  27.966  1.00  0.00     0.135 A 
ATOM    102  C   UNL A   1      43.393  22.926  25.584  1.00  0.00     0.135 A 
ATOM    103  F   UNL A   1      43.727  23.007  29.208  1.00  0.00    -0.206 F 
ATOM    104  C   UNL A   1      42.905  21.313  27.805  1.00  0.00     0.059 A 
ATOM    105  C   UNL A   1      42.844  21.661  25.401  1.00  0.00     0.059 A 
ATOM    106  F   UNL A   1      43.619  23.684  24.499  1.00  0.00    -0.206 F 
ATOM    107  C   UNL A   1      42.611  20.859  26.518  1.00  0.00     0.060 A 
BRANCH 107 108
ATOM    108  S   UNL A   1      41.879  19.219  26.319  1.00  0.00     0.124 S 
ATOM    109  O   UNL A   1      40.515  19.554  25.922  1.00  0.00    -0.237 OA
ATOM    110  O   UNL A   1      42.713  18.625  25.280  1.00  0.00    -0.237 OA
ATOM    111  O   UNL A   1      42.021  18.624  27.644  1.00  0.00    -0.744 OA
ENDBRANCH 107 108
ENDBRANCH  75 100
ENDBRANCH  49  50
ENDBRANCH  42  44
ENDBRANCH  41  42
ENDBRANCH  40  41
ENDBRANCH  39  40
ENDBRANCH   1  39
TORSDOF 20
ENDMDL
MODEL 3
REMARK VINA RESULT:     -12.2     11.109     17.009
REMARK SMILES O=C(Cn1nc(C(=O)OCCOCCOC(=O)c2ccc(-c3c4nc(c(-c5c(F)cc(S(=O)(=O)[O-])cc5F)c5ccc([nH]5)c(-c5c(F)cc(S(=O)(=O)[O-])cc5F)c5nc(c(-c6c(F)cc(S(=O)(=O)[O-])cc6F)c6ccc3[nH]6)C=C5)C=C4)cc2)c2ccccc2c1=O)Nc1ccc2c(c1)C(=O)c1ccccc1C2=O
REMARK SMILES IDX 12 1 11 2 10 3 9 4 7 5 8 6 6 7 4 8 5 9 90 10 89 11 91 12
REMARK SMILES IDX 84 13 88 14 85 15 87 16 86 17 3 18 2 19 1 20 92 21 93 23
REMARK SMILES IDX 94 24 98 25 95 26 97 27 96 28 99 29 107 30 100 31 101 32
REMARK SMILES IDX 106 33 108 34 102 35 105 36 103 37 104 38 13 39 14 40 15 41
REMARK SMILES IDX 16 42 17 43 18 44 19 45 83 46 20 47 82 48 21 49 22 50 23 51
REMARK SMILES IDX 76 52 24 53 81 54 75 55 77 56 25 57 80 58 74 59 73 60 26 62
REMARK SMILES IDX 60 63 39 64 59 65 40 66 43 67 58 68 78 69 41 70 42 71 57 73
REMARK SMILES IDX 79 74 44 75 27 76 28 77 37 78 29 79 30 80 36 81 38 82 31 83
REMARK SMILES IDX 32 84 33 85 34 86 35 87 61 88 62 89 71 90 63 91 64 92 70 93
REMARK SMILES IDX 72 94 65 95 66 96 67 97 68 98 69 99 45 100 46 101 55 102
REMARK SMILES IDX 47 103 48 104 54 105 56 106 49 107 50 108 51 109 52 110
REMARK SMILES IDX 53 111
REMARK H PARENT 92 22 77 61 43 72
REMARK Flexibility Score: inf
ROOT
ATOM      1  O   UNL A   1      43.124  26.755  25.712  1.00  0.00    -0.374 OA
ENDROOT
BRANCH   1   2
ATOM      2  C   UNL A   1      44.544  26.878  25.559  1.00  0.00     0.202 C 
BRANCH   2   3
ATOM      3  C   UNL A   1      45.216  25.516  25.368  1.00  0.00     0.261 C 
BRANCH   3   4
ATOM      4  O   UNL A   1      44.267  24.504  25.729  1.00  0.00    -0.458 OA
BRANCH   4   5
ATOM      5  C   UNL A   1      44.051  23.536  24.821  1.00  0.00     0.359 C 
ATOM      6  O   UNL A   1      44.695  23.261  23.826  1.00  0.00    -0.244 OA
BRANCH   5   7
ATOM      7  C   UNL A   1      42.982  22.622  25.392  1.00  0.00     0.176 A 
ATOM      8  N   UNL A   1      40.949  22.361  26.457  1.00  0.00    -0.219 N 
ATOM      9  N   UNL A   1      41.872  23.161  25.811  1.00  0.00    -0.161 NA
ATOM     10  C   UNL A   1      41.163  21.009  26.731  1.00  0.00     0.275 A 
ATOM     11  C   UNL A   1      42.357  20.388  26.136  1.00  0.00     0.051 A 
ATOM     12  O   UNL A   1      40.412  20.325  27.417  1.00  0.00    -0.267 OA
ATOM     13  C   UNL A   1      43.295  21.187  25.497  1.00  0.00     0.022 A 
ATOM     14  C   UNL A   1      42.562  19.005  26.244  1.00  0.00     0.014 A 
ATOM     15  C   UNL A   1      44.475  20.613  25.003  1.00  0.00     0.011 A 
ATOM     16  C   UNL A   1      43.727  18.432  25.734  1.00  0.00     0.001 A 
ATOM     17  C   UNL A   1      44.688  19.237  25.126  1.00  0.00     0.001 A 
BRANCH   8  18
ATOM     18  C   UNL A   1      39.835  23.041  27.141  1.00  0.00     0.248 C 
BRANCH  18  19
ATOM     19  C   UNL A   1      38.588  23.164  26.257  1.00  0.00     0.246 C 
ATOM     20  O   UNL A   1      37.770  24.072  26.384  1.00  0.00    -0.273 OA
ATOM     21  N   UNL A   1      38.576  22.276  25.201  1.00  0.00    -0.324 N 
ATOM     22  H   UNL A   1      39.437  21.955  24.850  1.00  0.00     0.169 HD
BRANCH  21  23
ATOM     23  C   UNL A   1      37.397  21.810  24.604  1.00  0.00     0.042 A 
ATOM     24  C   UNL A   1      36.829  20.631  25.096  1.00  0.00     0.027 A 
ATOM     25  C   UNL A   1      36.617  22.742  23.915  1.00  0.00     0.039 A 
ATOM     26  C   UNL A   1      35.453  20.424  25.005  1.00  0.00     0.015 A 
ATOM     27  C   UNL A   1      35.235  22.578  23.912  1.00  0.00     0.036 A 
ATOM     28  C   UNL A   1      34.655  21.453  24.502  1.00  0.00     0.034 A 
ATOM     29  C   UNL A   1      34.391  23.749  23.610  1.00  0.00     0.194 C 
ATOM     30  C   UNL A   1      33.231  21.516  24.895  1.00  0.00     0.194 C 
ATOM     31  O   UNL A   1      34.676  24.561  22.743  1.00  0.00    -0.289 OA
ATOM     32  C   UNL A   1      33.273  23.970  24.543  1.00  0.00     0.034 A 
ATOM     33  C   UNL A   1      32.716  22.871  25.199  1.00  0.00     0.034 A 
ATOM     34  O   UNL A   1      32.564  20.513  25.099  1.00  0.00    -0.289 OA
ATOM     35  C   UNL A   1      32.915  25.272  24.899  1.00  0.00     0.013 A 
ATOM     36  C   UNL A   1      31.808  23.064  26.239  1.00  0.00     0.013 A 
ATOM     37  C   UNL A   1      32.030  25.466  25.959  1.00  0.00     0.001 A 
ATOM     38  C   UNL A   1      31.485  24.367  26.631  1.00  0.00     0.001 A 
ENDBRANCH  21  23
ENDBRANCH  18  19
ENDBRANCH   8  18
ENDBRANCH   5   7
ENDBRANCH   4   5
ENDBRANCH   3   4
ENDBRANCH   2   3
ENDBRANCH   1   2
BRANCH   1  39
ATOM     39  C   UNL A   1      42.391  27.987  25.724  1.00  0.00     0.202 C 
BRANCH  39  40
ATOM     40  C   UNL A   1      40.998  27.866  26.348  1.00  0.00     0.261 C 
BRANCH  40  41
ATOM     41  O   UNL A   1      40.866  26.593  27.004  1.00  0.00    -0.460 OA
BRANCH  41  42
ATOM     42  C   UNL A   1      40.789  26.626  28.357  1.00  0.00     0.338 C 
ATOM     43  O   UNL A   1      39.774  26.731  29.024  1.00  0.00    -0.246 OA
BRANCH  42  44
ATOM     44  C   UNL A   1      42.124  26.342  28.936  1.00  0.00     0.060 A 
ATOM     45  C   UNL A   1      42.774  25.115  28.762  1.00  0.00     0.016 A 
ATOM     46  C   UNL A   1      42.730  27.355  29.690  1.00  0.00     0.016 A 
ATOM     47  C   UNL A   1      44.041  24.914  29.323  1.00  0.00     0.010 A 
ATOM     48  C   UNL A   1      43.991  27.152  30.252  1.00  0.00     0.010 A 
ATOM     49  C   UNL A   1      44.660  25.935  30.060  1.00  0.00    -0.014 A 
BRANCH  49  50
ATOM     50  C   UNL A   1      46.058  25.790  30.527  1.00  0.00     0.031 A 
ATOM     51  C   UNL A   1      47.214  26.243  29.688  1.00  0.00     0.074 A 
ATOM     52  C   UNL A   1      46.274  25.198  31.717  1.00  0.00     0.049 A 
ATOM     53  N   UNL A   1      48.493  26.203  29.965  1.00  0.00    -0.248 NA
ATOM     54  C   UNL A   1      46.898  26.809  28.369  1.00  0.00     0.031 C 
ATOM     55  C   UNL A   1      45.226  24.692  32.606  1.00  0.00     0.029 A 
ATOM     56  N   UNL A   1      47.441  24.916  32.378  1.00  0.00    -0.354 N 
ATOM     57  C   UNL A   1      49.137  26.758  28.868  1.00  0.00     0.074 A 
ATOM     58  C   UNL A   1      48.108  27.092  27.902  1.00  0.00     0.031 C 
ATOM     59  C   UNL A   1      45.799  24.162  33.699  1.00  0.00     0.029 A 
ATOM     60  C   UNL A   1      47.248  24.285  33.583  1.00  0.00     0.049 A 
ATOM     61  H   UNL A   1      48.331  25.142  32.023  1.00  0.00     0.167 HD
ATOM     62  C   UNL A   1      50.461  26.980  28.692  1.00  0.00     0.037 A 
ATOM     63  C   UNL A   1      48.141  23.858  34.495  1.00  0.00     0.037 A 
ATOM     64  C   UNL A   1      51.482  26.630  29.646  1.00  0.00     0.049 A 
ATOM     65  C   UNL A   1      49.606  24.078  34.258  1.00  0.00     0.074 A 
ATOM     66  C   UNL A   1      52.847  26.853  29.571  1.00  0.00     0.029 A 
ATOM     67  N   UNL A   1      51.254  25.972  30.845  1.00  0.00    -0.354 N 
ATOM     68  N   UNL A   1      50.194  24.660  33.240  1.00  0.00    -0.248 NA
ATOM     69  C   UNL A   1      50.528  23.592  35.293  1.00  0.00     0.031 C 
ATOM     70  C   UNL A   1      53.446  26.305  30.711  1.00  0.00     0.029 A 
ATOM     71  C   UNL A   1      52.452  25.763  31.509  1.00  0.00     0.049 A 
ATOM     72  H   UNL A   1      50.370  25.693  31.177  1.00  0.00     0.167 HD
ATOM     73  C   UNL A   1      51.554  24.623  33.519  1.00  0.00     0.074 A 
ATOM     74  C   UNL A   1      51.702  23.966  34.803  1.00  0.00     0.031 C 
ATOM     75  C   UNL A   1      52.586  25.097  32.780  1.00  0.00     0.037 A 
BRANCH  62  76
ATOM     76  C   UNL A   1      50.886  27.654  27.421  1.00  0.00     0.058 A 
ATOM     77  C   UNL A   1      51.220  26.904  26.282  1.00  0.00     0.135 A 
ATOM     78  C   UNL A   1      50.909  29.053  27.318  1.00  0.00     0.135 A 
ATOM     79  F   UNL A   1      51.224  25.563  26.335  1.00  0.00    -0.206 F 
ATOM     80  C   UNL A   1      51.578  27.519  25.088  1.00  0.00     0.059 A 
ATOM     81  C   UNL A   1      51.252  29.689  26.128  1.00  0.00     0.059 A 
ATOM     82  F   UNL A   1      50.600  29.814  28.379  1.00  0.00    -0.206 F 
ATOM     83  C   UNL A   1      51.595  28.913  25.021  1.00  0.00     0.060 A 
BRANCH  83  84
ATOM     84  S   UNL A   1      52.061  29.697  23.463  1.00  0.00     0.124 S 
ATOM     85  O   UNL A   1      53.497  29.440  23.430  1.00  0.00    -0.237 OA
ATOM     86  O   UNL A   1      51.263  28.962  22.488  1.00  0.00    -0.237 OA
ATOM     87  O   UNL A   1      51.678  31.093  23.658  1.00  0.00    -0.744 OA
ENDBRANCH  83  84
ENDBRANCH  62  76
BRANCH  63  88
ATOM     88  C   UNL A   1      47.657  23.211  35.737  1.00  0.00     0.058 A 
ATOM     89  C   UNL A   1      47.453  21.825  35.785  1.00  0.00     0.135 A 
ATOM     90  C   UNL A   1      47.439  23.953  36.907  1.00  0.00     0.135 A 
ATOM     91  F   UNL A   1      47.651  21.080  34.686  1.00  0.00    -0.206 F 
ATOM     92  C   UNL A   1      47.048  21.193  36.953  1.00  0.00     0.059 A 
ATOM     93  C   UNL A   1      47.046  23.340  38.092  1.00  0.00     0.059 A 
ATOM     94  F   UNL A   1      47.638  25.280  36.908  1.00  0.00    -0.206 F 
ATOM     95  C   UNL A   1      46.849  21.959  38.104  1.00  0.00     0.060 A 
BRANCH  95  96
ATOM     96  S   UNL A   1      46.394  21.121  39.638  1.00  0.00     0.124 S 
ATOM     97  O   UNL A   1      45.935  19.830  39.141  1.00  0.00    -0.237 OA
ATOM     98  O   UNL A   1      47.656  21.112  40.372  1.00  0.00    -0.237 OA
ATOM     99  O   UNL A   1      45.362  21.990  40.196  1.00  0.00    -0.744 OA
ENDBRANCH  95  96
ENDBRANCH  63  88
BRANCH  75 100
ATOM    100  C   UNL A   1      53.965  24.927  33.342  1.00  0.00     0.058 A 
ATOM    101  C   UNL A   1      54.755  23.816  33.006  1.00  0.00     0.135 A 
ATOM    102  C   UNL A   1      54.521  25.901  34.185  1.00  0.00     0.135 A 
ATOM    103  F   UNL A   1      54.263  22.854  32.210  1.00  0.00    -0.206 F 
ATOM    104  C   UNL A   1      56.048  23.672  33.498  1.00  0.00     0.059 A 
ATOM    105  C   UNL A   1      55.817  25.783  34.678  1.00  0.00     0.059 A 
ATOM    106  F   UNL A   1      53.805  26.983  34.531  1.00  0.00    -0.206 F 
ATOM    107  C   UNL A   1      56.570  24.660  34.334  1.00  0.00     0.060 A 
BRANCH 107 108
ATOM    108  S   UNL A   1      58.263  24.486  34.938  1.00  0.00     0.124 S 
ATOM    109  O   UNL A   1      58.375  23.037  35.080  1.00  0.00    -0.237 OA
ATOM    110  O   UNL A   1      59.047  25.078  33.858  1.00  0.00    -0.237 OA
ATOM    111  O   UNL A   1      58.256  25.242  36.185  1.00  0.00    -0.744 OA
ENDBRANCH 107 108
ENDBRANCH  75 100
ENDBRANCH  49  50
ENDBRANCH  42  44
ENDBRANCH  41  42
ENDBRANCH  40  41
ENDBRANCH  39  40
ENDBRANCH   1  39
TORSDOF 20
ENDMDL
