MODEL 1
REMARK VINA RESULT:     -10.8      0.000      0.000
REMARK SMILES O=C(OCCOCCOC(=O)c1ccc(F)cc1-c1ccc(F)c(Cl)c1)c1ccc(-c2c3nc(c(-c4c(F)cc(S(=O)(=O)[O-])cc4F)c4ccc([nH]4)c(-c4c(F)cc(S(=O)(=O)[O-])cc4F)c4nc(c(-c5c(F)cc(S(=O)(=O)[O-])cc5F)c5ccc2[nH]5)C=C4)C=C3)cc1
REMARK SMILES IDX 5 1 4 2 3 3 2 4 1 5 27 6 28 7 92 8 29 9 91 10 30 11 31 12
REMARK SMILES IDX 32 13 85 14 33 15 90 16 84 17 86 18 34 19 89 20 83 21 82 22
REMARK SMILES IDX 35 24 69 25 48 26 68 27 49 28 52 29 67 30 87 31 50 32 51 33
REMARK SMILES IDX 66 35 88 36 53 37 36 38 37 39 46 40 38 41 39 42 45 43 47 44
REMARK SMILES IDX 40 45 41 46 42 47 43 48 44 49 70 50 71 51 80 52 72 53 73 54
REMARK SMILES IDX 79 55 81 56 74 57 75 58 76 59 77 60 78 61 54 62 55 63 64 64
REMARK SMILES IDX 56 65 57 66 63 67 65 68 58 69 59 70 60 71 61 72 62 73 6 74
REMARK SMILES IDX 7 75 8 76 9 77 10 78 11 79 12 80 13 81 18 82 14 83 17 84
REMARK SMILES IDX 15 85 16 86 19 87 20 88 26 89 21 90 24 91 22 92 25 93 23 94
REMARK H PARENT 86 23 52 34
REMARK Flexibility Score: inf
ROOT
ATOM      1  C   UNL A   1      36.181  23.358  26.323  1.00  0.00     0.202 C 
ENDROOT
BRANCH   1   2
ATOM      2  C   UNL A   1      37.102  22.357  25.627  1.00  0.00     0.261 C 
BRANCH   2   3
ATOM      3  O   UNL A   1      38.394  22.923  25.364  1.00  0.00    -0.460 OA
BRANCH   3   4
ATOM      4  C   UNL A   1      39.349  23.128  26.311  1.00  0.00     0.338 C 
ATOM      5  O   UNL A   1      40.112  22.218  26.619  1.00  0.00    -0.246 OA
BRANCH   4   6
ATOM      6  C   UNL A   1      39.487  24.448  26.983  1.00  0.00     0.060 A 
ATOM      7  C   UNL A   1      39.013  24.664  28.271  1.00  0.00     0.016 A 
ATOM      8  C   UNL A   1      40.211  25.473  26.378  1.00  0.00     0.016 A 
ATOM      9  C   UNL A   1      39.125  25.862  28.929  1.00  0.00     0.010 A 
ATOM     10  C   UNL A   1      40.483  26.644  27.099  1.00  0.00     0.010 A 
ATOM     11  C   UNL A   1      39.963  26.814  28.393  1.00  0.00    -0.014 A 
BRANCH  11  12
ATOM     12  C   UNL A   1      40.320  27.931  29.274  1.00  0.00     0.031 A 
ATOM     13  C   UNL A   1      41.595  27.850  30.029  1.00  0.00     0.074 A 
ATOM     14  C   UNL A   1      39.529  29.025  29.291  1.00  0.00     0.049 A 
ATOM     15  N   UNL A   1      42.014  28.613  30.994  1.00  0.00    -0.248 NA
ATOM     16  C   UNL A   1      42.524  26.768  29.654  1.00  0.00     0.031 C 
ATOM     17  C   UNL A   1      38.337  29.230  28.450  1.00  0.00     0.029 A 
ATOM     18  N   UNL A   1      39.606  30.182  30.018  1.00  0.00    -0.354 N 
ATOM     19  C   UNL A   1      43.226  28.071  31.386  1.00  0.00     0.074 A 
ATOM     20  C   UNL A   1      43.491  26.927  30.546  1.00  0.00     0.031 C 
ATOM     21  C   UNL A   1      37.813  30.437  28.702  1.00  0.00     0.029 A 
ATOM     22  C   UNL A   1      38.551  31.041  29.798  1.00  0.00     0.049 A 
ATOM     23  H   UNL A   1      40.344  30.381  30.639  1.00  0.00     0.167 HD
ATOM     24  C   UNL A   1      44.019  28.504  32.386  1.00  0.00     0.037 A 
ATOM     25  C   UNL A   1      38.184  32.150  30.466  1.00  0.00     0.037 A 
ATOM     26  C   UNL A   1      43.715  29.671  33.167  1.00  0.00     0.049 A 
ATOM     27  C   UNL A   1      39.038  32.549  31.639  1.00  0.00     0.074 A 
ATOM     28  C   UNL A   1      44.421  30.202  34.227  1.00  0.00     0.029 A 
ATOM     29  N   UNL A   1      42.610  30.488  32.961  1.00  0.00    -0.354 N 
ATOM     30  N   UNL A   1      40.153  31.999  32.062  1.00  0.00    -0.248 NA
ATOM     31  C   UNL A   1      38.579  33.683  32.447  1.00  0.00     0.031 C 
ATOM     32  C   UNL A   1      43.714  31.309  34.697  1.00  0.00     0.029 A 
ATOM     33  C   UNL A   1      42.595  31.503  33.897  1.00  0.00     0.049 A 
ATOM     34  H   UNL A   1      41.937  30.362  32.253  1.00  0.00     0.167 HD
ATOM     35  C   UNL A   1      40.532  32.720  33.183  1.00  0.00     0.074 A 
ATOM     36  C   UNL A   1      39.541  33.765  33.357  1.00  0.00     0.031 C 
ATOM     37  C   UNL A   1      41.589  32.531  34.009  1.00  0.00     0.037 A 
BRANCH  24  38
ATOM     38  C   UNL A   1      45.230  27.697  32.727  1.00  0.00     0.058 A 
ATOM     39  C   UNL A   1      46.468  28.021  32.148  1.00  0.00     0.135 A 
ATOM     40  C   UNL A   1      45.166  26.575  33.565  1.00  0.00     0.135 A 
ATOM     41  F   UNL A   1      46.586  29.106  31.368  1.00  0.00    -0.206 F 
ATOM     42  C   UNL A   1      47.589  27.228  32.348  1.00  0.00     0.059 A 
ATOM     43  C   UNL A   1      46.283  25.780  33.798  1.00  0.00     0.059 A 
ATOM     44  F   UNL A   1      44.016  26.255  34.181  1.00  0.00    -0.206 F 
ATOM     45  C   UNL A   1      47.483  26.100  33.162  1.00  0.00     0.060 A 
BRANCH  45  46
ATOM     46  S   UNL A   1      48.940  25.056  33.368  1.00  0.00     0.124 S 
ATOM     47  O   UNL A   1      48.385  23.901  34.063  1.00  0.00    -0.237 OA
ATOM     48  O   UNL A   1      49.352  24.831  31.984  1.00  0.00    -0.237 OA
ATOM     49  O   UNL A   1      49.846  25.889  34.154  1.00  0.00    -0.744 OA
ENDBRANCH  45  46
ENDBRANCH  24  38
BRANCH  25  50
ATOM     50  C   UNL A   1      36.925  32.872  30.123  1.00  0.00     0.058 A 
ATOM     51  C   UNL A   1      35.768  32.738  30.911  1.00  0.00     0.135 A 
ATOM     52  C   UNL A   1      36.850  33.721  29.009  1.00  0.00     0.135 A 
ATOM     53  F   UNL A   1      35.772  31.937  31.988  1.00  0.00    -0.206 F 
ATOM     54  C   UNL A   1      34.586  33.403  30.602  1.00  0.00     0.059 A 
ATOM     55  C   UNL A   1      35.686  34.425  28.698  1.00  0.00     0.059 A 
ATOM     56  F   UNL A   1      37.925  33.895  28.226  1.00  0.00    -0.206 F 
ATOM     57  C   UNL A   1      34.556  34.252  29.496  1.00  0.00     0.060 A 
BRANCH  57  58
ATOM     58  S   UNL A   1      33.027  35.148  29.148  1.00  0.00     0.124 S 
ATOM     59  O   UNL A   1      32.375  35.136  30.454  1.00  0.00    -0.237 OA
ATOM     60  O   UNL A   1      33.527  36.443  28.701  1.00  0.00    -0.237 OA
ATOM     61  O   UNL A   1      32.386  34.336  28.120  1.00  0.00    -0.744 OA
ENDBRANCH  57  58
ENDBRANCH  25  50
BRANCH  37  62
ATOM     62  C   UNL A   1      41.735  33.472  35.166  1.00  0.00     0.058 A 
ATOM     63  C   UNL A   1      41.167  33.155  36.409  1.00  0.00     0.135 A 
ATOM     64  C   UNL A   1      42.302  34.742  34.995  1.00  0.00     0.135 A 
ATOM     65  F   UNL A   1      40.607  31.952  36.612  1.00  0.00    -0.206 F 
ATOM     66  C   UNL A   1      41.111  34.089  37.432  1.00  0.00     0.059 A 
ATOM     67  C   UNL A   1      42.286  35.683  36.017  1.00  0.00     0.059 A 
ATOM     68  F   UNL A   1      42.870  35.078  33.825  1.00  0.00    -0.206 F 
ATOM     69  C   UNL A   1      41.663  35.354  37.221  1.00  0.00     0.060 A 
BRANCH  69  70
ATOM     70  S   UNL A   1      41.533  36.572  38.544  1.00  0.00     0.124 S 
ATOM     71  O   UNL A   1      40.218  37.150  38.291  1.00  0.00    -0.237 OA
ATOM     72  O   UNL A   1      41.641  35.739  39.738  1.00  0.00    -0.237 OA
ATOM     73  O   UNL A   1      42.666  37.460  38.301  1.00  0.00    -0.744 OA
ENDBRANCH  69  70
ENDBRANCH  37  62
ENDBRANCH  11  12
ENDBRANCH   4   6
ENDBRANCH   3   4
ENDBRANCH   2   3
ENDBRANCH   1   2
BRANCH   1  74
ATOM     74  O   UNL A   1      34.822  23.311  25.945  1.00  0.00    -0.374 OA
BRANCH  74  75
ATOM     75  C   UNL A   1      34.004  22.307  26.509  1.00  0.00     0.202 C 
BRANCH  75  76
ATOM     76  C   UNL A   1      32.700  22.997  26.886  1.00  0.00     0.261 C 
BRANCH  76  77
ATOM     77  O   UNL A   1      32.881  24.415  26.695  1.00  0.00    -0.460 OA
BRANCH  77  78
ATOM     78  C   UNL A   1      31.825  25.140  26.217  1.00  0.00     0.338 C 
ATOM     79  O   UNL A   1      30.787  25.408  26.780  1.00  0.00    -0.246 OA
BRANCH  78  80
ATOM     80  C   UNL A   1      32.199  25.602  24.850  1.00  0.00     0.068 A 
ATOM     81  C   UNL A   1      32.163  24.617  23.836  1.00  0.00     0.019 A 
ATOM     82  C   UNL A   1      32.600  26.928  24.539  1.00  0.00    -0.001 A 
ATOM     83  C   UNL A   1      32.513  24.921  22.527  1.00  0.00     0.040 A 
ATOM     84  C   UNL A   1      32.909  27.209  23.191  1.00  0.00     0.048 A 
ATOM     85  C   UNL A   1      32.868  26.221  22.213  1.00  0.00     0.123 A 
ATOM     86  F   UNL A   1      33.196  26.528  20.953  1.00  0.00    -0.207 F 
BRANCH  82  87
ATOM     87  C   UNL A   1      32.830  28.037  25.492  1.00  0.00    -0.016 A 
ATOM     88  C   UNL A   1      34.025  28.068  26.248  1.00  0.00     0.012 A 
ATOM     89  C   UNL A   1      31.970  29.142  25.584  1.00  0.00     0.032 A 
ATOM     90  C   UNL A   1      34.313  29.123  27.120  1.00  0.00     0.041 A 
ATOM     91  C   UNL A   1      32.285  30.223  26.421  1.00  0.00     0.077 A 
ATOM     92  C   UNL A   1      33.442  30.198  27.198  1.00  0.00     0.141 A 
ATOM     93  Cl  UNL A   1      31.259  31.606  26.443  1.00  0.00    -0.081 Cl
ATOM     94  F   UNL A   1      33.750  31.215  28.017  1.00  0.00    -0.205 F 
ENDBRANCH  82  87
ENDBRANCH  78  80
ENDBRANCH  77  78
ENDBRANCH  76  77
ENDBRANCH  75  76
ENDBRANCH  74  75
ENDBRANCH   1  74
TORSDOF 18
ENDMDL
MODEL 2
REMARK VINA RESULT:     -10.7      4.429     10.048
REMARK SMILES O=C(OCCOCCOC(=O)c1ccc(F)cc1-c1ccc(F)c(Cl)c1)c1ccc(-c2c3nc(c(-c4c(F)cc(S(=O)(=O)[O-])cc4F)c4ccc([nH]4)c(-c4c(F)cc(S(=O)(=O)[O-])cc4F)c4nc(c(-c5c(F)cc(S(=O)(=O)[O-])cc5F)c5ccc2[nH]5)C=C4)C=C3)cc1
REMARK SMILES IDX 5 1 4 2 3 3 2 4 1 5 27 6 28 7 92 8 29 9 91 10 30 11 31 12
REMARK SMILES IDX 32 13 85 14 33 15 90 16 84 17 86 18 34 19 89 20 83 21 82 22
REMARK SMILES IDX 35 24 69 25 48 26 68 27 49 28 52 29 67 30 87 31 50 32 51 33
REMARK SMILES IDX 66 35 88 36 53 37 36 38 37 39 46 40 38 41 39 42 45 43 47 44
REMARK SMILES IDX 40 45 41 46 42 47 43 48 44 49 70 50 71 51 80 52 72 53 73 54
REMARK SMILES IDX 79 55 81 56 74 57 75 58 76 59 77 60 78 61 54 62 55 63 64 64
REMARK SMILES IDX 56 65 57 66 63 67 65 68 58 69 59 70 60 71 61 72 62 73 6 74
REMARK SMILES IDX 7 75 8 76 9 77 10 78 11 79 12 80 13 81 18 82 14 83 17 84
REMARK SMILES IDX 15 85 16 86 19 87 20 88 26 89 21 90 24 91 22 92 25 93 23 94
REMARK H PARENT 86 23 52 34
REMARK Flexibility Score: inf
ROOT
ATOM      1  C   UNL A   1      33.929  28.548  26.377  1.00  0.00     0.202 C 
ENDROOT
BRANCH   1   2
ATOM      2  C   UNL A   1      33.222  29.701  27.087  1.00  0.00     0.261 C 
BRANCH   2   3
ATOM      3  O   UNL A   1      34.112  30.802  27.322  1.00  0.00    -0.460 OA
BRANCH   3   4
ATOM      4  C   UNL A   1      34.870  30.948  28.442  1.00  0.00     0.338 C 
ATOM      5  O   UNL A   1      34.464  31.636  29.373  1.00  0.00    -0.246 OA
BRANCH   4   6
ATOM      6  C   UNL A   1      36.196  30.281  28.559  1.00  0.00     0.060 A 
ATOM      7  C   UNL A   1      37.101  30.267  27.505  1.00  0.00     0.016 A 
ATOM      8  C   UNL A   1      36.614  29.758  29.781  1.00  0.00     0.016 A 
ATOM      9  C   UNL A   1      38.333  29.670  27.573  1.00  0.00     0.010 A 
ATOM     10  C   UNL A   1      37.930  29.297  29.919  1.00  0.00     0.010 A 
ATOM     11  C   UNL A   1      38.796  29.291  28.813  1.00  0.00    -0.014 A 
BRANCH  11  12
ATOM     12  C   UNL A   1      40.226  28.972  28.899  1.00  0.00     0.031 A 
ATOM     13  C   UNL A   1      41.159  30.041  29.333  1.00  0.00     0.074 A 
ATOM     14  C   UNL A   1      40.624  27.701  28.678  1.00  0.00     0.049 A 
ATOM     15  N   UNL A   1      42.457  30.046  29.296  1.00  0.00    -0.248 NA
ATOM     16  C   UNL A   1      40.555  31.272  29.877  1.00  0.00     0.031 C 
ATOM     17  C   UNL A   1      39.731  26.563  28.398  1.00  0.00     0.029 A 
ATOM     18  N   UNL A   1      41.870  27.135  28.669  1.00  0.00    -0.354 N 
ATOM     19  C   UNL A   1      42.830  31.298  29.754  1.00  0.00     0.074 A 
ATOM     20  C   UNL A   1      41.626  32.025  30.082  1.00  0.00     0.031 C 
ATOM     21  C   UNL A   1      40.458  25.446  28.262  1.00  0.00     0.029 A 
ATOM     22  C   UNL A   1      41.866  25.800  28.324  1.00  0.00     0.049 A 
ATOM     23  H   UNL A   1      42.691  27.633  28.888  1.00  0.00     0.167 HD
ATOM     24  C   UNL A   1      44.084  31.780  29.859  1.00  0.00     0.037 A 
ATOM     25  C   UNL A   1      42.889  24.983  28.015  1.00  0.00     0.037 A 
ATOM     26  C   UNL A   1      45.245  30.994  29.545  1.00  0.00     0.049 A 
ATOM     27  C   UNL A   1      44.269  25.583  28.047  1.00  0.00     0.074 A 
ATOM     28  C   UNL A   1      46.572  31.372  29.582  1.00  0.00     0.029 A 
ATOM     29  N   UNL A   1      45.209  29.666  29.142  1.00  0.00    -0.354 N 
ATOM     30  N   UNL A   1      44.626  26.792  28.414  1.00  0.00    -0.248 NA
ATOM     31  C   UNL A   1      45.378  24.736  27.596  1.00  0.00     0.031 C 
ATOM     32  C   UNL A   1      47.335  30.287  29.149  1.00  0.00     0.029 A 
ATOM     33  C   UNL A   1      46.491  29.215  28.893  1.00  0.00     0.049 A 
ATOM     34  H   UNL A   1      44.391  29.124  29.047  1.00  0.00     0.167 HD
ATOM     35  C   UNL A   1      46.000  26.853  28.240  1.00  0.00     0.074 A 
ATOM     36  C   UNL A   1      46.414  25.547  27.762  1.00  0.00     0.031 C 
ATOM     37  C   UNL A   1      46.845  27.893  28.436  1.00  0.00     0.037 A 
BRANCH  24  38
ATOM     38  C   UNL A   1      44.260  33.210  30.259  1.00  0.00     0.058 A 
ATOM     39  C   UNL A   1      44.251  34.213  29.277  1.00  0.00     0.135 A 
ATOM     40  C   UNL A   1      44.499  33.587  31.588  1.00  0.00     0.135 A 
ATOM     41  F   UNL A   1      43.991  33.904  27.997  1.00  0.00    -0.206 F 
ATOM     42  C   UNL A   1      44.525  35.537  29.593  1.00  0.00     0.059 A 
ATOM     43  C   UNL A   1      44.752  34.912  31.930  1.00  0.00     0.059 A 
ATOM     44  F   UNL A   1      44.467  32.671  32.568  1.00  0.00    -0.206 F 
ATOM     45  C   UNL A   1      44.790  35.874  30.920  1.00  0.00     0.060 A 
BRANCH  45  46
ATOM     46  S   UNL A   1      45.193  37.591  31.300  1.00  0.00     0.124 S 
ATOM     47  O   UNL A   1      45.788  37.472  32.627  1.00  0.00    -0.237 OA
ATOM     48  O   UNL A   1      46.111  37.936  30.218  1.00  0.00    -0.237 OA
ATOM     49  O   UNL A   1      43.898  38.262  31.250  1.00  0.00    -0.744 OA
ENDBRANCH  45  46
ENDBRANCH  24  38
BRANCH  25  50
ATOM     50  C   UNL A   1      42.644  23.587  27.553  1.00  0.00     0.058 A 
ATOM     51  C   UNL A   1      42.534  23.278  26.186  1.00  0.00     0.135 A 
ATOM     52  C   UNL A   1      42.525  22.526  28.463  1.00  0.00     0.135 A 
ATOM     53  F   UNL A   1      42.634  24.248  25.264  1.00  0.00    -0.206 F 
ATOM     54  C   UNL A   1      42.303  21.981  25.740  1.00  0.00     0.059 A 
ATOM     55  C   UNL A   1      42.328  21.211  28.040  1.00  0.00     0.059 A 
ATOM     56  F   UNL A   1      42.631  22.758  29.781  1.00  0.00    -0.206 F 
ATOM     57  C   UNL A   1      42.209  20.951  26.675  1.00  0.00     0.060 A 
BRANCH  57  58
ATOM     58  S   UNL A   1      41.965  19.267  26.069  1.00  0.00     0.124 S 
ATOM     59  O   UNL A   1      42.854  19.239  24.912  1.00  0.00    -0.237 OA
ATOM     60  O   UNL A   1      42.389  18.466  27.212  1.00  0.00    -0.237 OA
ATOM     61  O   UNL A   1      40.539  19.220  25.766  1.00  0.00    -0.744 OA
ENDBRANCH  57  58
ENDBRANCH  25  50
BRANCH  37  62
ATOM     62  C   UNL A   1      48.296  27.664  28.145  1.00  0.00     0.058 A 
ATOM     63  C   UNL A   1      49.160  27.227  29.162  1.00  0.00     0.135 A 
ATOM     64  C   UNL A   1      48.849  28.024  26.908  1.00  0.00     0.135 A 
ATOM     65  F   UNL A   1      48.671  26.881  30.363  1.00  0.00    -0.206 F 
ATOM     66  C   UNL A   1      50.534  27.203  28.976  1.00  0.00     0.059 A 
ATOM     67  C   UNL A   1      50.220  27.976  26.690  1.00  0.00     0.059 A 
ATOM     68  F   UNL A   1      48.056  28.432  25.906  1.00  0.00    -0.206 F 
ATOM     69  C   UNL A   1      51.055  27.591  27.740  1.00  0.00     0.060 A 
BRANCH  69  70
ATOM     70  S   UNL A   1      52.846  27.603  27.535  1.00  0.00     0.124 S 
ATOM     71  O   UNL A   1      52.993  27.128  26.164  1.00  0.00    -0.237 OA
ATOM     72  O   UNL A   1      53.169  29.009  27.758  1.00  0.00    -0.237 OA
ATOM     73  O   UNL A   1      53.312  26.687  28.571  1.00  0.00    -0.744 OA
ENDBRANCH  69  70
ENDBRANCH  37  62
ENDBRANCH  11  12
ENDBRANCH   4   6
ENDBRANCH   3   4
ENDBRANCH   2   3
ENDBRANCH   1   2
BRANCH   1  74
ATOM     74  O   UNL A   1      33.416  28.196  25.111  1.00  0.00    -0.374 OA
BRANCH  74  75
ATOM     75  C   UNL A   1      33.367  29.189  24.107  1.00  0.00     0.202 C 
BRANCH  75  76
ATOM     76  C   UNL A   1      33.922  28.536  22.849  1.00  0.00     0.261 C 
BRANCH  76  77
ATOM     77  O   UNL A   1      33.785  27.107  22.998  1.00  0.00    -0.460 OA
BRANCH  77  78
ATOM     78  C   UNL A   1      32.984  26.443  22.111  1.00  0.00     0.338 C 
ATOM     79  O   UNL A   1      33.283  25.991  21.028  1.00  0.00    -0.246 OA
BRANCH  78  80
ATOM     80  C   UNL A   1      31.641  26.321  22.746  1.00  0.00     0.068 A 
ATOM     81  C   UNL A   1      30.774  27.423  22.566  1.00  0.00     0.019 A 
ATOM     82  C   UNL A   1      31.222  25.204  23.515  1.00  0.00    -0.001 A 
ATOM     83  C   UNL A   1      29.504  27.437  23.129  1.00  0.00     0.040 A 
ATOM     84  C   UNL A   1      29.911  25.238  24.038  1.00  0.00     0.048 A 
ATOM     85  C   UNL A   1      29.079  26.335  23.848  1.00  0.00     0.123 A 
ATOM     86  F   UNL A   1      27.853  26.333  24.386  1.00  0.00    -0.207 F 
BRANCH  82  87
ATOM     87  C   UNL A   1      32.042  24.042  23.921  1.00  0.00    -0.016 A 
ATOM     88  C   UNL A   1      32.037  22.873  23.124  1.00  0.00     0.012 A 
ATOM     89  C   UNL A   1      32.940  24.093  24.999  1.00  0.00     0.032 A 
ATOM     90  C   UNL A   1      32.838  21.769  23.435  1.00  0.00     0.041 A 
ATOM     91  C   UNL A   1      33.779  23.003  25.280  1.00  0.00     0.077 A 
ATOM     92  C   UNL A   1      33.709  21.843  24.511  1.00  0.00     0.141 A 
ATOM     93  Cl  UNL A   1      34.935  23.129  26.551  1.00  0.00    -0.081 Cl
ATOM     94  F   UNL A   1      34.491  20.787  24.776  1.00  0.00    -0.205 F 
ENDBRANCH  82  87
ENDBRANCH  78  80
ENDBRANCH  77  78
ENDBRANCH  76  77
ENDBRANCH  75  76
ENDBRANCH  74  75
ENDBRANCH   1  74
TORSDOF 18
ENDMDL
MODEL 3
REMARK VINA RESULT:     -10.7      4.183     10.062
REMARK SMILES O=C(OCCOCCOC(=O)c1ccc(F)cc1-c1ccc(F)c(Cl)c1)c1ccc(-c2c3nc(c(-c4c(F)cc(S(=O)(=O)[O-])cc4F)c4ccc([nH]4)c(-c4c(F)cc(S(=O)(=O)[O-])cc4F)c4nc(c(-c5c(F)cc(S(=O)(=O)[O-])cc5F)c5ccc2[nH]5)C=C4)C=C3)cc1
REMARK SMILES IDX 5 1 4 2 3 3 2 4 1 5 27 6 28 7 92 8 29 9 91 10 30 11 31 12
REMARK SMILES IDX 32 13 85 14 33 15 90 16 84 17 86 18 34 19 89 20 83 21 82 22
REMARK SMILES IDX 35 24 69 25 48 26 68 27 49 28 52 29 67 30 87 31 50 32 51 33
REMARK SMILES IDX 66 35 88 36 53 37 36 38 37 39 46 40 38 41 39 42 45 43 47 44
REMARK SMILES IDX 40 45 41 46 42 47 43 48 44 49 70 50 71 51 80 52 72 53 73 54
REMARK SMILES IDX 79 55 81 56 74 57 75 58 76 59 77 60 78 61 54 62 55 63 64 64
REMARK SMILES IDX 56 65 57 66 63 67 65 68 58 69 59 70 60 71 61 72 62 73 6 74
REMARK SMILES IDX 7 75 8 76 9 77 10 78 11 79 12 80 13 81 18 82 14 83 17 84
REMARK SMILES IDX 15 85 16 86 19 87 20 88 26 89 21 90 24 91 22 92 25 93 23 94
REMARK H PARENT 86 23 52 34
REMARK Flexibility Score: inf
ROOT
ATOM      1  C   UNL A   1      32.121  30.004  26.262  1.00  0.00     0.202 C 
ENDROOT
BRANCH   1   2
ATOM      2  C   UNL A   1      32.918  30.885  27.221  1.00  0.00     0.261 C 
BRANCH   2   3
ATOM      3  O   UNL A   1      34.015  30.169  27.809  1.00  0.00    -0.460 OA
BRANCH   3   4
ATOM      4  C   UNL A   1      35.027  30.754  28.504  1.00  0.00     0.338 C 
ATOM      5  O   UNL A   1      34.850  31.836  29.054  1.00  0.00    -0.246 OA
BRANCH   4   6
ATOM      6  C   UNL A   1      36.359  30.096  28.611  1.00  0.00     0.060 A 
ATOM      7  C   UNL A   1      37.263  30.106  27.557  1.00  0.00     0.016 A 
ATOM      8  C   UNL A   1      36.782  29.559  29.825  1.00  0.00     0.016 A 
ATOM      9  C   UNL A   1      38.501  29.519  27.616  1.00  0.00     0.010 A 
ATOM     10  C   UNL A   1      38.101  29.107  29.956  1.00  0.00     0.010 A 
ATOM     11  C   UNL A   1      38.968  29.125  28.850  1.00  0.00    -0.014 A 
BRANCH  11  12
ATOM     12  C   UNL A   1      40.400  28.817  28.932  1.00  0.00     0.031 A 
ATOM     13  C   UNL A   1      41.323  29.886  29.385  1.00  0.00     0.074 A 
ATOM     14  C   UNL A   1      40.809  27.554  28.688  1.00  0.00     0.049 A 
ATOM     15  N   UNL A   1      42.621  29.903  29.350  1.00  0.00    -0.248 NA
ATOM     16  C   UNL A   1      40.708  31.102  29.951  1.00  0.00     0.031 C 
ATOM     17  C   UNL A   1      39.927  26.414  28.387  1.00  0.00     0.029 A 
ATOM     18  N   UNL A   1      42.061  27.000  28.670  1.00  0.00    -0.354 N 
ATOM     19  C   UNL A   1      42.983  31.150  29.830  1.00  0.00     0.074 A 
ATOM     20  C   UNL A   1      41.772  31.861  30.171  1.00  0.00     0.031 C 
ATOM     21  C   UNL A   1      40.663  25.305  28.231  1.00  0.00     0.029 A 
ATOM     22  C   UNL A   1      42.068  25.671  28.301  1.00  0.00     0.049 A 
ATOM     23  H   UNL A   1      42.877  27.501  28.899  1.00  0.00     0.167 HD
ATOM     24  C   UNL A   1      44.233  31.642  29.945  1.00  0.00     0.037 A 
ATOM     25  C   UNL A   1      43.099  24.868  27.978  1.00  0.00     0.037 A 
ATOM     26  C   UNL A   1      45.401  30.872  29.618  1.00  0.00     0.049 A 
ATOM     27  C   UNL A   1      44.473  25.479  28.022  1.00  0.00     0.074 A 
ATOM     28  C   UNL A   1      46.724  31.260  29.663  1.00  0.00     0.029 A 
ATOM     29  N   UNL A   1      45.376  29.550  29.190  1.00  0.00    -0.354 N 
ATOM     30  N   UNL A   1      44.819  26.685  28.410  1.00  0.00    -0.248 NA
ATOM     31  C   UNL A   1      45.590  24.651  27.556  1.00  0.00     0.031 C 
ATOM     32  C   UNL A   1      47.497  30.190  29.210  1.00  0.00     0.029 A 
ATOM     33  C   UNL A   1      46.662  29.115  28.935  1.00  0.00     0.049 A 
ATOM     34  H   UNL A   1      44.564  29.004  29.086  1.00  0.00     0.167 HD
ATOM     35  C   UNL A   1      46.193  26.761  28.238  1.00  0.00     0.074 A 
ATOM     36  C   UNL A   1      46.618  25.468  27.737  1.00  0.00     0.031 C 
ATOM     37  C   UNL A   1      47.029  27.805  28.454  1.00  0.00     0.037 A 
BRANCH  24  38
ATOM     38  C   UNL A   1      44.396  33.065  30.371  1.00  0.00     0.058 A 
ATOM     39  C   UNL A   1      44.430  33.382  31.738  1.00  0.00     0.135 A 
ATOM     40  C   UNL A   1      44.454  34.118  29.447  1.00  0.00     0.135 A 
ATOM     41  F   UNL A   1      44.413  32.405  32.659  1.00  0.00    -0.206 F 
ATOM     42  C   UNL A   1      44.464  34.699  32.176  1.00  0.00     0.059 A 
ATOM     43  C   UNL A   1      44.512  35.444  29.863  1.00  0.00     0.059 A 
ATOM     44  F   UNL A   1      44.475  33.861  28.130  1.00  0.00    -0.206 F 
ATOM     45  C   UNL A   1      44.489  35.724  31.230  1.00  0.00     0.060 A 
BRANCH  45  46
ATOM     46  S   UNL A   1      44.482  37.429  31.819  1.00  0.00     0.124 S 
ATOM     47  O   UNL A   1      43.750  38.110  30.758  1.00  0.00    -0.237 OA
ATOM     48  O   UNL A   1      43.785  37.307  33.098  1.00  0.00    -0.237 OA
ATOM     49  O   UNL A   1      45.900  37.759  31.918  1.00  0.00    -0.744 OA
ENDBRANCH  45  46
ENDBRANCH  24  38
BRANCH  25  50
ATOM     50  C   UNL A   1      42.866  23.479  27.491  1.00  0.00     0.058 A 
ATOM     51  C   UNL A   1      42.850  23.179  26.117  1.00  0.00     0.135 A 
ATOM     52  C   UNL A   1      42.667  22.415  28.383  1.00  0.00     0.135 A 
ATOM     53  F   UNL A   1      43.030  24.152  25.210  1.00  0.00    -0.206 F 
ATOM     54  C   UNL A   1      42.632  21.889  25.648  1.00  0.00     0.059 A 
ATOM     55  C   UNL A   1      42.480  21.105  27.938  1.00  0.00     0.059 A 
ATOM     56  F   UNL A   1      42.682  22.638  29.706  1.00  0.00    -0.206 F 
ATOM     57  C   UNL A   1      42.455  20.854  26.566  1.00  0.00     0.060 A 
BRANCH  57  58
ATOM     58  S   UNL A   1      42.230  19.178  25.933  1.00  0.00     0.124 S 
ATOM     59  O   UNL A   1      40.793  19.148  25.684  1.00  0.00    -0.237 OA
ATOM     60  O   UNL A   1      43.080  19.182  24.747  1.00  0.00    -0.237 OA
ATOM     61  O   UNL A   1      42.694  18.337  27.032  1.00  0.00    -0.744 OA
ENDBRANCH  57  58
ENDBRANCH  25  50
BRANCH  37  62
ATOM     62  C   UNL A   1      48.482  27.595  28.160  1.00  0.00     0.058 A 
ATOM     63  C   UNL A   1      48.970  27.769  26.856  1.00  0.00     0.135 A 
ATOM     64  C   UNL A   1      49.347  27.077  29.134  1.00  0.00     0.135 A 
ATOM     65  F   UNL A   1      48.172  28.254  25.892  1.00  0.00    -0.206 F 
ATOM     66  C   UNL A   1      50.259  27.387  26.515  1.00  0.00     0.059 A 
ATOM     67  C   UNL A   1      50.652  26.718  28.822  1.00  0.00     0.059 A 
ATOM     68  F   UNL A   1      48.923  26.911  30.396  1.00  0.00    -0.206 F 
ATOM     69  C   UNL A   1      51.088  26.851  27.502  1.00  0.00     0.060 A 
BRANCH  69  70
ATOM     70  S   UNL A   1      52.742  26.312  27.028  1.00  0.00     0.124 S 
ATOM     71  O   UNL A   1      53.461  26.404  28.293  1.00  0.00    -0.237 OA
ATOM     72  O   UNL A   1      52.492  24.961  26.536  1.00  0.00    -0.237 OA
ATOM     73  O   UNL A   1      53.136  27.281  26.010  1.00  0.00    -0.744 OA
ENDBRANCH  69  70
ENDBRANCH  37  62
ENDBRANCH  11  12
ENDBRANCH   4   6
ENDBRANCH   3   4
ENDBRANCH   2   3
ENDBRANCH   1   2
BRANCH   1  74
ATOM     74  O   UNL A   1      31.584  28.822  26.814  1.00  0.00    -0.374 OA
BRANCH  74  75
ATOM     75  C   UNL A   1      32.284  27.610  26.615  1.00  0.00     0.202 C 
BRANCH  75  76
ATOM     76  C   UNL A   1      31.290  26.500  26.923  1.00  0.00     0.261 C 
BRANCH  76  77
ATOM     77  O   UNL A   1      31.872  25.254  26.489  1.00  0.00    -0.460 OA
BRANCH  77  78
ATOM     78  C   UNL A   1      31.070  24.147  26.453  1.00  0.00     0.338 C 
ATOM     79  O   UNL A   1      30.241  23.799  27.265  1.00  0.00    -0.246 OA
BRANCH  78  80
ATOM     80  C   UNL A   1      31.364  23.439  25.175  1.00  0.00     0.068 A 
ATOM     81  C   UNL A   1      31.868  22.124  25.302  1.00  0.00     0.019 A 
ATOM     82  C   UNL A   1      31.193  24.013  23.888  1.00  0.00    -0.001 A 
ATOM     83  C   UNL A   1      32.201  21.372  24.184  1.00  0.00     0.040 A 
ATOM     84  C   UNL A   1      31.504  23.204  22.775  1.00  0.00     0.048 A 
ATOM     85  C   UNL A   1      32.001  21.914  22.928  1.00  0.00     0.123 A 
ATOM     86  F   UNL A   1      32.308  21.194  21.842  1.00  0.00    -0.207 F 
BRANCH  82  87
ATOM     87  C   UNL A   1      30.817  25.411  23.578  1.00  0.00    -0.016 A 
ATOM     88  C   UNL A   1      29.487  25.840  23.800  1.00  0.00     0.012 A 
ATOM     89  C   UNL A   1      31.761  26.377  23.196  1.00  0.00     0.032 A 
ATOM     90  C   UNL A   1      29.098  27.164  23.574  1.00  0.00     0.041 A 
ATOM     91  C   UNL A   1      31.378  27.716  23.019  1.00  0.00     0.077 A 
ATOM     92  C   UNL A   1      30.048  28.097  23.189  1.00  0.00     0.141 A 
ATOM     93  Cl  UNL A   1      32.574  28.897  22.643  1.00  0.00    -0.081 Cl
ATOM     94  F   UNL A   1      29.662  29.368  23.008  1.00  0.00    -0.205 F 
ENDBRANCH  82  87
ENDBRANCH  78  80
ENDBRANCH  77  78
ENDBRANCH  76  77
ENDBRANCH  75  76
ENDBRANCH  74  75
ENDBRANCH   1  74
TORSDOF 18
ENDMDL
