MODEL 1
REMARK VINA RESULT:     -10.5      0.000      0.000
REMARK SMILES CCC[NH2+][C@@]1(C(=O)OCCOCCOC(=O)c2ccc(-c3c4nc(c(-c5c(F)cc(S(=O)(=O)[O-])cc5F)c5ccc([nH]5)c(-c5c(F)cc(S(=O)(=O)[O-])cc5F)c5nc(c(-c6c(F)cc(S(=O)(=O)[O-])cc6F)c6ccc3[nH]6)C=C5)C=C4)cc2)CC[C@H]([N@@H+]2CCC[C@@H]2C)C1
REMARK SMILES IDX 11 1 10 2 9 3 8 4 6 5 7 6 5 7 83 8 92 9 84 10 85 11 4 12
REMARK SMILES IDX 3 15 2 16 1 17 86 18 87 19 90 20 88 22 89 23 91 24 12 25
REMARK SMILES IDX 13 26 14 27 15 28 16 29 17 30 18 31 82 32 19 33 81 34 20 35
REMARK SMILES IDX 21 36 22 37 75 38 23 39 80 40 74 41 76 42 24 43 79 44 73 45
REMARK SMILES IDX 72 46 25 48 59 49 38 50 58 51 39 52 42 53 57 54 77 55 40 56
REMARK SMILES IDX 41 57 56 59 78 60 43 61 26 62 27 63 36 64 28 65 29 66 35 67
REMARK SMILES IDX 37 68 30 69 31 70 32 71 33 72 34 73 60 74 61 75 70 76 62 77
REMARK SMILES IDX 63 78 69 79 71 80 64 81 65 82 66 83 67 84 68 85 44 86 45 87
REMARK SMILES IDX 54 88 46 89 47 90 53 91 55 92 48 93 49 94 50 95 51 96 52 97
REMARK H PARENT 4 13 4 14 86 21 76 47 42 58
REMARK Flexibility Score: inf
ROOT
ATOM      1  O   UNL A   1      38.914  20.881  25.414  1.00  0.00    -0.374 OA
ENDROOT
BRANCH   1   2
ATOM      2  C   UNL A   1      37.711  21.654  25.480  1.00  0.00     0.202 C 
BRANCH   2   3
ATOM      3  C   UNL A   1      36.433  20.857  25.188  1.00  0.00     0.261 C 
BRANCH   3   4
ATOM      4  O   UNL A   1      35.454  21.768  24.664  1.00  0.00    -0.459 OA
BRANCH   4   5
ATOM      5  C   UNL A   1      34.376  22.070  25.406  1.00  0.00     0.368 C 
ATOM      6  O   UNL A   1      34.430  22.318  26.607  1.00  0.00    -0.245 OA
BRANCH   5   7
ATOM      7  C   UNL A   1      33.076  22.190  24.530  1.00  0.00     0.200 C 
ATOM      8  C   UNL A   1      33.551  22.577  23.117  1.00  0.00     0.087 C 
ATOM      9  C   UNL A   1      32.082  23.360  24.831  1.00  0.00     0.146 C 
ATOM     10  C   UNL A   1      33.734  24.099  23.201  1.00  0.00     0.072 C 
ATOM     11  C   UNL A   1      32.489  24.579  23.954  1.00  0.00     0.191 C 
BRANCH   7  12
ATOM     12  N   UNL A   1      32.268  20.928  24.572  1.00  0.00    -0.332 N 
ATOM     13  H   UNL A   1      31.771  20.911  25.463  1.00  0.00     0.347 HD
ATOM     14  H   UNL A   1      31.671  20.969  23.746  1.00  0.00     0.347 HD
BRANCH  12  15
ATOM     15  C   UNL A   1      33.000  19.667  24.450  1.00  0.00     0.261 C 
BRANCH  15  16
ATOM     16  C   UNL A   1      32.526  18.823  23.260  1.00  0.00     0.058 C 
ATOM     17  C   UNL A   1      33.192  17.458  23.168  1.00  0.00     0.010 C 
ENDBRANCH  15  16
ENDBRANCH  12  15
ENDBRANCH   7  12
BRANCH  11  18
ATOM     18  N   UNL A   1      32.484  25.939  24.502  1.00  0.00    -0.330 N 
ATOM     19  C   UNL A   1      33.309  26.142  25.707  1.00  0.00     0.262 C 
ATOM     20  C   UNL A   1      31.297  26.787  24.635  1.00  0.00     0.181 C 
ATOM     21  H   UNL A   1      32.886  26.283  23.630  1.00  0.00     0.348 HD
ATOM     22  C   UNL A   1      32.653  27.267  26.500  1.00  0.00     0.067 C 
ATOM     23  C   UNL A   1      31.208  27.143  26.112  1.00  0.00     0.070 C 
ATOM     24  C   UNL A   1      29.955  26.282  24.211  1.00  0.00     0.075 C 
ENDBRANCH  11  18
ENDBRANCH   5   7
ENDBRANCH   4   5
ENDBRANCH   3   4
ENDBRANCH   2   3
ENDBRANCH   1   2
BRANCH   1  25
ATOM     25  C   UNL A   1      40.042  21.375  26.144  1.00  0.00     0.202 C 
BRANCH  25  26
ATOM     26  C   UNL A   1      39.920  22.800  26.701  1.00  0.00     0.261 C 
BRANCH  26  27
ATOM     27  O   UNL A   1      41.029  23.194  27.534  1.00  0.00    -0.460 OA
BRANCH  27  28
ATOM     28  C   UNL A   1      41.640  24.350  27.181  1.00  0.00     0.338 C 
ATOM     29  O   UNL A   1      42.414  24.505  26.247  1.00  0.00    -0.246 OA
BRANCH  28  30
ATOM     30  C   UNL A   1      41.134  25.487  27.988  1.00  0.00     0.060 A 
ATOM     31  C   UNL A   1      42.052  26.486  28.329  1.00  0.00     0.016 A 
ATOM     32  C   UNL A   1      39.815  25.573  28.443  1.00  0.00     0.016 A 
ATOM     33  C   UNL A   1      41.677  27.528  29.181  1.00  0.00     0.010 A 
ATOM     34  C   UNL A   1      39.434  26.636  29.281  1.00  0.00     0.010 A 
ATOM     35  C   UNL A   1      40.379  27.591  29.705  1.00  0.00    -0.014 A 
BRANCH  35  36
ATOM     36  C   UNL A   1      40.107  28.522  30.842  1.00  0.00     0.031 A 
ATOM     37  C   UNL A   1      40.960  28.417  32.087  1.00  0.00     0.074 A 
ATOM     38  C   UNL A   1      39.202  29.517  30.748  1.00  0.00     0.049 A 
ATOM     39  N   UNL A   1      40.993  29.193  33.141  1.00  0.00    -0.248 NA
ATOM     40  C   UNL A   1      41.895  27.283  32.154  1.00  0.00     0.031 C 
ATOM     41  C   UNL A   1      38.308  29.749  29.614  1.00  0.00     0.029 A 
ATOM     42  N   UNL A   1      38.899  30.536  31.623  1.00  0.00    -0.354 N 
ATOM     43  C   UNL A   1      41.953  28.646  33.986  1.00  0.00     0.074 A 
ATOM     44  C   UNL A   1      42.429  27.436  33.354  1.00  0.00     0.031 C 
ATOM     45  C   UNL A   1      37.573  30.850  29.853  1.00  0.00     0.029 A 
ATOM     46  C   UNL A   1      37.931  31.399  31.161  1.00  0.00     0.049 A 
ATOM     47  H   UNL A   1      39.334  30.637  32.500  1.00  0.00     0.167 HD
ATOM     48  C   UNL A   1      42.426  29.115  35.165  1.00  0.00     0.037 A 
ATOM     49  C   UNL A   1      37.400  32.508  31.720  1.00  0.00     0.037 A 
ATOM     50  C   UNL A   1      41.974  30.323  35.800  1.00  0.00     0.049 A 
ATOM     51  C   UNL A   1      37.917  32.994  33.054  1.00  0.00     0.074 A 
ATOM     52  C   UNL A   1      42.417  30.893  36.981  1.00  0.00     0.029 A 
ATOM     53  N   UNL A   1      40.971  31.148  35.312  1.00  0.00    -0.354 N 
ATOM     54  N   UNL A   1      38.866  32.492  33.807  1.00  0.00    -0.248 NA
ATOM     55  C   UNL A   1      37.299  34.211  33.604  1.00  0.00     0.031 C 
ATOM     56  C   UNL A   1      41.648  32.035  37.233  1.00  0.00     0.029 A 
ATOM     57  C   UNL A   1      40.765  32.208  36.180  1.00  0.00     0.049 A 
ATOM     58  H   UNL A   1      40.479  31.003  34.471  1.00  0.00     0.167 HD
ATOM     59  C   UNL A   1      38.977  33.347  34.902  1.00  0.00     0.074 A 
ATOM     60  C   UNL A   1      38.012  34.407  34.703  1.00  0.00     0.031 C 
ATOM     61  C   UNL A   1      39.804  33.262  35.976  1.00  0.00     0.037 A 
BRANCH  48  62
ATOM     62  C   UNL A   1      43.493  28.304  35.852  1.00  0.00     0.058 A 
ATOM     63  C   UNL A   1      44.859  28.544  35.629  1.00  0.00     0.135 A 
ATOM     64  C   UNL A   1      43.145  27.287  36.753  1.00  0.00     0.135 A 
ATOM     65  F   UNL A   1      45.249  29.491  34.761  1.00  0.00    -0.206 F 
ATOM     66  C   UNL A   1      45.842  27.779  36.249  1.00  0.00     0.059 A 
ATOM     67  C   UNL A   1      44.112  26.530  37.409  1.00  0.00     0.059 A 
ATOM     68  F   UNL A   1      41.854  27.015  37.002  1.00  0.00    -0.206 F 
ATOM     69  C   UNL A   1      45.458  26.774  37.137  1.00  0.00     0.060 A 
BRANCH  69  70
ATOM     70  S   UNL A   1      46.744  25.789  37.933  1.00  0.00     0.124 S 
ATOM     71  O   UNL A   1      47.929  26.197  37.184  1.00  0.00    -0.237 OA
ATOM     72  O   UNL A   1      46.679  26.250  39.316  1.00  0.00    -0.237 OA
ATOM     73  O   UNL A   1      46.306  24.414  37.711  1.00  0.00    -0.744 OA
ENDBRANCH  69  70
ENDBRANCH  48  62
BRANCH  49  74
ATOM     74  C   UNL A   1      36.320  33.260  31.020  1.00  0.00     0.058 A 
ATOM     75  C   UNL A   1      36.592  34.048  29.890  1.00  0.00     0.135 A 
ATOM     76  C   UNL A   1      34.998  33.229  31.488  1.00  0.00     0.135 A 
ATOM     77  F   UNL A   1      37.842  34.126  29.411  1.00  0.00    -0.206 F 
ATOM     78  C   UNL A   1      35.597  34.793  29.262  1.00  0.00     0.059 A 
ATOM     79  C   UNL A   1      33.981  33.945  30.861  1.00  0.00     0.059 A 
ATOM     80  F   UNL A   1      34.682  32.488  32.561  1.00  0.00    -0.206 F 
ATOM     81  C   UNL A   1      34.292  34.733  29.755  1.00  0.00     0.060 A 
BRANCH  81  82
ATOM     82  S   UNL A   1      33.000  35.669  28.907  1.00  0.00     0.124 S 
ATOM     83  O   UNL A   1      32.437  34.657  28.021  1.00  0.00    -0.237 OA
ATOM     84  O   UNL A   1      32.151  36.091  30.016  1.00  0.00    -0.237 OA
ATOM     85  O   UNL A   1      33.741  36.743  28.251  1.00  0.00    -0.744 OA
ENDBRANCH  81  82
ENDBRANCH  49  74
BRANCH  61  86
ATOM     86  C   UNL A   1      39.730  34.361  37.004  1.00  0.00     0.058 A 
ATOM     87  C   UNL A   1      38.984  34.224  38.186  1.00  0.00     0.135 A 
ATOM     88  C   UNL A   1      40.440  35.560  36.818  1.00  0.00     0.135 A 
ATOM     89  F   UNL A   1      38.286  33.100  38.417  1.00  0.00    -0.206 F 
ATOM     90  C   UNL A   1      38.909  35.249  39.125  1.00  0.00     0.059 A 
ATOM     91  C   UNL A   1      40.406  36.586  37.759  1.00  0.00     0.059 A 
ATOM     92  F   UNL A   1      41.185  35.740  35.716  1.00  0.00    -0.206 F 
ATOM     93  C   UNL A   1      39.620  36.429  38.900  1.00  0.00     0.060 A 
BRANCH  93  94
ATOM     94  S   UNL A   1      39.514  37.753  40.123  1.00  0.00     0.124 S 
ATOM     95  O   UNL A   1      40.830  38.370  40.002  1.00  0.00    -0.237 OA
ATOM     96  O   UNL A   1      38.393  38.548  39.629  1.00  0.00    -0.237 OA
ATOM     97  O   UNL A   1      39.265  37.041  41.373  1.00  0.00    -0.744 OA
ENDBRANCH  93  94
ENDBRANCH  61  86
ENDBRANCH  35  36
ENDBRANCH  28  30
ENDBRANCH  27  28
ENDBRANCH  26  27
ENDBRANCH  25  26
ENDBRANCH   1  25
TORSDOF 21
ENDMDL
MODEL 2
REMARK VINA RESULT:     -10.3      3.142      9.669
REMARK SMILES CCC[NH2+][C@@]1(C(=O)OCCOCCOC(=O)c2ccc(-c3c4nc(c(-c5c(F)cc(S(=O)(=O)[O-])cc5F)c5ccc([nH]5)c(-c5c(F)cc(S(=O)(=O)[O-])cc5F)c5nc(c(-c6c(F)cc(S(=O)(=O)[O-])cc6F)c6ccc3[nH]6)C=C5)C=C4)cc2)CC[C@H]([N@@H+]2CCC[C@@H]2C)C1
REMARK SMILES IDX 11 1 10 2 9 3 8 4 6 5 7 6 5 7 83 8 92 9 84 10 85 11 4 12
REMARK SMILES IDX 3 15 2 16 1 17 86 18 87 19 90 20 88 22 89 23 91 24 12 25
REMARK SMILES IDX 13 26 14 27 15 28 16 29 17 30 18 31 82 32 19 33 81 34 20 35
REMARK SMILES IDX 21 36 22 37 75 38 23 39 80 40 74 41 76 42 24 43 79 44 73 45
REMARK SMILES IDX 72 46 25 48 59 49 38 50 58 51 39 52 42 53 57 54 77 55 40 56
REMARK SMILES IDX 41 57 56 59 78 60 43 61 26 62 27 63 36 64 28 65 29 66 35 67
REMARK SMILES IDX 37 68 30 69 31 70 32 71 33 72 34 73 60 74 61 75 70 76 62 77
REMARK SMILES IDX 63 78 69 79 71 80 64 81 65 82 66 83 67 84 68 85 44 86 45 87
REMARK SMILES IDX 54 88 46 89 47 90 53 91 55 92 48 93 49 94 50 95 51 96 52 97
REMARK H PARENT 4 13 4 14 86 21 76 47 42 58
REMARK Flexibility Score: inf
ROOT
ATOM      1  O   UNL A   1      31.929  28.179  25.897  1.00  0.00    -0.374 OA
ENDROOT
BRANCH   1   2
ATOM      2  C   UNL A   1      31.789  26.755  25.932  1.00  0.00     0.202 C 
BRANCH   2   3
ATOM      3  C   UNL A   1      33.111  25.988  25.790  1.00  0.00     0.261 C 
BRANCH   3   4
ATOM      4  O   UNL A   1      32.829  24.738  25.141  1.00  0.00    -0.459 OA
BRANCH   4   5
ATOM      5  C   UNL A   1      33.351  23.607  25.642  1.00  0.00     0.368 C 
ATOM      6  O   UNL A   1      33.071  23.169  26.754  1.00  0.00    -0.245 OA
BRANCH   5   7
ATOM      7  C   UNL A   1      34.250  22.859  24.591  1.00  0.00     0.200 C 
ATOM      8  C   UNL A   1      33.505  22.961  23.247  1.00  0.00     0.087 C 
ATOM      9  C   UNL A   1      34.409  21.308  24.717  1.00  0.00     0.146 C 
ATOM     10  C   UNL A   1      32.485  21.815  23.312  1.00  0.00     0.072 C 
ATOM     11  C   UNL A   1      33.290  20.637  23.871  1.00  0.00     0.191 C 
BRANCH   7  12
ATOM     12  N   UNL A   1      35.638  23.424  24.557  1.00  0.00    -0.332 N 
ATOM     13  H   UNL A   1      35.754  23.900  23.662  1.00  0.00     0.347 HD
ATOM     14  H   UNL A   1      35.698  24.028  25.377  1.00  0.00     0.347 HD
BRANCH  12  15
ATOM     15  C   UNL A   1      36.744  22.477  24.700  1.00  0.00     0.261 C 
BRANCH  15  16
ATOM     16  C   UNL A   1      37.780  22.932  25.736  1.00  0.00     0.058 C 
ATOM     17  C   UNL A   1      38.879  21.914  25.997  1.00  0.00     0.010 C 
ENDBRANCH  15  16
ENDBRANCH  12  15
ENDBRANCH   7  12
BRANCH  11  18
ATOM     18  N   UNL A   1      32.561  19.468  24.373  1.00  0.00    -0.330 N 
ATOM     19  C   UNL A   1      32.971  18.987  25.705  1.00  0.00     0.262 C 
ATOM     20  C   UNL A   1      32.202  18.294  23.574  1.00  0.00     0.181 C 
ATOM     21  H   UNL A   1      31.695  20.006  24.346  1.00  0.00     0.348 HD
ATOM     22  C   UNL A   1      32.695  17.487  25.731  1.00  0.00     0.067 C 
ATOM     23  C   UNL A   1      32.828  17.103  24.286  1.00  0.00     0.070 C 
ATOM     24  C   UNL A   1      32.593  18.212  22.132  1.00  0.00     0.075 C 
ENDBRANCH  11  18
ENDBRANCH   5   7
ENDBRANCH   4   5
ENDBRANCH   3   4
ENDBRANCH   2   3
ENDBRANCH   1   2
BRANCH   1  25
ATOM     25  C   UNL A   1      31.816  28.871  27.144  1.00  0.00     0.202 C 
BRANCH  25  26
ATOM     26  C   UNL A   1      32.331  30.317  27.170  1.00  0.00     0.261 C 
BRANCH  26  27
ATOM     27  O   UNL A   1      33.755  30.429  26.983  1.00  0.00    -0.460 OA
BRANCH  27  28
ATOM     28  C   UNL A   1      34.364  31.392  27.715  1.00  0.00     0.338 C 
ATOM     29  O   UNL A   1      33.835  32.389  28.186  1.00  0.00    -0.246 OA
BRANCH  28  30
ATOM     30  C   UNL A   1      35.766  31.017  28.025  1.00  0.00     0.060 A 
ATOM     31  C   UNL A   1      36.075  29.653  28.035  1.00  0.00     0.016 A 
ATOM     32  C   UNL A   1      36.755  31.954  28.339  1.00  0.00     0.016 A 
ATOM     33  C   UNL A   1      37.343  29.218  28.428  1.00  0.00     0.010 A 
ATOM     34  C   UNL A   1      38.038  31.515  28.711  1.00  0.00     0.010 A 
ATOM     35  C   UNL A   1      38.325  30.140  28.816  1.00  0.00    -0.014 A 
BRANCH  35  36
ATOM     36  C   UNL A   1      39.543  29.638  29.521  1.00  0.00     0.031 A 
ATOM     37  C   UNL A   1      39.873  30.193  30.889  1.00  0.00     0.074 A 
ATOM     38  C   UNL A   1      40.292  28.632  29.022  1.00  0.00     0.049 A 
ATOM     39  N   UNL A   1      40.797  29.820  31.738  1.00  0.00    -0.248 NA
ATOM     40  C   UNL A   1      39.053  31.321  31.359  1.00  0.00     0.031 C 
ATOM     41  C   UNL A   1      40.099  27.993  27.721  1.00  0.00     0.029 A 
ATOM     42  N   UNL A   1      41.361  27.957  29.568  1.00  0.00    -0.354 N 
ATOM     43  C   UNL A   1      40.664  30.660  32.838  1.00  0.00     0.074 A 
ATOM     44  C   UNL A   1      39.615  31.604  32.522  1.00  0.00     0.031 C 
ATOM     45  C   UNL A   1      41.005  27.009  27.578  1.00  0.00     0.029 A 
ATOM     46  C   UNL A   1      41.851  26.949  28.769  1.00  0.00     0.049 A 
ATOM     47  H   UNL A   1      41.740  28.176  30.450  1.00  0.00     0.167 HD
ATOM     48  C   UNL A   1      41.324  30.638  34.021  1.00  0.00     0.037 A 
ATOM     49  C   UNL A   1      42.858  26.073  28.976  1.00  0.00     0.037 A 
ATOM     50  C   UNL A   1      42.358  29.697  34.357  1.00  0.00     0.049 A 
ATOM     51  C   UNL A   1      43.606  26.088  30.289  1.00  0.00     0.074 A 
ATOM     52  C   UNL A   1      43.062  29.579  35.543  1.00  0.00     0.029 A 
ATOM     53  N   UNL A   1      42.843  28.715  33.506  1.00  0.00    -0.354 N 
ATOM     54  N   UNL A   1      43.424  26.855  31.337  1.00  0.00    -0.248 NA
ATOM     55  C   UNL A   1      44.688  25.104  30.449  1.00  0.00     0.031 C 
ATOM     56  C   UNL A   1      44.008  28.558  35.392  1.00  0.00     0.029 A 
ATOM     57  C   UNL A   1      43.854  28.003  34.133  1.00  0.00     0.049 A 
ATOM     58  H   UNL A   1      42.516  28.547  32.592  1.00  0.00     0.167 HD
ATOM     59  C   UNL A   1      44.346  26.426  32.289  1.00  0.00     0.074 A 
ATOM     60  C   UNL A   1      45.071  25.321  31.699  1.00  0.00     0.031 C 
ATOM     61  C   UNL A   1      44.571  26.903  33.540  1.00  0.00     0.037 A 
BRANCH  48  62
ATOM     62  C   UNL A   1      40.944  31.676  35.043  1.00  0.00     0.058 A 
ATOM     63  C   UNL A   1      41.653  32.882  35.168  1.00  0.00     0.135 A 
ATOM     64  C   UNL A   1      39.850  31.468  35.897  1.00  0.00     0.135 A 
ATOM     65  F   UNL A   1      42.721  33.124  34.391  1.00  0.00    -0.206 F 
ATOM     66  C   UNL A   1      41.312  33.830  36.128  1.00  0.00     0.059 A 
ATOM     67  C   UNL A   1      39.471  32.416  36.843  1.00  0.00     0.059 A 
ATOM     68  F   UNL A   1      39.138  30.332  35.821  1.00  0.00    -0.206 F 
ATOM     69  C   UNL A   1      40.220  33.587  36.961  1.00  0.00     0.060 A 
BRANCH  69  70
ATOM     70  S   UNL A   1      39.791  34.825  38.202  1.00  0.00     0.124 S 
ATOM     71  O   UNL A   1      38.506  34.325  38.681  1.00  0.00    -0.237 OA
ATOM     72  O   UNL A   1      40.902  34.722  39.143  1.00  0.00    -0.237 OA
ATOM     73  O   UNL A   1      39.734  36.068  37.437  1.00  0.00    -0.744 OA
ENDBRANCH  69  70
ENDBRANCH  48  62
BRANCH  49  74
ATOM     74  C   UNL A   1      43.223  25.085  27.921  1.00  0.00     0.058 A 
ATOM     75  C   UNL A   1      42.639  23.808  27.882  1.00  0.00     0.135 A 
ATOM     76  C   UNL A   1      44.187  25.388  26.948  1.00  0.00     0.135 A 
ATOM     77  F   UNL A   1      41.724  23.460  28.799  1.00  0.00    -0.206 F 
ATOM     78  C   UNL A   1      43.013  22.862  26.931  1.00  0.00     0.059 A 
ATOM     79  C   UNL A   1      44.558  24.468  25.971  1.00  0.00     0.059 A 
ATOM     80  F   UNL A   1      44.773  26.595  26.936  1.00  0.00    -0.206 F 
ATOM     81  C   UNL A   1      43.973  23.203  25.977  1.00  0.00     0.060 A 
BRANCH  81  82
ATOM     82  S   UNL A   1      44.419  21.985  24.720  1.00  0.00     0.124 S 
ATOM     83  O   UNL A   1      43.896  22.605  23.509  1.00  0.00    -0.237 OA
ATOM     84  O   UNL A   1      45.873  21.940  24.840  1.00  0.00    -0.237 OA
ATOM     85  O   UNL A   1      43.725  20.778  25.163  1.00  0.00    -0.744 OA
ENDBRANCH  81  82
ENDBRANCH  49  74
BRANCH  61  86
ATOM     86  C   UNL A   1      45.622  26.214  34.372  1.00  0.00     0.058 A 
ATOM     87  C   UNL A   1      45.321  25.108  35.184  1.00  0.00     0.135 A 
ATOM     88  C   UNL A   1      46.959  26.647  34.333  1.00  0.00     0.135 A 
ATOM     89  F   UNL A   1      44.060  24.650  35.260  1.00  0.00    -0.206 F 
ATOM     90  C   UNL A   1      46.294  24.486  35.961  1.00  0.00     0.059 A 
ATOM     91  C   UNL A   1      47.956  26.018  35.075  1.00  0.00     0.059 A 
ATOM     92  F   UNL A   1      47.310  27.687  33.560  1.00  0.00    -0.206 F 
ATOM     93  C   UNL A   1      47.609  24.952  35.903  1.00  0.00     0.060 A 
BRANCH  93  94
ATOM     94  S   UNL A   1      48.863  24.138  36.915  1.00  0.00     0.124 S 
ATOM     95  O   UNL A   1      49.907  25.156  36.963  1.00  0.00    -0.237 OA
ATOM     96  O   UNL A   1      48.151  23.901  38.167  1.00  0.00    -0.237 OA
ATOM     97  O   UNL A   1      49.191  22.938  36.150  1.00  0.00    -0.744 OA
ENDBRANCH  93  94
ENDBRANCH  61  86
ENDBRANCH  35  36
ENDBRANCH  28  30
ENDBRANCH  27  28
ENDBRANCH  26  27
ENDBRANCH  25  26
ENDBRANCH   1  25
TORSDOF 21
ENDMDL
MODEL 3
REMARK VINA RESULT:     -10.3      6.256      8.891
REMARK SMILES CCC[NH2+][C@@]1(C(=O)OCCOCCOC(=O)c2ccc(-c3c4nc(c(-c5c(F)cc(S(=O)(=O)[O-])cc5F)c5ccc([nH]5)c(-c5c(F)cc(S(=O)(=O)[O-])cc5F)c5nc(c(-c6c(F)cc(S(=O)(=O)[O-])cc6F)c6ccc3[nH]6)C=C5)C=C4)cc2)CC[C@H]([N@@H+]2CCC[C@@H]2C)C1
REMARK SMILES IDX 11 1 10 2 9 3 8 4 6 5 7 6 5 7 83 8 92 9 84 10 85 11 4 12
REMARK SMILES IDX 3 15 2 16 1 17 86 18 87 19 90 20 88 22 89 23 91 24 12 25
REMARK SMILES IDX 13 26 14 27 15 28 16 29 17 30 18 31 82 32 19 33 81 34 20 35
REMARK SMILES IDX 21 36 22 37 75 38 23 39 80 40 74 41 76 42 24 43 79 44 73 45
REMARK SMILES IDX 72 46 25 48 59 49 38 50 58 51 39 52 42 53 57 54 77 55 40 56
REMARK SMILES IDX 41 57 56 59 78 60 43 61 26 62 27 63 36 64 28 65 29 66 35 67
REMARK SMILES IDX 37 68 30 69 31 70 32 71 33 72 34 73 60 74 61 75 70 76 62 77
REMARK SMILES IDX 63 78 69 79 71 80 64 81 65 82 66 83 67 84 68 85 44 86 45 87
REMARK SMILES IDX 54 88 46 89 47 90 53 91 55 92 48 93 49 94 50 95 51 96 52 97
REMARK H PARENT 4 13 4 14 86 21 76 47 42 58
REMARK Flexibility Score: inf
ROOT
ATOM      1  O   UNL A   1      37.969  21.205  24.431  1.00  0.00    -0.374 OA
ENDROOT
BRANCH   1   2
ATOM      2  C   UNL A   1      36.975  22.198  24.701  1.00  0.00     0.202 C 
BRANCH   2   3
ATOM      3  C   UNL A   1      36.414  22.157  26.130  1.00  0.00     0.261 C 
BRANCH   3   4
ATOM      4  O   UNL A   1      35.016  21.844  26.046  1.00  0.00    -0.459 OA
BRANCH   4   5
ATOM      5  C   UNL A   1      34.128  22.841  25.897  1.00  0.00     0.368 C 
ATOM      6  O   UNL A   1      33.983  23.744  26.716  1.00  0.00    -0.245 OA
BRANCH   5   7
ATOM      7  C   UNL A   1      33.402  22.777  24.504  1.00  0.00     0.200 C 
ATOM      8  C   UNL A   1      31.893  22.793  24.811  1.00  0.00     0.087 C 
ATOM      9  C   UNL A   1      33.513  21.460  23.667  1.00  0.00     0.146 C 
ATOM     10  C   UNL A   1      31.575  21.326  25.136  1.00  0.00     0.072 C 
ATOM     11  C   UNL A   1      32.321  20.539  24.053  1.00  0.00     0.191 C 
BRANCH   7  12
ATOM     12  N   UNL A   1      33.848  23.889  23.603  1.00  0.00    -0.332 N 
ATOM     13  H   UNL A   1      34.700  24.284  24.000  1.00  0.00     0.347 HD
ATOM     14  H   UNL A   1      33.960  23.457  22.685  1.00  0.00     0.347 HD
BRANCH  12  15
ATOM     15  C   UNL A   1      32.907  24.990  23.393  1.00  0.00     0.261 C 
BRANCH  15  16
ATOM     16  C   UNL A   1      33.180  26.183  24.317  1.00  0.00     0.058 C 
ATOM     17  C   UNL A   1      33.724  27.408  23.599  1.00  0.00     0.010 C 
ENDBRANCH  15  16
ENDBRANCH  12  15
ENDBRANCH   7  12
BRANCH  11  18
ATOM     18  N   UNL A   1      32.510  19.097  24.242  1.00  0.00    -0.330 N 
ATOM     19  C   UNL A   1      33.607  18.714  25.150  1.00  0.00     0.262 C 
ATOM     20  C   UNL A   1      32.453  18.095  23.176  1.00  0.00     0.181 C 
ATOM     21  H   UNL A   1      31.571  19.034  24.635  1.00  0.00     0.348 HD
ATOM     22  C   UNL A   1      34.108  17.353  24.678  1.00  0.00     0.067 C 
ATOM     23  C   UNL A   1      33.795  17.379  23.210  1.00  0.00     0.070 C 
ATOM     24  C   UNL A   1      32.199  18.509  21.761  1.00  0.00     0.075 C 
ENDBRANCH  11  18
ENDBRANCH   5   7
ENDBRANCH   4   5
ENDBRANCH   3   4
ENDBRANCH   2   3
ENDBRANCH   1   2
BRANCH   1  25
ATOM     25  C   UNL A   1      37.770  19.914  25.016  1.00  0.00     0.202 C 
BRANCH  25  26
ATOM     26  C   UNL A   1      39.008  19.245  25.628  1.00  0.00     0.261 C 
BRANCH  26  27
ATOM     27  O   UNL A   1      39.912  20.169  26.265  1.00  0.00    -0.460 OA
BRANCH  27  28
ATOM     28  C   UNL A   1      41.226  19.852  26.179  1.00  0.00     0.338 C 
ATOM     29  O   UNL A   1      41.691  18.782  25.813  1.00  0.00    -0.246 OA
BRANCH  28  30
ATOM     30  C   UNL A   1      42.077  21.037  26.444  1.00  0.00     0.060 A 
ATOM     31  C   UNL A   1      42.333  21.354  27.782  1.00  0.00     0.016 A 
ATOM     32  C   UNL A   1      42.588  21.852  25.429  1.00  0.00     0.016 A 
ATOM     33  C   UNL A   1      43.032  22.518  28.112  1.00  0.00     0.010 A 
ATOM     34  C   UNL A   1      43.312  23.011  25.763  1.00  0.00     0.010 A 
ATOM     35  C   UNL A   1      43.488  23.385  27.110  1.00  0.00    -0.014 A 
BRANCH  35  36
ATOM     36  C   UNL A   1      43.943  24.754  27.497  1.00  0.00     0.031 A 
ATOM     37  C   UNL A   1      45.393  25.126  27.282  1.00  0.00     0.074 A 
ATOM     38  C   UNL A   1      43.081  25.697  27.930  1.00  0.00     0.049 A 
ATOM     39  N   UNL A   1      45.985  26.286  27.421  1.00  0.00    -0.248 NA
ATOM     40  C   UNL A   1      46.297  24.046  26.857  1.00  0.00     0.031 C 
ATOM     41  C   UNL A   1      41.655  25.492  28.184  1.00  0.00     0.029 A 
ATOM     42  N   UNL A   1      43.280  27.029  28.214  1.00  0.00    -0.354 N 
ATOM     43  C   UNL A   1      47.320  26.074  27.096  1.00  0.00     0.074 A 
ATOM     44  C   UNL A   1      47.466  24.663  26.817  1.00  0.00     0.031 C 
ATOM     45  C   UNL A   1      41.106  26.659  28.567  1.00  0.00     0.029 A 
ATOM     46  C   UNL A   1      42.138  27.695  28.598  1.00  0.00     0.049 A 
ATOM     47  H   UNL A   1      44.160  27.465  28.150  1.00  0.00     0.167 HD
ATOM     48  C   UNL A   1      48.333  26.968  27.002  1.00  0.00     0.037 A 
ATOM     49  C   UNL A   1      41.942  28.990  28.926  1.00  0.00     0.037 A 
ATOM     50  C   UNL A   1      48.202  28.376  27.261  1.00  0.00     0.049 A 
ATOM     51  C   UNL A   1      43.095  29.964  28.849  1.00  0.00     0.074 A 
ATOM     52  C   UNL A   1      49.167  29.364  27.162  1.00  0.00     0.029 A 
ATOM     53  N   UNL A   1      47.035  29.000  27.676  1.00  0.00    -0.354 N 
ATOM     54  N   UNL A   1      44.336  29.751  28.483  1.00  0.00    -0.248 NA
ATOM     55  C   UNL A   1      42.811  31.360  29.217  1.00  0.00     0.031 C 
ATOM     56  C   UNL A   1      48.598  30.576  27.565  1.00  0.00     0.029 A 
ATOM     57  C   UNL A   1      47.263  30.355  27.861  1.00  0.00     0.049 A 
ATOM     58  H   UNL A   1      46.172  28.548  27.818  1.00  0.00     0.167 HD
ATOM     59  C   UNL A   1      44.971  30.990  28.547  1.00  0.00     0.074 A 
ATOM     60  C   UNL A   1      43.972  31.949  28.969  1.00  0.00     0.031 C 
ATOM     61  C   UNL A   1      46.264  31.305  28.280  1.00  0.00     0.037 A 
BRANCH  48  62
ATOM     62  C   UNL A   1      49.686  26.439  26.604  1.00  0.00     0.058 A 
ATOM     63  C   UNL A   1      50.585  25.924  27.552  1.00  0.00     0.135 A 
ATOM     64  C   UNL A   1      50.080  26.434  25.257  1.00  0.00     0.135 A 
ATOM     65  F   UNL A   1      50.268  25.923  28.856  1.00  0.00    -0.206 F 
ATOM     66  C   UNL A   1      51.842  25.456  27.182  1.00  0.00     0.059 A 
ATOM     67  C   UNL A   1      51.319  25.941  24.861  1.00  0.00     0.059 A 
ATOM     68  F   UNL A   1      49.260  26.915  24.309  1.00  0.00    -0.206 F 
ATOM     69  C   UNL A   1      52.200  25.469  25.834  1.00  0.00     0.060 A 
BRANCH  69  70
ATOM     70  S   UNL A   1      53.834  24.859  25.371  1.00  0.00     0.124 S 
ATOM     71  O   UNL A   1      53.544  23.467  25.042  1.00  0.00    -0.237 OA
ATOM     72  O   UNL A   1      54.180  25.718  24.243  1.00  0.00    -0.237 OA
ATOM     73  O   UNL A   1      54.629  25.064  26.579  1.00  0.00    -0.744 OA
ENDBRANCH  69  70
ENDBRANCH  48  62
BRANCH  49  74
ATOM     74  C   UNL A   1      40.593  29.463  29.349  1.00  0.00     0.058 A 
ATOM     75  C   UNL A   1      39.572  29.693  28.412  1.00  0.00     0.135 A 
ATOM     76  C   UNL A   1      40.308  29.724  30.698  1.00  0.00     0.135 A 
ATOM     77  F   UNL A   1      39.797  29.476  27.108  1.00  0.00    -0.206 F 
ATOM     78  C   UNL A   1      38.327  30.184  28.795  1.00  0.00     0.059 A 
ATOM     79  C   UNL A   1      39.061  30.189  31.107  1.00  0.00     0.059 A 
ATOM     80  F   UNL A   1      41.245  29.516  31.635  1.00  0.00    -0.206 F 
ATOM     81  C   UNL A   1      38.080  30.427  30.147  1.00  0.00     0.060 A 
BRANCH  81  82
ATOM     82  S   UNL A   1      36.446  31.022  30.638  1.00  0.00     0.124 S 
ATOM     83  O   UNL A   1      36.069  30.044  31.652  1.00  0.00    -0.237 OA
ATOM     84  O   UNL A   1      36.743  32.365  31.124  1.00  0.00    -0.237 OA
ATOM     85  O   UNL A   1      35.683  30.968  29.394  1.00  0.00    -0.744 OA
ENDBRANCH  81  82
ENDBRANCH  49  74
BRANCH  61  86
ATOM     86  C   UNL A   1      46.670  32.751  28.402  1.00  0.00     0.058 A 
ATOM     87  C   UNL A   1      47.302  33.252  29.551  1.00  0.00     0.135 A 
ATOM     88  C   UNL A   1      46.452  33.645  27.338  1.00  0.00     0.135 A 
ATOM     89  F   UNL A   1      47.537  32.444  30.598  1.00  0.00    -0.206 F 
ATOM     90  C   UNL A   1      47.661  34.592  29.662  1.00  0.00     0.059 A 
ATOM     91  C   UNL A   1      46.833  34.982  27.413  1.00  0.00     0.059 A 
ATOM     92  F   UNL A   1      45.869  33.219  26.206  1.00  0.00    -0.206 F 
ATOM     93  C   UNL A   1      47.419  35.451  28.588  1.00  0.00     0.060 A 
BRANCH  93  94
ATOM     94  S   UNL A   1      47.887  37.188  28.743  1.00  0.00     0.124 S 
ATOM     95  O   UNL A   1      47.061  37.807  27.713  1.00  0.00    -0.237 OA
ATOM     96  O   UNL A   1      47.516  37.492  30.122  1.00  0.00    -0.237 OA
ATOM     97  O   UNL A   1      49.323  37.177  28.475  1.00  0.00    -0.744 OA
ENDBRANCH  93  94
ENDBRANCH  61  86
ENDBRANCH  35  36
ENDBRANCH  28  30
ENDBRANCH  27  28
ENDBRANCH  26  27
ENDBRANCH  25  26
ENDBRANCH   1  25
TORSDOF 21
ENDMDL
