MODEL 1
REMARK VINA RESULT:     -12.5      0.000      0.000
REMARK SMILES C[C@H]1CCc2sc3ncn4nc(/C=C\C(=O)OCCOCCOC(=O)c5ccc(-c6c7nc(c(-c8c(F)cc(S(=O)(=O)[O-])cc8F)c8ccc([nH]8)c(-c8c(F)cc(S(=O)(=O)[O-])cc8F)c8nc(c(-c9c(F)cc(S(=O)(=O)[O-])cc9F)c9ccc6[nH]9)C=C8)C=C7)cc5)nc4c3c2C1
REMARK SMILES IDX 21 1 20 2 19 3 18 4 17 5 15 6 16 7 14 8 13 9 12 10 1 11 2 12
REMARK SMILES IDX 3 13 96 14 4 15 95 16 5 17 94 18 6 19 7 20 93 21 8 22 10 23
REMARK SMILES IDX 92 24 9 25 11 26 22 27 23 28 24 29 25 30 26 31 27 32 91 33
REMARK SMILES IDX 28 34 90 35 29 36 30 37 31 38 84 39 32 40 89 41 83 42 85 43
REMARK SMILES IDX 33 44 88 45 82 46 81 47 34 49 68 50 47 51 67 52 48 53 51 54
REMARK SMILES IDX 66 55 86 56 49 57 50 58 65 60 87 61 52 62 35 63 36 64 45 65
REMARK SMILES IDX 37 66 38 67 44 68 46 69 39 70 40 71 41 72 42 73 43 74 69 75
REMARK SMILES IDX 70 76 79 77 71 78 72 79 78 80 80 81 73 82 74 83 75 84 76 85
REMARK SMILES IDX 77 86 53 87 54 88 63 89 55 90 56 91 62 92 64 93 57 94 58 95
REMARK SMILES IDX 59 96 60 97 61 98
REMARK H PARENT 85 48 51 59
REMARK Flexibility Score: inf
ROOT
ATOM      1  C   UNL A   1      42.454  19.234  25.918  1.00  0.00     0.202 C 
ENDROOT
BRANCH   1   2
ATOM      2  O   UNL A   1      42.249  20.211  26.934  1.00  0.00    -0.374 OA
BRANCH   2   3
ATOM      3  C   UNL A   1      41.667  21.456  26.545  1.00  0.00     0.202 C 
BRANCH   3   4
ATOM      4  C   UNL A   1      40.172  21.581  26.827  1.00  0.00     0.261 C 
BRANCH   4   5
ATOM      5  O   UNL A   1      39.433  21.486  25.598  1.00  0.00    -0.460 OA
BRANCH   5   6
ATOM      6  C   UNL A   1      38.146  21.866  25.627  1.00  0.00     0.330 C 
ATOM      7  O   UNL A   1      37.733  22.994  25.865  1.00  0.00    -0.247 OA
BRANCH   6   8
ATOM      8  C   UNL A   1      37.219  20.820  25.151  1.00  0.00     0.097 C 
ATOM      9  C   UNL A   1      35.883  20.715  25.105  1.00  0.00     0.058 C 
BRANCH   9  10
ATOM     10  C   UNL A   1      34.836  21.602  25.490  1.00  0.00     0.175 A 
ATOM     11  C   UNL A   1      32.227  25.955  21.008  1.00  0.00     0.008 C 
ATOM     12  C   UNL A   1      33.259  26.522  21.990  1.00  0.00    -0.009 C 
ATOM     13  C   UNL A   1      32.770  27.821  22.666  1.00  0.00     0.009 C 
ATOM     14  C   UNL A   1      33.674  25.466  23.037  1.00  0.00     0.041 C 
ATOM     15  C   UNL A   1      31.583  27.605  23.621  1.00  0.00     0.047 C 
ATOM     16  C   UNL A   1      32.766  25.430  24.224  1.00  0.00    -0.020 A 
ATOM     17  C   UNL A   1      31.825  26.408  24.484  1.00  0.00     0.011 A 
ATOM     18  C   UNL A   1      32.737  24.457  25.243  1.00  0.00     0.060 A 
ATOM     19  S   UNL A   1      30.914  26.101  25.898  1.00  0.00    -0.120 S 
ATOM     20  C   UNL A   1      31.772  24.655  26.219  1.00  0.00     0.129 A 
ATOM     21  C   UNL A   1      33.551  23.252  25.445  1.00  0.00     0.168 A 
ATOM     22  N   UNL A   1      31.495  23.851  27.302  1.00  0.00    -0.225 NA
ATOM     23  N   UNL A   1      33.272  22.490  26.536  1.00  0.00    -0.201 N 
ATOM     24  N   UNL A   1      34.530  22.722  24.760  1.00  0.00    -0.207 NA
ATOM     25  C   UNL A   1      32.250  22.789  27.437  1.00  0.00     0.227 A 
ATOM     26  N   UNL A   1      34.086  21.421  26.595  1.00  0.00    -0.145 NA
ENDBRANCH   9  10
ENDBRANCH   6   8
ENDBRANCH   5   6
ENDBRANCH   4   5
ENDBRANCH   3   4
ENDBRANCH   2   3
ENDBRANCH   1   2
BRANCH   1  27
ATOM     27  C   UNL A   1      43.894  18.795  25.702  1.00  0.00     0.261 C 
BRANCH  27  28
ATOM     28  O   UNL A   1      44.779  19.909  25.632  1.00  0.00    -0.460 OA
BRANCH  28  29
ATOM     29  C   UNL A   1      44.672  20.644  24.499  1.00  0.00     0.338 C 
ATOM     30  O   UNL A   1      44.643  20.228  23.355  1.00  0.00    -0.246 OA
BRANCH  29  31
ATOM     31  C   UNL A   1      44.844  22.060  24.858  1.00  0.00     0.060 A 
ATOM     32  C   UNL A   1      45.580  22.324  26.015  1.00  0.00     0.016 A 
ATOM     33  C   UNL A   1      44.041  23.037  24.251  1.00  0.00     0.016 A 
ATOM     34  C   UNL A   1      45.353  23.512  26.676  1.00  0.00     0.010 A 
ATOM     35  C   UNL A   1      43.798  24.210  24.923  1.00  0.00     0.010 A 
ATOM     36  C   UNL A   1      44.397  24.397  26.165  1.00  0.00    -0.014 A 
BRANCH  36  37
ATOM     37  C   UNL A   1      44.103  25.594  26.924  1.00  0.00     0.031 A 
ATOM     38  C   UNL A   1      45.121  26.645  26.716  1.00  0.00     0.074 A 
ATOM     39  C   UNL A   1      42.970  25.743  27.635  1.00  0.00     0.049 A 
ATOM     40  N   UNL A   1      46.030  27.029  27.548  1.00  0.00    -0.248 NA
ATOM     41  C   UNL A   1      45.282  27.189  25.357  1.00  0.00     0.031 C 
ATOM     42  C   UNL A   1      41.791  24.869  27.628  1.00  0.00     0.029 A 
ATOM     43  N   UNL A   1      42.584  26.768  28.444  1.00  0.00    -0.354 N 
ATOM     44  C   UNL A   1      46.701  28.056  26.896  1.00  0.00     0.074 A 
ATOM     45  C   UNL A   1      46.367  27.950  25.501  1.00  0.00     0.031 C 
ATOM     46  C   UNL A   1      40.750  25.519  28.200  1.00  0.00     0.029 A 
ATOM     47  C   UNL A   1      41.225  26.780  28.743  1.00  0.00     0.049 A 
ATOM     48  H   UNL A   1      43.214  27.442  28.789  1.00  0.00     0.167 HD
ATOM     49  C   UNL A   1      47.205  29.109  27.593  1.00  0.00     0.037 A 
ATOM     50  C   UNL A   1      40.550  27.792  29.343  1.00  0.00     0.037 A 
ATOM     51  C   UNL A   1      47.205  28.851  29.007  1.00  0.00     0.049 A 
ATOM     52  C   UNL A   1      41.546  28.595  30.096  1.00  0.00     0.074 A 
ATOM     53  C   UNL A   1      47.996  28.157  29.895  1.00  0.00     0.029 A 
ATOM     54  N   UNL A   1      45.988  29.049  29.604  1.00  0.00    -0.354 N 
ATOM     55  N   UNL A   1      42.225  28.130  31.110  1.00  0.00    -0.248 NA
ATOM     56  C   UNL A   1      42.071  29.824  29.506  1.00  0.00     0.031 C 
ATOM     57  C   UNL A   1      47.158  27.826  31.002  1.00  0.00     0.029 A 
ATOM     58  C   UNL A   1      45.889  28.357  30.782  1.00  0.00     0.049 A 
ATOM     59  H   UNL A   1      45.275  29.619  29.235  1.00  0.00     0.167 HD
ATOM     60  C   UNL A   1      43.455  28.753  31.017  1.00  0.00     0.074 A 
ATOM     61  C   UNL A   1      43.250  29.891  30.131  1.00  0.00     0.031 C 
ATOM     62  C   UNL A   1      44.598  28.112  31.391  1.00  0.00     0.037 A 
BRANCH  49  63
ATOM     63  C   UNL A   1      47.248  30.515  27.054  1.00  0.00     0.058 A 
ATOM     64  C   UNL A   1      48.455  31.235  27.055  1.00  0.00     0.135 A 
ATOM     65  C   UNL A   1      46.083  31.266  26.774  1.00  0.00     0.135 A 
ATOM     66  F   UNL A   1      49.611  30.626  27.365  1.00  0.00    -0.206 F 
ATOM     67  C   UNL A   1      48.502  32.605  26.787  1.00  0.00     0.059 A 
ATOM     68  C   UNL A   1      46.112  32.614  26.447  1.00  0.00     0.059 A 
ATOM     69  F   UNL A   1      44.856  30.741  26.900  1.00  0.00    -0.206 F 
ATOM     70  C   UNL A   1      47.324  33.284  26.478  1.00  0.00     0.060 A 
BRANCH  70  71
ATOM     71  S   UNL A   1      47.376  35.056  26.156  1.00  0.00     0.124 S 
ATOM     72  O   UNL A   1      47.562  35.594  27.498  1.00  0.00    -0.237 OA
ATOM     73  O   UNL A   1      48.521  35.164  25.258  1.00  0.00    -0.237 OA
ATOM     74  O   UNL A   1      46.078  35.325  25.542  1.00  0.00    -0.744 OA
ENDBRANCH  70  71
ENDBRANCH  49  63
BRANCH  50  75
ATOM     75  C   UNL A   1      39.196  28.319  29.018  1.00  0.00     0.058 A 
ATOM     76  C   UNL A   1      38.197  28.402  30.007  1.00  0.00     0.135 A 
ATOM     77  C   UNL A   1      38.958  29.046  27.835  1.00  0.00     0.135 A 
ATOM     78  F   UNL A   1      38.344  27.744  31.168  1.00  0.00    -0.206 F 
ATOM     79  C   UNL A   1      37.074  29.224  29.868  1.00  0.00     0.059 A 
ATOM     80  C   UNL A   1      37.842  29.866  27.669  1.00  0.00     0.059 A 
ATOM     81  F   UNL A   1      39.857  29.060  26.839  1.00  0.00    -0.206 F 
ATOM     82  C   UNL A   1      36.923  29.978  28.706  1.00  0.00     0.060 A 
BRANCH  82  83
ATOM     83  S   UNL A   1      35.594  31.203  28.613  1.00  0.00     0.124 S 
ATOM     84  O   UNL A   1      35.347  31.488  30.023  1.00  0.00    -0.237 OA
ATOM     85  O   UNL A   1      36.220  32.274  27.846  1.00  0.00    -0.237 OA
ATOM     86  O   UNL A   1      34.522  30.490  27.924  1.00  0.00    -0.744 OA
ENDBRANCH  82  83
ENDBRANCH  50  75
BRANCH  62  87
ATOM     87  C   UNL A   1      44.483  27.006  32.397  1.00  0.00     0.058 A 
ATOM     88  C   UNL A   1      44.298  27.182  33.778  1.00  0.00     0.135 A 
ATOM     89  C   UNL A   1      44.478  25.692  31.906  1.00  0.00     0.135 A 
ATOM     90  F   UNL A   1      44.223  28.410  34.312  1.00  0.00    -0.206 F 
ATOM     91  C   UNL A   1      44.138  26.091  34.636  1.00  0.00     0.059 A 
ATOM     92  C   UNL A   1      44.292  24.594  32.736  1.00  0.00     0.059 A 
ATOM     93  F   UNL A   1      44.612  25.466  30.589  1.00  0.00    -0.206 F 
ATOM     94  C   UNL A   1      44.132  24.800  34.103  1.00  0.00     0.060 A 
BRANCH  94  95
ATOM     95  S   UNL A   1      43.862  23.390  35.200  1.00  0.00     0.124 S 
ATOM     96  O   UNL A   1      44.791  23.667  36.291  1.00  0.00    -0.237 OA
ATOM     97  O   UNL A   1      42.444  23.513  35.525  1.00  0.00    -0.237 OA
ATOM     98  O   UNL A   1      44.204  22.239  34.368  1.00  0.00    -0.744 OA
ENDBRANCH  94  95
ENDBRANCH  62  87
ENDBRANCH  36  37
ENDBRANCH  29  31
ENDBRANCH  28  29
ENDBRANCH  27  28
ENDBRANCH   1  27
TORSDOF 18
ENDMDL
MODEL 2
REMARK VINA RESULT:     -12.4      4.575     11.725
REMARK SMILES C[C@H]1CCc2sc3ncn4nc(/C=C\C(=O)OCCOCCOC(=O)c5ccc(-c6c7nc(c(-c8c(F)cc(S(=O)(=O)[O-])cc8F)c8ccc([nH]8)c(-c8c(F)cc(S(=O)(=O)[O-])cc8F)c8nc(c(-c9c(F)cc(S(=O)(=O)[O-])cc9F)c9ccc6[nH]9)C=C8)C=C7)cc5)nc4c3c2C1
REMARK SMILES IDX 21 1 20 2 19 3 18 4 17 5 15 6 16 7 14 8 13 9 12 10 1 11 2 12
REMARK SMILES IDX 3 13 96 14 4 15 95 16 5 17 94 18 6 19 7 20 93 21 8 22 10 23
REMARK SMILES IDX 92 24 9 25 11 26 22 27 23 28 24 29 25 30 26 31 27 32 91 33
REMARK SMILES IDX 28 34 90 35 29 36 30 37 31 38 84 39 32 40 89 41 83 42 85 43
REMARK SMILES IDX 33 44 88 45 82 46 81 47 34 49 68 50 47 51 67 52 48 53 51 54
REMARK SMILES IDX 66 55 86 56 49 57 50 58 65 60 87 61 52 62 35 63 36 64 45 65
REMARK SMILES IDX 37 66 38 67 44 68 46 69 39 70 40 71 41 72 42 73 43 74 69 75
REMARK SMILES IDX 70 76 79 77 71 78 72 79 78 80 80 81 73 82 74 83 75 84 76 85
REMARK SMILES IDX 77 86 53 87 54 88 63 89 55 90 56 91 62 92 64 93 57 94 58 95
REMARK SMILES IDX 59 96 60 97 61 98
REMARK H PARENT 85 48 51 59
REMARK Flexibility Score: inf
ROOT
ATOM      1  C   UNL A   1      33.430  34.645  28.354  1.00  0.00     0.202 C 
ENDROOT
BRANCH   1   2
ATOM      2  O   UNL A   1      32.882  34.612  29.670  1.00  0.00    -0.374 OA
BRANCH   2   3
ATOM      3  C   UNL A   1      33.552  35.366  30.682  1.00  0.00     0.202 C 
BRANCH   3   4
ATOM      4  C   UNL A   1      33.774  34.620  31.995  1.00  0.00     0.261 C 
BRANCH   4   5
ATOM      5  O   UNL A   1      34.874  33.705  31.857  1.00  0.00    -0.460 OA
BRANCH   5   6
ATOM      6  C   UNL A   1      35.185  32.955  32.927  1.00  0.00     0.330 C 
ATOM      7  O   UNL A   1      34.727  33.085  34.056  1.00  0.00    -0.247 OA
BRANCH   6   8
ATOM      8  C   UNL A   1      36.026  31.788  32.594  1.00  0.00     0.097 C 
ATOM      9  C   UNL A   1      37.345  31.550  32.651  1.00  0.00     0.058 C 
BRANCH   9  10
ATOM     10  C   UNL A   1      38.447  32.344  33.081  1.00  0.00     0.175 A 
ATOM     11  C   UNL A   1      41.926  36.057  28.613  1.00  0.00     0.008 C 
ATOM     12  C   UNL A   1      42.550  34.718  29.021  1.00  0.00    -0.009 C 
ATOM     13  C   UNL A   1      44.033  34.865  29.426  1.00  0.00     0.009 C 
ATOM     14  C   UNL A   1      41.730  34.036  30.138  1.00  0.00     0.041 C 
ATOM     15  C   UNL A   1      44.239  35.663  30.724  1.00  0.00     0.047 C 
ATOM     16  C   UNL A   1      42.122  34.482  31.510  1.00  0.00    -0.020 A 
ATOM     17  C   UNL A   1      43.265  35.214  31.767  1.00  0.00     0.011 A 
ATOM     18  C   UNL A   1      41.441  34.220  32.715  1.00  0.00     0.060 A 
ATOM     19  S   UNL A   1      43.453  35.603  33.421  1.00  0.00    -0.120 S 
ATOM     20  C   UNL A   1      42.015  34.778  33.848  1.00  0.00     0.129 A 
ATOM     21  C   UNL A   1      40.213  33.462  32.981  1.00  0.00     0.168 A 
ATOM     22  N   UNL A   1      41.550  34.716  35.143  1.00  0.00    -0.225 NA
ATOM     23  N   UNL A   1      39.789  33.397  34.271  1.00  0.00    -0.201 N 
ATOM     24  N   UNL A   1      39.390  32.813  32.201  1.00  0.00    -0.207 NA
ATOM     25  C   UNL A   1      40.450  34.027  35.326  1.00  0.00     0.227 A 
ATOM     26  N   UNL A   1      38.656  32.679  34.370  1.00  0.00    -0.145 NA
ENDBRANCH   9  10
ENDBRANCH   6   8
ENDBRANCH   5   6
ENDBRANCH   4   5
ENDBRANCH   3   4
ENDBRANCH   2   3
ENDBRANCH   1   2
BRANCH   1  27
ATOM     27  C   UNL A   1      34.684  33.813  28.138  1.00  0.00     0.261 C 
BRANCH  27  28
ATOM     28  O   UNL A   1      34.632  32.585  28.856  1.00  0.00    -0.460 OA
BRANCH  28  29
ATOM     29  C   UNL A   1      35.117  31.515  28.179  1.00  0.00     0.338 C 
ATOM     30  O   UNL A   1      34.587  30.932  27.252  1.00  0.00    -0.246 OA
BRANCH  29  31
ATOM     31  C   UNL A   1      36.289  31.010  28.910  1.00  0.00     0.060 A 
ATOM     32  C   UNL A   1      37.403  31.851  28.958  1.00  0.00     0.016 A 
ATOM     33  C   UNL A   1      36.373  29.649  29.241  1.00  0.00     0.016 A 
ATOM     34  C   UNL A   1      38.643  31.281  29.147  1.00  0.00     0.010 A 
ATOM     35  C   UNL A   1      37.612  29.079  29.405  1.00  0.00     0.010 A 
ATOM     36  C   UNL A   1      38.735  29.891  29.277  1.00  0.00    -0.014 A 
BRANCH  36  37
ATOM     37  C   UNL A   1      40.053  29.302  29.379  1.00  0.00     0.031 A 
ATOM     38  C   UNL A   1      40.502  29.186  30.782  1.00  0.00     0.074 A 
ATOM     39  C   UNL A   1      40.718  28.821  28.311  1.00  0.00     0.049 A 
ATOM     40  N   UNL A   1      41.399  29.896  31.378  1.00  0.00    -0.248 NA
ATOM     41  C   UNL A   1      39.722  28.321  31.685  1.00  0.00     0.031 C 
ATOM     42  C   UNL A   1      40.201  28.627  26.952  1.00  0.00     0.029 A 
ATOM     43  N   UNL A   1      41.976  28.307  28.234  1.00  0.00    -0.354 N 
ATOM     44  C   UNL A   1      41.474  29.373  32.664  1.00  0.00     0.074 A 
ATOM     45  C   UNL A   1      40.284  28.591  32.863  1.00  0.00     0.031 C 
ATOM     46  C   UNL A   1      41.047  27.827  26.261  1.00  0.00     0.029 A 
ATOM     47  C   UNL A   1      42.227  27.582  27.073  1.00  0.00     0.049 A 
ATOM     48  H   UNL A   1      42.650  28.437  28.940  1.00  0.00     0.167 HD
ATOM     49  C   UNL A   1      42.656  29.347  33.334  1.00  0.00     0.037 A 
ATOM     50  C   UNL A   1      43.309  26.797  26.841  1.00  0.00     0.037 A 
ATOM     51  C   UNL A   1      43.648  30.158  32.683  1.00  0.00     0.049 A 
ATOM     52  C   UNL A   1      44.389  27.263  27.748  1.00  0.00     0.074 A 
ATOM     53  C   UNL A   1      43.957  31.499  32.617  1.00  0.00     0.029 A 
ATOM     54  N   UNL A   1      44.250  29.543  31.616  1.00  0.00    -0.354 N 
ATOM     55  N   UNL A   1      44.934  28.447  27.666  1.00  0.00    -0.248 NA
ATOM     56  C   UNL A   1      44.633  26.551  28.999  1.00  0.00     0.031 C 
ATOM     57  C   UNL A   1      44.659  31.688  31.389  1.00  0.00     0.029 A 
ATOM     58  C   UNL A   1      44.796  30.456  30.752  1.00  0.00     0.049 A 
ATOM     59  H   UNL A   1      44.288  28.568  31.487  1.00  0.00     0.167 HD
ATOM     60  C   UNL A   1      45.222  28.785  28.974  1.00  0.00     0.074 A 
ATOM     61  C   UNL A   1      45.176  27.535  29.720  1.00  0.00     0.031 C 
ATOM     62  C   UNL A   1      45.146  30.078  29.399  1.00  0.00     0.037 A 
BRANCH  49  63
ATOM     63  C   UNL A   1      43.047  28.244  34.282  1.00  0.00     0.058 A 
ATOM     64  C   UNL A   1      43.307  28.532  35.632  1.00  0.00     0.135 A 
ATOM     65  C   UNL A   1      43.423  26.953  33.844  1.00  0.00     0.135 A 
ATOM     66  F   UNL A   1      43.041  29.749  36.133  1.00  0.00    -0.206 F 
ATOM     67  C   UNL A   1      43.893  27.599  36.491  1.00  0.00     0.059 A 
ATOM     68  C   UNL A   1      43.951  25.990  34.692  1.00  0.00     0.059 A 
ATOM     69  F   UNL A   1      43.382  26.605  32.550  1.00  0.00    -0.206 F 
ATOM     70  C   UNL A   1      44.206  26.327  36.011  1.00  0.00     0.060 A 
BRANCH  70  71
ATOM     71  S   UNL A   1      44.984  25.129  37.107  1.00  0.00     0.124 S 
ATOM     72  O   UNL A   1      46.380  25.545  37.058  1.00  0.00    -0.237 OA
ATOM     73  O   UNL A   1      44.286  25.374  38.365  1.00  0.00    -0.237 OA
ATOM     74  O   UNL A   1      44.684  23.848  36.473  1.00  0.00    -0.744 OA
ENDBRANCH  70  71
ENDBRANCH  49  63
BRANCH  50  75
ATOM     75  C   UNL A   1      43.359  25.465  26.176  1.00  0.00     0.058 A 
ATOM     76  C   UNL A   1      44.356  25.171  25.227  1.00  0.00     0.135 A 
ATOM     77  C   UNL A   1      42.644  24.365  26.688  1.00  0.00     0.135 A 
ATOM     78  F   UNL A   1      45.088  26.159  24.691  1.00  0.00    -0.206 F 
ATOM     79  C   UNL A   1      44.684  23.858  24.873  1.00  0.00     0.059 A 
ATOM     80  C   UNL A   1      42.948  23.048  26.343  1.00  0.00     0.059 A 
ATOM     81  F   UNL A   1      41.691  24.530  27.619  1.00  0.00    -0.206 F 
ATOM     82  C   UNL A   1      43.995  22.801  25.463  1.00  0.00     0.060 A 
BRANCH  82  83
ATOM     83  S   UNL A   1      44.559  21.105  25.176  1.00  0.00     0.124 S 
ATOM     84  O   UNL A   1      45.913  21.142  25.721  1.00  0.00    -0.237 OA
ATOM     85  O   UNL A   1      43.587  20.328  25.935  1.00  0.00    -0.237 OA
ATOM     86  O   UNL A   1      44.475  20.960  23.726  1.00  0.00    -0.744 OA
ENDBRANCH  82  83
ENDBRANCH  50  75
BRANCH  62  87
ATOM     87  C   UNL A   1      45.309  31.162  28.377  1.00  0.00     0.058 A 
ATOM     88  C   UNL A   1      44.294  31.642  27.534  1.00  0.00     0.135 A 
ATOM     89  C   UNL A   1      46.556  31.804  28.317  1.00  0.00     0.135 A 
ATOM     90  F   UNL A   1      43.057  31.126  27.583  1.00  0.00    -0.206 F 
ATOM     91  C   UNL A   1      44.519  32.702  26.652  1.00  0.00     0.059 A 
ATOM     92  C   UNL A   1      46.794  32.877  27.470  1.00  0.00     0.059 A 
ATOM     93  F   UNL A   1      47.553  31.412  29.128  1.00  0.00    -0.206 F 
ATOM     94  C   UNL A   1      45.774  33.317  26.631  1.00  0.00     0.060 A 
BRANCH  94  95
ATOM     95  S   UNL A   1      46.051  34.727  25.538  1.00  0.00     0.124 S 
ATOM     96  O   UNL A   1      45.146  34.441  24.430  1.00  0.00    -0.237 OA
ATOM     97  O   UNL A   1      45.681  35.857  26.386  1.00  0.00    -0.237 OA
ATOM     98  O   UNL A   1      47.474  34.639  25.219  1.00  0.00    -0.744 OA
ENDBRANCH  94  95
ENDBRANCH  62  87
ENDBRANCH  36  37
ENDBRANCH  29  31
ENDBRANCH  28  29
ENDBRANCH  27  28
ENDBRANCH   1  27
TORSDOF 18
ENDMDL
MODEL 3
REMARK VINA RESULT:     -11.8      2.809      4.078
REMARK SMILES C[C@H]1CCc2sc3ncn4nc(/C=C\C(=O)OCCOCCOC(=O)c5ccc(-c6c7nc(c(-c8c(F)cc(S(=O)(=O)[O-])cc8F)c8ccc([nH]8)c(-c8c(F)cc(S(=O)(=O)[O-])cc8F)c8nc(c(-c9c(F)cc(S(=O)(=O)[O-])cc9F)c9ccc6[nH]9)C=C8)C=C7)cc5)nc4c3c2C1
REMARK SMILES IDX 21 1 20 2 19 3 18 4 17 5 15 6 16 7 14 8 13 9 12 10 1 11 2 12
REMARK SMILES IDX 3 13 96 14 4 15 95 16 5 17 94 18 6 19 7 20 93 21 8 22 10 23
REMARK SMILES IDX 92 24 9 25 11 26 22 27 23 28 24 29 25 30 26 31 27 32 91 33
REMARK SMILES IDX 28 34 90 35 29 36 30 37 31 38 84 39 32 40 89 41 83 42 85 43
REMARK SMILES IDX 33 44 88 45 82 46 81 47 34 49 68 50 47 51 67 52 48 53 51 54
REMARK SMILES IDX 66 55 86 56 49 57 50 58 65 60 87 61 52 62 35 63 36 64 45 65
REMARK SMILES IDX 37 66 38 67 44 68 46 69 39 70 40 71 41 72 42 73 43 74 69 75
REMARK SMILES IDX 70 76 79 77 71 78 72 79 78 80 80 81 73 82 74 83 75 84 76 85
REMARK SMILES IDX 77 86 53 87 54 88 63 89 55 90 56 91 62 92 64 93 57 94 58 95
REMARK SMILES IDX 59 96 60 97 61 98
REMARK H PARENT 85 48 51 59
REMARK Flexibility Score: inf
ROOT
ATOM      1  C   UNL A   1      39.468  21.208  26.100  1.00  0.00     0.202 C 
ENDROOT
BRANCH   1   2
ATOM      2  O   UNL A   1      38.725  22.394  25.833  1.00  0.00    -0.374 OA
BRANCH   2   3
ATOM      3  C   UNL A   1      37.467  22.249  25.171  1.00  0.00     0.202 C 
BRANCH   3   4
ATOM      4  C   UNL A   1      36.608  21.092  25.673  1.00  0.00     0.261 C 
BRANCH   4   5
ATOM      5  O   UNL A   1      35.250  21.266  25.236  1.00  0.00    -0.460 OA
BRANCH   5   6
ATOM      6  C   UNL A   1      34.293  21.225  26.178  1.00  0.00     0.330 C 
ATOM      7  O   UNL A   1      34.441  21.476  27.367  1.00  0.00    -0.247 OA
BRANCH   6   8
ATOM      8  C   UNL A   1      32.941  21.017  25.623  1.00  0.00     0.097 C 
ATOM      9  C   UNL A   1      32.157  21.729  24.800  1.00  0.00     0.058 C 
BRANCH   9  10
ATOM     10  C   UNL A   1      32.348  22.969  24.125  1.00  0.00     0.175 A 
ATOM     11  C   UNL A   1      33.911  28.554  27.619  1.00  0.00     0.008 C 
ATOM     12  C   UNL A   1      32.443  28.395  27.207  1.00  0.00    -0.009 C 
ATOM     13  C   UNL A   1      31.884  29.668  26.537  1.00  0.00     0.009 C 
ATOM     14  C   UNL A   1      32.246  27.155  26.307  1.00  0.00     0.041 C 
ATOM     15  C   UNL A   1      32.515  29.969  25.167  1.00  0.00     0.047 C 
ATOM     16  C   UNL A   1      32.481  27.440  24.859  1.00  0.00    -0.020 A 
ATOM     17  C   UNL A   1      32.595  28.719  24.350  1.00  0.00     0.011 A 
ATOM     18  C   UNL A   1      32.591  26.499  23.815  1.00  0.00     0.060 A 
ATOM     19  S   UNL A   1      32.880  28.745  22.664  1.00  0.00    -0.120 S 
ATOM     20  C   UNL A   1      32.834  27.038  22.560  1.00  0.00     0.129 A 
ATOM     21  C   UNL A   1      32.504  25.034  23.828  1.00  0.00     0.168 A 
ATOM     22  N   UNL A   1      33.022  26.360  21.377  1.00  0.00    -0.225 NA
ATOM     23  N   UNL A   1      32.668  24.391  22.641  1.00  0.00    -0.201 N 
ATOM     24  N   UNL A   1      32.303  24.170  24.787  1.00  0.00    -0.207 NA
ATOM     25  C   UNL A   1      32.933  25.054  21.443  1.00  0.00     0.227 A 
ATOM     26  N   UNL A   1      32.569  23.059  22.798  1.00  0.00    -0.145 NA
ENDBRANCH   9  10
ENDBRANCH   6   8
ENDBRANCH   5   6
ENDBRANCH   4   5
ENDBRANCH   3   4
ENDBRANCH   2   3
ENDBRANCH   1   2
BRANCH   1  27
ATOM     27  C   UNL A   1      40.948  21.404  26.386  1.00  0.00     0.261 C 
BRANCH  27  28
ATOM     28  O   UNL A   1      41.261  22.773  26.625  1.00  0.00    -0.460 OA
BRANCH  28  29
ATOM     29  C   UNL A   1      42.206  23.288  25.801  1.00  0.00     0.338 C 
ATOM     30  O   UNL A   1      42.927  22.673  25.038  1.00  0.00    -0.246 OA
BRANCH  29  31
ATOM     31  C   UNL A   1      42.394  24.703  26.155  1.00  0.00     0.060 A 
ATOM     32  C   UNL A   1      43.178  24.965  27.281  1.00  0.00     0.016 A 
ATOM     33  C   UNL A   1      41.568  25.682  25.582  1.00  0.00     0.016 A 
ATOM     34  C   UNL A   1      42.979  26.152  27.952  1.00  0.00     0.010 A 
ATOM     35  C   UNL A   1      41.354  26.854  26.266  1.00  0.00     0.010 A 
ATOM     36  C   UNL A   1      42.004  27.038  27.482  1.00  0.00    -0.014 A 
BRANCH  36  37
ATOM     37  C   UNL A   1      41.743  28.235  28.254  1.00  0.00     0.031 A 
ATOM     38  C   UNL A   1      42.820  29.235  28.106  1.00  0.00     0.074 A 
ATOM     39  C   UNL A   1      40.592  28.430  28.926  1.00  0.00     0.049 A 
ATOM     40  N   UNL A   1      43.715  29.557  28.978  1.00  0.00    -0.248 NA
ATOM     41  C   UNL A   1      43.060  29.796  26.764  1.00  0.00     0.031 C 
ATOM     42  C   UNL A   1      39.372  27.618  28.857  1.00  0.00     0.029 A 
ATOM     43  N   UNL A   1      40.229  29.457  29.741  1.00  0.00    -0.354 N 
ATOM     44  C   UNL A   1      44.462  30.560  28.372  1.00  0.00     0.074 A 
ATOM     45  C   UNL A   1      44.176  30.497  26.964  1.00  0.00     0.031 C 
ATOM     46  C   UNL A   1      38.344  28.309  29.404  1.00  0.00     0.029 A 
ATOM     47  C   UNL A   1      38.862  29.534  29.989  1.00  0.00     0.049 A 
ATOM     48  H   UNL A   1      40.879  30.092  30.123  1.00  0.00     0.167 HD
ATOM     49  C   UNL A   1      44.992  31.572  29.109  1.00  0.00     0.037 A 
ATOM     50  C   UNL A   1      38.217  30.568  30.585  1.00  0.00     0.037 A 
ATOM     51  C   UNL A   1      44.926  31.289  30.516  1.00  0.00     0.049 A 
ATOM     52  C   UNL A   1      39.224  31.305  31.391  1.00  0.00     0.074 A 
ATOM     53  C   UNL A   1      45.645  30.538  31.419  1.00  0.00     0.029 A 
ATOM     54  N   UNL A   1      43.698  31.538  31.072  1.00  0.00    -0.354 N 
ATOM     55  N   UNL A   1      39.839  30.787  32.419  1.00  0.00    -0.248 NA
ATOM     56  C   UNL A   1      39.833  32.515  30.846  1.00  0.00     0.031 C 
ATOM     57  C   UNL A   1      44.751  30.230  32.487  1.00  0.00     0.029 A 
ATOM     58  C   UNL A   1      43.519  30.830  32.231  1.00  0.00     0.049 A 
ATOM     59  H   UNL A   1      43.030  32.150  30.689  1.00  0.00     0.167 HD
ATOM     60  C   UNL A   1      41.101  31.346  32.384  1.00  0.00     0.074 A 
ATOM     61  C   UNL A   1      40.988  32.510  31.515  1.00  0.00     0.031 C 
ATOM     62  C   UNL A   1      42.196  30.641  32.787  1.00  0.00     0.037 A 
BRANCH  49  63
ATOM     63  C   UNL A   1      45.127  32.984  28.600  1.00  0.00     0.058 A 
ATOM     64  C   UNL A   1      46.400  33.555  28.433  1.00  0.00     0.135 A 
ATOM     65  C   UNL A   1      44.035  33.878  28.518  1.00  0.00     0.135 A 
ATOM     66  F   UNL A   1      47.505  32.802  28.550  1.00  0.00    -0.206 F 
ATOM     67  C   UNL A   1      46.575  34.920  28.192  1.00  0.00     0.059 A 
ATOM     68  C   UNL A   1      44.180  35.225  28.220  1.00  0.00     0.059 A 
ATOM     69  F   UNL A   1      42.785  33.497  28.818  1.00  0.00    -0.206 F 
ATOM     70  C   UNL A   1      45.457  35.746  28.081  1.00  0.00     0.060 A 
BRANCH  70  71
ATOM     71  S   UNL A   1      45.678  37.510  27.794  1.00  0.00     0.124 S 
ATOM     72  O   UNL A   1      46.892  37.527  26.987  1.00  0.00    -0.237 OA
ATOM     73  O   UNL A   1      44.442  37.859  27.101  1.00  0.00    -0.237 OA
ATOM     74  O   UNL A   1      45.808  38.057  29.142  1.00  0.00    -0.744 OA
ENDBRANCH  70  71
ENDBRANCH  49  63
BRANCH  50  75
ATOM     75  C   UNL A   1      36.905  31.171  30.221  1.00  0.00     0.058 A 
ATOM     76  C   UNL A   1      36.085  31.760  31.202  1.00  0.00     0.135 A 
ATOM     77  C   UNL A   1      36.583  31.469  28.882  1.00  0.00     0.135 A 
ATOM     78  F   UNL A   1      36.323  31.532  32.503  1.00  0.00    -0.206 F 
ATOM     79  C   UNL A   1      35.064  32.660  30.880  1.00  0.00     0.059 A 
ATOM     80  C   UNL A   1      35.564  32.357  28.536  1.00  0.00     0.059 A 
ATOM     81  F   UNL A   1      37.316  30.984  27.869  1.00  0.00    -0.206 F 
ATOM     82  C   UNL A   1      34.833  32.977  29.543  1.00  0.00     0.060 A 
BRANCH  82  83
ATOM     83  S   UNL A   1      33.666  34.299  29.135  1.00  0.00     0.124 S 
ATOM     84  O   UNL A   1      32.752  33.623  28.221  1.00  0.00    -0.237 OA
ATOM     85  O   UNL A   1      33.123  34.641  30.445  1.00  0.00    -0.237 OA
ATOM     86  O   UNL A   1      34.512  35.322  28.527  1.00  0.00    -0.744 OA
ENDBRANCH  82  83
ENDBRANCH  50  75
BRANCH  62  87
ATOM     87  C   UNL A   1      41.987  29.524  33.765  1.00  0.00     0.058 A 
ATOM     88  C   UNL A   1      41.649  28.203  33.428  1.00  0.00     0.135 A 
ATOM     89  C   UNL A   1      42.230  29.804  35.119  1.00  0.00     0.135 A 
ATOM     90  F   UNL A   1      41.469  27.843  32.149  1.00  0.00    -0.206 F 
ATOM     91  C   UNL A   1      41.536  27.209  34.403  1.00  0.00     0.059 A 
ATOM     92  C   UNL A   1      42.153  28.826  36.100  1.00  0.00     0.059 A 
ATOM     93  F   UNL A   1      42.595  31.042  35.493  1.00  0.00    -0.206 F 
ATOM     94  C   UNL A   1      41.795  27.530  35.738  1.00  0.00     0.060 A 
BRANCH  94  95
ATOM     95  S   UNL A   1      41.712  26.235  36.994  1.00  0.00     0.124 S 
ATOM     96  O   UNL A   1      41.972  25.031  36.211  1.00  0.00    -0.237 OA
ATOM     97  O   UNL A   1      42.767  26.630  37.922  1.00  0.00    -0.237 OA
ATOM     98  O   UNL A   1      40.354  26.354  37.519  1.00  0.00    -0.744 OA
ENDBRANCH  94  95
ENDBRANCH  62  87
ENDBRANCH  36  37
ENDBRANCH  29  31
ENDBRANCH  28  29
ENDBRANCH  27  28
ENDBRANCH   1  27
TORSDOF 18
ENDMDL
