MODEL 1
REMARK VINA RESULT:     -10.4      0.000      0.000
REMARK SMILES N#C/C(=C/c1cccc(OC2CCCC2)c1)C(=O)OCCOCCOC(=O)c1ccc(-c2c3nc(c(-c4c(F)cc(S(=O)(=O)[O-])cc4F)c4ccc([nH]4)c(-c4c(F)cc(S(=O)(=O)[O-])cc4F)c4nc(c(-c5c(F)cc(S(=O)(=O)[O-])cc5F)c5ccc2[nH]5)C=C4)C=C3)cc1
REMARK SMILES IDX 22 1 21 2 20 3 19 4 17 5 18 6 3 7 4 8 2 9 1 10 5 11 6 12
REMARK SMILES IDX 16 13 7 14 9 15 8 16 10 17 11 18 12 19 15 20 13 21 14 22
REMARK SMILES IDX 23 23 24 24 25 25 26 26 27 27 28 28 29 29 93 30 30 31 92 32
REMARK SMILES IDX 31 33 32 34 33 35 86 36 34 37 91 38 85 39 87 40 35 41 90 42
REMARK SMILES IDX 84 43 83 44 36 46 70 47 49 48 69 49 50 50 53 51 68 52 88 53
REMARK SMILES IDX 51 54 52 55 67 57 89 58 54 59 37 60 38 61 47 62 39 63 40 64
REMARK SMILES IDX 46 65 48 66 41 67 42 68 43 69 44 70 45 71 71 72 72 73 81 74
REMARK SMILES IDX 73 75 74 76 80 77 82 78 75 79 76 80 77 81 78 82 79 83 55 84
REMARK SMILES IDX 56 85 65 86 57 87 58 88 64 89 66 90 59 91 60 92 61 93 62 94
REMARK SMILES IDX 63 95
REMARK H PARENT 87 45 53 56
REMARK Flexibility Score: inf
ROOT
ATOM      1  O   UNL A   1      35.301  23.767  25.079  1.00  0.00    -0.374 OA
ENDROOT
BRANCH   1   2
ATOM      2  C   UNL A   1      34.068  23.067  25.225  1.00  0.00     0.202 C 
BRANCH   2   3
ATOM      3  C   UNL A   1      33.056  23.237  24.090  1.00  0.00     0.261 C 
BRANCH   3   4
ATOM      4  O   UNL A   1      31.719  22.896  24.499  1.00  0.00    -0.459 OA
BRANCH   4   5
ATOM      5  C   UNL A   1      30.812  23.898  24.383  1.00  0.00     0.348 C 
ATOM      6  O   UNL A   1      30.127  24.139  23.398  1.00  0.00    -0.245 OA
BRANCH   5   7
ATOM      7  C   UNL A   1      30.626  24.619  25.669  1.00  0.00     0.137 C 
ATOM      8  C   UNL A   1      30.739  25.951  25.820  1.00  0.00     0.035 C 
BRANCH   7   9
ATOM      9  C   UNL A   1      30.028  23.709  26.729  1.00  0.00     0.107 C 
ATOM     10  N   UNL A   1      29.532  22.954  27.608  1.00  0.00    -0.192 NA
ENDBRANCH   7   9
BRANCH   8  11
ATOM     11  C   UNL A   1      31.082  26.900  24.744  1.00  0.00    -0.020 A 
ATOM     12  C   UNL A   1      32.411  27.300  24.584  1.00  0.00     0.008 A 
ATOM     13  C   UNL A   1      30.096  27.453  23.903  1.00  0.00     0.054 A 
ATOM     14  C   UNL A   1      32.754  28.199  23.573  1.00  0.00     0.004 A 
ATOM     15  C   UNL A   1      30.437  28.309  22.857  1.00  0.00     0.120 A 
ATOM     16  C   UNL A   1      31.772  28.691  22.711  1.00  0.00     0.046 A 
BRANCH  15  17
ATOM     17  O   UNL A   1      29.590  28.859  21.945  1.00  0.00    -0.490 OA
BRANCH  17  18
ATOM     18  C   UNL A   1      28.651  29.884  22.255  1.00  0.00     0.173 C 
ATOM     19  C   UNL A   1      28.959  30.774  23.457  1.00  0.00     0.045 C 
ATOM     20  C   UNL A   1      28.274  30.814  21.097  1.00  0.00     0.045 C 
ATOM     21  C   UNL A   1      28.110  32.011  23.209  1.00  0.00     0.004 C 
ATOM     22  C   UNL A   1      28.199  32.217  21.702  1.00  0.00     0.004 C 
ENDBRANCH  17  18
ENDBRANCH  15  17
ENDBRANCH   8  11
ENDBRANCH   5   7
ENDBRANCH   4   5
ENDBRANCH   3   4
ENDBRANCH   2   3
ENDBRANCH   1   2
BRANCH   1  23
ATOM     23  C   UNL A   1      36.432  23.036  24.607  1.00  0.00     0.202 C 
BRANCH  23  24
ATOM     24  C   UNL A   1      37.822  23.495  25.069  1.00  0.00     0.261 C 
BRANCH  24  25
ATOM     25  O   UNL A   1      38.576  22.484  25.770  1.00  0.00    -0.460 OA
BRANCH  25  26
ATOM     26  C   UNL A   1      39.778  22.904  26.239  1.00  0.00     0.338 C 
ATOM     27  O   UNL A   1      40.848  22.320  26.134  1.00  0.00    -0.246 OA
BRANCH  26  28
ATOM     28  C   UNL A   1      39.703  24.251  26.833  1.00  0.00     0.060 A 
ATOM     29  C   UNL A   1      40.539  25.248  26.313  1.00  0.00     0.016 A 
ATOM     30  C   UNL A   1      38.999  24.466  28.019  1.00  0.00     0.016 A 
ATOM     31  C   UNL A   1      40.720  26.443  27.011  1.00  0.00     0.010 A 
ATOM     32  C   UNL A   1      39.189  25.664  28.721  1.00  0.00     0.010 A 
ATOM     33  C   UNL A   1      40.084  26.639  28.245  1.00  0.00    -0.014 A 
BRANCH  33  34
ATOM     34  C   UNL A   1      40.465  27.791  29.102  1.00  0.00     0.031 A 
ATOM     35  C   UNL A   1      41.780  27.763  29.840  1.00  0.00     0.074 A 
ATOM     36  C   UNL A   1      39.659  28.863  29.214  1.00  0.00     0.049 A 
ATOM     37  N   UNL A   1      42.281  28.637  30.676  1.00  0.00    -0.248 NA
ATOM     38  C   UNL A   1      42.641  26.592  29.608  1.00  0.00     0.031 C 
ATOM     39  C   UNL A   1      38.380  29.036  28.528  1.00  0.00     0.029 A 
ATOM     40  N   UNL A   1      39.801  30.008  29.959  1.00  0.00    -0.354 N 
ATOM     41  C   UNL A   1      43.508  28.120  31.078  1.00  0.00     0.074 A 
ATOM     42  C   UNL A   1      43.668  26.848  30.407  1.00  0.00     0.031 C 
ATOM     43  C   UNL A   1      37.847  30.215  28.893  1.00  0.00     0.029 A 
ATOM     44  C   UNL A   1      38.733  30.866  29.858  1.00  0.00     0.049 A 
ATOM     45  H   UNL A   1      40.591  30.196  30.514  1.00  0.00     0.167 HD
ATOM     46  C   UNL A   1      44.419  28.657  31.926  1.00  0.00     0.037 A 
ATOM     47  C   UNL A   1      38.487  32.034  30.484  1.00  0.00     0.037 A 
ATOM     48  C   UNL A   1      44.272  29.928  32.584  1.00  0.00     0.049 A 
ATOM     49  C   UNL A   1      39.491  32.584  31.464  1.00  0.00     0.074 A 
ATOM     50  C   UNL A   1      45.163  30.567  33.431  1.00  0.00     0.029 A 
ATOM     51  N   UNL A   1      43.164  30.754  32.475  1.00  0.00    -0.354 N 
ATOM     52  N   UNL A   1      40.656  32.093  31.816  1.00  0.00    -0.248 NA
ATOM     53  C   UNL A   1      39.145  33.847  32.134  1.00  0.00     0.031 C 
ATOM     54  C   UNL A   1      44.578  31.763  33.861  1.00  0.00     0.029 A 
ATOM     55  C   UNL A   1      43.338  31.884  33.256  1.00  0.00     0.049 A 
ATOM     56  H   UNL A   1      42.372  30.564  31.923  1.00  0.00     0.167 HD
ATOM     57  C   UNL A   1      41.190  32.998  32.729  1.00  0.00     0.074 A 
ATOM     58  C   UNL A   1      40.224  34.068  32.873  1.00  0.00     0.031 C 
ATOM     59  C   UNL A   1      42.374  32.947  33.387  1.00  0.00     0.037 A 
BRANCH  46  60
ATOM     60  C   UNL A   1      45.656  27.855  32.212  1.00  0.00     0.058 A 
ATOM     61  C   UNL A   1      45.667  26.836  33.176  1.00  0.00     0.135 A 
ATOM     62  C   UNL A   1      46.833  28.079  31.479  1.00  0.00     0.135 A 
ATOM     63  F   UNL A   1      44.572  26.592  33.913  1.00  0.00    -0.206 F 
ATOM     64  C   UNL A   1      46.809  26.079  33.419  1.00  0.00     0.059 A 
ATOM     65  C   UNL A   1      47.981  27.322  31.692  1.00  0.00     0.059 A 
ATOM     66  F   UNL A   1      46.874  29.044  30.546  1.00  0.00    -0.206 F 
ATOM     67  C   UNL A   1      47.963  26.332  32.673  1.00  0.00     0.060 A 
BRANCH  67  68
ATOM     68  S   UNL A   1      49.438  25.341  32.993  1.00  0.00     0.124 S 
ATOM     69  O   UNL A   1      49.771  24.876  31.650  1.00  0.00    -0.237 OA
ATOM     70  O   UNL A   1      50.356  26.318  33.570  1.00  0.00    -0.237 OA
ATOM     71  O   UNL A   1      48.962  24.314  33.914  1.00  0.00    -0.744 OA
ENDBRANCH  67  68
ENDBRANCH  46  60
BRANCH  47  72
ATOM     72  C   UNL A   1      37.223  32.765  30.220  1.00  0.00     0.058 A 
ATOM     73  C   UNL A   1      36.061  32.485  30.953  1.00  0.00     0.135 A 
ATOM     74  C   UNL A   1      37.151  33.751  29.224  1.00  0.00     0.135 A 
ATOM     75  F   UNL A   1      36.081  31.541  31.907  1.00  0.00    -0.206 F 
ATOM     76  C   UNL A   1      34.865  33.148  30.700  1.00  0.00     0.059 A 
ATOM     77  C   UNL A   1      35.972  34.442  28.966  1.00  0.00     0.059 A 
ATOM     78  F   UNL A   1      38.240  34.057  28.501  1.00  0.00    -0.206 F 
ATOM     79  C   UNL A   1      34.830  34.125  29.703  1.00  0.00     0.060 A 
BRANCH  79  80
ATOM     80  S   UNL A   1      33.287  35.016  29.411  1.00  0.00     0.124 S 
ATOM     81  O   UNL A   1      33.778  36.286  28.889  1.00  0.00    -0.237 OA
ATOM     82  O   UNL A   1      32.606  34.151  28.452  1.00  0.00    -0.237 OA
ATOM     83  O   UNL A   1      32.678  35.070  30.736  1.00  0.00    -0.744 OA
ENDBRANCH  79  80
ENDBRANCH  47  72
BRANCH  59  84
ATOM     84  C   UNL A   1      42.711  34.093  34.300  1.00  0.00     0.058 A 
ATOM     85  C   UNL A   1      42.396  34.060  35.666  1.00  0.00     0.135 A 
ATOM     86  C   UNL A   1      43.403  35.212  33.811  1.00  0.00     0.135 A 
ATOM     87  F   UNL A   1      41.729  33.015  36.181  1.00  0.00    -0.206 F 
ATOM     88  C   UNL A   1      42.738  35.107  36.515  1.00  0.00     0.059 A 
ATOM     89  C   UNL A   1      43.773  36.263  34.645  1.00  0.00     0.059 A 
ATOM     90  F   UNL A   1      43.737  35.287  32.513  1.00  0.00    -0.206 F 
ATOM     91  C   UNL A   1      43.427  36.206  35.995  1.00  0.00     0.060 A 
BRANCH  91  92
ATOM     92  S   UNL A   1      43.900  37.546  37.110  1.00  0.00     0.124 S 
ATOM     93  O   UNL A   1      42.735  37.626  37.984  1.00  0.00    -0.237 OA
ATOM     94  O   UNL A   1      45.120  37.032  37.726  1.00  0.00    -0.237 OA
ATOM     95  O   UNL A   1      44.091  38.681  36.211  1.00  0.00    -0.744 OA
ENDBRANCH  91  92
ENDBRANCH  59  84
ENDBRANCH  33  34
ENDBRANCH  26  28
ENDBRANCH  25  26
ENDBRANCH  24  25
ENDBRANCH  23  24
ENDBRANCH   1  23
TORSDOF 21
ENDMDL
MODEL 2
REMARK VINA RESULT:     -10.4      5.562     11.440
REMARK SMILES N#C/C(=C/c1cccc(OC2CCCC2)c1)C(=O)OCCOCCOC(=O)c1ccc(-c2c3nc(c(-c4c(F)cc(S(=O)(=O)[O-])cc4F)c4ccc([nH]4)c(-c4c(F)cc(S(=O)(=O)[O-])cc4F)c4nc(c(-c5c(F)cc(S(=O)(=O)[O-])cc5F)c5ccc2[nH]5)C=C4)C=C3)cc1
REMARK SMILES IDX 22 1 21 2 20 3 19 4 17 5 18 6 3 7 4 8 2 9 1 10 5 11 6 12
REMARK SMILES IDX 16 13 7 14 9 15 8 16 10 17 11 18 12 19 15 20 13 21 14 22
REMARK SMILES IDX 23 23 24 24 25 25 26 26 27 27 28 28 29 29 93 30 30 31 92 32
REMARK SMILES IDX 31 33 32 34 33 35 86 36 34 37 91 38 85 39 87 40 35 41 90 42
REMARK SMILES IDX 84 43 83 44 36 46 70 47 49 48 69 49 50 50 53 51 68 52 88 53
REMARK SMILES IDX 51 54 52 55 67 57 89 58 54 59 37 60 38 61 47 62 39 63 40 64
REMARK SMILES IDX 46 65 48 66 41 67 42 68 43 69 44 70 45 71 71 72 72 73 81 74
REMARK SMILES IDX 73 75 74 76 80 77 82 78 75 79 76 80 77 81 78 82 79 83 55 84
REMARK SMILES IDX 56 85 65 86 57 87 58 88 64 89 66 90 59 91 60 92 61 93 62 94
REMARK SMILES IDX 63 95
REMARK H PARENT 87 45 53 56
REMARK Flexibility Score: inf
ROOT
ATOM      1  O   UNL A   1      37.627  33.037  33.416  1.00  0.00    -0.374 OA
ENDROOT
BRANCH   1   2
ATOM      2  C   UNL A   1      36.801  33.978  34.096  1.00  0.00     0.202 C 
BRANCH   2   3
ATOM      3  C   UNL A   1      36.015  34.950  33.214  1.00  0.00     0.261 C 
BRANCH   3   4
ATOM      4  O   UNL A   1      34.598  34.871  33.449  1.00  0.00    -0.459 OA
BRANCH   4   5
ATOM      5  C   UNL A   1      33.885  34.276  32.460  1.00  0.00     0.348 C 
ATOM      6  O   UNL A   1      33.654  33.079  32.359  1.00  0.00    -0.245 OA
BRANCH   5   7
ATOM      7  C   UNL A   1      33.272  35.277  31.549  1.00  0.00     0.137 C 
ATOM      8  C   UNL A   1      33.423  35.287  30.212  1.00  0.00     0.035 C 
BRANCH   7   9
ATOM      9  C   UNL A   1      32.239  36.123  32.275  1.00  0.00     0.107 C 
ATOM     10  N   UNL A   1      31.381  36.824  32.878  1.00  0.00    -0.192 NA
ENDBRANCH   7   9
BRANCH   8  11
ATOM     11  C   UNL A   1      34.232  34.321  29.445  1.00  0.00    -0.020 A 
ATOM     12  C   UNL A   1      35.623  34.335  29.580  1.00  0.00     0.008 A 
ATOM     13  C   UNL A   1      33.643  33.417  28.540  1.00  0.00     0.054 A 
ATOM     14  C   UNL A   1      36.405  33.431  28.860  1.00  0.00     0.004 A 
ATOM     15  C   UNL A   1      34.411  32.475  27.857  1.00  0.00     0.120 A 
ATOM     16  C   UNL A   1      35.798  32.502  28.012  1.00  0.00     0.046 A 
BRANCH  15  17
ATOM     17  O   UNL A   1      33.957  31.514  27.006  1.00  0.00    -0.490 OA
BRANCH  17  18
ATOM     18  C   UNL A   1      33.552  30.215  27.425  1.00  0.00     0.173 C 
ATOM     19  C   UNL A   1      32.078  29.852  27.251  1.00  0.00     0.045 C 
ATOM     20  C   UNL A   1      34.367  29.048  26.856  1.00  0.00     0.045 C 
ATOM     21  C   UNL A   1      32.081  28.332  27.282  1.00  0.00     0.004 C 
ATOM     22  C   UNL A   1      33.349  27.955  26.527  1.00  0.00     0.004 C 
ENDBRANCH  17  18
ENDBRANCH  15  17
ENDBRANCH   8  11
ENDBRANCH   5   7
ENDBRANCH   4   5
ENDBRANCH   3   4
ENDBRANCH   2   3
ENDBRANCH   1   2
BRANCH   1  23
ATOM     23  C   UNL A   1      37.089  32.381  32.269  1.00  0.00     0.202 C 
BRANCH  23  24
ATOM     24  C   UNL A   1      36.040  31.284  32.501  1.00  0.00     0.261 C 
BRANCH  24  25
ATOM     25  O   UNL A   1      36.480  29.959  32.137  1.00  0.00    -0.460 OA
BRANCH  25  26
ATOM     26  C   UNL A   1      36.640  29.768  30.803  1.00  0.00     0.338 C 
ATOM     27  O   UNL A   1      35.753  29.595  29.978  1.00  0.00    -0.246 OA
BRANCH  26  28
ATOM     28  C   UNL A   1      38.048  29.894  30.389  1.00  0.00     0.060 A 
ATOM     29  C   UNL A   1      38.331  29.924  29.017  1.00  0.00     0.016 A 
ATOM     30  C   UNL A   1      39.078  29.752  31.320  1.00  0.00     0.016 A 
ATOM     31  C   UNL A   1      39.643  29.752  28.569  1.00  0.00     0.010 A 
ATOM     32  C   UNL A   1      40.392  29.572  30.868  1.00  0.00     0.010 A 
ATOM     33  C   UNL A   1      40.675  29.526  29.491  1.00  0.00    -0.014 A 
BRANCH  33  34
ATOM     34  C   UNL A   1      42.016  29.098  29.013  1.00  0.00     0.031 A 
ATOM     35  C   UNL A   1      43.140  30.102  28.964  1.00  0.00     0.074 A 
ATOM     36  C   UNL A   1      42.241  27.825  28.639  1.00  0.00     0.049 A 
ATOM     37  N   UNL A   1      44.368  29.952  28.536  1.00  0.00    -0.248 NA
ATOM     38  C   UNL A   1      42.839  31.454  29.461  1.00  0.00     0.031 C 
ATOM     39  C   UNL A   1      41.254  26.747  28.671  1.00  0.00     0.029 A 
ATOM     40  N   UNL A   1      43.376  27.230  28.149  1.00  0.00    -0.354 N 
ATOM     41  C   UNL A   1      44.982  31.189  28.699  1.00  0.00     0.074 A 
ATOM     42  C   UNL A   1      43.987  32.083  29.252  1.00  0.00     0.031 C 
ATOM     43  C   UNL A   1      41.825  25.621  28.209  1.00  0.00     0.029 A 
ATOM     44  C   UNL A   1      43.208  25.906  27.823  1.00  0.00     0.049 A 
ATOM     45  H   UNL A   1      44.231  27.706  28.039  1.00  0.00     0.167 HD
ATOM     46  C   UNL A   1      46.259  31.547  28.418  1.00  0.00     0.037 A 
ATOM     47  C   UNL A   1      44.062  25.028  27.262  1.00  0.00     0.037 A 
ATOM     48  C   UNL A   1      47.257  30.659  27.884  1.00  0.00     0.049 A 
ATOM     49  C   UNL A   1      45.460  25.464  26.909  1.00  0.00     0.074 A 
ATOM     50  C   UNL A   1      48.587  30.927  27.604  1.00  0.00     0.029 A 
ATOM     51  N   UNL A   1      47.038  29.333  27.544  1.00  0.00    -0.354 N 
ATOM     52  N   UNL A   1      46.031  26.631  27.091  1.00  0.00    -0.248 NA
ATOM     53  C   UNL A   1      46.329  24.464  26.271  1.00  0.00     0.031 C 
ATOM     54  C   UNL A   1      49.163  29.773  27.062  1.00  0.00     0.029 A 
ATOM     55  C   UNL A   1      48.200  28.777  27.036  1.00  0.00     0.049 A 
ATOM     56  H   UNL A   1      46.183  28.858  27.649  1.00  0.00     0.167 HD
ATOM     57  C   UNL A   1      47.331  26.497  26.612  1.00  0.00     0.074 A 
ATOM     58  C   UNL A   1      47.465  25.136  26.136  1.00  0.00     0.031 C 
ATOM     59  C   UNL A   1      48.325  27.418  26.571  1.00  0.00     0.037 A 
BRANCH  46  60
ATOM     60  C   UNL A   1      46.649  32.977  28.663  1.00  0.00     0.058 A 
ATOM     61  C   UNL A   1      46.508  33.959  27.671  1.00  0.00     0.135 A 
ATOM     62  C   UNL A   1      47.124  33.377  29.923  1.00  0.00     0.135 A 
ATOM     63  F   UNL A   1      46.071  33.625  26.448  1.00  0.00    -0.206 F 
ATOM     64  C   UNL A   1      46.846  35.287  27.913  1.00  0.00     0.059 A 
ATOM     65  C   UNL A   1      47.450  34.703  30.192  1.00  0.00     0.059 A 
ATOM     66  F   UNL A   1      47.277  32.475  30.905  1.00  0.00    -0.206 F 
ATOM     67  C   UNL A   1      47.319  35.649  29.176  1.00  0.00     0.060 A 
BRANCH  67  68
ATOM     68  S   UNL A   1      47.751  37.375  29.480  1.00  0.00     0.124 S 
ATOM     69  O   UNL A   1      48.134  37.335  30.888  1.00  0.00    -0.237 OA
ATOM     70  O   UNL A   1      48.839  37.601  28.534  1.00  0.00    -0.237 OA
ATOM     71  O   UNL A   1      46.513  38.090  29.187  1.00  0.00    -0.744 OA
ENDBRANCH  67  68
ENDBRANCH  46  60
BRANCH  47  72
ATOM     72  C   UNL A   1      43.618  23.640  26.979  1.00  0.00     0.058 A 
ATOM     73  C   UNL A   1      43.472  22.704  28.013  1.00  0.00     0.135 A 
ATOM     74  C   UNL A   1      43.341  23.221  25.668  1.00  0.00     0.135 A 
ATOM     75  F   UNL A   1      43.738  23.058  29.279  1.00  0.00    -0.206 F 
ATOM     76  C   UNL A   1      43.078  21.396  27.757  1.00  0.00     0.059 A 
ATOM     77  C   UNL A   1      42.926  21.924  25.390  1.00  0.00     0.059 A 
ATOM     78  F   UNL A   1      43.461  24.084  24.647  1.00  0.00    -0.206 F 
ATOM     79  C   UNL A   1      42.807  21.014  26.442  1.00  0.00     0.060 A 
BRANCH  79  80
ATOM     80  S   UNL A   1      42.250  19.327  26.121  1.00  0.00     0.124 S 
ATOM     81  O   UNL A   1      43.013  18.990  24.924  1.00  0.00    -0.237 OA
ATOM     82  O   UNL A   1      42.641  18.632  27.344  1.00  0.00    -0.237 OA
ATOM     83  O   UNL A   1      40.811  19.482  25.931  1.00  0.00    -0.744 OA
ENDBRANCH  79  80
ENDBRANCH  47  72
BRANCH  59  84
ATOM     84  C   UNL A   1      49.655  26.983  26.024  1.00  0.00     0.058 A 
ATOM     85  C   UNL A   1      50.612  26.356  26.834  1.00  0.00     0.135 A 
ATOM     86  C   UNL A   1      49.954  27.149  24.662  1.00  0.00     0.135 A 
ATOM     87  F   UNL A   1      50.377  26.179  28.144  1.00  0.00    -0.206 F 
ATOM     88  C   UNL A   1      51.830  25.924  26.318  1.00  0.00     0.059 A 
ATOM     89  C   UNL A   1      51.157  26.708  24.120  1.00  0.00     0.059 A 
ATOM     90  F   UNL A   1      49.067  27.735  23.842  1.00  0.00    -0.206 F 
ATOM     91  C   UNL A   1      52.094  26.105  24.959  1.00  0.00     0.060 A 
BRANCH  91  92
ATOM     92  S   UNL A   1      53.662  25.511  24.288  1.00  0.00     0.124 S 
ATOM     93  O   UNL A   1      53.525  25.851  22.876  1.00  0.00    -0.237 OA
ATOM     94  O   UNL A   1      54.644  26.291  25.035  1.00  0.00    -0.237 OA
ATOM     95  O   UNL A   1      53.641  24.084  24.596  1.00  0.00    -0.744 OA
ENDBRANCH  91  92
ENDBRANCH  59  84
ENDBRANCH  33  34
ENDBRANCH  26  28
ENDBRANCH  25  26
ENDBRANCH  24  25
ENDBRANCH  23  24
ENDBRANCH   1  23
TORSDOF 21
ENDMDL
MODEL 3
REMARK VINA RESULT:     -10.3      2.683      3.907
REMARK SMILES N#C/C(=C/c1cccc(OC2CCCC2)c1)C(=O)OCCOCCOC(=O)c1ccc(-c2c3nc(c(-c4c(F)cc(S(=O)(=O)[O-])cc4F)c4ccc([nH]4)c(-c4c(F)cc(S(=O)(=O)[O-])cc4F)c4nc(c(-c5c(F)cc(S(=O)(=O)[O-])cc5F)c5ccc2[nH]5)C=C4)C=C3)cc1
REMARK SMILES IDX 22 1 21 2 20 3 19 4 17 5 18 6 3 7 4 8 2 9 1 10 5 11 6 12
REMARK SMILES IDX 16 13 7 14 9 15 8 16 10 17 11 18 12 19 15 20 13 21 14 22
REMARK SMILES IDX 23 23 24 24 25 25 26 26 27 27 28 28 29 29 93 30 30 31 92 32
REMARK SMILES IDX 31 33 32 34 33 35 86 36 34 37 91 38 85 39 87 40 35 41 90 42
REMARK SMILES IDX 84 43 83 44 36 46 70 47 49 48 69 49 50 50 53 51 68 52 88 53
REMARK SMILES IDX 51 54 52 55 67 57 89 58 54 59 37 60 38 61 47 62 39 63 40 64
REMARK SMILES IDX 46 65 48 66 41 67 42 68 43 69 44 70 45 71 71 72 72 73 81 74
REMARK SMILES IDX 73 75 74 76 80 77 82 78 75 79 76 80 77 81 78 82 79 83 55 84
REMARK SMILES IDX 56 85 65 86 57 87 58 88 64 89 66 90 59 91 60 92 61 93 62 94
REMARK SMILES IDX 63 95
REMARK H PARENT 87 45 53 56
REMARK Flexibility Score: inf
ROOT
ATOM      1  O   UNL A   1      37.500  23.498  25.051  1.00  0.00    -0.374 OA
ENDROOT
BRANCH   1   2
ATOM      2  C   UNL A   1      36.102  23.738  24.920  1.00  0.00     0.202 C 
BRANCH   2   3
ATOM      3  C   UNL A   1      35.205  23.115  25.992  1.00  0.00     0.261 C 
BRANCH   3   4
ATOM      4  O   UNL A   1      35.134  21.683  25.876  1.00  0.00    -0.459 OA
BRANCH   4   5
ATOM      5  C   UNL A   1      34.023  21.119  26.413  1.00  0.00     0.348 C 
ATOM      6  O   UNL A   1      33.672  21.193  27.582  1.00  0.00    -0.245 OA
BRANCH   5   7
ATOM      7  C   UNL A   1      33.169  20.494  25.371  1.00  0.00     0.137 C 
ATOM      8  C   UNL A   1      32.084  21.072  24.824  1.00  0.00     0.035 C 
BRANCH   7   9
ATOM      9  C   UNL A   1      33.820  19.243  24.803  1.00  0.00     0.107 C 
ATOM     10  N   UNL A   1      34.361  18.206  24.332  1.00  0.00    -0.192 NA
ENDBRANCH   7   9
BRANCH   8  11
ATOM     11  C   UNL A   1      31.563  22.404  25.184  1.00  0.00    -0.020 A 
ATOM     12  C   UNL A   1      30.760  22.539  26.320  1.00  0.00     0.008 A 
ATOM     13  C   UNL A   1      31.812  23.537  24.385  1.00  0.00     0.054 A 
ATOM     14  C   UNL A   1      30.255  23.791  26.675  1.00  0.00     0.004 A 
ATOM     15  C   UNL A   1      31.356  24.800  24.761  1.00  0.00     0.120 A 
ATOM     16  C   UNL A   1      30.561  24.913  25.903  1.00  0.00     0.046 A 
BRANCH  15  17
ATOM     17  O   UNL A   1      31.580  25.974  24.110  1.00  0.00    -0.490 OA
BRANCH  17  18
ATOM     18  C   UNL A   1      30.855  27.172  24.369  1.00  0.00     0.173 C 
ATOM     19  C   UNL A   1      31.655  28.470  24.449  1.00  0.00     0.045 C 
ATOM     20  C   UNL A   1      29.662  27.440  23.444  1.00  0.00     0.045 C 
ATOM     21  C   UNL A   1      30.608  29.547  24.210  1.00  0.00     0.004 C 
ATOM     22  C   UNL A   1      29.697  28.941  23.149  1.00  0.00     0.004 C 
ENDBRANCH  17  18
ENDBRANCH  15  17
ENDBRANCH   8  11
ENDBRANCH   5   7
ENDBRANCH   4   5
ENDBRANCH   3   4
ENDBRANCH   2   3
ENDBRANCH   1   2
BRANCH   1  23
ATOM     23  C   UNL A   1      37.942  22.705  26.152  1.00  0.00     0.202 C 
BRANCH  23  24
ATOM     24  C   UNL A   1      39.456  22.572  26.374  1.00  0.00     0.261 C 
BRANCH  24  25
ATOM     25  O   UNL A   1      40.181  23.814  26.261  1.00  0.00    -0.460 OA
BRANCH  25  26
ATOM     26  C   UNL A   1      40.991  24.089  27.315  1.00  0.00     0.338 C 
ATOM     27  O   UNL A   1      41.951  23.430  27.690  1.00  0.00    -0.246 OA
BRANCH  26  28
ATOM     28  C   UNL A   1      40.659  25.378  27.948  1.00  0.00     0.060 A 
ATOM     29  C   UNL A   1      41.662  26.354  28.018  1.00  0.00     0.016 A 
ATOM     30  C   UNL A   1      39.469  25.534  28.659  1.00  0.00     0.016 A 
ATOM     31  C   UNL A   1      41.499  27.465  28.849  1.00  0.00     0.010 A 
ATOM     32  C   UNL A   1      39.312  26.646  29.498  1.00  0.00     0.010 A 
ATOM     33  C   UNL A   1      40.344  27.593  29.632  1.00  0.00    -0.014 A 
BRANCH  33  34
ATOM     34  C   UNL A   1      40.277  28.631  30.693  1.00  0.00     0.031 A 
ATOM     35  C   UNL A   1      41.201  28.537  31.881  1.00  0.00     0.074 A 
ATOM     36  C   UNL A   1      39.415  29.660  30.598  1.00  0.00     0.049 A 
ATOM     37  N   UNL A   1      41.274  29.306  32.938  1.00  0.00    -0.248 NA
ATOM     38  C   UNL A   1      42.169  27.428  31.878  1.00  0.00     0.031 C 
ATOM     39  C   UNL A   1      38.493  29.890  29.488  1.00  0.00     0.029 A 
ATOM     40  N   UNL A   1      39.172  30.699  31.461  1.00  0.00    -0.354 N 
ATOM     41  C   UNL A   1      42.283  28.770  33.731  1.00  0.00     0.074 A 
ATOM     42  C   UNL A   1      42.784  27.601  33.039  1.00  0.00     0.031 C 
ATOM     43  C   UNL A   1      37.775  30.998  29.742  1.00  0.00     0.029 A 
ATOM     44  C   UNL A   1      38.167  31.538  31.044  1.00  0.00     0.049 A 
ATOM     45  H   UNL A   1      39.669  30.831  32.300  1.00  0.00     0.167 HD
ATOM     46  C   UNL A   1      42.753  29.211  34.923  1.00  0.00     0.037 A 
ATOM     47  C   UNL A   1      37.613  32.607  31.650  1.00  0.00     0.037 A 
ATOM     48  C   UNL A   1      42.270  30.381  35.608  1.00  0.00     0.049 A 
ATOM     49  C   UNL A   1      38.115  33.047  33.000  1.00  0.00     0.074 A 
ATOM     50  C   UNL A   1      42.713  30.924  36.802  1.00  0.00     0.029 A 
ATOM     51  N   UNL A   1      41.233  31.188  35.164  1.00  0.00    -0.354 N 
ATOM     52  N   UNL A   1      39.086  32.542  33.725  1.00  0.00    -0.248 NA
ATOM     53  C   UNL A   1      37.445  34.202  33.616  1.00  0.00     0.031 C 
ATOM     54  C   UNL A   1      41.921  32.039  37.098  1.00  0.00     0.029 A 
ATOM     55  C   UNL A   1      41.007  32.209  36.071  1.00  0.00     0.049 A 
ATOM     56  H   UNL A   1      40.733  31.054  34.327  1.00  0.00     0.167 HD
ATOM     57  C   UNL A   1      39.156  33.331  34.869  1.00  0.00     0.074 A 
ATOM     58  C   UNL A   1      38.134  34.350  34.740  1.00  0.00     0.031 C 
ATOM     59  C   UNL A   1      39.992  33.223  35.930  1.00  0.00     0.037 A 
BRANCH  46  60
ATOM     60  C   UNL A   1      43.838  28.409  35.582  1.00  0.00     0.058 A 
ATOM     61  C   UNL A   1      43.545  27.384  36.495  1.00  0.00     0.135 A 
ATOM     62  C   UNL A   1      45.185  28.637  35.260  1.00  0.00     0.135 A 
ATOM     63  F   UNL A   1      42.274  27.135  36.846  1.00  0.00    -0.206 F 
ATOM     64  C   UNL A   1      44.554  26.626  37.082  1.00  0.00     0.059 A 
ATOM     65  C   UNL A   1      46.208  27.879  35.821  1.00  0.00     0.059 A 
ATOM     66  F   UNL A   1      45.517  29.607  34.393  1.00  0.00    -0.206 F 
ATOM     67  C   UNL A   1      45.883  26.884  36.741  1.00  0.00     0.060 A 
BRANCH  67  68
ATOM     68  S   UNL A   1      47.184  25.892  37.506  1.00  0.00     0.124 S 
ATOM     69  O   UNL A   1      47.455  26.656  38.720  1.00  0.00    -0.237 OA
ATOM     70  O   UNL A   1      46.525  24.604  37.702  1.00  0.00    -0.237 OA
ATOM     71  O   UNL A   1      48.248  25.902  36.507  1.00  0.00    -0.744 OA
ENDBRANCH  67  68
ENDBRANCH  46  60
BRANCH  47  72
ATOM     72  C   UNL A   1      36.500  33.336  30.992  1.00  0.00     0.058 A 
ATOM     73  C   UNL A   1      36.720  34.100  29.837  1.00  0.00     0.135 A 
ATOM     74  C   UNL A   1      35.197  33.291  31.512  1.00  0.00     0.135 A 
ATOM     75  F   UNL A   1      37.953  34.181  29.312  1.00  0.00    -0.206 F 
ATOM     76  C   UNL A   1      35.690  34.804  29.225  1.00  0.00     0.059 A 
ATOM     77  C   UNL A   1      34.146  33.971  30.906  1.00  0.00     0.059 A 
ATOM     78  F   UNL A   1      34.937  32.568  32.613  1.00  0.00    -0.206 F 
ATOM     79  C   UNL A   1      34.406  34.734  29.767  1.00  0.00     0.060 A 
BRANCH  79  80
ATOM     80  S   UNL A   1      33.062  35.614  28.941  1.00  0.00     0.124 S 
ATOM     81  O   UNL A   1      32.537  34.580  28.057  1.00  0.00    -0.237 OA
ATOM     82  O   UNL A   1      32.204  35.993  30.061  1.00  0.00    -0.237 OA
ATOM     83  O   UNL A   1      33.745  36.723  28.283  1.00  0.00    -0.744 OA
ENDBRANCH  79  80
ENDBRANCH  47  72
BRANCH  59  84
ATOM     84  C   UNL A   1      39.865  34.246  37.024  1.00  0.00     0.058 A 
ATOM     85  C   UNL A   1      40.414  35.530  36.895  1.00  0.00     0.135 A 
ATOM     86  C   UNL A   1      39.142  33.954  38.191  1.00  0.00     0.135 A 
ATOM     87  F   UNL A   1      41.118  35.856  35.800  1.00  0.00    -0.206 F 
ATOM     88  C   UNL A   1      40.266  36.486  37.894  1.00  0.00     0.059 A 
ATOM     89  C   UNL A   1      38.966  34.900  39.196  1.00  0.00     0.059 A 
ATOM     90  F   UNL A   1      38.589  32.742  38.359  1.00  0.00    -0.206 F 
ATOM     91  C   UNL A   1      39.540  36.161  39.043  1.00  0.00     0.060 A 
BRANCH  91  92
ATOM     92  S   UNL A   1      39.323  37.419  40.321  1.00  0.00     0.124 S 
ATOM     93  O   UNL A   1      38.610  36.671  41.351  1.00  0.00    -0.237 OA
ATOM     94  O   UNL A   1      40.699  37.786  40.643  1.00  0.00    -0.237 OA
ATOM     95  O   UNL A   1      38.548  38.455  39.646  1.00  0.00    -0.744 OA
ENDBRANCH  91  92
ENDBRANCH  59  84
ENDBRANCH  33  34
ENDBRANCH  26  28
ENDBRANCH  25  26
ENDBRANCH  24  25
ENDBRANCH  23  24
ENDBRANCH   1  23
TORSDOF 21
ENDMDL
