MODEL 1
REMARK VINA RESULT:      -9.6      0.000      0.000
REMARK SMILES C[N@H+]1CCO[C@H](CNc2nnc(SCC(=O)OCCOCCOC(=O)c3ccc(-c4c5nc(c(-c6c(F)cc(S(=O)(=O)[O-])cc6F)c6ccc([nH]6)c(-c6c(F)cc(S(=O)(=O)[O-])cc6F)c6nc(c(-c7c(F)cc(S(=O)(=O)[O-])cc7F)c7ccc4[nH]7)C=C6)C=C5)cc3)s2)C1
REMARK SMILES IDX 19 1 18 2 17 3 15 4 16 5 14 6 13 7 12 8 9 9 10 10 92 11
REMARK SMILES IDX 11 12 8 13 7 15 6 16 1 17 2 18 3 19 93 20 4 22 5 23 20 24
REMARK SMILES IDX 21 25 22 26 23 27 24 28 25 29 26 30 27 31 91 32 28 33 90 34
REMARK SMILES IDX 29 35 30 36 31 37 84 38 32 39 89 40 83 41 85 42 33 43 88 44
REMARK SMILES IDX 82 45 81 46 34 48 68 49 47 50 67 51 48 52 51 53 66 54 86 55
REMARK SMILES IDX 49 56 50 57 65 59 87 60 52 61 35 62 36 63 45 64 37 65 38 66
REMARK SMILES IDX 44 67 46 68 39 69 40 70 41 71 42 72 43 73 69 74 70 75 79 76
REMARK SMILES IDX 71 77 72 78 78 79 80 80 73 81 74 82 75 83 76 84 77 85 53 86
REMARK SMILES IDX 54 87 63 88 55 89 56 90 62 91 64 92 57 93 58 94 59 95 60 96
REMARK SMILES IDX 61 97
REMARK H PARENT 8 14 2 21 85 47 51 58
REMARK Flexibility Score: inf
ROOT
ATOM      1  C   UNL A   1      41.754  22.468  27.202  1.00  0.00     0.202 C 
ENDROOT
BRANCH   1   2
ATOM      2  C   UNL A   1      40.236  22.499  27.434  1.00  0.00     0.261 C 
BRANCH   2   3
ATOM      3  O   UNL A   1      39.468  22.652  26.220  1.00  0.00    -0.463 OA
BRANCH   3   4
ATOM      4  C   UNL A   1      38.829  21.540  25.768  1.00  0.00     0.316 C 
ATOM      5  O   UNL A   1      39.349  20.428  25.702  1.00  0.00    -0.251 OA
BRANCH   4   6
ATOM      6  C   UNL A   1      37.387  21.733  25.341  1.00  0.00     0.200 C 
BRANCH   6   7
ATOM      7  S   UNL A   1      36.833  23.416  25.042  1.00  0.00    -0.082 SA
BRANCH   7   8
ATOM      8  C   UNL A   1      35.366  23.325  24.086  1.00  0.00     0.176 A 
ATOM      9  C   UNL A   1      33.299  23.767  22.966  1.00  0.00     0.206 A 
ATOM     10  N   UNL A   1      34.270  23.453  22.136  1.00  0.00    -0.119 NA
ATOM     11  S   UNL A   1      33.733  23.430  24.613  1.00  0.00    -0.069 S 
ATOM     12  N   UNL A   1      35.472  23.233  22.778  1.00  0.00    -0.130 NA
BRANCH   9  13
ATOM     13  N   UNL A   1      32.127  24.312  22.541  1.00  0.00    -0.357 N 
ATOM     14  H   UNL A   1      31.326  23.740  22.506  1.00  0.00     0.163 HD
BRANCH  13  15
ATOM     15  C   UNL A   1      32.006  25.713  22.138  1.00  0.00     0.153 C 
BRANCH  15  16
ATOM     16  C   UNL A   1      31.886  26.675  23.356  1.00  0.00     0.192 C 
ATOM     17  C   UNL A   1      32.777  29.375  24.746  1.00  0.00     0.332 C 
ATOM     18  N   UNL A   1      33.252  28.021  25.028  1.00  0.00    -0.333 N 
ATOM     19  C   UNL A   1      32.427  27.370  26.069  1.00  0.00     0.290 C 
ATOM     20  C   UNL A   1      33.275  27.161  23.825  1.00  0.00     0.296 C 
ATOM     21  H   UNL A   1      34.210  28.127  25.362  1.00  0.00     0.348 HD
ATOM     22  C   UNL A   1      31.055  26.880  25.568  1.00  0.00     0.222 C 
ATOM     23  O   UNL A   1      31.192  26.014  24.431  1.00  0.00    -0.365 OA
ENDBRANCH  15  16
ENDBRANCH  13  15
ENDBRANCH   9  13
ENDBRANCH   7   8
ENDBRANCH   6   7
ENDBRANCH   4   6
ENDBRANCH   3   4
ENDBRANCH   2   3
ENDBRANCH   1   2
BRANCH   1  24
ATOM     24  O   UNL A   1      42.204  22.435  25.846  1.00  0.00    -0.374 OA
BRANCH  24  25
ATOM     25  C   UNL A   1      43.470  23.018  25.571  1.00  0.00     0.202 C 
BRANCH  25  26
ATOM     26  C   UNL A   1      43.487  24.357  24.828  1.00  0.00     0.261 C 
BRANCH  26  27
ATOM     27  O   UNL A   1      43.495  25.491  25.681  1.00  0.00    -0.460 OA
BRANCH  27  28
ATOM     28  C   UNL A   1      42.262  25.985  25.915  1.00  0.00     0.338 C 
ATOM     29  O   UNL A   1      41.259  25.866  25.223  1.00  0.00    -0.246 OA
BRANCH  28  30
ATOM     30  C   UNL A   1      42.238  26.577  27.249  1.00  0.00     0.060 A 
ATOM     31  C   UNL A   1      41.231  26.139  28.113  1.00  0.00     0.016 A 
ATOM     32  C   UNL A   1      43.124  27.595  27.610  1.00  0.00     0.016 A 
ATOM     33  C   UNL A   1      41.052  26.782  29.325  1.00  0.00     0.010 A 
ATOM     34  C   UNL A   1      42.942  28.240  28.830  1.00  0.00     0.010 A 
ATOM     35  C   UNL A   1      41.875  27.865  29.664  1.00  0.00    -0.014 A 
BRANCH  35  36
ATOM     36  C   UNL A   1      41.488  28.700  30.816  1.00  0.00     0.031 A 
ATOM     37  C   UNL A   1      42.307  28.608  32.072  1.00  0.00     0.074 A 
ATOM     38  C   UNL A   1      40.478  29.576  30.694  1.00  0.00     0.049 A 
ATOM     39  N   UNL A   1      42.194  29.288  33.182  1.00  0.00    -0.248 NA
ATOM     40  C   UNL A   1      43.404  27.624  32.078  1.00  0.00     0.031 C 
ATOM     41  C   UNL A   1      39.653  29.749  29.498  1.00  0.00     0.029 A 
ATOM     42  N   UNL A   1      39.982  30.491  31.582  1.00  0.00    -0.354 N 
ATOM     43  C   UNL A   1      43.205  28.819  34.014  1.00  0.00     0.074 A 
ATOM     44  C   UNL A   1      43.899  27.773  33.298  1.00  0.00     0.031 C 
ATOM     45  C   UNL A   1      38.751  30.718  29.728  1.00  0.00     0.029 A 
ATOM     46  C   UNL A   1      38.925  31.215  31.091  1.00  0.00     0.049 A 
ATOM     47  H   UNL A   1      40.350  30.618  32.487  1.00  0.00     0.167 HD
ATOM     48  C   UNL A   1      43.529  29.239  35.259  1.00  0.00     0.037 A 
ATOM     49  C   UNL A   1      38.180  32.165  31.684  1.00  0.00     0.037 A 
ATOM     50  C   UNL A   1      42.821  30.281  35.953  1.00  0.00     0.049 A 
ATOM     51  C   UNL A   1      38.532  32.582  33.088  1.00  0.00     0.074 A 
ATOM     52  C   UNL A   1      43.055  30.789  37.218  1.00  0.00     0.029 A 
ATOM     53  N   UNL A   1      41.736  30.975  35.435  1.00  0.00    -0.354 N 
ATOM     54  N   UNL A   1      39.502  32.145  33.858  1.00  0.00    -0.248 NA
ATOM     55  C   UNL A   1      37.700  33.624  33.700  1.00  0.00     0.031 C 
ATOM     56  C   UNL A   1      42.088  31.767  37.477  1.00  0.00     0.029 A 
ATOM     57  C   UNL A   1      41.279  31.897  36.359  1.00  0.00     0.049 A 
ATOM     58  H   UNL A   1      41.349  30.831  34.542  1.00  0.00     0.167 HD
ATOM     59  C   UNL A   1      39.410  32.874  35.036  1.00  0.00     0.074 A 
ATOM     60  C   UNL A   1      38.297  33.788  34.872  1.00  0.00     0.031 C 
ATOM     61  C   UNL A   1      40.172  32.798  36.156  1.00  0.00     0.037 A 
BRANCH  48  62
ATOM     62  C   UNL A   1      44.681  28.563  35.945  1.00  0.00     0.058 A 
ATOM     63  C   UNL A   1      44.490  27.454  36.783  1.00  0.00     0.135 A 
ATOM     64  C   UNL A   1      45.996  29.013  35.743  1.00  0.00     0.135 A 
ATOM     65  F   UNL A   1      43.253  26.998  37.030  1.00  0.00    -0.206 F 
ATOM     66  C   UNL A   1      45.561  26.823  37.411  1.00  0.00     0.059 A 
ATOM     67  C   UNL A   1      47.084  28.384  36.343  1.00  0.00     0.059 A 
ATOM     68  F   UNL A   1      46.233  30.075  34.958  1.00  0.00    -0.206 F 
ATOM     69  C   UNL A   1      46.855  27.295  37.184  1.00  0.00     0.060 A 
BRANCH  69  70
ATOM     70  S   UNL A   1      48.234  26.457  37.992  1.00  0.00     0.124 S 
ATOM     71  O   UNL A   1      49.038  27.588  38.445  1.00  0.00    -0.237 OA
ATOM     72  O   UNL A   1      47.566  25.695  39.043  1.00  0.00    -0.237 OA
ATOM     73  O   UNL A   1      48.822  25.658  36.922  1.00  0.00    -0.744 OA
ENDBRANCH  69  70
ENDBRANCH  48  62
BRANCH  49  74
ATOM     74  C   UNL A   1      37.038  32.779  30.959  1.00  0.00     0.058 A 
ATOM     75  C   UNL A   1      37.232  33.823  30.044  1.00  0.00     0.135 A 
ATOM     76  C   UNL A   1      35.726  32.326  31.167  1.00  0.00     0.135 A 
ATOM     77  F   UNL A   1      38.467  34.291  29.812  1.00  0.00    -0.206 F 
ATOM     78  C   UNL A   1      36.164  34.412  29.374  1.00  0.00     0.059 A 
ATOM     79  C   UNL A   1      34.644  32.882  30.491  1.00  0.00     0.059 A 
ATOM     80  F   UNL A   1      35.489  31.317  32.019  1.00  0.00    -0.206 F 
ATOM     81  C   UNL A   1      34.872  33.934  29.606  1.00  0.00     0.060 A 
BRANCH  81  82
ATOM     82  S   UNL A   1      33.495  34.680  28.708  1.00  0.00     0.124 S 
ATOM     83  O   UNL A   1      34.139  35.832  28.088  1.00  0.00    -0.237 OA
ATOM     84  O   UNL A   1      33.098  33.605  27.803  1.00  0.00    -0.237 OA
ATOM     85  O   UNL A   1      32.534  34.986  29.764  1.00  0.00    -0.744 OA
ENDBRANCH  81  82
ENDBRANCH  49  74
BRANCH  61  86
ATOM     86  C   UNL A   1      39.845  33.748  37.271  1.00  0.00     0.058 A 
ATOM     87  C   UNL A   1      38.930  33.410  38.278  1.00  0.00     0.135 A 
ATOM     88  C   UNL A   1      40.499  34.988  37.360  1.00  0.00     0.135 A 
ATOM     89  F   UNL A   1      38.276  32.238  38.232  1.00  0.00    -0.206 F 
ATOM     90  C   UNL A   1      38.653  34.280  39.326  1.00  0.00     0.059 A 
ATOM     91  C   UNL A   1      40.256  35.863  38.413  1.00  0.00     0.059 A 
ATOM     92  F   UNL A   1      41.392  35.351  36.426  1.00  0.00    -0.206 F 
ATOM     93  C   UNL A   1      39.322  35.505  39.384  1.00  0.00     0.060 A 
BRANCH  93  94
ATOM     94  S   UNL A   1      38.981  36.613  40.767  1.00  0.00     0.124 S 
ATOM     95  O   UNL A   1      40.308  36.761  41.357  1.00  0.00    -0.237 OA
ATOM     96  O   UNL A   1      38.450  37.797  40.098  1.00  0.00    -0.237 OA
ATOM     97  O   UNL A   1      38.016  35.867  41.569  1.00  0.00    -0.744 OA
ENDBRANCH  93  94
ENDBRANCH  61  86
ENDBRANCH  35  36
ENDBRANCH  28  30
ENDBRANCH  27  28
ENDBRANCH  26  27
ENDBRANCH  25  26
ENDBRANCH  24  25
ENDBRANCH   1  24
TORSDOF 22
ENDMDL
MODEL 2
REMARK VINA RESULT:      -9.3      5.808     12.009
REMARK SMILES C[N@H+]1CCO[C@H](CNc2nnc(SCC(=O)OCCOCCOC(=O)c3ccc(-c4c5nc(c(-c6c(F)cc(S(=O)(=O)[O-])cc6F)c6ccc([nH]6)c(-c6c(F)cc(S(=O)(=O)[O-])cc6F)c6nc(c(-c7c(F)cc(S(=O)(=O)[O-])cc7F)c7ccc4[nH]7)C=C6)C=C5)cc3)s2)C1
REMARK SMILES IDX 19 1 18 2 17 3 15 4 16 5 14 6 13 7 12 8 9 9 10 10 92 11
REMARK SMILES IDX 11 12 8 13 7 15 6 16 1 17 2 18 3 19 93 20 4 22 5 23 20 24
REMARK SMILES IDX 21 25 22 26 23 27 24 28 25 29 26 30 27 31 91 32 28 33 90 34
REMARK SMILES IDX 29 35 30 36 31 37 84 38 32 39 89 40 83 41 85 42 33 43 88 44
REMARK SMILES IDX 82 45 81 46 34 48 68 49 47 50 67 51 48 52 51 53 66 54 86 55
REMARK SMILES IDX 49 56 50 57 65 59 87 60 52 61 35 62 36 63 45 64 37 65 38 66
REMARK SMILES IDX 44 67 46 68 39 69 40 70 41 71 42 72 43 73 69 74 70 75 79 76
REMARK SMILES IDX 71 77 72 78 78 79 80 80 73 81 74 82 75 83 76 84 77 85 53 86
REMARK SMILES IDX 54 87 63 88 55 89 56 90 62 91 64 92 57 93 58 94 59 95 60 96
REMARK SMILES IDX 61 97
REMARK H PARENT 8 14 2 21 85 47 51 58
REMARK Flexibility Score: inf
ROOT
ATOM      1  C   UNL A   1      34.470  34.011  28.669  1.00  0.00     0.202 C 
ENDROOT
BRANCH   1   2
ATOM      2  C   UNL A   1      34.484  32.721  27.836  1.00  0.00     0.261 C 
BRANCH   2   3
ATOM      3  O   UNL A   1      33.344  31.866  28.074  1.00  0.00    -0.463 OA
BRANCH   3   4
ATOM      4  C   UNL A   1      32.277  32.041  27.249  1.00  0.00     0.316 C 
ATOM      5  O   UNL A   1      31.602  33.068  27.206  1.00  0.00    -0.251 OA
BRANCH   4   6
ATOM      6  C   UNL A   1      31.946  30.874  26.340  1.00  0.00     0.200 C 
BRANCH   6   7
ATOM      7  S   UNL A   1      32.803  29.324  26.642  1.00  0.00    -0.082 SA
BRANCH   7   8
ATOM      8  C   UNL A   1      31.696  28.024  26.241  1.00  0.00     0.176 A 
ATOM      9  C   UNL A   1      30.671  26.019  25.432  1.00  0.00     0.206 A 
ATOM     10  N   UNL A   1      30.621  26.122  26.743  1.00  0.00    -0.119 NA
ATOM     11  S   UNL A   1      31.153  27.514  24.692  1.00  0.00    -0.069 S 
ATOM     12  N   UNL A   1      31.244  27.261  27.214  1.00  0.00    -0.130 NA
BRANCH   9  13
ATOM     13  N   UNL A   1      30.396  24.855  24.783  1.00  0.00    -0.357 N 
ATOM     14  H   UNL A   1      29.941  24.897  23.912  1.00  0.00     0.163 HD
BRANCH  13  15
ATOM     15  C   UNL A   1      30.751  23.544  25.326  1.00  0.00     0.153 C 
BRANCH  15  16
ATOM     16  C   UNL A   1      31.997  22.927  24.625  1.00  0.00     0.192 C 
ATOM     17  C   UNL A   1      34.891  21.674  24.899  1.00  0.00     0.332 C 
ATOM     18  N   UNL A   1      34.537  23.041  24.517  1.00  0.00    -0.333 N 
ATOM     19  C   UNL A   1      34.366  23.160  23.052  1.00  0.00     0.290 C 
ATOM     20  C   UNL A   1      33.308  23.521  25.185  1.00  0.00     0.296 C 
ATOM     21  H   UNL A   1      35.315  23.626  24.824  1.00  0.00     0.348 HD
ATOM     22  C   UNL A   1      33.042  22.575  22.525  1.00  0.00     0.222 C 
ATOM     23  O   UNL A   1      31.911  23.142  23.204  1.00  0.00    -0.365 OA
ENDBRANCH  15  16
ENDBRANCH  13  15
ENDBRANCH   9  13
ENDBRANCH   7   8
ENDBRANCH   6   7
ENDBRANCH   4   6
ENDBRANCH   3   4
ENDBRANCH   2   3
ENDBRANCH   1   2
BRANCH   1  24
ATOM     24  O   UNL A   1      33.854  33.948  29.957  1.00  0.00    -0.374 OA
BRANCH  24  25
ATOM     25  C   UNL A   1      34.718  33.897  31.084  1.00  0.00     0.202 C 
BRANCH  25  26
ATOM     26  C   UNL A   1      34.830  32.566  31.832  1.00  0.00     0.261 C 
BRANCH  26  27
ATOM     27  O   UNL A   1      35.745  31.650  31.248  1.00  0.00    -0.460 OA
BRANCH  27  28
ATOM     28  C   UNL A   1      36.749  31.304  32.080  1.00  0.00     0.338 C 
ATOM     29  O   UNL A   1      36.780  31.392  33.300  1.00  0.00    -0.246 OA
BRANCH  28  30
ATOM     30  C   UNL A   1      37.786  30.626  31.307  1.00  0.00     0.060 A 
ATOM     31  C   UNL A   1      38.734  29.898  32.030  1.00  0.00     0.016 A 
ATOM     32  C   UNL A   1      37.875  30.776  29.920  1.00  0.00     0.016 A 
ATOM     33  C   UNL A   1      39.834  29.378  31.371  1.00  0.00     0.010 A 
ATOM     34  C   UNL A   1      38.982  30.251  29.260  1.00  0.00     0.010 A 
ATOM     35  C   UNL A   1      39.985  29.596  29.994  1.00  0.00    -0.014 A 
BRANCH  35  36
ATOM     36  C   UNL A   1      41.286  29.278  29.378  1.00  0.00     0.031 A 
ATOM     37  C   UNL A   1      42.334  30.353  29.325  1.00  0.00     0.074 A 
ATOM     38  C   UNL A   1      41.536  28.027  28.958  1.00  0.00     0.049 A 
ATOM     39  N   UNL A   1      43.564  30.285  28.891  1.00  0.00    -0.248 NA
ATOM     40  C   UNL A   1      41.948  31.681  29.836  1.00  0.00     0.031 C 
ATOM     41  C   UNL A   1      40.582  26.917  29.003  1.00  0.00     0.029 A 
ATOM     42  N   UNL A   1      42.669  27.478  28.423  1.00  0.00    -0.354 N 
ATOM     43  C   UNL A   1      44.099  31.554  29.079  1.00  0.00     0.074 A 
ATOM     44  C   UNL A   1      43.053  32.383  29.633  1.00  0.00     0.031 C 
ATOM     45  C   UNL A   1      41.176  25.815  28.515  1.00  0.00     0.029 A 
ATOM     46  C   UNL A   1      42.538  26.148  28.108  1.00  0.00     0.049 A 
ATOM     47  H   UNL A   1      43.499  27.988  28.279  1.00  0.00     0.167 HD
ATOM     48  C   UNL A   1      45.358  31.980  28.825  1.00  0.00     0.037 A 
ATOM     49  C   UNL A   1      43.422  25.304  27.546  1.00  0.00     0.037 A 
ATOM     50  C   UNL A   1      46.383  31.136  28.270  1.00  0.00     0.049 A 
ATOM     51  C   UNL A   1      44.802  25.816  27.229  1.00  0.00     0.074 A 
ATOM     52  C   UNL A   1      47.693  31.457  27.966  1.00  0.00     0.029 A 
ATOM     53  N   UNL A   1      46.208  29.801  27.937  1.00  0.00    -0.354 N 
ATOM     54  N   UNL A   1      45.303  27.013  27.430  1.00  0.00    -0.248 NA
ATOM     55  C   UNL A   1      45.740  24.864  26.620  1.00  0.00     0.031 C 
ATOM     56  C   UNL A   1      48.300  30.322  27.415  1.00  0.00     0.029 A 
ATOM     57  C   UNL A   1      47.380  29.285  27.416  1.00  0.00     0.049 A 
ATOM     58  H   UNL A   1      45.371  29.295  28.054  1.00  0.00     0.167 HD
ATOM     59  C   UNL A   1      46.620  26.953  26.992  1.00  0.00     0.074 A 
ATOM     60  C   UNL A   1      46.841  25.597  26.528  1.00  0.00     0.031 C 
ATOM     61  C   UNL A   1      47.565  27.926  26.973  1.00  0.00     0.037 A 
BRANCH  48  62
ATOM     62  C   UNL A   1      45.685  33.414  29.128  1.00  0.00     0.058 A 
ATOM     63  C   UNL A   1      45.452  34.435  28.194  1.00  0.00     0.135 A 
ATOM     64  C   UNL A   1      46.213  33.778  30.378  1.00  0.00     0.135 A 
ATOM     65  F   UNL A   1      44.971  34.141  26.977  1.00  0.00    -0.206 F 
ATOM     66  C   UNL A   1      45.746  35.765  28.481  1.00  0.00     0.059 A 
ATOM     67  C   UNL A   1      46.494  35.104  30.695  1.00  0.00     0.059 A 
ATOM     68  F   UNL A   1      46.463  32.839  31.304  1.00  0.00    -0.206 F 
ATOM     69  C   UNL A   1      46.266  36.090  29.735  1.00  0.00     0.060 A 
BRANCH  69  70
ATOM     70  S   UNL A   1      46.628  37.821  30.098  1.00  0.00     0.124 S 
ATOM     71  O   UNL A   1      45.961  38.497  28.990  1.00  0.00    -0.237 OA
ATOM     72  O   UNL A   1      46.014  38.000  31.411  1.00  0.00    -0.237 OA
ATOM     73  O   UNL A   1      48.086  37.876  30.080  1.00  0.00    -0.744 OA
ENDBRANCH  69  70
ENDBRANCH  48  62
BRANCH  49  74
ATOM     74  C   UNL A   1      43.030  23.903  27.249  1.00  0.00     0.058 A 
ATOM     75  C   UNL A   1      42.960  22.935  28.262  1.00  0.00     0.135 A 
ATOM     76  C   UNL A   1      42.711  23.505  25.941  1.00  0.00     0.135 A 
ATOM     77  F   UNL A   1      43.256  23.266  29.527  1.00  0.00    -0.206 F 
ATOM     78  C   UNL A   1      42.608  21.617  27.986  1.00  0.00     0.059 A 
ATOM     79  C   UNL A   1      42.334  22.200  25.644  1.00  0.00     0.059 A 
ATOM     80  F   UNL A   1      42.745  24.398  24.939  1.00  0.00    -0.206 F 
ATOM     81  C   UNL A   1      42.298  21.259  26.672  1.00  0.00     0.060 A 
BRANCH  81  82
ATOM     82  S   UNL A   1      41.810  19.555  26.328  1.00  0.00     0.124 S 
ATOM     83  O   UNL A   1      42.295  18.865  27.517  1.00  0.00    -0.237 OA
ATOM     84  O   UNL A   1      40.360  19.669  26.200  1.00  0.00    -0.237 OA
ATOM     85  O   UNL A   1      42.517  19.249  25.087  1.00  0.00    -0.744 OA
ENDBRANCH  81  82
ENDBRANCH  49  74
BRANCH  61  86
ATOM     86  C   UNL A   1      48.925  27.548  26.462  1.00  0.00     0.058 A 
ATOM     87  C   UNL A   1      49.224  27.561  25.092  1.00  0.00     0.135 A 
ATOM     88  C   UNL A   1      49.954  27.222  27.361  1.00  0.00     0.135 A 
ATOM     89  F   UNL A   1      48.271  27.860  24.195  1.00  0.00    -0.206 F 
ATOM     90  C   UNL A   1      50.494  27.240  24.626  1.00  0.00     0.059 A 
ATOM     91  C   UNL A   1      51.237  26.923  26.918  1.00  0.00     0.059 A 
ATOM     92  F   UNL A   1      49.719  27.208  28.683  1.00  0.00    -0.206 F 
ATOM     93  C   UNL A   1      51.494  26.923  25.548  1.00  0.00     0.060 A 
BRANCH  93  94
ATOM     94  S   UNL A   1      53.147  26.541  24.935  1.00  0.00     0.124 S 
ATOM     95  O   UNL A   1      53.819  27.828  25.086  1.00  0.00    -0.237 OA
ATOM     96  O   UNL A   1      53.586  25.487  25.845  1.00  0.00    -0.237 OA
ATOM     97  O   UNL A   1      52.908  26.114  23.559  1.00  0.00    -0.744 OA
ENDBRANCH  93  94
ENDBRANCH  61  86
ENDBRANCH  35  36
ENDBRANCH  28  30
ENDBRANCH  27  28
ENDBRANCH  26  27
ENDBRANCH  25  26
ENDBRANCH  24  25
ENDBRANCH   1  24
TORSDOF 22
ENDMDL
MODEL 3
REMARK VINA RESULT:      -9.0      2.037      3.055
REMARK SMILES C[N@H+]1CCO[C@H](CNc2nnc(SCC(=O)OCCOCCOC(=O)c3ccc(-c4c5nc(c(-c6c(F)cc(S(=O)(=O)[O-])cc6F)c6ccc([nH]6)c(-c6c(F)cc(S(=O)(=O)[O-])cc6F)c6nc(c(-c7c(F)cc(S(=O)(=O)[O-])cc7F)c7ccc4[nH]7)C=C6)C=C5)cc3)s2)C1
REMARK SMILES IDX 19 1 18 2 17 3 15 4 16 5 14 6 13 7 12 8 9 9 10 10 92 11
REMARK SMILES IDX 11 12 8 13 7 15 6 16 1 17 2 18 3 19 93 20 4 22 5 23 20 24
REMARK SMILES IDX 21 25 22 26 23 27 24 28 25 29 26 30 27 31 91 32 28 33 90 34
REMARK SMILES IDX 29 35 30 36 31 37 84 38 32 39 89 40 83 41 85 42 33 43 88 44
REMARK SMILES IDX 82 45 81 46 34 48 68 49 47 50 67 51 48 52 51 53 66 54 86 55
REMARK SMILES IDX 49 56 50 57 65 59 87 60 52 61 35 62 36 63 45 64 37 65 38 66
REMARK SMILES IDX 44 67 46 68 39 69 40 70 41 71 42 72 43 73 69 74 70 75 79 76
REMARK SMILES IDX 71 77 72 78 78 79 80 80 73 81 74 82 75 83 76 84 77 85 53 86
REMARK SMILES IDX 54 87 63 88 55 89 56 90 62 91 64 92 57 93 58 94 59 95 60 96
REMARK SMILES IDX 61 97
REMARK H PARENT 8 14 2 21 85 47 51 58
REMARK Flexibility Score: inf
ROOT
ATOM      1  C   UNL A   1      41.778  23.684  26.288  1.00  0.00     0.202 C 
ENDROOT
BRANCH   1   2
ATOM      2  C   UNL A   1      41.750  22.512  27.280  1.00  0.00     0.261 C 
BRANCH   2   3
ATOM      3  O   UNL A   1      40.440  21.924  27.444  1.00  0.00    -0.463 OA
BRANCH   3   4
ATOM      4  C   UNL A   1      40.037  21.070  26.466  1.00  0.00     0.316 C 
ATOM      5  O   UNL A   1      40.651  20.055  26.144  1.00  0.00    -0.251 OA
BRANCH   4   6
ATOM      6  C   UNL A   1      38.741  21.430  25.766  1.00  0.00     0.200 C 
BRANCH   6   7
ATOM      7  S   UNL A   1      38.155  23.120  25.934  1.00  0.00    -0.082 SA
BRANCH   7   8
ATOM      8  C   UNL A   1      36.513  23.171  25.320  1.00  0.00     0.176 A 
ATOM      9  C   UNL A   1      34.356  22.649  24.426  1.00  0.00     0.206 A 
ATOM     10  N   UNL A   1      34.292  23.194  25.622  1.00  0.00    -0.119 NA
ATOM     11  S   UNL A   1      35.945  22.794  23.741  1.00  0.00    -0.069 S 
ATOM     12  N   UNL A   1      35.538  23.463  26.154  1.00  0.00    -0.130 NA
BRANCH   9  13
ATOM     13  N   UNL A   1      33.287  22.034  23.851  1.00  0.00    -0.357 N 
ATOM     14  H   UNL A   1      33.187  22.081  22.873  1.00  0.00     0.163 HD
BRANCH  13  15
ATOM     15  C   UNL A   1      32.283  21.303  24.624  1.00  0.00     0.153 C 
BRANCH  15  16
ATOM     16  C   UNL A   1      32.375  19.764  24.414  1.00  0.00     0.192 C 
ATOM     17  C   UNL A   1      32.875  16.903  25.673  1.00  0.00     0.332 C 
ATOM     18  N   UNL A   1      33.813  17.723  24.908  1.00  0.00    -0.333 N 
ATOM     19  C   UNL A   1      33.718  17.435  23.459  1.00  0.00     0.290 C 
ATOM     20  C   UNL A   1      33.613  19.173  25.123  1.00  0.00     0.296 C 
ATOM     21  H   UNL A   1      34.742  17.476  25.250  1.00  0.00     0.348 HD
ATOM     22  C   UNL A   1      32.483  18.051  22.776  1.00  0.00     0.222 C 
ATOM     23  O   UNL A   1      32.409  19.466  23.005  1.00  0.00    -0.365 OA
ENDBRANCH  15  16
ENDBRANCH  13  15
ENDBRANCH   9  13
ENDBRANCH   7   8
ENDBRANCH   6   7
ENDBRANCH   4   6
ENDBRANCH   3   4
ENDBRANCH   2   3
ENDBRANCH   1   2
BRANCH   1  24
ATOM     24  O   UNL A   1      42.809  23.675  25.299  1.00  0.00    -0.374 OA
BRANCH  24  25
ATOM     25  C   UNL A   1      43.358  24.931  24.926  1.00  0.00     0.202 C 
BRANCH  25  26
ATOM     26  C   UNL A   1      44.854  25.150  25.167  1.00  0.00     0.261 C 
BRANCH  26  27
ATOM     27  O   UNL A   1      45.145  25.950  26.304  1.00  0.00    -0.460 OA
BRANCH  27  28
ATOM     28  C   UNL A   1      44.808  25.357  27.467  1.00  0.00     0.338 C 
ATOM     29  O   UNL A   1      45.207  24.287  27.910  1.00  0.00    -0.246 OA
BRANCH  28  30
ATOM     30  C   UNL A   1      43.987  26.281  28.245  1.00  0.00     0.060 A 
ATOM     31  C   UNL A   1      44.370  27.624  28.232  1.00  0.00     0.016 A 
ATOM     32  C   UNL A   1      42.928  25.825  29.033  1.00  0.00     0.016 A 
ATOM     33  C   UNL A   1      43.737  28.516  29.081  1.00  0.00     0.010 A 
ATOM     34  C   UNL A   1      42.293  26.724  29.886  1.00  0.00     0.010 A 
ATOM     35  C   UNL A   1      42.732  28.058  29.944  1.00  0.00    -0.014 A 
BRANCH  35  36
ATOM     36  C   UNL A   1      42.277  28.956  31.021  1.00  0.00     0.031 A 
ATOM     37  C   UNL A   1      43.104  29.050  32.272  1.00  0.00     0.074 A 
ATOM     38  C   UNL A   1      41.193  29.726  30.831  1.00  0.00     0.049 A 
ATOM     39  N   UNL A   1      42.935  29.815  33.317  1.00  0.00    -0.248 NA
ATOM     40  C   UNL A   1      44.283  28.170  32.355  1.00  0.00     0.031 C 
ATOM     41  C   UNL A   1      40.353  29.717  29.633  1.00  0.00     0.029 A 
ATOM     42  N   UNL A   1      40.621  30.671  31.639  1.00  0.00    -0.354 N 
ATOM     43  C   UNL A   1      43.985  29.513  34.177  1.00  0.00     0.074 A 
ATOM     44  C   UNL A   1      44.766  28.471  33.550  1.00  0.00     0.031 C 
ATOM     45  C   UNL A   1      39.370  30.621  29.785  1.00  0.00     0.029 A 
ATOM     46  C   UNL A   1      39.503  31.252  31.095  1.00  0.00     0.049 A 
ATOM     47  H   UNL A   1      40.978  30.911  32.525  1.00  0.00     0.167 HD
ATOM     48  C   UNL A   1      44.274  30.071  35.375  1.00  0.00     0.037 A 
ATOM     49  C   UNL A   1      38.679  32.184  31.609  1.00  0.00     0.037 A 
ATOM     50  C   UNL A   1      43.479  31.107  35.980  1.00  0.00     0.049 A 
ATOM     51  C   UNL A   1      38.997  32.755  32.965  1.00  0.00     0.074 A 
ATOM     52  C   UNL A   1      43.671  31.745  37.191  1.00  0.00     0.029 A 
ATOM     53  N   UNL A   1      42.336  31.653  35.414  1.00  0.00    -0.354 N 
ATOM     54  N   UNL A   1      40.004  32.476  33.761  1.00  0.00    -0.248 NA
ATOM     55  C   UNL A   1      38.078  33.772  33.491  1.00  0.00     0.031 C 
ATOM     56  C   UNL A   1      42.622  32.655  37.372  1.00  0.00     0.029 A 
ATOM     57  C   UNL A   1      41.802  32.611  36.256  1.00  0.00     0.049 A 
ATOM     58  H   UNL A   1      41.960  31.396  34.541  1.00  0.00     0.167 HD
ATOM     59  C   UNL A   1      39.851  33.298  34.870  1.00  0.00     0.074 A 
ATOM     60  C   UNL A   1      38.662  34.093  34.636  1.00  0.00     0.031 C 
ATOM     61  C   UNL A   1      40.620  33.390  35.984  1.00  0.00     0.037 A 
BRANCH  48  62
ATOM     62  C   UNL A   1      45.483  29.564  36.107  1.00  0.00     0.058 A 
ATOM     63  C   UNL A   1      45.412  28.456  36.966  1.00  0.00     0.135 A 
ATOM     64  C   UNL A   1      46.735  30.175  35.930  1.00  0.00     0.135 A 
ATOM     65  F   UNL A   1      44.236  27.849  37.190  1.00  0.00    -0.206 F 
ATOM     66  C   UNL A   1      46.536  27.981  37.636  1.00  0.00     0.059 A 
ATOM     67  C   UNL A   1      47.876  29.704  36.572  1.00  0.00     0.059 A 
ATOM     68  F   UNL A   1      46.856  31.244  35.126  1.00  0.00    -0.206 F 
ATOM     69  C   UNL A   1      47.764  28.611  37.433  1.00  0.00     0.060 A 
BRANCH  69  70
ATOM     70  S   UNL A   1      49.216  27.974  38.296  1.00  0.00     0.124 S 
ATOM     71  O   UNL A   1      49.628  29.140  39.072  1.00  0.00    -0.237 OA
ATOM     72  O   UNL A   1      48.661  26.865  39.066  1.00  0.00    -0.237 OA
ATOM     73  O   UNL A   1      50.116  27.592  37.213  1.00  0.00    -0.744 OA
ENDBRANCH  69  70
ENDBRANCH  48  62
BRANCH  49  74
ATOM     74  C   UNL A   1      37.486  32.628  30.844  1.00  0.00     0.058 A 
ATOM     75  C   UNL A   1      37.564  33.671  29.911  1.00  0.00     0.135 A 
ATOM     76  C   UNL A   1      36.240  32.008  31.029  1.00  0.00     0.135 A 
ATOM     77  F   UNL A   1      38.732  34.296  29.700  1.00  0.00    -0.206 F 
ATOM     78  C   UNL A   1      36.446  34.101  29.203  1.00  0.00     0.059 A 
ATOM     79  C   UNL A   1      35.112  32.403  30.316  1.00  0.00     0.059 A 
ATOM     80  F   UNL A   1      36.116  30.992  31.897  1.00  0.00    -0.206 F 
ATOM     81  C   UNL A   1      35.223  33.461  29.414  1.00  0.00     0.060 A 
BRANCH  81  82
ATOM     82  S   UNL A   1      33.783  34.001  28.468  1.00  0.00     0.124 S 
ATOM     83  O   UNL A   1      34.379  34.972  27.557  1.00  0.00    -0.237 OA
ATOM     84  O   UNL A   1      33.326  32.754  27.863  1.00  0.00    -0.237 OA
ATOM     85  O   UNL A   1      32.899  34.553  29.490  1.00  0.00    -0.744 OA
ENDBRANCH  81  82
ENDBRANCH  49  74
BRANCH  61  86
ATOM     86  C   UNL A   1      40.214  34.405  37.012  1.00  0.00     0.058 A 
ATOM     87  C   UNL A   1      39.342  34.079  38.061  1.00  0.00     0.135 A 
ATOM     88  C   UNL A   1      40.748  35.703  36.977  1.00  0.00     0.135 A 
ATOM     89  F   UNL A   1      38.801  32.851  38.133  1.00  0.00    -0.206 F 
ATOM     90  C   UNL A   1      38.992  35.013  39.030  1.00  0.00     0.059 A 
ATOM     91  C   UNL A   1      40.432  36.646  37.948  1.00  0.00     0.059 A 
ATOM     92  F   UNL A   1      41.596  36.060  35.999  1.00  0.00    -0.206 F 
ATOM     93  C   UNL A   1      39.544  36.295  38.964  1.00  0.00     0.060 A 
BRANCH  93  94
ATOM     94  S   UNL A   1      39.111  37.490  40.245  1.00  0.00     0.124 S 
ATOM     95  O   UNL A   1      38.499  36.629  41.252  1.00  0.00    -0.237 OA
ATOM     96  O   UNL A   1      40.410  38.055  40.600  1.00  0.00    -0.237 OA
ATOM     97  O   UNL A   1      38.202  38.404  39.561  1.00  0.00    -0.744 OA
ENDBRANCH  93  94
ENDBRANCH  61  86
ENDBRANCH  35  36
ENDBRANCH  28  30
ENDBRANCH  27  28
ENDBRANCH  26  27
ENDBRANCH  25  26
ENDBRANCH  24  25
ENDBRANCH   1  24
TORSDOF 22
ENDMDL
