MODEL 1
REMARK VINA RESULT:     -12.0      0.000      0.000
REMARK SMILES Cc1ccc(Nc2c(Cl)cccc2Cl)c(CC(=O)OCCOCCOC(=O)c2ccc(-c3c4nc(c(-c5c(F)cc(S(=O)(=O)[O-])cc5F)c5ccc([nH]5)c(-c5c(F)cc(S(=O)(=O)[O-])cc5F)c5nc(c(-c6c(F)cc(S(=O)(=O)[O-])cc6F)c6ccc3[nH]6)C=C5)C=C4)cc2)c1
REMARK SMILES IDX 22 1 21 2 20 3 19 4 17 5 18 6 16 7 15 8 1 9 2 10 3 11 94 12
REMARK SMILES IDX 4 13 5 14 6 15 7 17 8 18 13 19 9 20 10 21 12 22 14 23 11 24
REMARK SMILES IDX 23 25 24 26 25 27 26 28 27 29 28 30 29 31 93 32 30 33 92 34
REMARK SMILES IDX 31 35 32 36 33 37 86 38 34 39 91 40 85 41 87 42 35 43 90 44
REMARK SMILES IDX 84 45 83 46 36 48 70 49 49 50 69 51 50 52 53 53 68 54 88 55
REMARK SMILES IDX 51 56 52 57 67 59 89 60 54 61 37 62 38 63 47 64 39 65 40 66
REMARK SMILES IDX 46 67 48 68 41 69 42 70 43 71 44 72 45 73 71 74 72 75 81 76
REMARK SMILES IDX 73 77 74 78 80 79 82 80 75 81 76 82 77 83 78 84 79 85 55 86
REMARK SMILES IDX 56 87 65 88 57 89 58 90 64 91 66 92 59 93 60 94 61 95 62 96
REMARK SMILES IDX 63 97
REMARK H PARENT 6 16 87 47 53 58
REMARK Flexibility Score: inf
ROOT
ATOM      1  O   UNL A   1      32.367  29.377  25.340  1.00  0.00    -0.374 OA
ENDROOT
BRANCH   1   2
ATOM      2  C   UNL A   1      31.595  28.213  25.141  1.00  0.00     0.202 C 
BRANCH   2   3
ATOM      3  C   UNL A   1      31.848  27.319  26.335  1.00  0.00     0.261 C 
BRANCH   3   4
ATOM      4  O   UNL A   1      33.172  26.816  26.382  1.00  0.00    -0.463 OA
BRANCH   4   5
ATOM      5  C   UNL A   1      33.398  25.533  25.952  1.00  0.00     0.310 C 
ATOM      6  O   UNL A   1      32.956  24.509  26.426  1.00  0.00    -0.252 OA
BRANCH   5   7
ATOM      7  C   UNL A   1      34.348  25.550  24.761  1.00  0.00     0.160 C 
BRANCH   7   8
ATOM      8  C   UNL A   1      35.147  24.257  24.727  1.00  0.00    -0.013 A 
ATOM      9  C   UNL A   1      38.467  23.435  26.442  1.00  0.00     0.044 C 
ATOM     10  C   UNL A   1      37.289  23.356  25.519  1.00  0.00    -0.051 A 
ATOM     11  C   UNL A   1      37.323  22.541  24.394  1.00  0.00     0.005 A 
ATOM     12  C   UNL A   1      36.170  24.162  25.713  1.00  0.00     0.009 A 
ATOM     13  C   UNL A   1      36.279  22.573  23.458  1.00  0.00     0.026 A 
ATOM     14  C   UNL A   1      35.172  23.435  23.582  1.00  0.00     0.042 A 
BRANCH  14  15
ATOM     15  N   UNL A   1      34.162  23.500  22.578  1.00  0.00    -0.353 N 
ATOM     16  H   UNL A   1      34.465  23.333  21.656  1.00  0.00     0.167 HD
BRANCH  15  17
ATOM     17  C   UNL A   1      32.771  23.775  22.731  1.00  0.00     0.076 A 
ATOM     18  C   UNL A   1      32.180  24.972  22.295  1.00  0.00     0.066 A 
ATOM     19  C   UNL A   1      31.960  22.929  23.518  1.00  0.00     0.066 A 
ATOM     20  Cl  UNL A   1      32.859  25.903  20.997  1.00  0.00    -0.082 Cl
ATOM     21  C   UNL A   1      30.970  25.423  22.834  1.00  0.00     0.023 A 
ATOM     22  C   UNL A   1      30.772  23.393  24.098  1.00  0.00     0.023 A 
ATOM     23  Cl  UNL A   1      32.336  21.252  23.711  1.00  0.00    -0.082 Cl
ATOM     24  C   UNL A   1      30.303  24.666  23.792  1.00  0.00     0.003 A 
ENDBRANCH  15  17
ENDBRANCH  14  15
ENDBRANCH   7   8
ENDBRANCH   5   7
ENDBRANCH   4   5
ENDBRANCH   3   4
ENDBRANCH   2   3
ENDBRANCH   1   2
BRANCH   1  25
ATOM     25  C   UNL A   1      31.679  30.472  25.887  1.00  0.00     0.202 C 
BRANCH  25  26
ATOM     26  C   UNL A   1      32.528  31.081  26.991  1.00  0.00     0.261 C 
BRANCH  26  27
ATOM     27  O   UNL A   1      33.819  30.432  27.127  1.00  0.00    -0.460 OA
BRANCH  27  28
ATOM     28  C   UNL A   1      34.810  31.147  27.743  1.00  0.00     0.338 C 
ATOM     29  O   UNL A   1      34.727  32.342  27.978  1.00  0.00    -0.246 OA
BRANCH  28  30
ATOM     30  C   UNL A   1      35.884  30.275  28.285  1.00  0.00     0.060 A 
ATOM     31  C   UNL A   1      35.858  29.840  29.619  1.00  0.00     0.016 A 
ATOM     32  C   UNL A   1      37.006  30.044  27.493  1.00  0.00     0.016 A 
ATOM     33  C   UNL A   1      37.022  29.328  30.215  1.00  0.00     0.010 A 
ATOM     34  C   UNL A   1      38.174  29.639  28.109  1.00  0.00     0.010 A 
ATOM     35  C   UNL A   1      38.200  29.300  29.475  1.00  0.00    -0.014 A 
BRANCH  35  36
ATOM     36  C   UNL A   1      39.536  28.960  29.964  1.00  0.00     0.031 A 
ATOM     37  C   UNL A   1      40.147  27.703  29.478  1.00  0.00     0.074 A 
ATOM     38  C   UNL A   1      40.313  29.873  30.592  1.00  0.00     0.049 A 
ATOM     39  N   UNL A   1      41.343  27.336  29.759  1.00  0.00    -0.248 NA
ATOM     40  C   UNL A   1      39.444  26.719  28.652  1.00  0.00     0.031 C 
ATOM     41  C   UNL A   1      41.774  29.991  30.575  1.00  0.00     0.029 A 
ATOM     42  N   UNL A   1      39.954  30.928  31.398  1.00  0.00    -0.354 N 
ATOM     43  C   UNL A   1      41.684  26.317  28.909  1.00  0.00     0.074 A 
ATOM     44  C   UNL A   1      40.439  25.887  28.327  1.00  0.00     0.031 C 
ATOM     45  C   UNL A   1      42.170  30.882  31.502  1.00  0.00     0.029 A 
ATOM     46  C   UNL A   1      40.992  31.271  32.260  1.00  0.00     0.049 A 
ATOM     47  H   UNL A   1      39.081  31.380  31.369  1.00  0.00     0.167 HD
ATOM     48  C   UNL A   1      43.010  26.062  28.740  1.00  0.00     0.037 A 
ATOM     49  C   UNL A   1      40.802  31.130  33.606  1.00  0.00     0.037 A 
ATOM     50  C   UNL A   1      43.794  26.748  29.780  1.00  0.00     0.049 A 
ATOM     51  C   UNL A   1      41.565  29.914  34.116  1.00  0.00     0.074 A 
ATOM     52  C   UNL A   1      44.648  27.835  29.832  1.00  0.00     0.029 A 
ATOM     53  N   UNL A   1      43.483  26.458  31.102  1.00  0.00    -0.354 N 
ATOM     54  N   UNL A   1      42.298  29.167  33.333  1.00  0.00    -0.248 NA
ATOM     55  C   UNL A   1      41.584  29.418  35.490  1.00  0.00     0.031 C 
ATOM     56  C   UNL A   1      44.755  28.241  31.207  1.00  0.00     0.029 A 
ATOM     57  C   UNL A   1      44.006  27.376  31.990  1.00  0.00     0.049 A 
ATOM     58  H   UNL A   1      42.947  25.680  31.376  1.00  0.00     0.167 HD
ATOM     59  C   UNL A   1      42.855  28.137  34.013  1.00  0.00     0.074 A 
ATOM     60  C   UNL A   1      42.351  28.315  35.369  1.00  0.00     0.031 C 
ATOM     61  C   UNL A   1      43.684  27.231  33.411  1.00  0.00     0.037 A 
BRANCH  48  62
ATOM     62  C   UNL A   1      43.617  25.280  27.597  1.00  0.00     0.058 A 
ATOM     63  C   UNL A   1      43.684  23.873  27.673  1.00  0.00     0.135 A 
ATOM     64  C   UNL A   1      44.245  25.839  26.459  1.00  0.00     0.135 A 
ATOM     65  F   UNL A   1      43.145  23.210  28.707  1.00  0.00    -0.206 F 
ATOM     66  C   UNL A   1      44.326  23.087  26.711  1.00  0.00     0.059 A 
ATOM     67  C   UNL A   1      44.852  25.070  25.461  1.00  0.00     0.059 A 
ATOM     68  F   UNL A   1      44.359  27.161  26.282  1.00  0.00    -0.206 F 
ATOM     69  C   UNL A   1      44.906  23.693  25.604  1.00  0.00     0.060 A 
BRANCH  69  70
ATOM     70  S   UNL A   1      45.749  22.669  24.385  1.00  0.00     0.124 S 
ATOM     71  O   UNL A   1      46.317  21.613  25.219  1.00  0.00    -0.237 OA
ATOM     72  O   UNL A   1      44.655  22.266  23.508  1.00  0.00    -0.237 OA
ATOM     73  O   UNL A   1      46.722  23.579  23.786  1.00  0.00    -0.744 OA
ENDBRANCH  69  70
ENDBRANCH  48  62
BRANCH  49  74
ATOM     74  C   UNL A   1      39.438  31.643  33.977  1.00  0.00     0.058 A 
ATOM     75  C   UNL A   1      39.310  33.054  34.042  1.00  0.00     0.135 A 
ATOM     76  C   UNL A   1      38.272  30.922  33.664  1.00  0.00     0.135 A 
ATOM     77  F   UNL A   1      40.390  33.809  34.308  1.00  0.00    -0.206 F 
ATOM     78  C   UNL A   1      38.146  33.719  33.648  1.00  0.00     0.059 A 
ATOM     79  C   UNL A   1      37.091  31.575  33.271  1.00  0.00     0.059 A 
ATOM     80  F   UNL A   1      38.322  29.587  33.543  1.00  0.00    -0.206 F 
ATOM     81  C   UNL A   1      37.051  32.972  33.225  1.00  0.00     0.060 A 
BRANCH  81  82
ATOM     82  S   UNL A   1      35.653  33.848  32.455  1.00  0.00     0.124 S 
ATOM     83  O   UNL A   1      35.871  33.569  31.042  1.00  0.00    -0.237 OA
ATOM     84  O   UNL A   1      34.494  33.187  33.053  1.00  0.00    -0.237 OA
ATOM     85  O   UNL A   1      35.862  35.228  32.873  1.00  0.00    -0.744 OA
ENDBRANCH  81  82
ENDBRANCH  49  74
BRANCH  61  86
ATOM     86  C   UNL A   1      44.245  26.080  34.181  1.00  0.00     0.058 A 
ATOM     87  C   UNL A   1      43.421  25.079  34.709  1.00  0.00     0.135 A 
ATOM     88  C   UNL A   1      45.627  25.972  34.446  1.00  0.00     0.135 A 
ATOM     89  F   UNL A   1      42.085  25.154  34.592  1.00  0.00    -0.206 F 
ATOM     90  C   UNL A   1      43.946  23.965  35.350  1.00  0.00     0.059 A 
ATOM     91  C   UNL A   1      46.165  24.910  35.154  1.00  0.00     0.059 A 
ATOM     92  F   UNL A   1      46.512  26.864  33.976  1.00  0.00    -0.206 F 
ATOM     93  C   UNL A   1      45.322  23.885  35.555  1.00  0.00     0.060 A 
BRANCH  93  94
ATOM     94  S   UNL A   1      46.011  22.419  36.329  1.00  0.00     0.124 S 
ATOM     95  O   UNL A   1      45.644  22.599  37.730  1.00  0.00    -0.237 OA
ATOM     96  O   UNL A   1      45.301  21.360  35.619  1.00  0.00    -0.237 OA
ATOM     97  O   UNL A   1      47.439  22.524  36.042  1.00  0.00    -0.744 OA
ENDBRANCH  93  94
ENDBRANCH  61  86
ENDBRANCH  35  36
ENDBRANCH  28  30
ENDBRANCH  27  28
ENDBRANCH  26  27
ENDBRANCH  25  26
ENDBRANCH   1  25
TORSDOF 20
ENDMDL
MODEL 2
REMARK VINA RESULT:     -11.8      1.279      1.928
REMARK SMILES Cc1ccc(Nc2c(Cl)cccc2Cl)c(CC(=O)OCCOCCOC(=O)c2ccc(-c3c4nc(c(-c5c(F)cc(S(=O)(=O)[O-])cc5F)c5ccc([nH]5)c(-c5c(F)cc(S(=O)(=O)[O-])cc5F)c5nc(c(-c6c(F)cc(S(=O)(=O)[O-])cc6F)c6ccc3[nH]6)C=C5)C=C4)cc2)c1
REMARK SMILES IDX 22 1 21 2 20 3 19 4 17 5 18 6 16 7 15 8 1 9 2 10 3 11 94 12
REMARK SMILES IDX 4 13 5 14 6 15 7 17 8 18 13 19 9 20 10 21 12 22 14 23 11 24
REMARK SMILES IDX 23 25 24 26 25 27 26 28 27 29 28 30 29 31 93 32 30 33 92 34
REMARK SMILES IDX 31 35 32 36 33 37 86 38 34 39 91 40 85 41 87 42 35 43 90 44
REMARK SMILES IDX 84 45 83 46 36 48 70 49 49 50 69 51 50 52 53 53 68 54 88 55
REMARK SMILES IDX 51 56 52 57 67 59 89 60 54 61 37 62 38 63 47 64 39 65 40 66
REMARK SMILES IDX 46 67 48 68 41 69 42 70 43 71 44 72 45 73 71 74 72 75 81 76
REMARK SMILES IDX 73 77 74 78 80 79 82 80 75 81 76 82 77 83 78 84 79 85 55 86
REMARK SMILES IDX 56 87 65 88 57 89 58 90 64 91 66 92 59 93 60 94 61 95 62 96
REMARK SMILES IDX 63 97
REMARK H PARENT 6 16 87 47 53 58
REMARK Flexibility Score: inf
ROOT
ATOM      1  O   UNL A   1      32.472  28.830  24.766  1.00  0.00    -0.374 OA
ENDROOT
BRANCH   1   2
ATOM      2  C   UNL A   1      31.842  27.825  24.002  1.00  0.00     0.202 C 
BRANCH   2   3
ATOM      3  C   UNL A   1      31.312  26.805  24.985  1.00  0.00     0.261 C 
BRANCH   3   4
ATOM      4  O   UNL A   1      32.307  26.309  25.863  1.00  0.00    -0.463 OA
BRANCH   4   5
ATOM      5  C   UNL A   1      32.426  24.950  26.013  1.00  0.00     0.310 C 
ATOM      6  O   UNL A   1      31.913  24.255  26.863  1.00  0.00    -0.252 OA
BRANCH   5   7
ATOM      7  C   UNL A   1      33.356  24.394  24.942  1.00  0.00     0.160 C 
BRANCH   7   8
ATOM      8  C   UNL A   1      34.370  23.459  25.582  1.00  0.00    -0.013 A 
ATOM      9  C   UNL A   1      38.175  23.807  25.779  1.00  0.00     0.044 C 
ATOM     10  C   UNL A   1      36.800  23.212  25.825  1.00  0.00    -0.051 A 
ATOM     11  C   UNL A   1      36.624  21.833  25.839  1.00  0.00     0.005 A 
ATOM     12  C   UNL A   1      35.666  24.019  25.762  1.00  0.00     0.009 A 
ATOM     13  C   UNL A   1      35.341  21.278  25.740  1.00  0.00     0.026 A 
ATOM     14  C   UNL A   1      34.180  22.062  25.594  1.00  0.00     0.042 A 
BRANCH  14  15
ATOM     15  N   UNL A   1      32.896  21.468  25.422  1.00  0.00    -0.353 N 
ATOM     16  H   UNL A   1      32.215  21.726  26.085  1.00  0.00     0.167 HD
BRANCH  15  17
ATOM     17  C   UNL A   1      32.467  20.552  24.417  1.00  0.00     0.076 A 
ATOM     18  C   UNL A   1      32.579  19.159  24.560  1.00  0.00     0.066 A 
ATOM     19  C   UNL A   1      32.092  21.020  23.138  1.00  0.00     0.066 A 
ATOM     20  Cl  UNL A   1      32.603  18.403  26.122  1.00  0.00    -0.082 Cl
ATOM     21  C   UNL A   1      32.592  18.313  23.445  1.00  0.00     0.023 A 
ATOM     22  C   UNL A   1      32.150  20.187  22.013  1.00  0.00     0.023 A 
ATOM     23  Cl  UNL A   1      31.439  22.607  22.920  1.00  0.00    -0.082 Cl
ATOM     24  C   UNL A   1      32.451  18.838  22.165  1.00  0.00     0.003 A 
ENDBRANCH  15  17
ENDBRANCH  14  15
ENDBRANCH   7   8
ENDBRANCH   5   7
ENDBRANCH   4   5
ENDBRANCH   3   4
ENDBRANCH   2   3
ENDBRANCH   1   2
BRANCH   1  25
ATOM     25  C   UNL A   1      31.608  29.753  25.378  1.00  0.00     0.202 C 
BRANCH  25  26
ATOM     26  C   UNL A   1      32.303  30.336  26.598  1.00  0.00     0.261 C 
BRANCH  26  27
ATOM     27  O   UNL A   1      33.750  30.281  26.499  1.00  0.00    -0.460 OA
BRANCH  27  28
ATOM     28  C   UNL A   1      34.463  30.969  27.442  1.00  0.00     0.338 C 
ATOM     29  O   UNL A   1      34.122  32.058  27.877  1.00  0.00    -0.246 OA
BRANCH  28  30
ATOM     30  C   UNL A   1      35.557  30.156  28.031  1.00  0.00     0.060 A 
ATOM     31  C   UNL A   1      35.534  29.781  29.384  1.00  0.00     0.016 A 
ATOM     32  C   UNL A   1      36.692  29.922  27.258  1.00  0.00     0.016 A 
ATOM     33  C   UNL A   1      36.708  29.332  30.010  1.00  0.00     0.010 A 
ATOM     34  C   UNL A   1      37.866  29.580  27.899  1.00  0.00     0.010 A 
ATOM     35  C   UNL A   1      37.891  29.305  29.280  1.00  0.00    -0.014 A 
BRANCH  35  36
ATOM     36  C   UNL A   1      39.234  29.028  29.792  1.00  0.00     0.031 A 
ATOM     37  C   UNL A   1      39.899  27.786  29.340  1.00  0.00     0.074 A 
ATOM     38  C   UNL A   1      39.966  29.983  30.411  1.00  0.00     0.049 A 
ATOM     39  N   UNL A   1      41.105  27.472  29.643  1.00  0.00    -0.248 NA
ATOM     40  C   UNL A   1      39.246  26.759  28.526  1.00  0.00     0.031 C 
ATOM     41  C   UNL A   1      41.421  30.157  30.409  1.00  0.00     0.029 A 
ATOM     42  N   UNL A   1      39.556  31.038  31.190  1.00  0.00    -0.354 N 
ATOM     43  C   UNL A   1      41.496  26.450  28.818  1.00  0.00     0.074 A 
ATOM     44  C   UNL A   1      40.277  25.960  28.230  1.00  0.00     0.031 C 
ATOM     45  C   UNL A   1      41.769  31.082  31.323  1.00  0.00     0.029 A 
ATOM     46  C   UNL A   1      40.568  31.439  32.058  1.00  0.00     0.049 A 
ATOM     47  H   UNL A   1      38.665  31.455  31.142  1.00  0.00     0.167 HD
ATOM     48  C   UNL A   1      42.833  26.244  28.671  1.00  0.00     0.037 A 
ATOM     49  C   UNL A   1      40.366  31.318  33.404  1.00  0.00     0.037 A 
ATOM     50  C   UNL A   1      43.576  26.981  29.707  1.00  0.00     0.049 A 
ATOM     51  C   UNL A   1      41.168  30.144  33.949  1.00  0.00     0.074 A 
ATOM     52  C   UNL A   1      44.386  28.101  29.747  1.00  0.00     0.029 A 
ATOM     53  N   UNL A   1      43.259  26.706  31.030  1.00  0.00    -0.354 N 
ATOM     54  N   UNL A   1      41.940  29.410  33.190  1.00  0.00    -0.248 NA
ATOM     55  C   UNL A   1      41.188  29.676  35.333  1.00  0.00     0.031 C 
ATOM     56  C   UNL A   1      44.460  28.538  31.115  1.00  0.00     0.029 A 
ATOM     57  C   UNL A   1      43.734  27.661  31.906  1.00  0.00     0.049 A 
ATOM     58  H   UNL A   1      42.750  25.913  31.314  1.00  0.00     0.167 HD
ATOM     59  C   UNL A   1      42.528  28.416  33.898  1.00  0.00     0.074 A 
ATOM     60  C   UNL A   1      41.999  28.602  35.244  1.00  0.00     0.031 C 
ATOM     61  C   UNL A   1      43.399  27.532  33.325  1.00  0.00     0.037 A 
BRANCH  48  62
ATOM     62  C   UNL A   1      43.486  25.464  27.553  1.00  0.00     0.058 A 
ATOM     63  C   UNL A   1      43.522  24.055  27.614  1.00  0.00     0.135 A 
ATOM     64  C   UNL A   1      44.184  26.024  26.456  1.00  0.00     0.135 A 
ATOM     65  F   UNL A   1      42.917  23.390  28.609  1.00  0.00    -0.206 F 
ATOM     66  C   UNL A   1      44.199  23.268  26.678  1.00  0.00     0.059 A 
ATOM     67  C   UNL A   1      44.828  25.254  25.482  1.00  0.00     0.059 A 
ATOM     68  F   UNL A   1      44.332  27.345  26.302  1.00  0.00    -0.206 F 
ATOM     69  C   UNL A   1      44.849  23.875  25.611  1.00  0.00     0.060 A 
BRANCH  69  70
ATOM     70  S   UNL A   1      45.736  22.849  24.425  1.00  0.00     0.124 S 
ATOM     71  O   UNL A   1      46.699  23.795  23.868  1.00  0.00    -0.237 OA
ATOM     72  O   UNL A   1      46.293  21.802  25.275  1.00  0.00    -0.237 OA
ATOM     73  O   UNL A   1      44.693  22.410  23.503  1.00  0.00    -0.744 OA
ENDBRANCH  69  70
ENDBRANCH  48  62
BRANCH  49  74
ATOM     74  C   UNL A   1      38.977  31.785  33.748  1.00  0.00     0.058 A 
ATOM     75  C   UNL A   1      38.768  33.185  33.684  1.00  0.00     0.135 A 
ATOM     76  C   UNL A   1      37.852  30.972  33.520  1.00  0.00     0.135 A 
ATOM     77  F   UNL A   1      39.805  34.022  33.863  1.00  0.00    -0.206 F 
ATOM     78  C   UNL A   1      37.564  33.744  33.249  1.00  0.00     0.059 A 
ATOM     79  C   UNL A   1      36.631  31.518  33.087  1.00  0.00     0.059 A 
ATOM     80  F   UNL A   1      37.979  29.637  33.522  1.00  0.00    -0.206 F 
ATOM     81  C   UNL A   1      36.510  32.900  32.914  1.00  0.00     0.060 A 
BRANCH  81  82
ATOM     82  S   UNL A   1      35.055  33.619  32.087  1.00  0.00     0.124 S 
ATOM     83  O   UNL A   1      35.277  35.045  32.286  1.00  0.00    -0.237 OA
ATOM     84  O   UNL A   1      35.203  33.147  30.713  1.00  0.00    -0.237 OA
ATOM     85  O   UNL A   1      33.941  33.037  32.824  1.00  0.00    -0.744 OA
ENDBRANCH  81  82
ENDBRANCH  49  74
BRANCH  61  86
ATOM     86  C   UNL A   1      43.995  26.420  34.126  1.00  0.00     0.058 A 
ATOM     87  C   UNL A   1      43.205  25.389  34.651  1.00  0.00     0.135 A 
ATOM     88  C   UNL A   1      45.373  26.379  34.424  1.00  0.00     0.135 A 
ATOM     89  F   UNL A   1      41.870  25.400  34.503  1.00  0.00    -0.206 F 
ATOM     90  C   UNL A   1      43.766  24.310  35.321  1.00  0.00     0.059 A 
ATOM     91  C   UNL A   1      45.943  25.354  35.160  1.00  0.00     0.059 A 
ATOM     92  F   UNL A   1      46.227  27.303  33.960  1.00  0.00    -0.206 F 
ATOM     93  C   UNL A   1      45.138  24.297  35.558  1.00  0.00     0.060 A 
BRANCH  93  94
ATOM     94  S   UNL A   1      45.876  22.876  36.371  1.00  0.00     0.124 S 
ATOM     95  O   UNL A   1      45.588  23.131  37.778  1.00  0.00    -0.237 OA
ATOM     96  O   UNL A   1      45.130  21.779  35.761  1.00  0.00    -0.237 OA
ATOM     97  O   UNL A   1      47.284  22.965  35.997  1.00  0.00    -0.744 OA
ENDBRANCH  93  94
ENDBRANCH  61  86
ENDBRANCH  35  36
ENDBRANCH  28  30
ENDBRANCH  27  28
ENDBRANCH  26  27
ENDBRANCH  25  26
ENDBRANCH   1  25
TORSDOF 20
ENDMDL
MODEL 3
REMARK VINA RESULT:     -11.6      1.426      2.956
REMARK SMILES Cc1ccc(Nc2c(Cl)cccc2Cl)c(CC(=O)OCCOCCOC(=O)c2ccc(-c3c4nc(c(-c5c(F)cc(S(=O)(=O)[O-])cc5F)c5ccc([nH]5)c(-c5c(F)cc(S(=O)(=O)[O-])cc5F)c5nc(c(-c6c(F)cc(S(=O)(=O)[O-])cc6F)c6ccc3[nH]6)C=C5)C=C4)cc2)c1
REMARK SMILES IDX 22 1 21 2 20 3 19 4 17 5 18 6 16 7 15 8 1 9 2 10 3 11 94 12
REMARK SMILES IDX 4 13 5 14 6 15 7 17 8 18 13 19 9 20 10 21 12 22 14 23 11 24
REMARK SMILES IDX 23 25 24 26 25 27 26 28 27 29 28 30 29 31 93 32 30 33 92 34
REMARK SMILES IDX 31 35 32 36 33 37 86 38 34 39 91 40 85 41 87 42 35 43 90 44
REMARK SMILES IDX 84 45 83 46 36 48 70 49 49 50 69 51 50 52 53 53 68 54 88 55
REMARK SMILES IDX 51 56 52 57 67 59 89 60 54 61 37 62 38 63 47 64 39 65 40 66
REMARK SMILES IDX 46 67 48 68 41 69 42 70 43 71 44 72 45 73 71 74 72 75 81 76
REMARK SMILES IDX 73 77 74 78 80 79 82 80 75 81 76 82 77 83 78 84 79 85 55 86
REMARK SMILES IDX 56 87 65 88 57 89 58 90 64 91 66 92 59 93 60 94 61 95 62 96
REMARK SMILES IDX 63 97
REMARK H PARENT 6 16 87 47 53 58
REMARK Flexibility Score: inf
ROOT
ATOM      1  O   UNL A   1      32.508  27.891  26.911  1.00  0.00    -0.374 OA
ENDROOT
BRANCH   1   2
ATOM      2  C   UNL A   1      32.467  26.714  26.134  1.00  0.00     0.202 C 
BRANCH   2   3
ATOM      3  C   UNL A   1      33.737  26.696  25.312  1.00  0.00     0.261 C 
BRANCH   3   4
ATOM      4  O   UNL A   1      33.499  26.524  23.926  1.00  0.00    -0.463 OA
BRANCH   4   5
ATOM      5  C   UNL A   1      33.786  25.307  23.362  1.00  0.00     0.310 C 
ATOM      6  O   UNL A   1      34.666  24.537  23.680  1.00  0.00    -0.252 OA
BRANCH   5   7
ATOM      7  C   UNL A   1      32.834  25.039  22.203  1.00  0.00     0.160 C 
BRANCH   7   8
ATOM      8  C   UNL A   1      31.471  25.637  22.513  1.00  0.00    -0.013 A 
ATOM      9  C   UNL A   1      30.511  29.307  23.014  1.00  0.00     0.044 C 
ATOM     10  C   UNL A   1      30.450  27.809  23.029  1.00  0.00    -0.051 A 
ATOM     11  C   UNL A   1      29.517  27.145  23.815  1.00  0.00     0.005 A 
ATOM     12  C   UNL A   1      31.383  27.046  22.330  1.00  0.00     0.009 A 
ATOM     13  C   UNL A   1      29.552  25.749  23.937  1.00  0.00     0.026 A 
ATOM     14  C   UNL A   1      30.530  24.954  23.309  1.00  0.00     0.042 A 
BRANCH  14  15
ATOM     15  N   UNL A   1      30.586  23.543  23.510  1.00  0.00    -0.353 N 
ATOM     16  H   UNL A   1      29.945  23.012  22.984  1.00  0.00     0.167 HD
BRANCH  15  17
ATOM     17  C   UNL A   1      31.447  22.801  24.370  1.00  0.00     0.076 A 
ATOM     18  C   UNL A   1      31.610  23.107  25.731  1.00  0.00     0.066 A 
ATOM     19  C   UNL A   1      32.334  21.842  23.836  1.00  0.00     0.066 A 
ATOM     20  Cl  UNL A   1      30.370  23.914  26.638  1.00  0.00    -0.082 Cl
ATOM     21  C   UNL A   1      32.748  22.699  26.436  1.00  0.00     0.023 A 
ATOM     22  C   UNL A   1      33.499  21.467  24.519  1.00  0.00     0.023 A 
ATOM     23  Cl  UNL A   1      31.970  21.002  22.368  1.00  0.00    -0.082 Cl
ATOM     24  C   UNL A   1      33.729  21.940  25.806  1.00  0.00     0.003 A 
ENDBRANCH  15  17
ENDBRANCH  14  15
ENDBRANCH   7   8
ENDBRANCH   5   7
ENDBRANCH   4   5
ENDBRANCH   3   4
ENDBRANCH   2   3
ENDBRANCH   1   2
BRANCH   1  25
ATOM     25  C   UNL A   1      31.855  29.004  26.355  1.00  0.00     0.202 C 
BRANCH  25  26
ATOM     26  C   UNL A   1      32.823  30.176  26.333  1.00  0.00     0.261 C 
BRANCH  26  27
ATOM     27  O   UNL A   1      33.468  30.395  27.614  1.00  0.00    -0.460 OA
BRANCH  27  28
ATOM     28  C   UNL A   1      34.653  31.078  27.603  1.00  0.00     0.338 C 
ATOM     29  O   UNL A   1      34.738  32.269  27.349  1.00  0.00    -0.246 OA
BRANCH  28  30
ATOM     30  C   UNL A   1      35.777  30.272  28.146  1.00  0.00     0.060 A 
ATOM     31  C   UNL A   1      35.706  29.701  29.427  1.00  0.00     0.016 A 
ATOM     32  C   UNL A   1      36.971  30.242  27.431  1.00  0.00     0.016 A 
ATOM     33  C   UNL A   1      36.874  29.255  30.064  1.00  0.00     0.010 A 
ATOM     34  C   UNL A   1      38.130  29.901  28.099  1.00  0.00     0.010 A 
ATOM     35  C   UNL A   1      38.097  29.427  29.424  1.00  0.00    -0.014 A 
BRANCH  35  36
ATOM     36  C   UNL A   1      39.425  29.180  29.986  1.00  0.00     0.031 A 
ATOM     37  C   UNL A   1      40.095  27.908  29.634  1.00  0.00     0.074 A 
ATOM     38  C   UNL A   1      40.147  30.172  30.556  1.00  0.00     0.049 A 
ATOM     39  N   UNL A   1      41.292  27.611  29.987  1.00  0.00    -0.248 NA
ATOM     40  C   UNL A   1      39.456  26.831  28.876  1.00  0.00     0.031 C 
ATOM     41  C   UNL A   1      41.603  30.341  30.579  1.00  0.00     0.029 A 
ATOM     42  N   UNL A   1      39.724  31.279  31.253  1.00  0.00    -0.354 N 
ATOM     43  C   UNL A   1      41.697  26.534  29.242  1.00  0.00     0.074 A 
ATOM     44  C   UNL A   1      40.490  26.011  28.659  1.00  0.00     0.031 C 
ATOM     45  C   UNL A   1      41.934  31.324  31.436  1.00  0.00     0.029 A 
ATOM     46  C   UNL A   1      40.717  31.734  32.116  1.00  0.00     0.049 A 
ATOM     47  H   UNL A   1      38.838  31.695  31.155  1.00  0.00     0.167 HD
ATOM     48  C   UNL A   1      43.036  26.315  29.142  1.00  0.00     0.037 A 
ATOM     49  C   UNL A   1      40.483  31.704  33.462  1.00  0.00     0.037 A 
ATOM     50  C   UNL A   1      43.758  27.117  30.143  1.00  0.00     0.049 A 
ATOM     51  C   UNL A   1      41.266  30.566  34.104  1.00  0.00     0.074 A 
ATOM     52  C   UNL A   1      44.573  28.234  30.127  1.00  0.00     0.029 A 
ATOM     53  N   UNL A   1      43.408  26.933  31.474  1.00  0.00    -0.354 N 
ATOM     54  N   UNL A   1      42.052  29.781  33.415  1.00  0.00    -0.248 NA
ATOM     55  C   UNL A   1      41.251  30.193  35.516  1.00  0.00     0.031 C 
ATOM     56  C   UNL A   1      44.616  28.763  31.464  1.00  0.00     0.029 A 
ATOM     57  C   UNL A   1      43.867  27.943  32.294  1.00  0.00     0.049 A 
ATOM     58  H   UNL A   1      42.888  26.162  31.798  1.00  0.00     0.167 HD
ATOM     59  C   UNL A   1      42.618  28.835  34.202  1.00  0.00     0.074 A 
ATOM     60  C   UNL A   1      42.058  29.113  35.519  1.00  0.00     0.031 C 
ATOM     61  C   UNL A   1      43.498  27.911  33.711  1.00  0.00     0.037 A 
BRANCH  48  62
ATOM     62  C   UNL A   1      43.711  25.459  28.094  1.00  0.00     0.058 A 
ATOM     63  C   UNL A   1      44.059  26.025  26.849  1.00  0.00     0.135 A 
ATOM     64  C   UNL A   1      43.948  24.067  28.195  1.00  0.00     0.135 A 
ATOM     65  F   UNL A   1      43.873  27.331  26.607  1.00  0.00    -0.206 F 
ATOM     66  C   UNL A   1      44.585  25.277  25.792  1.00  0.00     0.059 A 
ATOM     67  C   UNL A   1      44.518  23.309  27.167  1.00  0.00     0.059 A 
ATOM     68  F   UNL A   1      43.586  23.357  29.269  1.00  0.00    -0.206 F 
ATOM     69  C   UNL A   1      44.815  23.917  25.959  1.00  0.00     0.060 A 
BRANCH  69  70
ATOM     70  S   UNL A   1      45.473  22.963  24.580  1.00  0.00     0.124 S 
ATOM     71  O   UNL A   1      46.303  23.951  23.898  1.00  0.00    -0.237 OA
ATOM     72  O   UNL A   1      46.192  21.890  25.259  1.00  0.00    -0.237 OA
ATOM     73  O   UNL A   1      44.278  22.544  23.852  1.00  0.00    -0.744 OA
ENDBRANCH  69  70
ENDBRANCH  48  62
BRANCH  49  74
ATOM     74  C   UNL A   1      39.089  32.198  33.740  1.00  0.00     0.058 A 
ATOM     75  C   UNL A   1      38.856  33.568  33.457  1.00  0.00     0.135 A 
ATOM     76  C   UNL A   1      37.977  31.342  33.654  1.00  0.00     0.135 A 
ATOM     77  F   UNL A   1      39.879  34.438  33.492  1.00  0.00    -0.206 F 
ATOM     78  C   UNL A   1      37.640  34.031  32.951  1.00  0.00     0.059 A 
ATOM     79  C   UNL A   1      36.744  31.793  33.151  1.00  0.00     0.059 A 
ATOM     80  F   UNL A   1      38.125  30.026  33.866  1.00  0.00    -0.206 F 
ATOM     81  C   UNL A   1      36.598  33.128  32.762  1.00  0.00     0.060 A 
BRANCH  81  82
ATOM     82  S   UNL A   1      35.126  33.685  31.846  1.00  0.00     0.124 S 
ATOM     83  O   UNL A   1      34.217  32.563  32.035  1.00  0.00    -0.237 OA
ATOM     84  O   UNL A   1      34.760  34.914  32.547  1.00  0.00    -0.237 OA
ATOM     85  O   UNL A   1      35.636  33.873  30.494  1.00  0.00    -0.744 OA
ENDBRANCH  81  82
ENDBRANCH  49  74
BRANCH  61  86
ATOM     86  C   UNL A   1      44.069  26.853  34.598  1.00  0.00     0.058 A 
ATOM     87  C   UNL A   1      45.414  26.867  34.987  1.00  0.00     0.135 A 
ATOM     88  C   UNL A   1      43.288  25.769  35.052  1.00  0.00     0.135 A 
ATOM     89  F   UNL A   1      46.256  27.805  34.521  1.00  0.00    -0.206 F 
ATOM     90  C   UNL A   1      45.926  25.935  35.879  1.00  0.00     0.059 A 
ATOM     91  C   UNL A   1      43.798  24.781  35.878  1.00  0.00     0.059 A 
ATOM     92  F   UNL A   1      41.984  25.660  34.756  1.00  0.00    -0.206 F 
ATOM     93  C   UNL A   1      45.104  24.903  36.329  1.00  0.00     0.060 A 
BRANCH  93  94
ATOM     94  S   UNL A   1      45.743  23.731  37.529  1.00  0.00     0.124 S 
ATOM     95  O   UNL A   1      47.155  24.093  37.604  1.00  0.00    -0.237 OA
ATOM     96  O   UNL A   1      44.942  24.060  38.704  1.00  0.00    -0.237 OA
ATOM     97  O   UNL A   1      45.465  22.435  36.918  1.00  0.00    -0.744 OA
ENDBRANCH  93  94
ENDBRANCH  61  86
ENDBRANCH  35  36
ENDBRANCH  28  30
ENDBRANCH  27  28
ENDBRANCH  26  27
ENDBRANCH  25  26
ENDBRANCH   1  25
TORSDOF 20
ENDMDL
