MODEL 1
REMARK VINA RESULT:     -11.4      0.000      0.000
REMARK SMILES O=C(OCCOCCOC(=O)c1c(C2CC2)nn(-c2ccc(Cl)c(F)c2)c1Cl)c1ccc(-c2c3nc(c(-c4c(F)cc(S(=O)(=O)[O-])cc4F)c4ccc([nH]4)c(-c4c(F)cc(S(=O)(=O)[O-])cc4F)c4nc(c(-c5c(F)cc(S(=O)(=O)[O-])cc5F)c5ccc2[nH]5)C=C4)C=C3)cc1
REMARK SMILES IDX 5 1 4 2 3 3 2 4 1 5 29 6 30 7 94 8 31 9 93 10 32 11 33 12
REMARK SMILES IDX 34 13 87 14 35 15 92 16 86 17 88 18 36 19 91 20 85 21 84 22
REMARK SMILES IDX 37 24 71 25 50 26 70 27 51 28 54 29 69 30 89 31 52 32 53 33
REMARK SMILES IDX 68 35 90 36 55 37 38 38 39 39 48 40 40 41 41 42 47 43 49 44
REMARK SMILES IDX 42 45 43 46 44 47 45 48 46 49 72 50 73 51 82 52 74 53 75 54
REMARK SMILES IDX 81 55 83 56 76 57 77 58 78 59 79 60 80 61 56 62 57 63 66 64
REMARK SMILES IDX 58 65 59 66 65 67 67 68 60 69 61 70 62 71 63 72 64 73 6 74
REMARK SMILES IDX 7 75 8 76 9 77 10 78 11 79 12 80 13 81 27 82 17 83 18 84
REMARK SMILES IDX 28 85 14 86 15 87 16 88 19 89 20 90 26 91 21 92 24 93 22 94
REMARK SMILES IDX 25 95 23 96
REMARK H PARENT 88 23 54 34
REMARK Flexibility Score: inf
ROOT
ATOM      1  C   UNL A   1      33.977  28.534  25.789  1.00  0.00     0.202 C 
ENDROOT
BRANCH   1   2
ATOM      2  C   UNL A   1      33.394  29.801  26.430  1.00  0.00     0.261 C 
BRANCH   2   3
ATOM      3  O   UNL A   1      34.026  30.177  27.651  1.00  0.00    -0.460 OA
BRANCH   3   4
ATOM      4  C   UNL A   1      35.009  31.098  27.776  1.00  0.00     0.338 C 
ATOM      5  O   UNL A   1      34.738  32.284  27.601  1.00  0.00    -0.246 OA
BRANCH   4   6
ATOM      6  C   UNL A   1      36.369  30.731  28.245  1.00  0.00     0.060 A 
ATOM      7  C   UNL A   1      37.319  31.604  28.782  1.00  0.00     0.016 A 
ATOM      8  C   UNL A   1      36.703  29.379  28.098  1.00  0.00     0.016 A 
ATOM      9  C   UNL A   1      38.627  31.210  28.945  1.00  0.00     0.010 A 
ATOM     10  C   UNL A   1      37.990  28.948  28.362  1.00  0.00     0.010 A 
ATOM     11  C   UNL A   1      38.962  29.887  28.700  1.00  0.00    -0.014 A 
BRANCH  11  12
ATOM     12  C   UNL A   1      40.349  29.521  28.922  1.00  0.00     0.031 A 
ATOM     13  C   UNL A   1      40.786  29.527  30.350  1.00  0.00     0.074 A 
ATOM     14  C   UNL A   1      41.118  29.093  27.907  1.00  0.00     0.049 A 
ATOM     15  N   UNL A   1      41.798  30.123  30.895  1.00  0.00    -0.248 NA
ATOM     16  C   UNL A   1      39.889  28.866  31.317  1.00  0.00     0.031 C 
ATOM     17  C   UNL A   1      40.710  28.796  26.530  1.00  0.00     0.029 A 
ATOM     18  N   UNL A   1      42.410  28.685  27.941  1.00  0.00    -0.354 N 
ATOM     19  C   UNL A   1      41.776  29.749  32.238  1.00  0.00     0.074 A 
ATOM     20  C   UNL A   1      40.512  29.102  32.470  1.00  0.00     0.031 C 
ATOM     21  C   UNL A   1      41.648  28.012  25.958  1.00  0.00     0.029 A 
ATOM     22  C   UNL A   1      42.762  27.872  26.878  1.00  0.00     0.049 A 
ATOM     23  H   UNL A   1      43.038  28.943  28.654  1.00  0.00     0.167 HD
ATOM     24  C   UNL A   1      42.876  29.809  33.038  1.00  0.00     0.037 A 
ATOM     25  C   UNL A   1      43.835  27.048  26.827  1.00  0.00     0.037 A 
ATOM     26  C   UNL A   1      43.865  30.719  32.536  1.00  0.00     0.049 A 
ATOM     27  C   UNL A   1      44.801  27.513  27.861  1.00  0.00     0.074 A 
ATOM     28  C   UNL A   1      43.880  32.077  32.280  1.00  0.00     0.029 A 
ATOM     29  N   UNL A   1      44.957  30.208  31.879  1.00  0.00    -0.354 N 
ATOM     30  N   UNL A   1      45.425  28.659  27.821  1.00  0.00    -0.248 NA
ATOM     31  C   UNL A   1      44.749  26.884  29.174  1.00  0.00     0.031 C 
ATOM     32  C   UNL A   1      44.671  32.225  31.103  1.00  0.00     0.029 A 
ATOM     33  C   UNL A   1      45.120  30.955  30.738  1.00  0.00     0.049 A 
ATOM     34  H   UNL A   1      45.515  29.450  32.170  1.00  0.00     0.167 HD
ATOM     35  C   UNL A   1      45.488  29.086  29.141  1.00  0.00     0.074 A 
ATOM     36  C   UNL A   1      45.147  27.907  29.934  1.00  0.00     0.031 C 
ATOM     37  C   UNL A   1      45.542  30.413  29.463  1.00  0.00     0.037 A 
BRANCH  24  38
ATOM     38  C   UNL A   1      43.151  28.795  34.120  1.00  0.00     0.058 A 
ATOM     39  C   UNL A   1      43.297  27.432  33.805  1.00  0.00     0.135 A 
ATOM     40  C   UNL A   1      43.026  29.097  35.496  1.00  0.00     0.135 A 
ATOM     41  F   UNL A   1      43.391  27.032  32.527  1.00  0.00    -0.206 F 
ATOM     42  C   UNL A   1      43.285  26.436  34.787  1.00  0.00     0.059 A 
ATOM     43  C   UNL A   1      43.068  28.130  36.492  1.00  0.00     0.059 A 
ATOM     44  F   UNL A   1      42.760  30.337  35.929  1.00  0.00    -0.206 F 
ATOM     45  C   UNL A   1      43.157  26.798  36.127  1.00  0.00     0.060 A 
BRANCH  45  46
ATOM     46  S   UNL A   1      43.035  25.520  37.390  1.00  0.00     0.124 S 
ATOM     47  O   UNL A   1      41.628  25.148  37.289  1.00  0.00    -0.237 OA
ATOM     48  O   UNL A   1      43.995  24.528  36.916  1.00  0.00    -0.237 OA
ATOM     49  O   UNL A   1      43.418  26.219  38.613  1.00  0.00    -0.744 OA
ENDBRANCH  45  46
ENDBRANCH  24  38
BRANCH  25  50
ATOM     50  C   UNL A   1      43.871  25.694  26.222  1.00  0.00     0.058 A 
ATOM     51  C   UNL A   1      44.859  25.344  25.288  1.00  0.00     0.135 A 
ATOM     52  C   UNL A   1      43.087  24.632  26.727  1.00  0.00     0.135 A 
ATOM     53  F   UNL A   1      45.671  26.285  24.784  1.00  0.00    -0.206 F 
ATOM     54  C   UNL A   1      45.077  24.019  24.899  1.00  0.00     0.059 A 
ATOM     55  C   UNL A   1      43.273  23.309  26.339  1.00  0.00     0.059 A 
ATOM     56  F   UNL A   1      42.171  24.836  27.686  1.00  0.00    -0.206 F 
ATOM     57  C   UNL A   1      44.286  23.006  25.442  1.00  0.00     0.060 A 
BRANCH  57  58
ATOM     58  S   UNL A   1      44.669  21.281  25.066  1.00  0.00     0.124 S 
ATOM     59  O   UNL A   1      43.664  20.572  25.851  1.00  0.00    -0.237 OA
ATOM     60  O   UNL A   1      44.495  21.237  23.618  1.00  0.00    -0.237 OA
ATOM     61  O   UNL A   1      46.046  21.129  25.530  1.00  0.00    -0.744 OA
ENDBRANCH  57  58
ENDBRANCH  25  50
BRANCH  37  62
ATOM     62  C   UNL A   1      45.793  31.406  28.355  1.00  0.00     0.058 A 
ATOM     63  C   UNL A   1      44.781  31.934  27.533  1.00  0.00     0.135 A 
ATOM     64  C   UNL A   1      47.071  31.970  28.228  1.00  0.00     0.135 A 
ATOM     65  F   UNL A   1      43.508  31.541  27.670  1.00  0.00    -0.206 F 
ATOM     66  C   UNL A   1      45.035  32.937  26.598  1.00  0.00     0.059 A 
ATOM     67  C   UNL A   1      47.341  32.996  27.324  1.00  0.00     0.059 A 
ATOM     68  F   UNL A   1      48.068  31.564  29.032  1.00  0.00    -0.206 F 
ATOM     69  C   UNL A   1      46.319  33.466  26.501  1.00  0.00     0.060 A 
BRANCH  69  70
ATOM     70  S   UNL A   1      46.619  34.831  25.356  1.00  0.00     0.124 S 
ATOM     71  O   UNL A   1      48.016  34.623  24.990  1.00  0.00    -0.237 OA
ATOM     72  O   UNL A   1      45.643  34.582  24.300  1.00  0.00    -0.237 OA
ATOM     73  O   UNL A   1      46.356  36.019  26.166  1.00  0.00    -0.744 OA
ENDBRANCH  69  70
ENDBRANCH  37  62
ENDBRANCH  11  12
ENDBRANCH   4   6
ENDBRANCH   3   4
ENDBRANCH   2   3
ENDBRANCH   1   2
BRANCH   1  74
ATOM     74  O   UNL A   1      33.449  27.278  26.197  1.00  0.00    -0.374 OA
BRANCH  74  75
ATOM     75  C   UNL A   1      32.164  27.278  26.831  1.00  0.00     0.202 C 
BRANCH  75  76
ATOM     76  C   UNL A   1      31.114  26.354  26.211  1.00  0.00     0.261 C 
BRANCH  76  77
ATOM     77  O   UNL A   1      31.337  24.997  26.644  1.00  0.00    -0.460 OA
BRANCH  77  78
ATOM     78  C   UNL A   1      31.584  24.034  25.709  1.00  0.00     0.343 C 
ATOM     79  O   UNL A   1      30.774  23.204  25.325  1.00  0.00    -0.246 OA
BRANCH  78  80
ATOM     80  C   UNL A   1      32.937  24.117  25.219  1.00  0.00     0.121 A 
ATOM     81  C   UNL A   1      33.524  24.531  23.990  1.00  0.00     0.082 A 
ATOM     82  C   UNL A   1      34.009  23.630  25.929  1.00  0.00     0.147 A 
ATOM     83  N   UNL A   1      34.853  24.340  23.971  1.00  0.00    -0.170 NA
ATOM     84  N   UNL A   1      35.119  23.718  25.138  1.00  0.00    -0.221 N 
ATOM     85  Cl  UNL A   1      34.105  22.980  27.513  1.00  0.00    -0.061 Cl
BRANCH  81  86
ATOM     86  C   UNL A   1      32.903  25.138  22.730  1.00  0.00     0.041 C 
ATOM     87  C   UNL A   1      31.528  25.731  22.646  1.00  0.00     0.011 C 
ATOM     88  C   UNL A   1      32.724  26.635  22.655  1.00  0.00     0.011 C 
ENDBRANCH  81  86
BRANCH  84  89
ATOM     89  C   UNL A   1      36.367  23.100  25.332  1.00  0.00     0.069 A 
ATOM     90  C   UNL A   1      37.391  23.799  25.978  1.00  0.00     0.030 A 
ATOM     91  C   UNL A   1      36.544  21.784  24.898  1.00  0.00     0.069 A 
ATOM     92  C   UNL A   1      38.584  23.131  26.265  1.00  0.00     0.026 A 
ATOM     93  C   UNL A   1      37.748  21.147  25.156  1.00  0.00     0.143 A 
ATOM     94  C   UNL A   1      38.759  21.804  25.857  1.00  0.00     0.076 A 
ATOM     95  F   UNL A   1      37.910  19.888  24.726  1.00  0.00    -0.205 F 
ATOM     96  Cl  UNL A   1      40.225  20.987  26.235  1.00  0.00    -0.081 Cl
ENDBRANCH  84  89
ENDBRANCH  78  80
ENDBRANCH  77  78
ENDBRANCH  76  77
ENDBRANCH  75  76
ENDBRANCH  74  75
ENDBRANCH   1  74
TORSDOF 19
ENDMDL
MODEL 2
REMARK VINA RESULT:     -10.8      1.971      2.638
REMARK SMILES O=C(OCCOCCOC(=O)c1c(C2CC2)nn(-c2ccc(Cl)c(F)c2)c1Cl)c1ccc(-c2c3nc(c(-c4c(F)cc(S(=O)(=O)[O-])cc4F)c4ccc([nH]4)c(-c4c(F)cc(S(=O)(=O)[O-])cc4F)c4nc(c(-c5c(F)cc(S(=O)(=O)[O-])cc5F)c5ccc2[nH]5)C=C4)C=C3)cc1
REMARK SMILES IDX 5 1 4 2 3 3 2 4 1 5 29 6 30 7 94 8 31 9 93 10 32 11 33 12
REMARK SMILES IDX 34 13 87 14 35 15 92 16 86 17 88 18 36 19 91 20 85 21 84 22
REMARK SMILES IDX 37 24 71 25 50 26 70 27 51 28 54 29 69 30 89 31 52 32 53 33
REMARK SMILES IDX 68 35 90 36 55 37 38 38 39 39 48 40 40 41 41 42 47 43 49 44
REMARK SMILES IDX 42 45 43 46 44 47 45 48 46 49 72 50 73 51 82 52 74 53 75 54
REMARK SMILES IDX 81 55 83 56 76 57 77 58 78 59 79 60 80 61 56 62 57 63 66 64
REMARK SMILES IDX 58 65 59 66 65 67 67 68 60 69 61 70 62 71 63 72 64 73 6 74
REMARK SMILES IDX 7 75 8 76 9 77 10 78 11 79 12 80 13 81 27 82 17 83 18 84
REMARK SMILES IDX 28 85 14 86 15 87 16 88 19 89 20 90 26 91 21 92 24 93 22 94
REMARK SMILES IDX 25 95 23 96
REMARK H PARENT 88 23 54 34
REMARK Flexibility Score: inf
ROOT
ATOM      1  C   UNL A   1      32.955  29.707  25.248  1.00  0.00     0.202 C 
ENDROOT
BRANCH   1   2
ATOM      2  C   UNL A   1      33.435  29.124  26.584  1.00  0.00     0.261 C 
BRANCH   2   3
ATOM      3  O   UNL A   1      33.654  30.101  27.598  1.00  0.00    -0.460 OA
BRANCH   3   4
ATOM      4  C   UNL A   1      34.664  31.002  27.616  1.00  0.00     0.338 C 
ATOM      5  O   UNL A   1      34.428  32.165  27.298  1.00  0.00    -0.246 OA
BRANCH   4   6
ATOM      6  C   UNL A   1      36.012  30.654  28.133  1.00  0.00     0.060 A 
ATOM      7  C   UNL A   1      36.935  31.544  28.689  1.00  0.00     0.016 A 
ATOM      8  C   UNL A   1      36.364  29.304  28.014  1.00  0.00     0.016 A 
ATOM      9  C   UNL A   1      38.241  31.164  28.899  1.00  0.00     0.010 A 
ATOM     10  C   UNL A   1      37.645  28.889  28.324  1.00  0.00     0.010 A 
ATOM     11  C   UNL A   1      38.597  29.842  28.681  1.00  0.00    -0.014 A 
BRANCH  11  12
ATOM     12  C   UNL A   1      39.980  29.493  28.952  1.00  0.00     0.031 A 
ATOM     13  C   UNL A   1      40.361  29.488  30.395  1.00  0.00     0.074 A 
ATOM     14  C   UNL A   1      40.793  29.087  27.962  1.00  0.00     0.049 A 
ATOM     15  N   UNL A   1      41.344  30.091  30.985  1.00  0.00    -0.248 NA
ATOM     16  C   UNL A   1      39.438  28.804  31.321  1.00  0.00     0.031 C 
ATOM     17  C   UNL A   1      40.442  28.800  26.568  1.00  0.00     0.029 A 
ATOM     18  N   UNL A   1      42.088  28.696  28.042  1.00  0.00    -0.354 N 
ATOM     19  C   UNL A   1      41.276  29.702  32.323  1.00  0.00     0.074 A 
ATOM     20  C   UNL A   1      40.013  29.035  32.499  1.00  0.00     0.031 C 
ATOM     21  C   UNL A   1      41.412  28.035  26.024  1.00  0.00     0.029 A 
ATOM     22  C   UNL A   1      42.492  27.900  26.984  1.00  0.00     0.049 A 
ATOM     23  H   UNL A   1      42.685  28.955  28.781  1.00  0.00     0.167 HD
ATOM     24  C   UNL A   1      42.344  29.768  33.165  1.00  0.00     0.037 A 
ATOM     25  C   UNL A   1      43.578  27.092  26.965  1.00  0.00     0.037 A 
ATOM     26  C   UNL A   1      43.338  30.697  32.711  1.00  0.00     0.049 A 
ATOM     27  C   UNL A   1      44.497  27.558  28.040  1.00  0.00     0.074 A 
ATOM     28  C   UNL A   1      43.344  32.059  32.470  1.00  0.00     0.029 A 
ATOM     29  N   UNL A   1      44.461  30.209  32.090  1.00  0.00    -0.354 N 
ATOM     30  N   UNL A   1      45.106  28.714  28.037  1.00  0.00    -0.248 NA
ATOM     31  C   UNL A   1      44.404  26.914  29.343  1.00  0.00     0.031 C 
ATOM     32  C   UNL A   1      44.176  32.231  31.326  1.00  0.00     0.029 A 
ATOM     33  C   UNL A   1      44.657  30.971  30.965  1.00  0.00     0.049 A 
ATOM     34  H   UNL A   1      45.019  29.456  32.394  1.00  0.00     0.167 HD
ATOM     35  C   UNL A   1      45.112  29.126  29.362  1.00  0.00     0.074 A 
ATOM     36  C   UNL A   1      44.758  27.934  30.129  1.00  0.00     0.031 C 
ATOM     37  C   UNL A   1      45.135  30.449  29.701  1.00  0.00     0.037 A 
BRANCH  24  38
ATOM     38  C   UNL A   1      42.592  28.746  34.245  1.00  0.00     0.058 A 
ATOM     39  C   UNL A   1      42.663  29.133  35.596  1.00  0.00     0.135 A 
ATOM     40  C   UNL A   1      43.013  27.425  33.963  1.00  0.00     0.135 A 
ATOM     41  F   UNL A   1      42.319  30.376  35.970  1.00  0.00    -0.206 F 
ATOM     42  C   UNL A   1      43.151  28.279  36.590  1.00  0.00     0.059 A 
ATOM     43  C   UNL A   1      43.447  26.542  34.942  1.00  0.00     0.059 A 
ATOM     44  F   UNL A   1      43.113  26.966  32.708  1.00  0.00    -0.206 F 
ATOM     45  C   UNL A   1      43.551  26.989  36.247  1.00  0.00     0.060 A 
BRANCH  45  46
ATOM     46  S   UNL A   1      44.278  25.916  37.499  1.00  0.00     0.124 S 
ATOM     47  O   UNL A   1      45.693  26.249  37.378  1.00  0.00    -0.237 OA
ATOM     48  O   UNL A   1      43.615  26.373  38.716  1.00  0.00    -0.237 OA
ATOM     49  O   UNL A   1      43.902  24.578  37.054  1.00  0.00    -0.744 OA
ENDBRANCH  45  46
ENDBRANCH  24  38
BRANCH  25  50
ATOM     50  C   UNL A   1      43.656  25.745  26.347  1.00  0.00     0.058 A 
ATOM     51  C   UNL A   1      44.620  25.452  25.370  1.00  0.00     0.135 A 
ATOM     52  C   UNL A   1      42.948  24.642  26.874  1.00  0.00     0.135 A 
ATOM     53  F   UNL A   1      45.363  26.436  24.842  1.00  0.00    -0.206 F 
ATOM     54  C   UNL A   1      44.888  24.142  24.961  1.00  0.00     0.059 A 
ATOM     55  C   UNL A   1      43.182  23.333  26.467  1.00  0.00     0.059 A 
ATOM     56  F   UNL A   1      42.063  24.793  27.872  1.00  0.00    -0.206 F 
ATOM     57  C   UNL A   1      44.172  23.087  25.527  1.00  0.00     0.060 A 
BRANCH  57  58
ATOM     58  S   UNL A   1      44.624  21.386  25.120  1.00  0.00     0.124 S 
ATOM     59  O   UNL A   1      45.976  21.296  25.659  1.00  0.00    -0.237 OA
ATOM     60  O   UNL A   1      43.602  20.620  25.826  1.00  0.00    -0.237 OA
ATOM     61  O   UNL A   1      44.529  21.349  23.662  1.00  0.00    -0.744 OA
ENDBRANCH  57  58
ENDBRANCH  25  50
BRANCH  37  62
ATOM     62  C   UNL A   1      45.414  31.459  28.614  1.00  0.00     0.058 A 
ATOM     63  C   UNL A   1      44.414  32.048  27.818  1.00  0.00     0.135 A 
ATOM     64  C   UNL A   1      46.712  31.973  28.485  1.00  0.00     0.135 A 
ATOM     65  F   UNL A   1      43.128  31.704  27.961  1.00  0.00    -0.206 F 
ATOM     66  C   UNL A   1      44.699  33.063  26.904  1.00  0.00     0.059 A 
ATOM     67  C   UNL A   1      47.014  33.009  27.602  1.00  0.00     0.059 A 
ATOM     68  F   UNL A   1      47.701  31.507  29.266  1.00  0.00    -0.206 F 
ATOM     69  C   UNL A   1      46.003  33.541  26.804  1.00  0.00     0.060 A 
BRANCH  69  70
ATOM     70  S   UNL A   1      46.345  34.920  25.689  1.00  0.00     0.124 S 
ATOM     71  O   UNL A   1      47.804  34.924  25.646  1.00  0.00    -0.237 OA
ATOM     72  O   UNL A   1      45.675  34.511  24.459  1.00  0.00    -0.237 OA
ATOM     73  O   UNL A   1      45.738  36.064  26.366  1.00  0.00    -0.744 OA
ENDBRANCH  69  70
ENDBRANCH  37  62
ENDBRANCH  11  12
ENDBRANCH   4   6
ENDBRANCH   3   4
ENDBRANCH   2   3
ENDBRANCH   1   2
BRANCH   1  74
ATOM     74  O   UNL A   1      31.553  29.790  25.023  1.00  0.00    -0.374 OA
BRANCH  74  75
ATOM     75  C   UNL A   1      31.017  29.054  23.916  1.00  0.00     0.202 C 
BRANCH  75  76
ATOM     76  C   UNL A   1      32.036  28.557  22.889  1.00  0.00     0.261 C 
BRANCH  76  77
ATOM     77  O   UNL A   1      31.645  27.258  22.398  1.00  0.00    -0.460 OA
BRANCH  77  78
ATOM     78  C   UNL A   1      32.588  26.277  22.294  1.00  0.00     0.343 C 
ATOM     79  O   UNL A   1      33.668  26.397  21.734  1.00  0.00    -0.246 OA
BRANCH  78  80
ATOM     80  C   UNL A   1      32.153  25.064  22.938  1.00  0.00     0.121 A 
ATOM     81  C   UNL A   1      31.306  24.777  24.047  1.00  0.00     0.082 A 
ATOM     82  C   UNL A   1      32.654  23.829  22.600  1.00  0.00     0.147 A 
ATOM     83  N   UNL A   1      31.272  23.465  24.335  1.00  0.00    -0.170 NA
ATOM     84  N   UNL A   1      32.163  22.913  23.486  1.00  0.00    -0.221 N 
ATOM     85  Cl  UNL A   1      33.721  23.357  21.343  1.00  0.00    -0.061 Cl
BRANCH  81  86
ATOM     86  C   UNL A   1      30.458  25.693  24.931  1.00  0.00     0.041 C 
ATOM     87  C   UNL A   1      29.927  25.333  26.287  1.00  0.00     0.011 C 
ATOM     88  C   UNL A   1      31.080  26.285  26.173  1.00  0.00     0.011 C 
ENDBRANCH  81  86
BRANCH  84  89
ATOM     89  C   UNL A   1      32.607  21.596  23.699  1.00  0.00     0.069 A 
ATOM     90  C   UNL A   1      33.568  21.341  24.681  1.00  0.00     0.030 A 
ATOM     91  C   UNL A   1      32.049  20.563  22.938  1.00  0.00     0.069 A 
ATOM     92  C   UNL A   1      33.911  20.016  24.959  1.00  0.00     0.026 A 
ATOM     93  C   UNL A   1      32.430  19.256  23.200  1.00  0.00     0.143 A 
ATOM     94  C   UNL A   1      33.338  18.975  24.219  1.00  0.00     0.076 A 
ATOM     95  F   UNL A   1      31.896  18.276  22.458  1.00  0.00    -0.205 F 
ATOM     96  Cl  UNL A   1      33.754  17.345  24.585  1.00  0.00    -0.081 Cl
ENDBRANCH  84  89
ENDBRANCH  78  80
ENDBRANCH  77  78
ENDBRANCH  76  77
ENDBRANCH  75  76
ENDBRANCH  74  75
ENDBRANCH   1  74
TORSDOF 19
ENDMDL
MODEL 3
REMARK VINA RESULT:     -10.7      2.918      4.488
REMARK SMILES O=C(OCCOCCOC(=O)c1c(C2CC2)nn(-c2ccc(Cl)c(F)c2)c1Cl)c1ccc(-c2c3nc(c(-c4c(F)cc(S(=O)(=O)[O-])cc4F)c4ccc([nH]4)c(-c4c(F)cc(S(=O)(=O)[O-])cc4F)c4nc(c(-c5c(F)cc(S(=O)(=O)[O-])cc5F)c5ccc2[nH]5)C=C4)C=C3)cc1
REMARK SMILES IDX 5 1 4 2 3 3 2 4 1 5 29 6 30 7 94 8 31 9 93 10 32 11 33 12
REMARK SMILES IDX 34 13 87 14 35 15 92 16 86 17 88 18 36 19 91 20 85 21 84 22
REMARK SMILES IDX 37 24 71 25 50 26 70 27 51 28 54 29 69 30 89 31 52 32 53 33
REMARK SMILES IDX 68 35 90 36 55 37 38 38 39 39 48 40 40 41 41 42 47 43 49 44
REMARK SMILES IDX 42 45 43 46 44 47 45 48 46 49 72 50 73 51 82 52 74 53 75 54
REMARK SMILES IDX 81 55 83 56 76 57 77 58 78 59 79 60 80 61 56 62 57 63 66 64
REMARK SMILES IDX 58 65 59 66 65 67 67 68 60 69 61 70 62 71 63 72 64 73 6 74
REMARK SMILES IDX 7 75 8 76 9 77 10 78 11 79 12 80 13 81 27 82 17 83 18 84
REMARK SMILES IDX 28 85 14 86 15 87 16 88 19 89 20 90 26 91 21 92 24 93 22 94
REMARK SMILES IDX 25 95 23 96
REMARK H PARENT 88 23 54 34
REMARK Flexibility Score: inf
ROOT
ATOM      1  C   UNL A   1      31.865  29.272  27.184  1.00  0.00     0.202 C 
ENDROOT
BRANCH   1   2
ATOM      2  C   UNL A   1      32.744  30.435  26.703  1.00  0.00     0.261 C 
BRANCH   2   3
ATOM      3  O   UNL A   1      34.128  30.282  27.011  1.00  0.00    -0.460 OA
BRANCH   3   4
ATOM      4  C   UNL A   1      34.830  31.053  27.873  1.00  0.00     0.338 C 
ATOM      5  O   UNL A   1      34.288  32.040  28.365  1.00  0.00    -0.246 OA
BRANCH   4   6
ATOM      6  C   UNL A   1      36.185  30.666  28.341  1.00  0.00     0.060 A 
ATOM      7  C   UNL A   1      37.119  31.511  28.946  1.00  0.00     0.016 A 
ATOM      8  C   UNL A   1      36.532  29.328  28.116  1.00  0.00     0.016 A 
ATOM      9  C   UNL A   1      38.428  31.116  29.106  1.00  0.00     0.010 A 
ATOM     10  C   UNL A   1      37.818  28.890  28.373  1.00  0.00     0.010 A 
ATOM     11  C   UNL A   1      38.777  29.813  28.784  1.00  0.00    -0.014 A 
BRANCH  11  12
ATOM     12  C   UNL A   1      40.163  29.443  29.006  1.00  0.00     0.031 A 
ATOM     13  C   UNL A   1      40.593  29.421  30.436  1.00  0.00     0.074 A 
ATOM     14  C   UNL A   1      40.937  29.036  27.986  1.00  0.00     0.049 A 
ATOM     15  N   UNL A   1      41.602  30.005  30.998  1.00  0.00    -0.248 NA
ATOM     16  C   UNL A   1      39.692  28.740  31.385  1.00  0.00     0.031 C 
ATOM     17  C   UNL A   1      40.537  28.767  26.602  1.00  0.00     0.029 A 
ATOM     18  N   UNL A   1      42.230  28.628  28.019  1.00  0.00    -0.354 N 
ATOM     19  C   UNL A   1      41.574  29.605  32.333  1.00  0.00     0.074 A 
ATOM     20  C   UNL A   1      40.309  28.953  32.546  1.00  0.00     0.031 C 
ATOM     21  C   UNL A   1      41.478  27.995  26.019  1.00  0.00     0.029 A 
ATOM     22  C   UNL A   1      42.587  27.837  26.941  1.00  0.00     0.049 A 
ATOM     23  H   UNL A   1      42.854  28.872  28.740  1.00  0.00     0.167 HD
ATOM     24  C   UNL A   1      42.670  29.649  33.140  1.00  0.00     0.037 A 
ATOM     25  C   UNL A   1      43.661  27.015  26.879  1.00  0.00     0.037 A 
ATOM     26  C   UNL A   1      43.661  30.570  32.661  1.00  0.00     0.049 A 
ATOM     27  C   UNL A   1      44.621  27.459  27.927  1.00  0.00     0.074 A 
ATOM     28  C   UNL A   1      43.676  31.933  32.432  1.00  0.00     0.029 A 
ATOM     29  N   UNL A   1      44.756  30.073  31.999  1.00  0.00    -0.354 N 
ATOM     30  N   UNL A   1      45.245  28.606  27.913  1.00  0.00    -0.248 NA
ATOM     31  C   UNL A   1      44.563  26.804  29.226  1.00  0.00     0.031 C 
ATOM     32  C   UNL A   1      44.473  32.105  31.263  1.00  0.00     0.029 A 
ATOM     33  C   UNL A   1      44.925  30.843  30.874  1.00  0.00     0.049 A 
ATOM     34  H   UNL A   1      45.313  29.309  32.277  1.00  0.00     0.167 HD
ATOM     35  C   UNL A   1      45.301  29.006  29.241  1.00  0.00     0.074 A 
ATOM     36  C   UNL A   1      44.957  27.812  30.009  1.00  0.00     0.031 C 
ATOM     37  C   UNL A   1      45.353  30.326  29.591  1.00  0.00     0.037 A 
BRANCH  24  38
ATOM     38  C   UNL A   1      42.940  28.614  34.202  1.00  0.00     0.058 A 
ATOM     39  C   UNL A   1      43.139  28.996  35.542  1.00  0.00     0.135 A 
ATOM     40  C   UNL A   1      43.259  27.271  33.894  1.00  0.00     0.135 A 
ATOM     41  F   UNL A   1      42.900  30.257  35.935  1.00  0.00    -0.206 F 
ATOM     42  C   UNL A   1      43.651  28.114  36.498  1.00  0.00     0.059 A 
ATOM     43  C   UNL A   1      43.714  26.363  34.840  1.00  0.00     0.059 A 
ATOM     44  F   UNL A   1      43.233  26.807  32.637  1.00  0.00    -0.206 F 
ATOM     45  C   UNL A   1      43.947  26.802  36.132  1.00  0.00     0.060 A 
BRANCH  45  46
ATOM     46  S   UNL A   1      44.703  25.689  37.328  1.00  0.00     0.124 S 
ATOM     47  O   UNL A   1      44.890  24.486  36.524  1.00  0.00    -0.237 OA
ATOM     48  O   UNL A   1      45.918  26.410  37.692  1.00  0.00    -0.237 OA
ATOM     49  O   UNL A   1      43.698  25.596  38.383  1.00  0.00    -0.744 OA
ENDBRANCH  45  46
ENDBRANCH  24  38
BRANCH  25  50
ATOM     50  C   UNL A   1      43.701  25.673  26.247  1.00  0.00     0.058 A 
ATOM     51  C   UNL A   1      44.645  25.368  25.254  1.00  0.00     0.135 A 
ATOM     52  C   UNL A   1      42.975  24.581  26.773  1.00  0.00     0.135 A 
ATOM     53  F   UNL A   1      45.402  26.341  24.725  1.00  0.00    -0.206 F 
ATOM     54  C   UNL A   1      44.878  24.057  24.828  1.00  0.00     0.059 A 
ATOM     55  C   UNL A   1      43.175  23.271  26.350  1.00  0.00     0.059 A 
ATOM     56  F   UNL A   1      42.108  24.741  27.784  1.00  0.00    -0.206 F 
ATOM     57  C   UNL A   1      44.146  23.012  25.394  1.00  0.00     0.060 A 
BRANCH  57  58
ATOM     58  S   UNL A   1      44.554  21.305  24.964  1.00  0.00     0.124 S 
ATOM     59  O   UNL A   1      44.589  21.363  23.507  1.00  0.00    -0.237 OA
ATOM     60  O   UNL A   1      45.840  21.122  25.627  1.00  0.00    -0.237 OA
ATOM     61  O   UNL A   1      43.448  20.538  25.532  1.00  0.00    -0.744 OA
ENDBRANCH  57  58
ENDBRANCH  25  50
BRANCH  37  62
ATOM     62  C   UNL A   1      45.609  31.342  28.504  1.00  0.00     0.058 A 
ATOM     63  C   UNL A   1      44.590  31.963  27.758  1.00  0.00     0.135 A 
ATOM     64  C   UNL A   1      46.913  31.828  28.325  1.00  0.00     0.135 A 
ATOM     65  F   UNL A   1      43.304  31.648  27.953  1.00  0.00    -0.206 F 
ATOM     66  C   UNL A   1      44.859  32.982  26.844  1.00  0.00     0.059 A 
ATOM     67  C   UNL A   1      47.201  32.867  27.441  1.00  0.00     0.059 A 
ATOM     68  F   UNL A   1      47.922  31.329  29.057  1.00  0.00    -0.206 F 
ATOM     69  C   UNL A   1      46.169  33.431  26.693  1.00  0.00     0.060 A 
BRANCH  69  70
ATOM     70  S   UNL A   1      46.496  34.816  25.580  1.00  0.00     0.124 S 
ATOM     71  O   UNL A   1      46.186  35.966  26.423  1.00  0.00    -0.237 OA
ATOM     72  O   UNL A   1      47.907  34.634  25.250  1.00  0.00    -0.237 OA
ATOM     73  O   UNL A   1      45.573  34.587  24.471  1.00  0.00    -0.744 OA
ENDBRANCH  69  70
ENDBRANCH  37  62
ENDBRANCH  11  12
ENDBRANCH   4   6
ENDBRANCH   3   4
ENDBRANCH   2   3
ENDBRANCH   1   2
BRANCH   1  74
ATOM     74  O   UNL A   1      32.329  27.948  26.955  1.00  0.00    -0.374 OA
BRANCH  74  75
ATOM     75  C   UNL A   1      31.365  26.976  26.531  1.00  0.00     0.202 C 
BRANCH  75  76
ATOM     76  C   UNL A   1      31.871  25.919  25.548  1.00  0.00     0.261 C 
BRANCH  76  77
ATOM     77  O   UNL A   1      30.789  25.044  25.167  1.00  0.00    -0.460 OA
BRANCH  77  78
ATOM     78  C   UNL A   1      30.529  24.849  23.842  1.00  0.00     0.343 C 
ATOM     79  O   UNL A   1      30.292  23.767  23.325  1.00  0.00    -0.246 OA
BRANCH  78  80
ATOM     80  C   UNL A   1      30.566  26.091  23.113  1.00  0.00     0.121 A 
ATOM     81  C   UNL A   1      31.505  26.698  22.231  1.00  0.00     0.082 A 
ATOM     82  C   UNL A   1      29.611  27.068  23.274  1.00  0.00     0.147 A 
ATOM     83  N   UNL A   1      31.130  27.934  21.861  1.00  0.00    -0.170 NA
ATOM     84  N   UNL A   1      30.007  28.170  22.570  1.00  0.00    -0.221 N 
ATOM     85  Cl  UNL A   1      28.149  27.072  24.170  1.00  0.00    -0.061 Cl
BRANCH  81  86
ATOM     86  C   UNL A   1      32.827  26.185  21.658  1.00  0.00     0.041 C 
ATOM     87  C   UNL A   1      33.281  24.755  21.684  1.00  0.00     0.011 C 
ATOM     88  C   UNL A   1      32.801  25.357  20.396  1.00  0.00     0.011 C 
ENDBRANCH  81  86
BRANCH  84  89
ATOM     89  C   UNL A   1      29.499  29.478  22.659  1.00  0.00     0.069 A 
ATOM     90  C   UNL A   1      29.739  30.235  23.810  1.00  0.00     0.030 A 
ATOM     91  C   UNL A   1      28.789  30.003  21.575  1.00  0.00     0.069 A 
ATOM     92  C   UNL A   1      29.328  31.570  23.834  1.00  0.00     0.026 A 
ATOM     93  C   UNL A   1      28.354  31.318  21.631  1.00  0.00     0.143 A 
ATOM     94  C   UNL A   1      28.639  32.110  22.742  1.00  0.00     0.076 A 
ATOM     95  F   UNL A   1      27.665  31.807  20.590  1.00  0.00    -0.205 F 
ATOM     96  Cl  UNL A   1      28.157  33.762  22.776  1.00  0.00    -0.081 Cl
ENDBRANCH  84  89
ENDBRANCH  78  80
ENDBRANCH  77  78
ENDBRANCH  76  77
ENDBRANCH  75  76
ENDBRANCH  74  75
ENDBRANCH   1  74
TORSDOF 19
ENDMDL
