MODEL 1
REMARK VINA RESULT:     -10.0      0.000      0.000
REMARK SMILES CCCC[C@H]1C(=S)c2cc(C(=O)OCCOCCOC(=O)c3ccc(-c4c5nc(c(-c6c(F)cc(S(=O)(=O)[O-])cc6F)c6ccc([nH]6)c(-c6c(F)cc(S(=O)(=O)[O-])cc6F)c6nc(c(-c7c(F)cc(S(=O)(=O)[O-])cc7F)c7ccc4[nH]7)C=C6)C=C5)cc3)ccc2N=C1C
REMARK SMILES IDX 16 1 15 2 14 3 13 4 11 5 12 6 10 7 5 8 6 9 92 10 7 11 8 12
REMARK SMILES IDX 91 13 93 14 9 15 90 16 89 17 88 18 4 19 3 20 2 21 1 22 17 23
REMARK SMILES IDX 18 24 19 25 20 26 21 27 22 28 23 29 87 30 24 31 86 32 25 33
REMARK SMILES IDX 26 34 27 35 80 36 28 37 85 38 79 39 81 40 29 41 84 42 78 43
REMARK SMILES IDX 77 44 30 46 64 47 43 48 63 49 44 50 47 51 62 52 82 53 45 54
REMARK SMILES IDX 46 55 61 57 83 58 48 59 31 60 32 61 41 62 33 63 34 64 40 65
REMARK SMILES IDX 42 66 35 67 36 68 37 69 38 70 39 71 65 72 66 73 75 74 67 75
REMARK SMILES IDX 68 76 74 77 76 78 69 79 70 80 71 81 72 82 73 83 49 84 50 85
REMARK SMILES IDX 59 86 51 87 52 88 58 89 60 90 53 91 54 92 55 93 56 94 57 95
REMARK H PARENT 81 45 47 56
REMARK Flexibility Score: inf
ROOT
ATOM      1  O   UNL A   1      35.216  21.875  25.058  1.00  0.00    -0.374 OA
ENDROOT
BRANCH   1   2
ATOM      2  C   UNL A   1      34.666  20.636  25.502  1.00  0.00     0.202 C 
BRANCH   2   3
ATOM      3  C   UNL A   1      33.811  19.841  24.509  1.00  0.00     0.261 C 
BRANCH   3   4
ATOM      4  O   UNL A   1      32.444  20.283  24.498  1.00  0.00    -0.460 OA
BRANCH   4   5
ATOM      5  C   UNL A   1      32.211  21.347  23.696  1.00  0.00     0.338 C 
ATOM      6  O   UNL A   1      32.190  21.367  22.476  1.00  0.00    -0.246 OA
BRANCH   5   7
ATOM      7  C   UNL A   1      31.760  22.502  24.498  1.00  0.00     0.060 A 
ATOM      8  C   UNL A   1      32.151  27.349  25.158  1.00  0.00     0.075 C 
ATOM      9  C   UNL A   1      31.825  26.264  24.143  1.00  0.00     0.033 C 
ATOM     10  C   UNL A   1      31.445  27.070  26.485  1.00  0.00     0.024 C 
ATOM     11  S   UNL A   1      31.518  26.633  22.524  1.00  0.00    -0.083 S 
ATOM     12  C   UNL A   1      31.677  24.905  24.692  1.00  0.00     0.016 A 
ATOM     13  N   UNL A   1      30.968  25.911  26.827  1.00  0.00    -0.257 NA
ATOM     14  C   UNL A   1      31.353  28.190  27.493  1.00  0.00     0.062 C 
ATOM     15  C   UNL A   1      32.024  23.768  23.967  1.00  0.00     0.027 A 
ATOM     16  C   UNL A   1      31.147  24.805  25.982  1.00  0.00     0.071 A 
ATOM     17  C   UNL A   1      30.819  23.532  26.467  1.00  0.00     0.030 A 
ATOM     18  C   UNL A   1      31.104  22.378  25.724  1.00  0.00     0.018 A 
BRANCH   8  19
ATOM     19  C   UNL A   1      33.667  27.477  25.406  1.00  0.00     0.015 C 
BRANCH  19  20
ATOM     20  C   UNL A   1      34.193  28.893  25.691  1.00  0.00     0.001 C 
BRANCH  20  21
ATOM     21  C   UNL A   1      34.752  29.146  27.095  1.00  0.00    -0.003 C 
ATOM     22  C   UNL A   1      34.667  30.595  27.543  1.00  0.00     0.004 C 
ENDBRANCH  20  21
ENDBRANCH  19  20
ENDBRANCH   8  19
ENDBRANCH   5   7
ENDBRANCH   4   5
ENDBRANCH   3   4
ENDBRANCH   2   3
ENDBRANCH   1   2
BRANCH   1  23
ATOM     23  C   UNL A   1      35.349  22.928  26.013  1.00  0.00     0.202 C 
BRANCH  23  24
ATOM     24  C   UNL A   1      36.183  24.154  25.619  1.00  0.00     0.261 C 
BRANCH  24  25
ATOM     25  O   UNL A   1      37.442  23.801  25.024  1.00  0.00    -0.460 OA
BRANCH  25  26
ATOM     26  C   UNL A   1      38.343  23.242  25.871  1.00  0.00     0.338 C 
ATOM     27  O   UNL A   1      38.712  22.079  25.891  1.00  0.00    -0.246 OA
BRANCH  26  28
ATOM     28  C   UNL A   1      38.990  24.309  26.662  1.00  0.00     0.060 A 
ATOM     29  C   UNL A   1      39.885  25.205  26.078  1.00  0.00     0.016 A 
ATOM     30  C   UNL A   1      38.667  24.411  28.022  1.00  0.00     0.016 A 
ATOM     31  C   UNL A   1      40.441  26.221  26.859  1.00  0.00     0.010 A 
ATOM     32  C   UNL A   1      39.221  25.430  28.799  1.00  0.00     0.010 A 
ATOM     33  C   UNL A   1      40.101  26.354  28.220  1.00  0.00    -0.014 A 
BRANCH  33  34
ATOM     34  C   UNL A   1      40.589  27.525  28.992  1.00  0.00     0.031 A 
ATOM     35  C   UNL A   1      39.752  28.759  29.159  1.00  0.00     0.074 A 
ATOM     36  C   UNL A   1      41.809  27.455  29.559  1.00  0.00     0.049 A 
ATOM     37  N   UNL A   1      39.987  29.815  29.895  1.00  0.00    -0.248 NA
ATOM     38  C   UNL A   1      38.495  28.823  28.400  1.00  0.00     0.031 C 
ATOM     39  C   UNL A   1      42.731  26.325  29.423  1.00  0.00     0.029 A 
ATOM     40  N   UNL A   1      42.479  28.334  30.372  1.00  0.00    -0.354 N 
ATOM     41  C   UNL A   1      38.899  30.658  29.713  1.00  0.00     0.074 A 
ATOM     42  C   UNL A   1      38.031  30.017  28.747  1.00  0.00     0.031 C 
ATOM     43  C   UNL A   1      43.823  26.558  30.167  1.00  0.00     0.029 A 
ATOM     44  C   UNL A   1      43.696  27.865  30.805  1.00  0.00     0.049 A 
ATOM     45  H   UNL A   1      42.121  29.217  30.621  1.00  0.00     0.167 HD
ATOM     46  C   UNL A   1      38.639  31.843  30.318  1.00  0.00     0.037 A 
ATOM     47  C   UNL A   1      44.605  28.418  31.632  1.00  0.00     0.037 A 
ATOM     48  C   UNL A   1      39.518  32.478  31.268  1.00  0.00     0.049 A 
ATOM     49  C   UNL A   1      44.315  29.759  32.250  1.00  0.00     0.074 A 
ATOM     50  C   UNL A   1      39.321  33.658  31.964  1.00  0.00     0.029 A 
ATOM     51  N   UNL A   1      40.765  31.999  31.643  1.00  0.00    -0.354 N 
ATOM     52  N   UNL A   1      43.237  30.499  32.141  1.00  0.00    -0.248 NA
ATOM     53  C   UNL A   1      45.360  30.340  33.104  1.00  0.00     0.031 C 
ATOM     54  C   UNL A   1      40.470  33.921  32.715  1.00  0.00     0.029 A 
ATOM     55  C   UNL A   1      41.364  32.878  32.532  1.00  0.00     0.049 A 
ATOM     56  H   UNL A   1      41.166  31.157  31.325  1.00  0.00     0.167 HD
ATOM     57  C   UNL A   1      43.471  31.628  32.918  1.00  0.00     0.074 A 
ATOM     58  C   UNL A   1      44.781  31.462  33.514  1.00  0.00     0.031 C 
ATOM     59  C   UNL A   1      42.673  32.707  33.115  1.00  0.00     0.037 A 
BRANCH  46  60
ATOM     60  C   UNL A   1      37.341  32.531  29.989  1.00  0.00     0.058 A 
ATOM     61  C   UNL A   1      36.151  32.199  30.658  1.00  0.00     0.135 A 
ATOM     62  C   UNL A   1      37.296  33.582  29.059  1.00  0.00     0.135 A 
ATOM     63  F   UNL A   1      36.134  31.196  31.550  1.00  0.00    -0.206 F 
ATOM     64  C   UNL A   1      34.961  32.869  30.400  1.00  0.00     0.059 A 
ATOM     65  C   UNL A   1      36.121  34.285  28.806  1.00  0.00     0.059 A 
ATOM     66  F   UNL A   1      38.404  33.944  28.395  1.00  0.00    -0.206 F 
ATOM     67  C   UNL A   1      34.956  33.914  29.475  1.00  0.00     0.060 A 
BRANCH  67  68
ATOM     68  S   UNL A   1      33.400  34.774  29.165  1.00  0.00     0.124 S 
ATOM     69  O   UNL A   1      33.872  36.048  28.629  1.00  0.00    -0.237 OA
ATOM     70  O   UNL A   1      32.742  33.890  28.208  1.00  0.00    -0.237 OA
ATOM     71  O   UNL A   1      32.778  34.843  30.484  1.00  0.00    -0.744 OA
ENDBRANCH  67  68
ENDBRANCH  46  60
BRANCH  47  72
ATOM     72  C   UNL A   1      45.861  27.685  31.945  1.00  0.00     0.058 A 
ATOM     73  C   UNL A   1      45.917  26.773  33.008  1.00  0.00     0.135 A 
ATOM     74  C   UNL A   1      47.019  27.860  31.170  1.00  0.00     0.135 A 
ATOM     75  F   UNL A   1      44.839  26.576  33.781  1.00  0.00    -0.206 F 
ATOM     76  C   UNL A   1      47.079  26.064  33.298  1.00  0.00     0.059 A 
ATOM     77  C   UNL A   1      48.184  27.142  31.424  1.00  0.00     0.059 A 
ATOM     78  F   UNL A   1      47.013  28.711  30.134  1.00  0.00    -0.206 F 
ATOM     79  C   UNL A   1      48.205  26.250  32.496  1.00  0.00     0.060 A 
BRANCH  79  80
ATOM     80  S   UNL A   1      49.688  25.284  32.852  1.00  0.00     0.124 S 
ATOM     81  O   UNL A   1      50.497  26.247  33.589  1.00  0.00    -0.237 OA
ATOM     82  O   UNL A   1      49.146  24.176  33.632  1.00  0.00    -0.237 OA
ATOM     83  O   UNL A   1      50.185  24.926  31.527  1.00  0.00    -0.744 OA
ENDBRANCH  79  80
ENDBRANCH  47  72
BRANCH  59  84
ATOM     84  C   UNL A   1      43.189  33.809  34.000  1.00  0.00     0.058 A 
ATOM     85  C   UNL A   1      43.966  34.856  33.482  1.00  0.00     0.135 A 
ATOM     86  C   UNL A   1      42.823  33.873  35.355  1.00  0.00     0.135 A 
ATOM     87  F   UNL A   1      44.352  34.839  32.196  1.00  0.00    -0.206 F 
ATOM     88  C   UNL A   1      44.367  35.926  34.276  1.00  0.00     0.059 A 
ATOM     89  C   UNL A   1      43.188  34.949  36.160  1.00  0.00     0.059 A 
ATOM     90  F   UNL A   1      42.074  32.902  35.900  1.00  0.00    -0.206 F 
ATOM     91  C   UNL A   1      43.961  35.970  35.611  1.00  0.00     0.060 A 
BRANCH  91  92
ATOM     92  S   UNL A   1      44.431  37.403  36.605  1.00  0.00     0.124 S 
ATOM     93  O   UNL A   1      43.649  37.190  37.818  1.00  0.00    -0.237 OA
ATOM     94  O   UNL A   1      45.873  37.225  36.740  1.00  0.00    -0.237 OA
ATOM     95  O   UNL A   1      44.017  38.537  35.784  1.00  0.00    -0.744 OA
ENDBRANCH  91  92
ENDBRANCH  59  84
ENDBRANCH  33  34
ENDBRANCH  26  28
ENDBRANCH  25  26
ENDBRANCH  24  25
ENDBRANCH  23  24
ENDBRANCH   1  23
TORSDOF 20
ENDMDL
MODEL 2
REMARK VINA RESULT:      -9.9      2.749      8.710
REMARK SMILES CCCC[C@H]1C(=S)c2cc(C(=O)OCCOCCOC(=O)c3ccc(-c4c5nc(c(-c6c(F)cc(S(=O)(=O)[O-])cc6F)c6ccc([nH]6)c(-c6c(F)cc(S(=O)(=O)[O-])cc6F)c6nc(c(-c7c(F)cc(S(=O)(=O)[O-])cc7F)c7ccc4[nH]7)C=C6)C=C5)cc3)ccc2N=C1C
REMARK SMILES IDX 16 1 15 2 14 3 13 4 11 5 12 6 10 7 5 8 6 9 92 10 7 11 8 12
REMARK SMILES IDX 91 13 93 14 9 15 90 16 89 17 88 18 4 19 3 20 2 21 1 22 17 23
REMARK SMILES IDX 18 24 19 25 20 26 21 27 22 28 23 29 87 30 24 31 86 32 25 33
REMARK SMILES IDX 26 34 27 35 80 36 28 37 85 38 79 39 81 40 29 41 84 42 78 43
REMARK SMILES IDX 77 44 30 46 64 47 43 48 63 49 44 50 47 51 62 52 82 53 45 54
REMARK SMILES IDX 46 55 61 57 83 58 48 59 31 60 32 61 41 62 33 63 34 64 40 65
REMARK SMILES IDX 42 66 35 67 36 68 37 69 38 70 39 71 65 72 66 73 75 74 67 75
REMARK SMILES IDX 68 76 74 77 76 78 69 79 70 80 71 81 72 82 73 83 49 84 50 85
REMARK SMILES IDX 59 86 51 87 52 88 58 89 60 90 53 91 54 92 55 93 56 94 57 95
REMARK H PARENT 81 45 47 56
REMARK Flexibility Score: inf
ROOT
ATOM      1  O   UNL A   1      38.472  22.144  25.684  1.00  0.00    -0.374 OA
ENDROOT
BRANCH   1   2
ATOM      2  C   UNL A   1      37.574  21.304  24.960  1.00  0.00     0.202 C 
BRANCH   2   3
ATOM      3  C   UNL A   1      36.135  21.192  25.474  1.00  0.00     0.261 C 
BRANCH   3   4
ATOM      4  O   UNL A   1      35.192  21.811  24.583  1.00  0.00    -0.460 OA
BRANCH   4   5
ATOM      5  C   UNL A   1      33.904  21.464  24.811  1.00  0.00     0.338 C 
ATOM      6  O   UNL A   1      33.426  20.342  24.811  1.00  0.00    -0.246 OA
BRANCH   5   7
ATOM      7  C   UNL A   1      33.138  22.634  25.285  1.00  0.00     0.060 A 
ATOM      8  C   UNL A   1      32.953  27.534  25.449  1.00  0.00     0.075 C 
ATOM      9  C   UNL A   1      33.051  26.333  24.520  1.00  0.00     0.033 C 
ATOM     10  C   UNL A   1      31.877  27.305  26.509  1.00  0.00     0.024 C 
ATOM     11  S   UNL A   1      33.261  26.519  22.856  1.00  0.00    -0.083 S 
ATOM     12  C   UNL A   1      32.829  25.023  25.154  1.00  0.00     0.016 A 
ATOM     13  N   UNL A   1      31.396  26.139  26.819  1.00  0.00    -0.257 NA
ATOM     14  C   UNL A   1      31.384  28.497  27.295  1.00  0.00     0.062 C 
ATOM     15  C   UNL A   1      33.471  23.866  24.717  1.00  0.00     0.027 A 
ATOM     16  C   UNL A   1      31.917  24.985  26.213  1.00  0.00     0.071 A 
ATOM     17  C   UNL A   1      31.539  23.734  26.719  1.00  0.00     0.030 A 
ATOM     18  C   UNL A   1      32.130  22.553  26.248  1.00  0.00     0.018 A 
BRANCH   8  19
ATOM     19  C   UNL A   1      34.294  27.843  26.145  1.00  0.00     0.015 C 
BRANCH  19  20
ATOM     20  C   UNL A   1      34.234  28.801  27.346  1.00  0.00     0.001 C 
BRANCH  20  21
ATOM     21  C   UNL A   1      35.329  29.868  27.426  1.00  0.00    -0.003 C 
ATOM     22  C   UNL A   1      34.841  31.221  27.912  1.00  0.00     0.004 C 
ENDBRANCH  20  21
ENDBRANCH  19  20
ENDBRANCH   8  19
ENDBRANCH   5   7
ENDBRANCH   4   5
ENDBRANCH   3   4
ENDBRANCH   2   3
ENDBRANCH   1   2
BRANCH   1  23
ATOM     23  C   UNL A   1      39.694  21.572  26.149  1.00  0.00     0.202 C 
BRANCH  23  24
ATOM     24  C   UNL A   1      40.797  22.525  26.628  1.00  0.00     0.261 C 
BRANCH  24  25
ATOM     25  O   UNL A   1      40.400  23.905  26.574  1.00  0.00    -0.460 OA
BRANCH  25  26
ATOM     26  C   UNL A   1      41.419  24.799  26.618  1.00  0.00     0.338 C 
ATOM     27  O   UNL A   1      42.347  24.899  25.831  1.00  0.00    -0.246 OA
BRANCH  26  28
ATOM     28  C   UNL A   1      41.140  25.801  27.667  1.00  0.00     0.060 A 
ATOM     29  C   UNL A   1      39.987  25.731  28.449  1.00  0.00     0.016 A 
ATOM     30  C   UNL A   1      42.077  26.823  27.871  1.00  0.00     0.016 A 
ATOM     31  C   UNL A   1      39.786  26.680  29.455  1.00  0.00     0.010 A 
ATOM     32  C   UNL A   1      41.875  27.766  28.881  1.00  0.00     0.010 A 
ATOM     33  C   UNL A   1      40.735  27.693  29.692  1.00  0.00    -0.014 A 
BRANCH  33  34
ATOM     34  C   UNL A   1      40.573  28.599  30.857  1.00  0.00     0.031 A 
ATOM     35  C   UNL A   1      41.452  28.486  32.067  1.00  0.00     0.074 A 
ATOM     36  C   UNL A   1      39.616  29.545  30.804  1.00  0.00     0.049 A 
ATOM     37  N   UNL A   1      41.512  29.270  33.113  1.00  0.00    -0.248 NA
ATOM     38  C   UNL A   1      42.379  27.345  32.118  1.00  0.00     0.031 C 
ATOM     39  C   UNL A   1      38.670  29.718  29.699  1.00  0.00     0.029 A 
ATOM     40  N   UNL A   1      39.289  30.548  31.682  1.00  0.00    -0.354 N 
ATOM     41  C   UNL A   1      42.497  28.739  33.934  1.00  0.00     0.074 A 
ATOM     42  C   UNL A   1      42.967  27.528  33.293  1.00  0.00     0.031 C 
ATOM     43  C   UNL A   1      37.903  30.792  29.942  1.00  0.00     0.029 A 
ATOM     44  C   UNL A   1      38.277  31.364  31.232  1.00  0.00     0.049 A 
ATOM     45  H   UNL A   1      39.735  30.671  32.551  1.00  0.00     0.167 HD
ATOM     46  C   UNL A   1      42.982  29.233  35.100  1.00  0.00     0.037 A 
ATOM     47  C   UNL A   1      37.720  32.457  31.789  1.00  0.00     0.037 A 
ATOM     48  C   UNL A   1      42.497  30.433  35.735  1.00  0.00     0.049 A 
ATOM     49  C   UNL A   1      38.242  32.956  33.109  1.00  0.00     0.074 A 
ATOM     50  C   UNL A   1      42.953  31.034  36.895  1.00  0.00     0.029 A 
ATOM     51  N   UNL A   1      41.437  31.204  35.277  1.00  0.00    -0.354 N 
ATOM     52  N   UNL A   1      39.239  32.495  33.826  1.00  0.00    -0.248 NA
ATOM     53  C   UNL A   1      37.566  34.120  33.696  1.00  0.00     0.031 C 
ATOM     54  C   UNL A   1      42.135  32.135  37.169  1.00  0.00     0.029 A 
ATOM     55  C   UNL A   1      41.203  32.254  36.151  1.00  0.00     0.049 A 
ATOM     56  H   UNL A   1      40.928  31.032  34.452  1.00  0.00     0.167 HD
ATOM     57  C   UNL A   1      39.317  33.318  34.943  1.00  0.00     0.074 A 
ATOM     58  C   UNL A   1      38.283  34.323  34.795  1.00  0.00     0.031 C 
ATOM     59  C   UNL A   1      40.165  33.245  35.999  1.00  0.00     0.037 A 
BRANCH  46  60
ATOM     60  C   UNL A   1      44.110  28.491  35.764  1.00  0.00     0.058 A 
ATOM     61  C   UNL A   1      43.861  27.450  36.674  1.00  0.00     0.135 A 
ATOM     62  C   UNL A   1      45.448  28.765  35.436  1.00  0.00     0.135 A 
ATOM     63  F   UNL A   1      42.603  27.151  37.032  1.00  0.00    -0.206 F 
ATOM     64  C   UNL A   1      44.897  26.722  37.248  1.00  0.00     0.059 A 
ATOM     65  C   UNL A   1      46.500  28.031  35.978  1.00  0.00     0.059 A 
ATOM     66  F   UNL A   1      45.743  29.746  34.569  1.00  0.00    -0.206 F 
ATOM     67  C   UNL A   1      46.214  27.017  36.891  1.00  0.00     0.060 A 
BRANCH  67  68
ATOM     68  S   UNL A   1      47.540  26.052  37.643  1.00  0.00     0.124 S 
ATOM     69  O   UNL A   1      48.394  25.780  36.490  1.00  0.00    -0.237 OA
ATOM     70  O   UNL A   1      48.084  26.984  38.626  1.00  0.00    -0.237 OA
ATOM     71  O   UNL A   1      46.849  24.892  38.196  1.00  0.00    -0.744 OA
ENDBRANCH  67  68
ENDBRANCH  46  60
BRANCH  47  72
ATOM     72  C   UNL A   1      36.624  33.170  31.079  1.00  0.00     0.058 A 
ATOM     73  C   UNL A   1      36.902  34.057  30.030  1.00  0.00     0.135 A 
ATOM     74  C   UNL A   1      35.277  32.956  31.416  1.00  0.00     0.135 A 
ATOM     75  F   UNL A   1      38.173  34.300  29.675  1.00  0.00    -0.206 F 
ATOM     76  C   UNL A   1      35.886  34.714  29.342  1.00  0.00     0.059 A 
ATOM     77  C   UNL A   1      34.243  33.579  30.725  1.00  0.00     0.059 A 
ATOM     78  F   UNL A   1      34.957  32.107  32.403  1.00  0.00    -0.206 F 
ATOM     79  C   UNL A   1      34.559  34.463  29.693  1.00  0.00     0.060 A 
BRANCH  79  80
ATOM     80  S   UNL A   1      33.249  35.282  28.757  1.00  0.00     0.124 S 
ATOM     81  O   UNL A   1      32.513  35.963  29.815  1.00  0.00    -0.237 OA
ATOM     82  O   UNL A   1      34.014  36.138  27.856  1.00  0.00    -0.237 OA
ATOM     83  O   UNL A   1      32.550  34.173  28.114  1.00  0.00    -0.744 OA
ENDBRANCH  79  80
ENDBRANCH  47  72
BRANCH  59  84
ATOM     84  C   UNL A   1      40.013  34.266  37.094  1.00  0.00     0.058 A 
ATOM     85  C   UNL A   1      40.621  35.527  37.003  1.00  0.00     0.135 A 
ATOM     86  C   UNL A   1      39.176  34.020  38.195  1.00  0.00     0.135 A 
ATOM     87  F   UNL A   1      41.438  35.811  35.977  1.00  0.00    -0.206 F 
ATOM     88  C   UNL A   1      40.407  36.509  37.966  1.00  0.00     0.059 A 
ATOM     89  C   UNL A   1      38.925  34.997  39.155  1.00  0.00     0.059 A 
ATOM     90  F   UNL A   1      38.563  32.833  38.327  1.00  0.00    -0.206 F 
ATOM     91  C   UNL A   1      39.547  36.238  39.032  1.00  0.00     0.060 A 
BRANCH  91  92
ATOM     92  S   UNL A   1      39.228  37.549  40.232  1.00  0.00     0.124 S 
ATOM     93  O   UNL A   1      40.554  38.139  40.386  1.00  0.00    -0.237 OA
ATOM     94  O   UNL A   1      38.245  38.373  39.535  1.00  0.00    -0.237 OA
ATOM     95  O   UNL A   1      38.723  36.830  41.397  1.00  0.00    -0.744 OA
ENDBRANCH  91  92
ENDBRANCH  59  84
ENDBRANCH  33  34
ENDBRANCH  26  28
ENDBRANCH  25  26
ENDBRANCH  24  25
ENDBRANCH  23  24
ENDBRANCH   1  23
TORSDOF 20
ENDMDL
MODEL 3
REMARK VINA RESULT:      -9.9      4.901     10.102
REMARK SMILES CCCC[C@H]1C(=S)c2cc(C(=O)OCCOCCOC(=O)c3ccc(-c4c5nc(c(-c6c(F)cc(S(=O)(=O)[O-])cc6F)c6ccc([nH]6)c(-c6c(F)cc(S(=O)(=O)[O-])cc6F)c6nc(c(-c7c(F)cc(S(=O)(=O)[O-])cc7F)c7ccc4[nH]7)C=C6)C=C5)cc3)ccc2N=C1C
REMARK SMILES IDX 16 1 15 2 14 3 13 4 11 5 12 6 10 7 5 8 6 9 92 10 7 11 8 12
REMARK SMILES IDX 91 13 93 14 9 15 90 16 89 17 88 18 4 19 3 20 2 21 1 22 17 23
REMARK SMILES IDX 18 24 19 25 20 26 21 27 22 28 23 29 87 30 24 31 86 32 25 33
REMARK SMILES IDX 26 34 27 35 80 36 28 37 85 38 79 39 81 40 29 41 84 42 78 43
REMARK SMILES IDX 77 44 30 46 64 47 43 48 63 49 44 50 47 51 62 52 82 53 45 54
REMARK SMILES IDX 46 55 61 57 83 58 48 59 31 60 32 61 41 62 33 63 34 64 40 65
REMARK SMILES IDX 42 66 35 67 36 68 37 69 38 70 39 71 65 72 66 73 75 74 67 75
REMARK SMILES IDX 68 76 74 77 76 78 69 79 70 80 71 81 72 82 73 83 49 84 50 85
REMARK SMILES IDX 59 86 51 87 52 88 58 89 60 90 53 91 54 92 55 93 56 94 57 95
REMARK H PARENT 81 45 47 56
REMARK Flexibility Score: inf
ROOT
ATOM      1  O   UNL A   1      34.194  34.293  30.119  1.00  0.00    -0.374 OA
ENDROOT
BRANCH   1   2
ATOM      2  C   UNL A   1      33.545  33.988  28.886  1.00  0.00     0.202 C 
BRANCH   2   3
ATOM      3  C   UNL A   1      34.269  33.049  27.915  1.00  0.00     0.261 C 
BRANCH   3   4
ATOM      4  O   UNL A   1      33.480  31.894  27.590  1.00  0.00    -0.460 OA
BRANCH   4   5
ATOM      5  C   UNL A   1      34.206  30.807  27.239  1.00  0.00     0.338 C 
ATOM      6  O   UNL A   1      35.397  30.620  27.422  1.00  0.00    -0.246 OA
BRANCH   5   7
ATOM      7  C   UNL A   1      33.314  29.728  26.767  1.00  0.00     0.060 A 
ATOM      8  C   UNL A   1      30.996  27.827  22.883  1.00  0.00     0.075 C 
ATOM      9  C   UNL A   1      32.353  28.248  23.426  1.00  0.00     0.033 C 
ATOM     10  C   UNL A   1      30.227  27.021  23.930  1.00  0.00     0.024 C 
ATOM     11  S   UNL A   1      33.740  28.201  22.465  1.00  0.00    -0.083 S 
ATOM     12  C   UNL A   1      32.388  28.576  24.861  1.00  0.00     0.016 A 
ATOM     13  N   UNL A   1      30.504  27.024  25.199  1.00  0.00    -0.257 NA
ATOM     14  C   UNL A   1      29.029  26.222  23.476  1.00  0.00     0.062 C 
ATOM     15  C   UNL A   1      33.249  29.538  25.384  1.00  0.00     0.027 A 
ATOM     16  C   UNL A   1      31.523  27.855  25.690  1.00  0.00     0.071 A 
ATOM     17  C   UNL A   1      31.656  28.003  27.077  1.00  0.00     0.030 A 
ATOM     18  C   UNL A   1      32.562  28.923  27.623  1.00  0.00     0.018 A 
BRANCH   8  19
ATOM     19  C   UNL A   1      30.143  29.035  22.446  1.00  0.00     0.015 C 
BRANCH  19  20
ATOM     20  C   UNL A   1      29.273  29.684  23.534  1.00  0.00     0.001 C 
BRANCH  20  21
ATOM     21  C   UNL A   1      28.262  30.736  23.066  1.00  0.00    -0.003 C 
ATOM     22  C   UNL A   1      28.600  31.366  21.726  1.00  0.00     0.004 C 
ENDBRANCH  20  21
ENDBRANCH  19  20
ENDBRANCH   8  19
ENDBRANCH   5   7
ENDBRANCH   4   5
ENDBRANCH   3   4
ENDBRANCH   2   3
ENDBRANCH   1   2
BRANCH   1  23
ATOM     23  C   UNL A   1      35.456  33.679  30.380  1.00  0.00     0.202 C 
BRANCH  23  24
ATOM     24  C   UNL A   1      35.466  32.366  31.175  1.00  0.00     0.261 C 
BRANCH  24  25
ATOM     25  O   UNL A   1      36.150  31.307  30.487  1.00  0.00    -0.460 OA
BRANCH  25  26
ATOM     26  C   UNL A   1      36.827  30.444  31.286  1.00  0.00     0.338 C 
ATOM     27  O   UNL A   1      36.379  29.800  32.221  1.00  0.00    -0.246 OA
BRANCH  26  28
ATOM     28  C   UNL A   1      38.177  30.226  30.728  1.00  0.00     0.060 A 
ATOM     29  C   UNL A   1      39.263  29.925  31.551  1.00  0.00     0.016 A 
ATOM     30  C   UNL A   1      38.341  30.312  29.339  1.00  0.00     0.016 A 
ATOM     31  C   UNL A   1      40.513  29.689  30.974  1.00  0.00     0.010 A 
ATOM     32  C   UNL A   1      39.590  30.070  28.765  1.00  0.00     0.010 A 
ATOM     33  C   UNL A   1      40.684  29.741  29.577  1.00  0.00    -0.014 A 
BRANCH  33  34
ATOM     34  C   UNL A   1      41.983  29.344  28.977  1.00  0.00     0.031 A 
ATOM     35  C   UNL A   1      43.126  30.310  28.871  1.00  0.00     0.074 A 
ATOM     36  C   UNL A   1      42.123  28.080  28.533  1.00  0.00     0.049 A 
ATOM     37  N   UNL A   1      44.354  30.085  28.479  1.00  0.00    -0.248 NA
ATOM     38  C   UNL A   1      42.860  31.707  29.243  1.00  0.00     0.031 C 
ATOM     39  C   UNL A   1      41.065  27.067  28.540  1.00  0.00     0.029 A 
ATOM     40  N   UNL A   1      43.208  27.423  28.009  1.00  0.00    -0.354 N 
ATOM     41  C   UNL A   1      45.017  31.301  28.583  1.00  0.00     0.074 A 
ATOM     42  C   UNL A   1      44.037  32.276  29.016  1.00  0.00     0.031 C 
ATOM     43  C   UNL A   1      41.565  25.907  28.091  1.00  0.00     0.029 A 
ATOM     44  C   UNL A   1      42.967  26.097  27.733  1.00  0.00     0.049 A 
ATOM     45  H   UNL A   1      44.076  27.859  27.846  1.00  0.00     0.167 HD
ATOM     46  C   UNL A   1      46.327  31.570  28.363  1.00  0.00     0.037 A 
ATOM     47  C   UNL A   1      43.785  25.139  27.255  1.00  0.00     0.037 A 
ATOM     48  C   UNL A   1      47.291  30.594  27.919  1.00  0.00     0.049 A 
ATOM     49  C   UNL A   1      45.223  25.476  26.970  1.00  0.00     0.074 A 
ATOM     50  C   UNL A   1      48.649  30.763  27.709  1.00  0.00     0.029 A 
ATOM     51  N   UNL A   1      47.000  29.275  27.599  1.00  0.00    -0.354 N 
ATOM     52  N   UNL A   1      45.857  26.609  27.163  1.00  0.00    -0.248 NA
ATOM     53  C   UNL A   1      46.059  24.410  26.402  1.00  0.00     0.031 C 
ATOM     54  C   UNL A   1      49.167  29.564  27.209  1.00  0.00     0.029 A 
ATOM     55  C   UNL A   1      48.145  28.630  27.159  1.00  0.00     0.049 A 
ATOM     56  H   UNL A   1      46.111  28.858  27.676  1.00  0.00     0.167 HD
ATOM     57  C   UNL A   1      47.166  26.388  26.752  1.00  0.00     0.074 A 
ATOM     58  C   UNL A   1      47.242  25.006  26.322  1.00  0.00     0.031 C 
ATOM     59  C   UNL A   1      48.209  27.254  26.726  1.00  0.00     0.037 A 
BRANCH  46  60
ATOM     60  C   UNL A   1      46.810  32.973  28.616  1.00  0.00     0.058 A 
ATOM     61  C   UNL A   1      46.796  33.942  27.598  1.00  0.00     0.135 A 
ATOM     62  C   UNL A   1      47.217  33.378  29.897  1.00  0.00     0.135 A 
ATOM     63  F   UNL A   1      46.426  33.609  26.352  1.00  0.00    -0.206 F 
ATOM     64  C   UNL A   1      47.187  35.254  27.838  1.00  0.00     0.059 A 
ATOM     65  C   UNL A   1      47.586  34.693  30.167  1.00  0.00     0.059 A 
ATOM     66  F   UNL A   1      47.245  32.494  30.907  1.00  0.00    -0.206 F 
ATOM     67  C   UNL A   1      47.577  35.622  29.128  1.00  0.00     0.060 A 
BRANCH  67  68
ATOM     68  S   UNL A   1      48.071  37.334  29.416  1.00  0.00     0.124 S 
ATOM     69  O   UNL A   1      49.230  37.455  28.536  1.00  0.00    -0.237 OA
ATOM     70  O   UNL A   1      46.883  38.073  29.002  1.00  0.00    -0.237 OA
ATOM     71  O   UNL A   1      48.365  37.370  30.845  1.00  0.00    -0.744 OA
ENDBRANCH  67  68
ENDBRANCH  46  60
BRANCH  47  72
ATOM     72  C   UNL A   1      43.265  23.761  27.046  1.00  0.00     0.058 A 
ATOM     73  C   UNL A   1      42.985  23.283  25.759  1.00  0.00     0.135 A 
ATOM     74  C   UNL A   1      43.068  22.885  28.127  1.00  0.00     0.135 A 
ATOM     75  F   UNL A   1      43.150  24.084  24.695  1.00  0.00    -0.206 F 
ATOM     76  C   UNL A   1      42.519  21.989  25.548  1.00  0.00     0.059 A 
ATOM     77  C   UNL A   1      42.631  21.578  27.939  1.00  0.00     0.059 A 
ATOM     78  F   UNL A   1      43.336  23.289  29.378  1.00  0.00    -0.206 F 
ATOM     79  C   UNL A   1      42.353  21.141  26.644  1.00  0.00     0.060 A 
BRANCH  79  80
ATOM     80  S   UNL A   1      41.799  19.448  26.348  1.00  0.00     0.124 S 
ATOM     81  O   UNL A   1      40.356  19.625  26.237  1.00  0.00    -0.237 OA
ATOM     82  O   UNL A   1      42.499  19.113  25.113  1.00  0.00    -0.237 OA
ATOM     83  O   UNL A   1      42.257  18.731  27.535  1.00  0.00    -0.744 OA
ENDBRANCH  79  80
ENDBRANCH  47  72
BRANCH  59  84
ATOM     84  C   UNL A   1      49.528  26.750  26.206  1.00  0.00     0.058 A 
ATOM     85  C   UNL A   1      49.888  26.908  24.859  1.00  0.00     0.135 A 
ATOM     86  C   UNL A   1      50.478  26.194  27.078  1.00  0.00     0.135 A 
ATOM     87  F   UNL A   1      49.014  27.425  23.982  1.00  0.00    -0.206 F 
ATOM     88  C   UNL A   1      51.144  26.530  24.393  1.00  0.00     0.059 A 
ATOM     89  C   UNL A   1      51.750  25.835  26.639  1.00  0.00     0.059 A 
ATOM     90  F   UNL A   1      50.189  26.027  28.378  1.00  0.00    -0.206 F 
ATOM     91  C   UNL A   1      52.072  26.005  25.294  1.00  0.00     0.060 A 
BRANCH  91  92
ATOM     92  S   UNL A   1      53.719  25.587  24.683  1.00  0.00     0.124 S 
ATOM     93  O   UNL A   1      53.700  26.182  23.351  1.00  0.00    -0.237 OA
ATOM     94  O   UNL A   1      54.586  26.242  25.658  1.00  0.00    -0.237 OA
ATOM     95  O   UNL A   1      53.736  24.128  24.717  1.00  0.00    -0.744 OA
ENDBRANCH  91  92
ENDBRANCH  59  84
ENDBRANCH  33  34
ENDBRANCH  26  28
ENDBRANCH  25  26
ENDBRANCH  24  25
ENDBRANCH  23  24
ENDBRANCH   1  23
TORSDOF 20
ENDMDL
