MODEL 1
REMARK VINA RESULT:     -10.3      0.000      0.000
REMARK SMILES CC(C)n1cc(C(=O)OCCOCCOC(=O)c2ccc(-c3c4nc(c(-c5c(F)cc(S(=O)(=O)[O-])cc5F)c5ccc([nH]5)c(-c5c(F)cc(S(=O)(=O)[O-])cc5F)c5nc(c(-c6c(F)cc(S(=O)(=O)[O-])cc6F)c6ccc3[nH]6)C=C5)C=C4)cc2)c2ccccc2c1=O
REMARK SMILES IDX 13 1 12 2 11 3 10 4 9 5 7 6 8 7 6 8 4 9 5 10 90 11 89 12
REMARK SMILES IDX 91 13 84 14 88 15 85 16 87 17 86 18 2 19 1 20 3 21 14 22
REMARK SMILES IDX 15 23 16 24 17 25 18 26 19 27 83 28 20 29 82 30 21 31 22 32
REMARK SMILES IDX 23 33 76 34 24 35 81 36 75 37 77 38 25 39 80 40 74 41 73 42
REMARK SMILES IDX 26 44 60 45 39 46 59 47 40 48 43 49 58 50 78 51 41 52 42 53
REMARK SMILES IDX 57 55 79 56 44 57 27 58 28 59 37 60 29 61 30 62 36 63 38 64
REMARK SMILES IDX 31 65 32 66 33 67 34 68 35 69 61 70 62 71 71 72 63 73 64 74
REMARK SMILES IDX 70 75 72 76 65 77 66 78 67 79 68 80 69 81 45 82 46 83 55 84
REMARK SMILES IDX 47 85 48 86 54 87 56 88 49 89 50 90 51 91 52 92 53 93
REMARK H PARENT 77 43 43 54
REMARK Flexibility Score: inf
ROOT
ATOM      1  C   UNL A   1      33.592  27.360  25.557  1.00  0.00     0.202 C 
ENDROOT
BRANCH   1   2
ATOM      2  O   UNL A   1      32.850  26.785  24.482  1.00  0.00    -0.374 OA
BRANCH   2   3
ATOM      3  C   UNL A   1      33.521  25.868  23.617  1.00  0.00     0.202 C 
BRANCH   3   4
ATOM      4  C   UNL A   1      32.682  24.768  22.958  1.00  0.00     0.261 C 
BRANCH   4   5
ATOM      5  O   UNL A   1      33.263  23.468  23.140  1.00  0.00    -0.460 OA
BRANCH   5   6
ATOM      6  C   UNL A   1      33.032  22.912  24.358  1.00  0.00     0.340 C 
ATOM      7  O   UNL A   1      32.069  23.132  25.077  1.00  0.00    -0.246 OA
BRANCH   6   8
ATOM      8  C   UNL A   1      34.041  21.860  24.659  1.00  0.00     0.084 A 
ATOM      9  N   UNL A   1      34.571  19.498  24.691  1.00  0.00    -0.312 N 
ATOM     10  C   UNL A   1      33.677  20.569  24.588  1.00  0.00     0.105 A 
ATOM     11  C   UNL A   1      35.944  19.743  24.905  1.00  0.00     0.258 A 
ATOM     12  C   UNL A   1      36.374  21.161  25.062  1.00  0.00     0.048 A 
ATOM     13  O   UNL A   1      36.817  18.885  25.000  1.00  0.00    -0.269 OA
ATOM     14  C   UNL A   1      35.434  22.190  24.985  1.00  0.00     0.003 A 
ATOM     15  C   UNL A   1      37.718  21.446  25.352  1.00  0.00     0.014 A 
ATOM     16  C   UNL A   1      35.851  23.500  25.283  1.00  0.00     0.010 A 
ATOM     17  C   UNL A   1      38.121  22.755  25.617  1.00  0.00     0.001 A 
ATOM     18  C   UNL A   1      37.182  23.779  25.602  1.00  0.00     0.001 A 
BRANCH   9  19
ATOM     19  C   UNL A   1      34.018  18.100  24.661  1.00  0.00     0.084 C 
ATOM     20  C   UNL A   1      32.570  18.002  25.180  1.00  0.00     0.031 C 
ATOM     21  C   UNL A   1      34.048  17.391  23.298  1.00  0.00     0.031 C 
ENDBRANCH   9  19
ENDBRANCH   6   8
ENDBRANCH   5   6
ENDBRANCH   4   5
ENDBRANCH   3   4
ENDBRANCH   2   3
ENDBRANCH   1   2
BRANCH   1  22
ATOM     22  C   UNL A   1      32.844  28.209  26.593  1.00  0.00     0.261 C 
BRANCH  22  23
ATOM     23  O   UNL A   1      33.656  28.537  27.732  1.00  0.00    -0.460 OA
BRANCH  23  24
ATOM     24  C   UNL A   1      34.226  29.767  27.695  1.00  0.00     0.338 C 
ATOM     25  O   UNL A   1      33.658  30.838  27.555  1.00  0.00    -0.246 OA
BRANCH  24  26
ATOM     26  C   UNL A   1      35.647  29.647  28.073  1.00  0.00     0.060 A 
ATOM     27  C   UNL A   1      36.025  29.338  29.380  1.00  0.00     0.016 A 
ATOM     28  C   UNL A   1      36.614  29.840  27.077  1.00  0.00     0.016 A 
ATOM     29  C   UNL A   1      37.382  29.196  29.681  1.00  0.00     0.010 A 
ATOM     30  C   UNL A   1      37.968  29.699  27.381  1.00  0.00     0.010 A 
ATOM     31  C   UNL A   1      38.361  29.358  28.682  1.00  0.00    -0.014 A 
BRANCH  31  32
ATOM     32  C   UNL A   1      39.782  29.049  28.977  1.00  0.00     0.031 A 
ATOM     33  C   UNL A   1      40.367  27.699  28.684  1.00  0.00     0.074 A 
ATOM     34  C   UNL A   1      40.544  30.014  29.529  1.00  0.00     0.049 A 
ATOM     35  N   UNL A   1      41.604  27.296  28.821  1.00  0.00    -0.248 NA
ATOM     36  C   UNL A   1      39.449  26.667  28.181  1.00  0.00     0.031 C 
ATOM     37  C   UNL A   1      40.067  31.350  29.893  1.00  0.00     0.029 A 
ATOM     38  N   UNL A   1      41.871  30.029  29.870  1.00  0.00    -0.354 N 
ATOM     39  C   UNL A   1      41.624  25.974  28.397  1.00  0.00     0.074 A 
ATOM     40  C   UNL A   1      40.262  25.625  28.051  1.00  0.00     0.031 C 
ATOM     41  C   UNL A   1      41.096  32.067  30.371  1.00  0.00     0.029 A 
ATOM     42  C   UNL A   1      42.295  31.234  30.380  1.00  0.00     0.049 A 
ATOM     43  H   UNL A   1      42.466  29.251  29.761  1.00  0.00     0.167 HD
ATOM     44  C   UNL A   1      42.687  25.140  28.286  1.00  0.00     0.037 A 
ATOM     45  C   UNL A   1      43.511  31.626  30.803  1.00  0.00     0.037 A 
ATOM     46  C   UNL A   1      44.036  25.494  28.651  1.00  0.00     0.049 A 
ATOM     47  C   UNL A   1      44.662  30.662  30.719  1.00  0.00     0.074 A 
ATOM     48  C   UNL A   1      45.184  24.726  28.546  1.00  0.00     0.029 A 
ATOM     49  N   UNL A   1      44.421  26.708  29.203  1.00  0.00    -0.354 N 
ATOM     50  N   UNL A   1      44.678  29.438  30.245  1.00  0.00    -0.248 NA
ATOM     51  C   UNL A   1      45.960  31.129  31.222  1.00  0.00     0.031 C 
ATOM     52  C   UNL A   1      46.250  25.453  29.085  1.00  0.00     0.029 A 
ATOM     53  C   UNL A   1      45.781  26.699  29.471  1.00  0.00     0.049 A 
ATOM     54  H   UNL A   1      43.817  27.466  29.377  1.00  0.00     0.167 HD
ATOM     55  C   UNL A   1      45.991  28.998  30.376  1.00  0.00     0.074 A 
ATOM     56  C   UNL A   1      46.742  30.093  30.953  1.00  0.00     0.031 C 
ATOM     57  C   UNL A   1      46.521  27.794  30.049  1.00  0.00     0.037 A 
BRANCH  44  58
ATOM     58  C   UNL A   1      42.447  23.760  27.736  1.00  0.00     0.058 A 
ATOM     59  C   UNL A   1      42.404  23.523  26.353  1.00  0.00     0.135 A 
ATOM     60  C   UNL A   1      42.342  22.650  28.592  1.00  0.00     0.135 A 
ATOM     61  F   UNL A   1      42.487  24.547  25.488  1.00  0.00    -0.206 F 
ATOM     62  C   UNL A   1      42.251  22.240  25.837  1.00  0.00     0.059 A 
ATOM     63  C   UNL A   1      42.215  21.354  28.097  1.00  0.00     0.059 A 
ATOM     64  F   UNL A   1      42.378  22.818  29.923  1.00  0.00    -0.206 F 
ATOM     65  C   UNL A   1      42.163  21.161  26.718  1.00  0.00     0.060 A 
BRANCH  65  66
ATOM     66  S   UNL A   1      41.982  19.504  26.026  1.00  0.00     0.124 S 
ATOM     67  O   UNL A   1      42.851  19.583  24.855  1.00  0.00    -0.237 OA
ATOM     68  O   UNL A   1      42.463  18.660  27.115  1.00  0.00    -0.237 OA
ATOM     69  O   UNL A   1      40.555  19.405  25.740  1.00  0.00    -0.744 OA
ENDBRANCH  65  66
ENDBRANCH  44  58
BRANCH  45  70
ATOM     70  C   UNL A   1      43.705  33.009  31.316  1.00  0.00     0.058 A 
ATOM     71  C   UNL A   1      44.070  34.054  30.455  1.00  0.00     0.135 A 
ATOM     72  C   UNL A   1      43.507  33.317  32.671  1.00  0.00     0.135 A 
ATOM     73  F   UNL A   1      44.275  33.808  29.152  1.00  0.00    -0.206 F 
ATOM     74  C   UNL A   1      44.244  35.353  30.920  1.00  0.00     0.059 A 
ATOM     75  C   UNL A   1      43.648  34.615  33.154  1.00  0.00     0.059 A 
ATOM     76  F   UNL A   1      43.143  32.356  33.535  1.00  0.00    -0.206 F 
ATOM     77  C   UNL A   1      44.025  35.624  32.271  1.00  0.00     0.060 A 
BRANCH  77  78
ATOM     78  S   UNL A   1      44.210  37.325  32.849  1.00  0.00     0.124 S 
ATOM     79  O   UNL A   1      44.043  38.076  31.610  1.00  0.00    -0.237 OA
ATOM     80  O   UNL A   1      43.124  37.436  33.817  1.00  0.00    -0.237 OA
ATOM     81  O   UNL A   1      45.554  37.342  33.420  1.00  0.00    -0.744 OA
ENDBRANCH  77  78
ENDBRANCH  45  70
BRANCH  57  82
ATOM     82  C   UNL A   1      47.993  27.589  30.297  1.00  0.00     0.058 A 
ATOM     83  C   UNL A   1      48.467  27.067  31.510  1.00  0.00     0.135 A 
ATOM     84  C   UNL A   1      48.932  27.850  29.285  1.00  0.00     0.135 A 
ATOM     85  F   UNL A   1      47.615  26.807  32.514  1.00  0.00    -0.206 F 
ATOM     86  C   UNL A   1      49.822  26.826  31.717  1.00  0.00     0.059 A 
ATOM     87  C   UNL A   1      50.287  27.587  29.460  1.00  0.00     0.059 A 
ATOM     88  F   UNL A   1      48.532  28.341  28.101  1.00  0.00    -0.206 F 
ATOM     89  C   UNL A   1      50.724  27.082  30.683  1.00  0.00     0.060 A 
BRANCH  89  90
ATOM     90  S   UNL A   1      52.471  26.717  30.954  1.00  0.00     0.124 S 
ATOM     91  O   UNL A   1      52.869  27.814  31.831  1.00  0.00    -0.237 OA
ATOM     92  O   UNL A   1      52.418  25.396  31.574  1.00  0.00    -0.237 OA
ATOM     93  O   UNL A   1      53.040  26.752  29.610  1.00  0.00    -0.744 OA
ENDBRANCH  89  90
ENDBRANCH  57  82
ENDBRANCH  31  32
ENDBRANCH  24  26
ENDBRANCH  23  24
ENDBRANCH  22  23
ENDBRANCH   1  22
TORSDOF 18
ENDMDL
MODEL 2
REMARK VINA RESULT:     -10.1      4.772      9.760
REMARK SMILES CC(C)n1cc(C(=O)OCCOCCOC(=O)c2ccc(-c3c4nc(c(-c5c(F)cc(S(=O)(=O)[O-])cc5F)c5ccc([nH]5)c(-c5c(F)cc(S(=O)(=O)[O-])cc5F)c5nc(c(-c6c(F)cc(S(=O)(=O)[O-])cc6F)c6ccc3[nH]6)C=C5)C=C4)cc2)c2ccccc2c1=O
REMARK SMILES IDX 13 1 12 2 11 3 10 4 9 5 7 6 8 7 6 8 4 9 5 10 90 11 89 12
REMARK SMILES IDX 91 13 84 14 88 15 85 16 87 17 86 18 2 19 1 20 3 21 14 22
REMARK SMILES IDX 15 23 16 24 17 25 18 26 19 27 83 28 20 29 82 30 21 31 22 32
REMARK SMILES IDX 23 33 76 34 24 35 81 36 75 37 77 38 25 39 80 40 74 41 73 42
REMARK SMILES IDX 26 44 60 45 39 46 59 47 40 48 43 49 58 50 78 51 41 52 42 53
REMARK SMILES IDX 57 55 79 56 44 57 27 58 28 59 37 60 29 61 30 62 36 63 38 64
REMARK SMILES IDX 31 65 32 66 33 67 34 68 35 69 61 70 62 71 71 72 63 73 64 74
REMARK SMILES IDX 70 75 72 76 65 77 66 78 67 79 68 80 69 81 45 82 46 83 55 84
REMARK SMILES IDX 47 85 48 86 54 87 56 88 49 89 50 90 51 91 52 92 53 93
REMARK H PARENT 77 43 43 54
REMARK Flexibility Score: inf
ROOT
ATOM      1  C   UNL A   1      40.364  21.742  26.713  1.00  0.00     0.202 C 
ENDROOT
BRANCH   1   2
ATOM      2  O   UNL A   1      39.120  21.720  26.014  1.00  0.00    -0.374 OA
BRANCH   2   3
ATOM      3  C   UNL A   1      38.265  22.858  26.125  1.00  0.00     0.202 C 
BRANCH   3   4
ATOM      4  C   UNL A   1      36.881  22.776  25.471  1.00  0.00     0.261 C 
BRANCH   4   5
ATOM      5  O   UNL A   1      36.304  21.469  25.600  1.00  0.00    -0.460 OA
BRANCH   5   6
ATOM      6  C   UNL A   1      35.046  21.455  26.114  1.00  0.00     0.340 C 
ATOM      7  O   UNL A   1      34.745  21.655  27.281  1.00  0.00    -0.246 OA
BRANCH   6   8
ATOM      8  C   UNL A   1      34.034  21.313  25.031  1.00  0.00     0.084 A 
ATOM      9  N   UNL A   1      32.655  22.416  23.376  1.00  0.00    -0.312 N 
ATOM     10  C   UNL A   1      33.490  22.419  24.499  1.00  0.00     0.105 A 
ATOM     11  C   UNL A   1      32.321  21.198  22.747  1.00  0.00     0.258 A 
ATOM     12  C   UNL A   1      32.848  19.944  23.354  1.00  0.00     0.048 A 
ATOM     13  O   UNL A   1      31.611  21.078  21.754  1.00  0.00    -0.269 OA
ATOM     14  C   UNL A   1      33.649  20.000  24.495  1.00  0.00     0.003 A 
ATOM     15  C   UNL A   1      32.479  18.704  22.805  1.00  0.00     0.014 A 
ATOM     16  C   UNL A   1      34.006  18.793  25.123  1.00  0.00     0.010 A 
ATOM     17  C   UNL A   1      32.866  17.516  23.423  1.00  0.00     0.001 A 
ATOM     18  C   UNL A   1      33.613  17.562  24.595  1.00  0.00     0.001 A 
BRANCH   9  19
ATOM     19  C   UNL A   1      32.059  23.721  22.926  1.00  0.00     0.084 C 
ATOM     20  C   UNL A   1      30.653  23.984  23.501  1.00  0.00     0.031 C 
ATOM     21  C   UNL A   1      32.896  24.979  23.211  1.00  0.00     0.031 C 
ENDBRANCH   9  19
ENDBRANCH   6   8
ENDBRANCH   5   6
ENDBRANCH   4   5
ENDBRANCH   3   4
ENDBRANCH   2   3
ENDBRANCH   1   2
BRANCH   1  22
ATOM     22  C   UNL A   1      41.531  22.533  26.107  1.00  0.00     0.261 C 
BRANCH  22  23
ATOM     23  O   UNL A   1      41.968  23.610  26.950  1.00  0.00    -0.460 OA
BRANCH  23  24
ATOM     24  C   UNL A   1      41.877  24.845  26.398  1.00  0.00     0.338 C 
ATOM     25  O   UNL A   1      41.886  25.123  25.210  1.00  0.00    -0.246 OA
BRANCH  24  26
ATOM     26  C   UNL A   1      41.540  25.818  27.454  1.00  0.00     0.060 A 
ATOM     27  C   UNL A   1      40.472  25.602  28.325  1.00  0.00     0.016 A 
ATOM     28  C   UNL A   1      42.334  26.968  27.571  1.00  0.00     0.016 A 
ATOM     29  C   UNL A   1      40.217  26.533  29.335  1.00  0.00     0.010 A 
ATOM     30  C   UNL A   1      42.075  27.897  28.579  1.00  0.00     0.010 A 
ATOM     31  C   UNL A   1      41.026  27.677  29.480  1.00  0.00    -0.014 A 
BRANCH  31  32
ATOM     32  C   UNL A   1      40.844  28.571  30.649  1.00  0.00     0.031 A 
ATOM     33  C   UNL A   1      41.703  28.447  31.873  1.00  0.00     0.074 A 
ATOM     34  C   UNL A   1      39.873  29.504  30.594  1.00  0.00     0.049 A 
ATOM     35  N   UNL A   1      41.714  29.196  32.946  1.00  0.00    -0.248 NA
ATOM     36  C   UNL A   1      42.670  27.340  31.901  1.00  0.00     0.031 C 
ATOM     37  C   UNL A   1      38.951  29.687  29.470  1.00  0.00     0.029 A 
ATOM     38  N   UNL A   1      39.503  30.475  31.489  1.00  0.00    -0.354 N 
ATOM     39  C   UNL A   1      42.702  28.671  33.768  1.00  0.00     0.074 A 
ATOM     40  C   UNL A   1      43.232  27.504  33.093  1.00  0.00     0.031 C 
ATOM     41  C   UNL A   1      38.150  30.731  29.727  1.00  0.00     0.029 A 
ATOM     42  C   UNL A   1      38.474  31.270  31.044  1.00  0.00     0.049 A 
ATOM     43  H   UNL A   1      39.935  30.592  32.367  1.00  0.00     0.167 HD
ATOM     44  C   UNL A   1      43.139  29.136  34.964  1.00  0.00     0.037 A 
ATOM     45  C   UNL A   1      37.862  32.318  31.628  1.00  0.00     0.037 A 
ATOM     46  C   UNL A   1      42.590  30.289  35.634  1.00  0.00     0.049 A 
ATOM     47  C   UNL A   1      38.332  32.780  32.980  1.00  0.00     0.074 A 
ATOM     48  C   UNL A   1      42.987  30.855  36.833  1.00  0.00     0.029 A 
ATOM     49  N   UNL A   1      41.521  31.046  35.175  1.00  0.00    -0.354 N 
ATOM     50  N   UNL A   1      39.319  32.318  33.711  1.00  0.00    -0.248 NA
ATOM     51  C   UNL A   1      37.611  33.906  33.587  1.00  0.00     0.031 C 
ATOM     52  C   UNL A   1      42.125  31.916  37.126  1.00  0.00     0.029 A 
ATOM     53  C   UNL A   1      41.226  32.052  36.081  1.00  0.00     0.049 A 
ATOM     54  H   UNL A   1      41.042  30.891  34.328  1.00  0.00     0.167 HD
ATOM     55  C   UNL A   1      39.349  33.109  34.854  1.00  0.00     0.074 A 
ATOM     56  C   UNL A   1      38.295  34.093  34.707  1.00  0.00     0.031 C 
ATOM     57  C   UNL A   1      40.173  33.026  35.927  1.00  0.00     0.037 A 
BRANCH  44  58
ATOM     58  C   UNL A   1      44.277  28.412  35.630  1.00  0.00     0.058 A 
ATOM     59  C   UNL A   1      45.613  28.769  35.384  1.00  0.00     0.135 A 
ATOM     60  C   UNL A   1      44.035  27.410  36.584  1.00  0.00     0.135 A 
ATOM     61  F   UNL A   1      45.904  29.711  34.473  1.00  0.00    -0.206 F 
ATOM     62  C   UNL A   1      46.667  28.150  36.048  1.00  0.00     0.059 A 
ATOM     63  C   UNL A   1      45.073  26.795  37.280  1.00  0.00     0.059 A 
ATOM     64  F   UNL A   1      42.777  27.029  36.859  1.00  0.00    -0.206 F 
ATOM     65  C   UNL A   1      46.386  27.167  36.998  1.00  0.00     0.060 A 
BRANCH  65  66
ATOM     66  S   UNL A   1      47.769  26.390  37.859  1.00  0.00     0.124 S 
ATOM     67  O   UNL A   1      47.718  25.032  37.324  1.00  0.00    -0.237 OA
ATOM     68  O   UNL A   1      48.901  27.201  37.421  1.00  0.00    -0.237 OA
ATOM     69  O   UNL A   1      47.413  26.521  39.268  1.00  0.00    -0.744 OA
ENDBRANCH  65  66
ENDBRANCH  44  58
BRANCH  45  70
ATOM     70  C   UNL A   1      36.757  33.018  30.921  1.00  0.00     0.058 A 
ATOM     71  C   UNL A   1      35.423  32.848  31.318  1.00  0.00     0.135 A 
ATOM     72  C   UNL A   1      37.014  33.887  29.849  1.00  0.00     0.135 A 
ATOM     73  F   UNL A   1      35.126  32.024  32.334  1.00  0.00    -0.206 F 
ATOM     74  C   UNL A   1      34.382  33.505  30.672  1.00  0.00     0.059 A 
ATOM     75  C   UNL A   1      35.992  34.578  29.205  1.00  0.00     0.059 A 
ATOM     76  F   UNL A   1      38.276  34.097  29.438  1.00  0.00    -0.206 F 
ATOM     77  C   UNL A   1      34.677  34.372  29.619  1.00  0.00     0.060 A 
BRANCH  77  78
ATOM     78  S   UNL A   1      33.318  35.253  28.821  1.00  0.00     0.124 S 
ATOM     79  O   UNL A   1      32.727  34.200  28.002  1.00  0.00    -0.237 OA
ATOM     80  O   UNL A   1      32.528  35.693  29.965  1.00  0.00    -0.237 OA
ATOM     81  O   UNL A   1      33.993  36.319  28.086  1.00  0.00    -0.744 OA
ENDBRANCH  77  78
ENDBRANCH  45  70
BRANCH  57  82
ATOM     82  C   UNL A   1      39.982  34.029  37.034  1.00  0.00     0.058 A 
ATOM     83  C   UNL A   1      40.551  35.311  36.970  1.00  0.00     0.135 A 
ATOM     84  C   UNL A   1      39.163  33.731  38.136  1.00  0.00     0.135 A 
ATOM     85  F   UNL A   1      41.348  35.646  35.943  1.00  0.00    -0.206 F 
ATOM     86  C   UNL A   1      40.327  36.256  37.966  1.00  0.00     0.059 A 
ATOM     87  C   UNL A   1      38.902  34.671  39.128  1.00  0.00     0.059 A 
ATOM     88  F   UNL A   1      38.587  32.523  38.243  1.00  0.00    -0.206 F 
ATOM     89  C   UNL A   1      39.495  35.929  39.038  1.00  0.00     0.060 A 
BRANCH  89  90
ATOM     90  S   UNL A   1      39.178  37.185  40.297  1.00  0.00     0.124 S 
ATOM     91  O   UNL A   1      38.489  38.211  39.522  1.00  0.00    -0.237 OA
ATOM     92  O   UNL A   1      38.356  36.456  41.258  1.00  0.00    -0.237 OA
ATOM     93  O   UNL A   1      40.513  37.544  40.765  1.00  0.00    -0.744 OA
ENDBRANCH  89  90
ENDBRANCH  57  82
ENDBRANCH  31  32
ENDBRANCH  24  26
ENDBRANCH  23  24
ENDBRANCH  22  23
ENDBRANCH   1  22
TORSDOF 18
ENDMDL
MODEL 3
REMARK VINA RESULT:     -10.1      5.070     10.186
REMARK SMILES CC(C)n1cc(C(=O)OCCOCCOC(=O)c2ccc(-c3c4nc(c(-c5c(F)cc(S(=O)(=O)[O-])cc5F)c5ccc([nH]5)c(-c5c(F)cc(S(=O)(=O)[O-])cc5F)c5nc(c(-c6c(F)cc(S(=O)(=O)[O-])cc6F)c6ccc3[nH]6)C=C5)C=C4)cc2)c2ccccc2c1=O
REMARK SMILES IDX 13 1 12 2 11 3 10 4 9 5 7 6 8 7 6 8 4 9 5 10 90 11 89 12
REMARK SMILES IDX 91 13 84 14 88 15 85 16 87 17 86 18 2 19 1 20 3 21 14 22
REMARK SMILES IDX 15 23 16 24 17 25 18 26 19 27 83 28 20 29 82 30 21 31 22 32
REMARK SMILES IDX 23 33 76 34 24 35 81 36 75 37 77 38 25 39 80 40 74 41 73 42
REMARK SMILES IDX 26 44 60 45 39 46 59 47 40 48 43 49 58 50 78 51 41 52 42 53
REMARK SMILES IDX 57 55 79 56 44 57 27 58 28 59 37 60 29 61 30 62 36 63 38 64
REMARK SMILES IDX 31 65 32 66 33 67 34 68 35 69 61 70 62 71 71 72 63 73 64 74
REMARK SMILES IDX 70 75 72 76 65 77 66 78 67 79 68 80 69 81 45 82 46 83 55 84
REMARK SMILES IDX 47 85 48 86 54 87 56 88 49 89 50 90 51 91 52 92 53 93
REMARK H PARENT 77 43 43 54
REMARK Flexibility Score: inf
ROOT
ATOM      1  C   UNL A   1      40.366  22.524  26.880  1.00  0.00     0.202 C 
ENDROOT
BRANCH   1   2
ATOM      2  O   UNL A   1      39.089  22.408  26.255  1.00  0.00    -0.374 OA
BRANCH   2   3
ATOM      3  C   UNL A   1      38.364  23.606  25.980  1.00  0.00     0.202 C 
BRANCH   3   4
ATOM      4  C   UNL A   1      36.885  23.652  26.382  1.00  0.00     0.261 C 
BRANCH   4   5
ATOM      5  O   UNL A   1      36.066  24.218  25.349  1.00  0.00    -0.460 OA
BRANCH   5   6
ATOM      6  C   UNL A   1      34.740  24.261  25.641  1.00  0.00     0.340 C 
ATOM      7  O   UNL A   1      34.138  23.484  26.366  1.00  0.00    -0.246 OA
BRANCH   6   8
ATOM      8  C   UNL A   1      34.114  25.489  25.077  1.00  0.00     0.084 A 
ATOM      9  N   UNL A   1      33.630  27.843  25.366  1.00  0.00    -0.312 N 
ATOM     10  C   UNL A   1      34.046  26.594  25.838  1.00  0.00     0.105 A 
ATOM     11  C   UNL A   1      33.226  27.992  24.023  1.00  0.00     0.258 A 
ATOM     12  C   UNL A   1      33.218  26.772  23.168  1.00  0.00     0.048 A 
ATOM     13  O   UNL A   1      32.855  29.038  23.499  1.00  0.00    -0.269 OA
ATOM     14  C   UNL A   1      33.611  25.542  23.698  1.00  0.00     0.003 A 
ATOM     15  C   UNL A   1      32.752  26.859  21.845  1.00  0.00     0.014 A 
ATOM     16  C   UNL A   1      33.452  24.390  22.907  1.00  0.00     0.010 A 
ATOM     17  C   UNL A   1      32.627  25.711  21.063  1.00  0.00     0.001 A 
ATOM     18  C   UNL A   1      32.959  24.474  21.603  1.00  0.00     0.001 A 
BRANCH   9  19
ATOM     19  C   UNL A   1      33.538  28.981  26.344  1.00  0.00     0.084 C 
ATOM     20  C   UNL A   1      32.309  28.896  27.271  1.00  0.00     0.031 C 
ATOM     21  C   UNL A   1      34.761  29.194  27.250  1.00  0.00     0.031 C 
ENDBRANCH   9  19
ENDBRANCH   6   8
ENDBRANCH   5   6
ENDBRANCH   4   5
ENDBRANCH   3   4
ENDBRANCH   2   3
ENDBRANCH   1   2
BRANCH   1  22
ATOM     22  C   UNL A   1      41.558  22.989  26.033  1.00  0.00     0.261 C 
BRANCH  22  23
ATOM     23  O   UNL A   1      42.233  24.123  26.601  1.00  0.00    -0.460 OA
BRANCH  23  24
ATOM     24  C   UNL A   1      41.686  25.327  26.300  1.00  0.00     0.338 C 
ATOM     25  O   UNL A   1      41.184  25.664  25.240  1.00  0.00    -0.246 OA
BRANCH  24  26
ATOM     26  C   UNL A   1      41.584  26.128  27.535  1.00  0.00     0.060 A 
ATOM     27  C   UNL A   1      42.522  27.115  27.837  1.00  0.00     0.016 A 
ATOM     28  C   UNL A   1      40.506  25.880  28.396  1.00  0.00     0.016 A 
ATOM     29  C   UNL A   1      42.361  27.875  28.999  1.00  0.00     0.010 A 
ATOM     30  C   UNL A   1      40.350  26.639  29.556  1.00  0.00     0.010 A 
ATOM     31  C   UNL A   1      41.267  27.655  29.856  1.00  0.00    -0.014 A 
BRANCH  31  32
ATOM     32  C   UNL A   1      41.021  28.571  30.997  1.00  0.00     0.031 A 
ATOM     33  C   UNL A   1      41.850  28.508  32.246  1.00  0.00     0.074 A 
ATOM     34  C   UNL A   1      40.020  29.467  30.892  1.00  0.00     0.049 A 
ATOM     35  N   UNL A   1      41.804  29.283  33.299  1.00  0.00    -0.248 NA
ATOM     36  C   UNL A   1      42.853  27.437  32.329  1.00  0.00     0.031 C 
ATOM     37  C   UNL A   1      39.124  29.590  29.739  1.00  0.00     0.029 A 
ATOM     38  N   UNL A   1      39.592  30.446  31.750  1.00  0.00    -0.354 N 
ATOM     39  C   UNL A   1      42.787  28.814  34.161  1.00  0.00     0.074 A 
ATOM     40  C   UNL A   1      43.375  27.650  33.531  1.00  0.00     0.031 C 
ATOM     41  C   UNL A   1      38.280  30.611  29.947  1.00  0.00     0.029 A 
ATOM     42  C   UNL A   1      38.548  31.193  31.258  1.00  0.00     0.049 A 
ATOM     43  H   UNL A   1      39.994  30.600  32.636  1.00  0.00     0.167 HD
ATOM     44  C   UNL A   1      43.174  29.324  35.356  1.00  0.00     0.037 A 
ATOM     45  C   UNL A   1      37.884  32.233  31.798  1.00  0.00     0.037 A 
ATOM     46  C   UNL A   1      42.567  30.473  35.981  1.00  0.00     0.049 A 
ATOM     47  C   UNL A   1      38.300  32.745  33.150  1.00  0.00     0.074 A 
ATOM     48  C   UNL A   1      42.910  31.082  37.176  1.00  0.00     0.029 A 
ATOM     49  N   UNL A   1      41.485  31.179  35.473  1.00  0.00    -0.354 N 
ATOM     50  N   UNL A   1      39.282  32.336  33.919  1.00  0.00    -0.248 NA
ATOM     51  C   UNL A   1      37.523  33.859  33.708  1.00  0.00     0.031 C 
ATOM     52  C   UNL A   1      42.004  32.118  37.418  1.00  0.00     0.029 A 
ATOM     53  C   UNL A   1      41.130  32.196  36.345  1.00  0.00     0.049 A 
ATOM     54  H   UNL A   1      41.036  30.987  34.618  1.00  0.00     0.167 HD
ATOM     55  C   UNL A   1      39.252  33.156  35.042  1.00  0.00     0.074 A 
ATOM     56  C   UNL A   1      38.169  34.097  34.841  1.00  0.00     0.031 C 
ATOM     57  C   UNL A   1      40.048  33.128  36.138  1.00  0.00     0.037 A 
BRANCH  44  58
ATOM     58  C   UNL A   1      44.317  28.657  36.070  1.00  0.00     0.058 A 
ATOM     59  C   UNL A   1      45.637  29.112  35.919  1.00  0.00     0.135 A 
ATOM     60  C   UNL A   1      44.088  27.610  36.979  1.00  0.00     0.135 A 
ATOM     61  F   UNL A   1      45.917  30.101  35.055  1.00  0.00    -0.206 F 
ATOM     62  C   UNL A   1      46.690  28.544  36.629  1.00  0.00     0.059 A 
ATOM     63  C   UNL A   1      45.123  27.045  37.721  1.00  0.00     0.059 A 
ATOM     64  F   UNL A   1      42.846  27.136  37.165  1.00  0.00    -0.206 F 
ATOM     65  C   UNL A   1      46.422  27.514  37.532  1.00  0.00     0.060 A 
BRANCH  65  66
ATOM     66  S   UNL A   1      47.801  26.805  38.456  1.00  0.00     0.124 S 
ATOM     67  O   UNL A   1      48.239  25.743  37.553  1.00  0.00    -0.237 OA
ATOM     68  O   UNL A   1      48.706  27.943  38.580  1.00  0.00    -0.237 OA
ATOM     69  O   UNL A   1      47.186  26.355  39.700  1.00  0.00    -0.744 OA
ENDBRANCH  65  66
ENDBRANCH  44  58
BRANCH  45  70
ATOM     70  C   UNL A   1      36.776  32.875  31.043  1.00  0.00     0.058 A 
ATOM     71  C   UNL A   1      35.436  32.613  31.364  1.00  0.00     0.135 A 
ATOM     72  C   UNL A   1      37.033  33.781  30.001  1.00  0.00     0.135 A 
ATOM     73  F   UNL A   1      35.140  31.751  32.348  1.00  0.00    -0.206 F 
ATOM     74  C   UNL A   1      34.391  33.215  30.673  1.00  0.00     0.059 A 
ATOM     75  C   UNL A   1      36.004  34.418  29.315  1.00  0.00     0.059 A 
ATOM     76  F   UNL A   1      38.299  34.079  29.664  1.00  0.00    -0.206 F 
ATOM     77  C   UNL A   1      34.686  34.121  29.653  1.00  0.00     0.060 A 
BRANCH  77  78
ATOM     78  S   UNL A   1      33.317  34.930  28.796  1.00  0.00     0.124 S 
ATOM     79  O   UNL A   1      32.857  33.867  27.909  1.00  0.00    -0.237 OA
ATOM     80  O   UNL A   1      32.427  35.271  29.901  1.00  0.00    -0.237 OA
ATOM     81  O   UNL A   1      33.955  36.066  28.140  1.00  0.00    -0.744 OA
ENDBRANCH  77  78
ENDBRANCH  45  70
BRANCH  57  82
ATOM     82  C   UNL A   1      39.792  34.151  37.213  1.00  0.00     0.058 A 
ATOM     83  C   UNL A   1      39.059  33.835  38.368  1.00  0.00     0.135 A 
ATOM     84  C   UNL A   1      40.344  35.440  37.121  1.00  0.00     0.135 A 
ATOM     85  F   UNL A   1      38.502  32.621  38.505  1.00  0.00    -0.206 F 
ATOM     86  C   UNL A   1      38.871  34.764  39.387  1.00  0.00     0.059 A 
ATOM     87  C   UNL A   1      40.194  36.374  38.141  1.00  0.00     0.059 A 
ATOM     88  F   UNL A   1      41.061  35.793  36.042  1.00  0.00    -0.206 F 
ATOM     89  C   UNL A   1      39.448  36.029  39.268  1.00  0.00     0.060 A 
BRANCH  89  90
ATOM     90  S   UNL A   1      39.233  37.205  40.621  1.00  0.00     0.124 S 
ATOM     91  O   UNL A   1      38.301  38.163  40.034  1.00  0.00    -0.237 OA
ATOM     92  O   UNL A   1      38.690  36.360  41.680  1.00  0.00    -0.237 OA
ATOM     93  O   UNL A   1      40.583  37.708  40.855  1.00  0.00    -0.744 OA
ENDBRANCH  89  90
ENDBRANCH  57  82
ENDBRANCH  31  32
ENDBRANCH  24  26
ENDBRANCH  23  24
ENDBRANCH  22  23
ENDBRANCH   1  22
TORSDOF 18
ENDMDL
