MODEL 1
REMARK VINA RESULT:     -11.1      0.000      0.000
REMARK SMILES Cc1cc(C)c2c(c1)C=C(C(=O)OCCOCCOC(=O)c1ccc(-c3c4nc(c(-c5c(F)cc(S(=O)(=O)[O-])cc5F)c5ccc([nH]5)c(-c5c(F)cc(S(=O)(=O)[O-])cc5F)c5nc(c(-c6c(F)cc(S(=O)(=O)[O-])cc6F)c6ccc3[nH]6)C=C5)C=C4)cc1)[C@@H](C(F)(F)F)O2
REMARK SMILES IDX 17 1 16 2 15 3 14 4 13 5 11 6 12 7 10 8 1 9 2 10 3 11 8 12
REMARK SMILES IDX 4 13 7 14 5 15 6 16 9 17 93 18 88 19 89 20 90 21 91 22 92 23
REMARK SMILES IDX 18 24 19 25 20 26 21 27 22 28 23 29 87 30 24 31 86 32 25 33
REMARK SMILES IDX 26 34 27 35 80 36 28 37 85 38 79 39 81 40 29 41 84 42 78 43
REMARK SMILES IDX 77 44 30 46 64 47 43 48 63 49 44 50 47 51 62 52 82 53 45 54
REMARK SMILES IDX 46 55 61 57 83 58 48 59 31 60 32 61 41 62 33 63 34 64 40 65
REMARK SMILES IDX 42 66 35 67 36 68 37 69 38 70 39 71 65 72 66 73 75 74 67 75
REMARK SMILES IDX 68 76 74 77 76 78 69 79 70 80 71 81 72 82 73 83 49 84 50 85
REMARK SMILES IDX 59 86 51 87 52 88 58 89 60 90 53 91 54 92 55 93 56 94 57 95
REMARK H PARENT 81 45 47 56
REMARK Flexibility Score: inf
ROOT
ATOM      1  C   UNL A   1      34.094  31.662  27.983  1.00  0.00     0.202 C 
ENDROOT
BRANCH   1   2
ATOM      2  O   UNL A   1      33.541  30.513  27.337  1.00  0.00    -0.374 OA
BRANCH   2   3
ATOM      3  C   UNL A   1      32.226  30.624  26.796  1.00  0.00     0.202 C 
BRANCH   3   4
ATOM      4  C   UNL A   1      31.799  29.546  25.795  1.00  0.00     0.261 C 
BRANCH   4   5
ATOM      5  O   UNL A   1      32.553  28.336  25.966  1.00  0.00    -0.460 OA
BRANCH   5   6
ATOM      6  C   UNL A   1      31.890  27.344  26.602  1.00  0.00     0.338 C 
ATOM      7  O   UNL A   1      31.055  27.470  27.487  1.00  0.00    -0.246 OA
BRANCH   6   8
ATOM      8  C   UNL A   1      32.212  26.045  25.984  1.00  0.00     0.087 C 
ATOM      9  C   UNL A   1      37.139  22.785  24.285  1.00  0.00     0.044 C 
ATOM     10  C   UNL A   1      35.680  23.111  24.400  1.00  0.00    -0.050 A 
ATOM     11  C   UNL A   1      34.714  22.327  23.759  1.00  0.00     0.010 A 
ATOM     12  C   UNL A   1      35.265  24.195  25.179  1.00  0.00     0.015 A 
ATOM     13  C   UNL A   1      33.346  22.625  23.878  1.00  0.00    -0.008 A 
ATOM     14  C   UNL A   1      33.908  24.513  25.288  1.00  0.00     0.018 A 
ATOM     15  C   UNL A   1      32.331  21.791  23.146  1.00  0.00     0.048 C 
ATOM     16  C   UNL A   1      32.947  23.719  24.661  1.00  0.00     0.130 A 
ATOM     17  C   UNL A   1      33.508  25.713  25.997  1.00  0.00     0.027 C 
ATOM     18  O   UNL A   1      31.603  23.948  24.776  1.00  0.00    -0.475 OA
ATOM     19  C   UNL A   1      31.137  25.196  25.366  1.00  0.00     0.316 C 
BRANCH  19  20
ATOM     20  C   UNL A   1      30.321  25.951  24.306  1.00  0.00     0.430 C 
ATOM     21  F   UNL A   1      31.112  26.774  23.575  1.00  0.00    -0.167 F 
ATOM     22  F   UNL A   1      29.725  25.106  23.435  1.00  0.00    -0.167 F 
ATOM     23  F   UNL A   1      29.352  26.711  24.864  1.00  0.00    -0.167 F 
ENDBRANCH  19  20
ENDBRANCH   6   8
ENDBRANCH   5   6
ENDBRANCH   4   5
ENDBRANCH   3   4
ENDBRANCH   2   3
ENDBRANCH   1   2
BRANCH   1  24
ATOM     24  C   UNL A   1      35.058  31.419  29.153  1.00  0.00     0.261 C 
BRANCH  24  25
ATOM     25  O   UNL A   1      35.890  30.264  28.945  1.00  0.00    -0.460 OA
BRANCH  25  26
ATOM     26  C   UNL A   1      36.630  29.900  30.020  1.00  0.00     0.338 C 
ATOM     27  O   UNL A   1      36.217  29.458  31.085  1.00  0.00    -0.246 OA
BRANCH  26  28
ATOM     28  C   UNL A   1      38.063  29.924  29.679  1.00  0.00     0.060 A 
ATOM     29  C   UNL A   1      38.410  29.846  28.324  1.00  0.00     0.016 A 
ATOM     30  C   UNL A   1      39.049  29.935  30.668  1.00  0.00     0.016 A 
ATOM     31  C   UNL A   1      39.747  29.731  27.953  1.00  0.00     0.010 A 
ATOM     32  C   UNL A   1      40.391  29.806  30.293  1.00  0.00     0.010 A 
ATOM     33  C   UNL A   1      40.742  29.669  28.938  1.00  0.00    -0.014 A 
BRANCH  33  34
ATOM     34  C   UNL A   1      42.125  29.303  28.549  1.00  0.00     0.031 A 
ATOM     35  C   UNL A   1      42.419  27.876  28.172  1.00  0.00     0.074 A 
ATOM     36  C   UNL A   1      43.091  30.236  28.483  1.00  0.00     0.049 A 
ATOM     37  N   UNL A   1      43.552  27.332  27.809  1.00  0.00    -0.248 NA
ATOM     38  C   UNL A   1      41.284  26.939  28.202  1.00  0.00     0.031 C 
ATOM     39  C   UNL A   1      42.911  31.658  28.772  1.00  0.00     0.029 A 
ATOM     40  N   UNL A   1      44.416  30.126  28.144  1.00  0.00    -0.354 N 
ATOM     41  C   UNL A   1      43.266  25.995  27.562  1.00  0.00     0.074 A 
ATOM     42  C   UNL A   1      41.862  25.799  27.850  1.00  0.00     0.031 C 
ATOM     43  C   UNL A   1      44.085  32.290  28.599  1.00  0.00     0.029 A 
ATOM     44  C   UNL A   1      45.103  31.314  28.214  1.00  0.00     0.049 A 
ATOM     45  H   UNL A   1      44.834  29.277  27.877  1.00  0.00     0.167 HD
ATOM     46  C   UNL A   1      44.097  25.021  27.119  1.00  0.00     0.037 A 
ATOM     47  C   UNL A   1      46.409  31.579  28.006  1.00  0.00     0.037 A 
ATOM     48  C   UNL A   1      45.494  25.219  26.839  1.00  0.00     0.049 A 
ATOM     49  C   UNL A   1      47.334  30.459  27.605  1.00  0.00     0.074 A 
ATOM     50  C   UNL A   1      46.420  24.294  26.391  1.00  0.00     0.029 A 
ATOM     51  N   UNL A   1      46.167  26.423  26.981  1.00  0.00    -0.354 N 
ATOM     52  N   UNL A   1      47.051  29.198  27.376  1.00  0.00    -0.248 NA
ATOM     53  C   UNL A   1      48.755  30.796  27.439  1.00  0.00     0.031 C 
ATOM     54  C   UNL A   1      47.664  24.928  26.305  1.00  0.00     0.029 A 
ATOM     55  C   UNL A   1      47.503  26.260  26.653  1.00  0.00     0.049 A 
ATOM     56  H   UNL A   1      45.757  27.269  27.273  1.00  0.00     0.167 HD
ATOM     57  C   UNL A   1      48.254  28.596  27.018  1.00  0.00     0.074 A 
ATOM     58  C   UNL A   1      49.265  29.634  27.051  1.00  0.00     0.031 C 
ATOM     59  C   UNL A   1      48.498  27.303  26.691  1.00  0.00     0.037 A 
BRANCH  46  60
ATOM     60  C   UNL A   1      43.519  23.648  26.922  1.00  0.00     0.058 A 
ATOM     61  C   UNL A   1      43.200  23.163  25.644  1.00  0.00     0.135 A 
ATOM     62  C   UNL A   1      43.322  22.790  28.016  1.00  0.00     0.135 A 
ATOM     63  F   UNL A   1      43.350  23.949  24.565  1.00  0.00    -0.206 F 
ATOM     64  C   UNL A   1      42.694  21.880  25.459  1.00  0.00     0.059 A 
ATOM     65  C   UNL A   1      42.840  21.496  27.852  1.00  0.00     0.059 A 
ATOM     66  F   UNL A   1      43.606  23.208  29.260  1.00  0.00    -0.206 F 
ATOM     67  C   UNL A   1      42.519  21.053  26.570  1.00  0.00     0.060 A 
BRANCH  67  68
ATOM     68  S   UNL A   1      41.875  19.387  26.309  1.00  0.00     0.124 S 
ATOM     69  O   UNL A   1      40.437  19.634  26.268  1.00  0.00    -0.237 OA
ATOM     70  O   UNL A   1      42.489  19.012  25.039  1.00  0.00    -0.237 OA
ATOM     71  O   UNL A   1      42.350  18.650  27.475  1.00  0.00    -0.744 OA
ENDBRANCH  67  68
ENDBRANCH  46  60
BRANCH  47  72
ATOM     72  C   UNL A   1      46.919  32.965  28.173  1.00  0.00     0.058 A 
ATOM     73  C   UNL A   1      47.442  33.399  29.399  1.00  0.00     0.135 A 
ATOM     74  C   UNL A   1      46.907  33.879  27.108  1.00  0.00     0.135 A 
ATOM     75  F   UNL A   1      47.463  32.566  30.451  1.00  0.00    -0.206 F 
ATOM     76  C   UNL A   1      47.932  34.690  29.567  1.00  0.00     0.059 A 
ATOM     77  C   UNL A   1      47.413  35.168  27.243  1.00  0.00     0.059 A 
ATOM     78  F   UNL A   1      46.422  33.511  25.912  1.00  0.00    -0.206 F 
ATOM     79  C   UNL A   1      47.918  35.566  28.479  1.00  0.00     0.060 A 
BRANCH  79  80
ATOM     80  S   UNL A   1      48.611  37.221  28.695  1.00  0.00     0.124 S 
ATOM     81  O   UNL A   1      49.973  37.035  28.209  1.00  0.00    -0.237 OA
ATOM     82  O   UNL A   1      47.736  38.028  27.851  1.00  0.00    -0.237 OA
ATOM     83  O   UNL A   1      48.478  37.456  30.130  1.00  0.00    -0.744 OA
ENDBRANCH  79  80
ENDBRANCH  47  72
BRANCH  59  84
ATOM     84  C   UNL A   1      49.908  26.929  26.326  1.00  0.00     0.058 A 
ATOM     85  C   UNL A   1      50.790  26.384  27.271  1.00  0.00     0.135 A 
ATOM     86  C   UNL A   1      50.354  27.039  24.998  1.00  0.00     0.135 A 
ATOM     87  F   UNL A   1      50.415  26.262  28.554  1.00  0.00    -0.206 F 
ATOM     88  C   UNL A   1      52.070  25.971  26.916  1.00  0.00     0.059 A 
ATOM     89  C   UNL A   1      51.621  26.609  24.616  1.00  0.00     0.059 A 
ATOM     90  F   UNL A   1      49.545  27.544  24.053  1.00  0.00    -0.206 F 
ATOM     91  C   UNL A   1      52.474  26.083  25.584  1.00  0.00     0.060 A 
BRANCH  91  92
ATOM     92  S   UNL A   1      54.121  25.495  25.131  1.00  0.00     0.124 S 
ATOM     93  O   UNL A   1      54.328  26.160  23.849  1.00  0.00    -0.237 OA
ATOM     94  O   UNL A   1      54.940  25.981  26.237  1.00  0.00    -0.237 OA
ATOM     95  O   UNL A   1      53.959  24.045  25.068  1.00  0.00    -0.744 OA
ENDBRANCH  91  92
ENDBRANCH  59  84
ENDBRANCH  33  34
ENDBRANCH  26  28
ENDBRANCH  25  26
ENDBRANCH  24  25
ENDBRANCH   1  24
TORSDOF 18
ENDMDL
MODEL 2
REMARK VINA RESULT:     -11.1      6.711     11.701
REMARK SMILES Cc1cc(C)c2c(c1)C=C(C(=O)OCCOCCOC(=O)c1ccc(-c3c4nc(c(-c5c(F)cc(S(=O)(=O)[O-])cc5F)c5ccc([nH]5)c(-c5c(F)cc(S(=O)(=O)[O-])cc5F)c5nc(c(-c6c(F)cc(S(=O)(=O)[O-])cc6F)c6ccc3[nH]6)C=C5)C=C4)cc1)[C@@H](C(F)(F)F)O2
REMARK SMILES IDX 17 1 16 2 15 3 14 4 13 5 11 6 12 7 10 8 1 9 2 10 3 11 8 12
REMARK SMILES IDX 4 13 7 14 5 15 6 16 9 17 93 18 88 19 89 20 90 21 91 22 92 23
REMARK SMILES IDX 18 24 19 25 20 26 21 27 22 28 23 29 87 30 24 31 86 32 25 33
REMARK SMILES IDX 26 34 27 35 80 36 28 37 85 38 79 39 81 40 29 41 84 42 78 43
REMARK SMILES IDX 77 44 30 46 64 47 43 48 63 49 44 50 47 51 62 52 82 53 45 54
REMARK SMILES IDX 46 55 61 57 83 58 48 59 31 60 32 61 41 62 33 63 34 64 40 65
REMARK SMILES IDX 42 66 35 67 36 68 37 69 38 70 39 71 65 72 66 73 75 74 67 75
REMARK SMILES IDX 68 76 74 77 76 78 69 79 70 80 71 81 72 82 73 83 49 84 50 85
REMARK SMILES IDX 59 86 51 87 52 88 58 89 60 90 53 91 54 92 55 93 56 94 57 95
REMARK H PARENT 81 45 47 56
REMARK Flexibility Score: inf
ROOT
ATOM      1  C   UNL A   1      39.262  21.886  25.890  1.00  0.00     0.202 C 
ENDROOT
BRANCH   1   2
ATOM      2  O   UNL A   1      38.110  22.692  26.149  1.00  0.00    -0.374 OA
BRANCH   2   3
ATOM      3  C   UNL A   1      37.214  22.936  25.066  1.00  0.00     0.202 C 
BRANCH   3   4
ATOM      4  C   UNL A   1      35.840  22.264  25.145  1.00  0.00     0.261 C 
BRANCH   4   5
ATOM      5  O   UNL A   1      34.775  23.215  24.991  1.00  0.00    -0.460 OA
BRANCH   5   6
ATOM      6  C   UNL A   1      34.518  23.570  23.711  1.00  0.00     0.338 C 
ATOM      7  O   UNL A   1      34.854  22.968  22.702  1.00  0.00    -0.246 OA
BRANCH   6   8
ATOM      8  C   UNL A   1      33.633  24.749  23.684  1.00  0.00     0.087 C 
ATOM      9  C   UNL A   1      33.023  30.185  26.489  1.00  0.00     0.044 C 
ATOM     10  C   UNL A   1      32.634  29.054  25.585  1.00  0.00    -0.050 A 
ATOM     11  C   UNL A   1      31.395  29.045  24.935  1.00  0.00     0.010 A 
ATOM     12  C   UNL A   1      33.525  28.001  25.359  1.00  0.00     0.015 A 
ATOM     13  C   UNL A   1      31.035  27.992  24.077  1.00  0.00    -0.008 A 
ATOM     14  C   UNL A   1      33.170  26.937  24.524  1.00  0.00     0.018 A 
ATOM     15  C   UNL A   1      29.681  27.986  23.423  1.00  0.00     0.048 C 
ATOM     16  C   UNL A   1      31.940  26.940  23.864  1.00  0.00     0.130 A 
ATOM     17  C   UNL A   1      34.056  25.796  24.401  1.00  0.00     0.027 C 
ATOM     18  O   UNL A   1      31.561  25.956  22.993  1.00  0.00    -0.475 OA
ATOM     19  C   UNL A   1      32.341  24.728  22.917  1.00  0.00     0.316 C 
BRANCH  19  20
ATOM     20  C   UNL A   1      31.432  23.557  23.319  1.00  0.00     0.430 C 
ATOM     21  F   UNL A   1      31.769  22.426  22.653  1.00  0.00    -0.167 F 
ATOM     22  F   UNL A   1      31.529  23.277  24.638  1.00  0.00    -0.167 F 
ATOM     23  F   UNL A   1      30.132  23.814  23.051  1.00  0.00    -0.167 F 
ENDBRANCH  19  20
ENDBRANCH   6   8
ENDBRANCH   5   6
ENDBRANCH   4   5
ENDBRANCH   3   4
ENDBRANCH   2   3
ENDBRANCH   1   2
BRANCH   1  24
ATOM     24  C   UNL A   1      40.386  21.904  26.935  1.00  0.00     0.261 C 
BRANCH  24  25
ATOM     25  O   UNL A   1      40.353  23.087  27.753  1.00  0.00    -0.460 OA
BRANCH  25  26
ATOM     26  C   UNL A   1      41.143  24.098  27.318  1.00  0.00     0.338 C 
ATOM     27  O   UNL A   1      41.887  24.087  26.345  1.00  0.00    -0.246 OA
BRANCH  26  28
ATOM     28  C   UNL A   1      40.853  25.328  28.075  1.00  0.00     0.060 A 
ATOM     29  C   UNL A   1      41.908  26.226  28.283  1.00  0.00     0.016 A 
ATOM     30  C   UNL A   1      39.599  25.556  28.646  1.00  0.00     0.016 A 
ATOM     31  C   UNL A   1      41.725  27.336  29.103  1.00  0.00     0.010 A 
ATOM     32  C   UNL A   1      39.422  26.665  29.480  1.00  0.00     0.010 A 
ATOM     33  C   UNL A   1      40.493  27.540  29.739  1.00  0.00    -0.014 A 
BRANCH  33  34
ATOM     34  C   UNL A   1      40.384  28.577  30.793  1.00  0.00     0.031 A 
ATOM     35  C   UNL A   1      41.323  28.520  31.967  1.00  0.00     0.074 A 
ATOM     36  C   UNL A   1      39.497  29.582  30.681  1.00  0.00     0.049 A 
ATOM     37  N   UNL A   1      41.401  29.313  33.004  1.00  0.00    -0.248 NA
ATOM     38  C   UNL A   1      42.309  27.427  31.969  1.00  0.00     0.031 C 
ATOM     39  C   UNL A   1      38.574  29.770  29.562  1.00  0.00     0.029 A 
ATOM     40  N   UNL A   1      39.234  30.637  31.516  1.00  0.00    -0.354 N 
ATOM     41  C   UNL A   1      42.446  28.821  33.778  1.00  0.00     0.074 A 
ATOM     42  C   UNL A   1      42.950  27.641  33.111  1.00  0.00     0.031 C 
ATOM     43  C   UNL A   1      37.843  30.877  29.782  1.00  0.00     0.029 A 
ATOM     44  C   UNL A   1      38.227  31.458  31.068  1.00  0.00     0.049 A 
ATOM     45  H   UNL A   1      39.720  30.791  32.358  1.00  0.00     0.167 HD
ATOM     46  C   UNL A   1      42.950  29.319  34.932  1.00  0.00     0.037 A 
ATOM     47  C   UNL A   1      37.670  32.545  31.638  1.00  0.00     0.037 A 
ATOM     48  C   UNL A   1      42.442  30.491  35.594  1.00  0.00     0.049 A 
ATOM     49  C   UNL A   1      38.185  33.025  32.970  1.00  0.00     0.074 A 
ATOM     50  C   UNL A   1      42.882  31.072  36.770  1.00  0.00     0.029 A 
ATOM     51  N   UNL A   1      41.381  31.260  35.140  1.00  0.00    -0.354 N 
ATOM     52  N   UNL A   1      39.173  32.550  33.692  1.00  0.00    -0.248 NA
ATOM     53  C   UNL A   1      37.509  34.186  33.567  1.00  0.00     0.031 C 
ATOM     54  C   UNL A   1      42.058  32.167  37.051  1.00  0.00     0.029 A 
ATOM     55  C   UNL A   1      41.135  32.296  36.025  1.00  0.00     0.049 A 
ATOM     56  H   UNL A   1      40.876  31.093  34.311  1.00  0.00     0.167 HD
ATOM     57  C   UNL A   1      39.250  33.365  34.817  1.00  0.00     0.074 A 
ATOM     58  C   UNL A   1      38.216  34.370  34.675  1.00  0.00     0.031 C 
ATOM     59  C   UNL A   1      40.101  33.289  35.870  1.00  0.00     0.037 A 
BRANCH  46  60
ATOM     60  C   UNL A   1      44.104  28.590  35.561  1.00  0.00     0.058 A 
ATOM     61  C   UNL A   1      43.901  27.539  36.468  1.00  0.00     0.135 A 
ATOM     62  C   UNL A   1      45.427  28.915  35.219  1.00  0.00     0.135 A 
ATOM     63  F   UNL A   1      42.658  27.201  36.845  1.00  0.00    -0.206 F 
ATOM     64  C   UNL A   1      44.970  26.845  37.027  1.00  0.00     0.059 A 
ATOM     65  C   UNL A   1      46.510  28.219  35.746  1.00  0.00     0.059 A 
ATOM     66  F   UNL A   1      45.675  29.916  34.359  1.00  0.00    -0.206 F 
ATOM     67  C   UNL A   1      46.271  27.191  36.657  1.00  0.00     0.060 A 
BRANCH  67  68
ATOM     68  S   UNL A   1      47.645  26.269  37.381  1.00  0.00     0.124 S 
ATOM     69  O   UNL A   1      48.791  26.896  36.728  1.00  0.00    -0.237 OA
ATOM     70  O   UNL A   1      47.494  26.553  38.804  1.00  0.00    -0.237 OA
ATOM     71  O   UNL A   1      47.376  24.890  36.987  1.00  0.00    -0.744 OA
ENDBRANCH  67  68
ENDBRANCH  46  60
BRANCH  47  72
ATOM     72  C   UNL A   1      36.559  33.255  30.951  1.00  0.00     0.058 A 
ATOM     73  C   UNL A   1      35.239  33.147  31.411  1.00  0.00     0.135 A 
ATOM     74  C   UNL A   1      36.796  34.066  29.830  1.00  0.00     0.135 A 
ATOM     75  F   UNL A   1      34.960  32.373  32.471  1.00  0.00    -0.206 F 
ATOM     76  C   UNL A   1      34.191  33.813  30.783  1.00  0.00     0.059 A 
ATOM     77  C   UNL A   1      35.769  34.761  29.199  1.00  0.00     0.059 A 
ATOM     78  F   UNL A   1      38.043  34.208  29.354  1.00  0.00    -0.206 F 
ATOM     79  C   UNL A   1      34.468  34.624  29.681  1.00  0.00     0.060 A 
BRANCH  79  80
ATOM     80  S   UNL A   1      33.108  35.529  28.912  1.00  0.00     0.124 S 
ATOM     81  O   UNL A   1      33.825  36.491  28.083  1.00  0.00    -0.237 OA
ATOM     82  O   UNL A   1      32.403  34.469  28.197  1.00  0.00    -0.237 OA
ATOM     83  O   UNL A   1      32.390  36.090  30.053  1.00  0.00    -0.744 OA
ENDBRANCH  79  80
ENDBRANCH  47  72
BRANCH  59  84
ATOM     84  C   UNL A   1      39.968  34.325  36.952  1.00  0.00     0.058 A 
ATOM     85  C   UNL A   1      40.564  35.589  36.833  1.00  0.00     0.135 A 
ATOM     86  C   UNL A   1      39.166  34.080  38.079  1.00  0.00     0.135 A 
ATOM     87  F   UNL A   1      41.345  35.873  35.779  1.00  0.00    -0.206 F 
ATOM     88  C   UNL A   1      40.381  36.572  37.801  1.00  0.00     0.059 A 
ATOM     89  C   UNL A   1      38.949  35.057  39.046  1.00  0.00     0.059 A 
ATOM     90  F   UNL A   1      38.563  32.891  38.235  1.00  0.00    -0.206 F 
ATOM     91  C   UNL A   1      39.566  36.298  38.902  1.00  0.00     0.060 A 
BRANCH  91  92
ATOM     92  S   UNL A   1      39.298  37.602  40.122  1.00  0.00     0.124 S 
ATOM     93  O   UNL A   1      38.993  36.827  41.319  1.00  0.00    -0.237 OA
ATOM     94  O   UNL A   1      40.583  38.295  40.124  1.00  0.00    -0.237 OA
ATOM     95  O   UNL A   1      38.183  38.364  39.566  1.00  0.00    -0.744 OA
ENDBRANCH  91  92
ENDBRANCH  59  84
ENDBRANCH  33  34
ENDBRANCH  26  28
ENDBRANCH  25  26
ENDBRANCH  24  25
ENDBRANCH   1  24
TORSDOF 18
ENDMDL
MODEL 3
REMARK VINA RESULT:     -11.1      2.924      8.771
REMARK SMILES Cc1cc(C)c2c(c1)C=C(C(=O)OCCOCCOC(=O)c1ccc(-c3c4nc(c(-c5c(F)cc(S(=O)(=O)[O-])cc5F)c5ccc([nH]5)c(-c5c(F)cc(S(=O)(=O)[O-])cc5F)c5nc(c(-c6c(F)cc(S(=O)(=O)[O-])cc6F)c6ccc3[nH]6)C=C5)C=C4)cc1)[C@@H](C(F)(F)F)O2
REMARK SMILES IDX 17 1 16 2 15 3 14 4 13 5 11 6 12 7 10 8 1 9 2 10 3 11 8 12
REMARK SMILES IDX 4 13 7 14 5 15 6 16 9 17 93 18 88 19 89 20 90 21 91 22 92 23
REMARK SMILES IDX 18 24 19 25 20 26 21 27 22 28 23 29 87 30 24 31 86 32 25 33
REMARK SMILES IDX 26 34 27 35 80 36 28 37 85 38 79 39 81 40 29 41 84 42 78 43
REMARK SMILES IDX 77 44 30 46 64 47 43 48 63 49 44 50 47 51 62 52 82 53 45 54
REMARK SMILES IDX 46 55 61 57 83 58 48 59 31 60 32 61 41 62 33 63 34 64 40 65
REMARK SMILES IDX 42 66 35 67 36 68 37 69 38 70 39 71 65 72 66 73 75 74 67 75
REMARK SMILES IDX 68 76 74 77 76 78 69 79 70 80 71 81 72 82 73 83 49 84 50 85
REMARK SMILES IDX 59 86 51 87 52 88 58 89 60 90 53 91 54 92 55 93 56 94 57 95
REMARK H PARENT 81 45 47 56
REMARK Flexibility Score: inf
ROOT
ATOM      1  C   UNL A   1      32.657  29.724  25.687  1.00  0.00     0.202 C 
ENDROOT
BRANCH   1   2
ATOM      2  O   UNL A   1      31.347  29.237  25.388  1.00  0.00    -0.374 OA
BRANCH   2   3
ATOM      3  C   UNL A   1      30.885  29.358  24.043  1.00  0.00     0.202 C 
BRANCH   3   4
ATOM      4  C   UNL A   1      30.911  28.087  23.189  1.00  0.00     0.261 C 
BRANCH   4   5
ATOM      5  O   UNL A   1      32.227  27.514  23.131  1.00  0.00    -0.460 OA
BRANCH   5   6
ATOM      6  C   UNL A   1      32.262  26.224  22.727  1.00  0.00     0.338 C 
ATOM      7  O   UNL A   1      31.965  25.793  21.623  1.00  0.00    -0.246 OA
BRANCH   6   8
ATOM      8  C   UNL A   1      32.850  25.382  23.784  1.00  0.00     0.087 C 
ATOM      9  C   UNL A   1      37.311  21.210  24.480  1.00  0.00     0.044 C 
ATOM     10  C   UNL A   1      36.124  22.032  24.883  1.00  0.00    -0.050 A 
ATOM     11  C   UNL A   1      35.496  21.834  26.118  1.00  0.00     0.010 A 
ATOM     12  C   UNL A   1      35.645  23.033  24.032  1.00  0.00     0.015 A 
ATOM     13  C   UNL A   1      34.392  22.614  26.502  1.00  0.00    -0.008 A 
ATOM     14  C   UNL A   1      34.535  23.801  24.394  1.00  0.00     0.018 A 
ATOM     15  C   UNL A   1      33.711  22.353  27.816  1.00  0.00     0.048 C 
ATOM     16  C   UNL A   1      33.922  23.612  25.634  1.00  0.00     0.130 A 
ATOM     17  C   UNL A   1      33.979  24.747  23.447  1.00  0.00     0.027 C 
ATOM     18  O   UNL A   1      32.868  24.370  26.065  1.00  0.00    -0.475 OA
ATOM     19  C   UNL A   1      32.184  25.247  25.125  1.00  0.00     0.316 C 
BRANCH  19  20
ATOM     20  C   UNL A   1      30.723  24.788  25.017  1.00  0.00     0.430 C 
ATOM     21  F   UNL A   1      29.871  25.787  25.357  1.00  0.00    -0.167 F 
ATOM     22  F   UNL A   1      30.405  24.416  23.757  1.00  0.00    -0.167 F 
ATOM     23  F   UNL A   1      30.463  23.739  25.830  1.00  0.00    -0.167 F 
ENDBRANCH  19  20
ENDBRANCH   6   8
ENDBRANCH   5   6
ENDBRANCH   4   5
ENDBRANCH   3   4
ENDBRANCH   2   3
ENDBRANCH   1   2
BRANCH   1  24
ATOM     24  C   UNL A   1      32.803  30.661  26.893  1.00  0.00     0.261 C 
BRANCH  24  25
ATOM     25  O   UNL A   1      33.634  30.100  27.925  1.00  0.00    -0.460 OA
BRANCH  25  26
ATOM     26  C   UNL A   1      34.584  30.938  28.405  1.00  0.00     0.338 C 
ATOM     27  O   UNL A   1      34.410  32.048  28.893  1.00  0.00    -0.246 OA
BRANCH  26  28
ATOM     28  C   UNL A   1      35.888  30.256  28.443  1.00  0.00     0.060 A 
ATOM     29  C   UNL A   1      36.281  29.671  29.654  1.00  0.00     0.016 A 
ATOM     30  C   UNL A   1      36.750  30.264  27.344  1.00  0.00     0.016 A 
ATOM     31  C   UNL A   1      37.557  29.130  29.785  1.00  0.00     0.010 A 
ATOM     32  C   UNL A   1      38.036  29.732  27.482  1.00  0.00     0.010 A 
ATOM     33  C   UNL A   1      38.456  29.195  28.712  1.00  0.00    -0.014 A 
BRANCH  33  34
ATOM     34  C   UNL A   1      39.879  28.843  28.936  1.00  0.00     0.031 A 
ATOM     35  C   UNL A   1      40.788  29.863  29.566  1.00  0.00     0.074 A 
ATOM     36  C   UNL A   1      40.341  27.618  28.631  1.00  0.00     0.049 A 
ATOM     37  N   UNL A   1      42.063  29.775  29.847  1.00  0.00    -0.248 NA
ATOM     38  C   UNL A   1      40.178  31.151  29.935  1.00  0.00     0.031 C 
ATOM     39  C   UNL A   1      39.541  26.532  28.067  1.00  0.00     0.029 A 
ATOM     40  N   UNL A   1      41.596  27.080  28.760  1.00  0.00    -0.354 N 
ATOM     41  C   UNL A   1      42.405  30.990  30.430  1.00  0.00     0.074 A 
ATOM     42  C   UNL A   1      41.215  31.812  30.431  1.00  0.00     0.031 C 
ATOM     43  C   UNL A   1      40.327  25.454  27.897  1.00  0.00     0.029 A 
ATOM     44  C   UNL A   1      41.689  25.783  28.314  1.00  0.00     0.049 A 
ATOM     45  H   UNL A   1      42.359  27.576  29.136  1.00  0.00     0.167 HD
ATOM     46  C   UNL A   1      43.601  31.378  30.933  1.00  0.00     0.037 A 
ATOM     47  C   UNL A   1      42.756  24.962  28.237  1.00  0.00     0.037 A 
ATOM     48  C   UNL A   1      44.784  30.558  30.925  1.00  0.00     0.049 A 
ATOM     49  C   UNL A   1      44.099  25.450  28.717  1.00  0.00     0.074 A 
ATOM     50  C   UNL A   1      46.045  30.863  31.406  1.00  0.00     0.029 A 
ATOM     51  N   UNL A   1      44.853  29.273  30.408  1.00  0.00    -0.354 N 
ATOM     52  N   UNL A   1      44.410  26.602  29.265  1.00  0.00    -0.248 NA
ATOM     53  C   UNL A   1      45.235  24.531  28.565  1.00  0.00     0.031 C 
ATOM     54  C   UNL A   1      46.888  29.779  31.140  1.00  0.00     0.029 A 
ATOM     55  C   UNL A   1      46.140  28.780  30.536  1.00  0.00     0.049 A 
ATOM     56  H   UNL A   1      44.098  28.783  30.008  1.00  0.00     0.167 HD
ATOM     57  C   UNL A   1      45.772  26.538  29.541  1.00  0.00     0.074 A 
ATOM     58  C   UNL A   1      46.223  25.230  29.110  1.00  0.00     0.031 C 
ATOM     59  C   UNL A   1      46.575  27.475  30.102  1.00  0.00     0.037 A 
BRANCH  46  60
ATOM     60  C   UNL A   1      43.695  32.756  31.524  1.00  0.00     0.058 A 
ATOM     61  C   UNL A   1      43.998  33.875  30.733  1.00  0.00     0.135 A 
ATOM     62  C   UNL A   1      43.436  32.968  32.888  1.00  0.00     0.135 A 
ATOM     63  F   UNL A   1      44.273  33.726  29.428  1.00  0.00    -0.206 F 
ATOM     64  C   UNL A   1      44.054  35.155  31.276  1.00  0.00     0.059 A 
ATOM     65  C   UNL A   1      43.463  34.242  33.447  1.00  0.00     0.059 A 
ATOM     66  F   UNL A   1      43.147  31.930  33.690  1.00  0.00    -0.206 F 
ATOM     67  C   UNL A   1      43.783  35.328  32.634  1.00  0.00     0.060 A 
BRANCH  67  68
ATOM     68  S   UNL A   1      43.846  36.998  33.319  1.00  0.00     0.124 S 
ATOM     69  O   UNL A   1      43.854  37.809  32.105  1.00  0.00    -0.237 OA
ATOM     70  O   UNL A   1      42.623  37.055  34.111  1.00  0.00    -0.237 OA
ATOM     71  O   UNL A   1      45.088  37.006  34.085  1.00  0.00    -0.744 OA
ENDBRANCH  67  68
ENDBRANCH  46  60
BRANCH  47  72
ATOM     72  C   UNL A   1      42.598  23.592  27.683  1.00  0.00     0.058 A 
ATOM     73  C   UNL A   1      42.657  23.360  26.302  1.00  0.00     0.135 A 
ATOM     74  C   UNL A   1      42.398  22.485  28.523  1.00  0.00     0.135 A 
ATOM     75  F   UNL A   1      42.833  24.388  25.457  1.00  0.00    -0.206 F 
ATOM     76  C   UNL A   1      42.521  22.082  25.771  1.00  0.00     0.059 A 
ATOM     77  C   UNL A   1      42.282  21.194  28.018  1.00  0.00     0.059 A 
ATOM     78  F   UNL A   1      42.340  22.653  29.854  1.00  0.00    -0.206 F 
ATOM     79  C   UNL A   1      42.339  21.004  26.639  1.00  0.00     0.060 A 
BRANCH  79  80
ATOM     80  S   UNL A   1      42.222  19.342  25.939  1.00  0.00     0.124 S 
ATOM     81  O   UNL A   1      40.788  19.221  25.706  1.00  0.00    -0.237 OA
ATOM     82  O   UNL A   1      43.058  19.455  24.748  1.00  0.00    -0.237 OA
ATOM     83  O   UNL A   1      42.764  18.494  26.997  1.00  0.00    -0.744 OA
ENDBRANCH  79  80
ENDBRANCH  47  72
BRANCH  59  84
ATOM     84  C   UNL A   1      48.024  27.126  30.301  1.00  0.00     0.058 A 
ATOM     85  C   UNL A   1      48.982  27.381  29.309  1.00  0.00     0.135 A 
ATOM     86  C   UNL A   1      48.470  26.607  31.528  1.00  0.00     0.135 A 
ATOM     87  F   UNL A   1      48.608  27.871  28.117  1.00  0.00    -0.206 F 
ATOM     88  C   UNL A   1      50.333  27.124  29.521  1.00  0.00     0.059 A 
ATOM     89  C   UNL A   1      49.819  26.366  31.770  1.00  0.00     0.059 A 
ATOM     90  F   UNL A   1      47.596  26.356  32.514  1.00  0.00    -0.206 F 
ATOM     91  C   UNL A   1      50.743  26.622  30.758  1.00  0.00     0.060 A 
BRANCH  91  92
ATOM     92  S   UNL A   1      52.505  26.342  31.034  1.00  0.00     0.124 S 
ATOM     93  O   UNL A   1      52.863  27.496  31.851  1.00  0.00    -0.237 OA
ATOM     94  O   UNL A   1      52.512  25.053  31.719  1.00  0.00    -0.237 OA
ATOM     95  O   UNL A   1      53.063  26.331  29.684  1.00  0.00    -0.744 OA
ENDBRANCH  91  92
ENDBRANCH  59  84
ENDBRANCH  33  34
ENDBRANCH  26  28
ENDBRANCH  25  26
ENDBRANCH  24  25
ENDBRANCH   1  24
TORSDOF 18
ENDMDL
