MODEL 1
REMARK VINA RESULT:     -12.1      0.000      0.000
REMARK SMILES Cc1ccc(-c2cc(Cl)ccc2Cl)c(C(=O)OCCOCCOC(=O)c2ccc(-c3c4nc(c(-c5c(F)cc(S(=O)(=O)[O-])cc5F)c5ccc([nH]5)c(-c5c(F)cc(S(=O)(=O)[O-])cc5F)c5nc(c(-c6c(F)cc(S(=O)(=O)[O-])cc6F)c6ccc3[nH]6)C=C5)C=C4)cc2)c1
REMARK SMILES IDX 21 1 20 2 19 3 18 4 17 5 15 6 16 7 14 8 1 9 2 10 3 11 92 12
REMARK SMILES IDX 4 13 5 14 6 15 7 16 12 17 8 18 11 19 13 20 9 21 10 22 22 23
REMARK SMILES IDX 23 24 24 25 25 26 26 27 27 28 91 29 28 30 90 31 29 32 30 33
REMARK SMILES IDX 31 34 84 35 32 36 89 37 83 38 85 39 33 40 88 41 82 42 81 43
REMARK SMILES IDX 34 45 68 46 47 47 67 48 48 49 51 50 66 51 86 52 49 53 50 54
REMARK SMILES IDX 65 56 87 57 52 58 35 59 36 60 45 61 37 62 38 63 44 64 46 65
REMARK SMILES IDX 39 66 40 67 41 68 42 69 43 70 69 71 70 72 79 73 71 74 72 75
REMARK SMILES IDX 78 76 80 77 73 78 74 79 75 80 76 81 77 82 53 83 54 84 63 85
REMARK SMILES IDX 55 86 56 87 62 88 64 89 57 90 58 91 59 92 60 93 61 94
REMARK H PARENT 85 44 51 55
REMARK Flexibility Score: inf
ROOT
ATOM      1  C   UNL A   1      32.995  28.553  24.382  1.00  0.00     0.202 C 
ENDROOT
BRANCH   1   2
ATOM      2  O   UNL A   1      34.156  28.201  23.677  1.00  0.00    -0.374 OA
BRANCH   2   3
ATOM      3  C   UNL A   1      34.067  28.194  22.259  1.00  0.00     0.202 C 
BRANCH   3   4
ATOM      4  C   UNL A   1      33.197  27.015  21.943  1.00  0.00     0.261 C 
BRANCH   4   5
ATOM      5  O   UNL A   1      33.859  25.778  22.293  1.00  0.00    -0.460 OA
BRANCH   5   6
ATOM      6  C   UNL A   1      33.232  24.565  22.248  1.00  0.00     0.338 C 
ATOM      7  O   UNL A   1      33.466  23.627  21.532  1.00  0.00    -0.246 OA
BRANCH   6   8
ATOM      8  C   UNL A   1      32.266  24.558  23.384  1.00  0.00     0.068 A 
ATOM      9  C   UNL A   1      29.020  26.416  24.010  1.00  0.00     0.044 C 
ATOM     10  C   UNL A   1      30.214  25.549  24.263  1.00  0.00    -0.050 A 
ATOM     11  C   UNL A   1      30.527  25.027  25.516  1.00  0.00     0.004 A 
ATOM     12  C   UNL A   1      31.059  25.258  23.200  1.00  0.00     0.019 A 
ATOM     13  C   UNL A   1      31.686  24.251  25.698  1.00  0.00     0.010 A 
ATOM     14  C   UNL A   1      32.588  24.005  24.643  1.00  0.00    -0.002 A 
BRANCH  14  15
ATOM     15  C   UNL A   1      33.819  23.223  24.904  1.00  0.00     0.003 A 
ATOM     16  C   UNL A   1      34.955  23.869  25.430  1.00  0.00     0.030 A 
ATOM     17  C   UNL A   1      33.931  21.849  24.604  1.00  0.00     0.049 A 
ATOM     18  C   UNL A   1      36.164  23.185  25.596  1.00  0.00     0.041 A 
ATOM     19  C   UNL A   1      35.143  21.165  24.787  1.00  0.00     0.023 A 
ATOM     20  Cl  UNL A   1      32.583  20.939  24.018  1.00  0.00    -0.084 Cl
ATOM     21  Cl  UNL A   1      37.542  24.016  26.210  1.00  0.00    -0.084 Cl
ATOM     22  C   UNL A   1      36.265  21.837  25.270  1.00  0.00     0.022 A 
ENDBRANCH  14  15
ENDBRANCH   6   8
ENDBRANCH   5   6
ENDBRANCH   4   5
ENDBRANCH   3   4
ENDBRANCH   2   3
ENDBRANCH   1   2
BRANCH   1  23
ATOM     23  C   UNL A   1      32.910  27.883  25.750  1.00  0.00     0.261 C 
BRANCH  23  24
ATOM     24  O   UNL A   1      34.079  28.195  26.542  1.00  0.00    -0.460 OA
BRANCH  24  25
ATOM     25  C   UNL A   1      33.986  29.308  27.330  1.00  0.00     0.338 C 
ATOM     26  O   UNL A   1      32.937  29.883  27.561  1.00  0.00    -0.246 OA
BRANCH  25  27
ATOM     27  C   UNL A   1      35.327  29.699  27.856  1.00  0.00     0.060 A 
ATOM     28  C   UNL A   1      36.404  29.960  26.990  1.00  0.00     0.016 A 
ATOM     29  C   UNL A   1      35.558  29.599  29.223  1.00  0.00     0.016 A 
ATOM     30  C   UNL A   1      37.730  29.950  27.471  1.00  0.00     0.010 A 
ATOM     31  C   UNL A   1      36.858  29.491  29.670  1.00  0.00     0.010 A 
ATOM     32  C   UNL A   1      37.961  29.628  28.804  1.00  0.00    -0.014 A 
BRANCH  32  33
ATOM     33  C   UNL A   1      39.256  29.388  29.467  1.00  0.00     0.031 A 
ATOM     34  C   UNL A   1      39.921  28.100  29.136  1.00  0.00     0.074 A 
ATOM     35  C   UNL A   1      39.993  30.398  30.006  1.00  0.00     0.049 A 
ATOM     36  N   UNL A   1      41.099  27.772  29.529  1.00  0.00    -0.248 NA
ATOM     37  C   UNL A   1      39.299  27.045  28.327  1.00  0.00     0.031 C 
ATOM     38  C   UNL A   1      41.457  30.527  30.024  1.00  0.00     0.029 A 
ATOM     39  N   UNL A   1      39.594  31.573  30.659  1.00  0.00    -0.354 N 
ATOM     40  C   UNL A   1      41.521  26.722  28.750  1.00  0.00     0.074 A 
ATOM     41  C   UNL A   1      40.331  26.221  28.118  1.00  0.00     0.031 C 
ATOM     42  C   UNL A   1      41.821  31.501  30.878  1.00  0.00     0.029 A 
ATOM     43  C   UNL A   1      40.614  31.935  31.555  1.00  0.00     0.049 A 
ATOM     44  H   UNL A   1      38.749  32.057  30.517  1.00  0.00     0.167 HD
ATOM     45  C   UNL A   1      42.860  26.507  28.650  1.00  0.00     0.037 A 
ATOM     46  C   UNL A   1      40.383  31.969  32.896  1.00  0.00     0.037 A 
ATOM     47  C   UNL A   1      43.569  27.288  29.670  1.00  0.00     0.049 A 
ATOM     48  C   UNL A   1      41.253  30.940  33.558  1.00  0.00     0.074 A 
ATOM     49  C   UNL A   1      44.372  28.414  29.636  1.00  0.00     0.029 A 
ATOM     50  N   UNL A   1      43.214  27.100  31.007  1.00  0.00    -0.354 N 
ATOM     51  N   UNL A   1      41.729  29.911  32.909  1.00  0.00    -0.248 NA
ATOM     52  C   UNL A   1      41.761  31.024  34.922  1.00  0.00     0.031 C 
ATOM     53  C   UNL A   1      44.382  28.969  30.953  1.00  0.00     0.029 A 
ATOM     54  C   UNL A   1      43.632  28.156  31.792  1.00  0.00     0.049 A 
ATOM     55  H   UNL A   1      42.728  26.314  31.346  1.00  0.00     0.167 HD
ATOM     56  C   UNL A   1      42.629  29.253  33.685  1.00  0.00     0.074 A 
ATOM     57  C   UNL A   1      42.592  29.966  34.952  1.00  0.00     0.031 C 
ATOM     58  C   UNL A   1      43.337  28.183  33.225  1.00  0.00     0.037 A 
BRANCH  45  59
ATOM     59  C   UNL A   1      43.548  25.713  27.560  1.00  0.00     0.058 A 
ATOM     60  C   UNL A   1      43.818  24.341  27.755  1.00  0.00     0.135 A 
ATOM     61  C   UNL A   1      44.063  26.246  26.356  1.00  0.00     0.135 A 
ATOM     62  F   UNL A   1      43.423  23.711  28.872  1.00  0.00    -0.206 F 
ATOM     63  C   UNL A   1      44.524  23.563  26.831  1.00  0.00     0.059 A 
ATOM     64  C   UNL A   1      44.727  25.477  25.395  1.00  0.00     0.059 A 
ATOM     65  F   UNL A   1      44.008  27.554  26.075  1.00  0.00    -0.206 F 
ATOM     66  C   UNL A   1      44.967  24.137  25.646  1.00  0.00     0.060 A 
BRANCH  66  67
ATOM     67  S   UNL A   1      45.875  23.126  24.460  1.00  0.00     0.124 S 
ATOM     68  O   UNL A   1      44.837  22.796  23.489  1.00  0.00    -0.237 OA
ATOM     69  O   UNL A   1      46.911  24.044  23.998  1.00  0.00    -0.237 OA
ATOM     70  O   UNL A   1      46.354  22.005  25.265  1.00  0.00    -0.744 OA
ENDBRANCH  66  67
ENDBRANCH  45  59
BRANCH  46  71
ATOM     71  C   UNL A   1      38.981  32.397  33.203  1.00  0.00     0.058 A 
ATOM     72  C   UNL A   1      38.691  33.769  33.015  1.00  0.00     0.135 A 
ATOM     73  C   UNL A   1      37.906  31.502  33.070  1.00  0.00     0.135 A 
ATOM     74  F   UNL A   1      39.674  34.679  33.132  1.00  0.00    -0.206 F 
ATOM     75  C   UNL A   1      37.456  34.212  32.539  1.00  0.00     0.059 A 
ATOM     76  C   UNL A   1      36.661  31.925  32.581  1.00  0.00     0.059 A 
ATOM     77  F   UNL A   1      38.102  30.186  33.234  1.00  0.00    -0.206 F 
ATOM     78  C   UNL A   1      36.465  33.272  32.260  1.00  0.00     0.060 A 
BRANCH  78  79
ATOM     79  S   UNL A   1      35.039  33.789  31.258  1.00  0.00     0.124 S 
ATOM     80  O   UNL A   1      34.144  32.646  31.391  1.00  0.00    -0.237 OA
ATOM     81  O   UNL A   1      34.600  35.012  31.929  1.00  0.00    -0.237 OA
ATOM     82  O   UNL A   1      35.620  33.994  29.936  1.00  0.00    -0.744 OA
ENDBRANCH  78  79
ENDBRANCH  46  71
BRANCH  58  83
ATOM     83  C   UNL A   1      43.875  27.112  34.135  1.00  0.00     0.058 A 
ATOM     84  C   UNL A   1      43.051  26.187  34.801  1.00  0.00     0.135 A 
ATOM     85  C   UNL A   1      45.265  26.877  34.240  1.00  0.00     0.135 A 
ATOM     86  F   UNL A   1      41.719  26.186  34.651  1.00  0.00    -0.206 F 
ATOM     87  C   UNL A   1      43.562  25.190  35.621  1.00  0.00     0.059 A 
ATOM     88  C   UNL A   1      45.797  25.837  34.991  1.00  0.00     0.059 A 
ATOM     89  F   UNL A   1      46.161  27.640  33.598  1.00  0.00    -0.206 F 
ATOM     90  C   UNL A   1      44.938  25.029  35.719  1.00  0.00     0.060 A 
BRANCH  90  91
ATOM     91  S   UNL A   1      45.584  23.745  36.793  1.00  0.00     0.124 S 
ATOM     92  O   UNL A   1      45.067  22.545  36.143  1.00  0.00    -0.237 OA
ATOM     93  O   UNL A   1      47.027  23.944  36.694  1.00  0.00    -0.237 OA
ATOM     94  O   UNL A   1      45.000  24.062  38.092  1.00  0.00    -0.744 OA
ENDBRANCH  90  91
ENDBRANCH  58  83
ENDBRANCH  32  33
ENDBRANCH  25  27
ENDBRANCH  24  25
ENDBRANCH  23  24
ENDBRANCH   1  23
TORSDOF 18
ENDMDL
MODEL 2
REMARK VINA RESULT:     -11.8      1.330      2.764
REMARK SMILES Cc1ccc(-c2cc(Cl)ccc2Cl)c(C(=O)OCCOCCOC(=O)c2ccc(-c3c4nc(c(-c5c(F)cc(S(=O)(=O)[O-])cc5F)c5ccc([nH]5)c(-c5c(F)cc(S(=O)(=O)[O-])cc5F)c5nc(c(-c6c(F)cc(S(=O)(=O)[O-])cc6F)c6ccc3[nH]6)C=C5)C=C4)cc2)c1
REMARK SMILES IDX 21 1 20 2 19 3 18 4 17 5 15 6 16 7 14 8 1 9 2 10 3 11 92 12
REMARK SMILES IDX 4 13 5 14 6 15 7 16 12 17 8 18 11 19 13 20 9 21 10 22 22 23
REMARK SMILES IDX 23 24 24 25 25 26 26 27 27 28 91 29 28 30 90 31 29 32 30 33
REMARK SMILES IDX 31 34 84 35 32 36 89 37 83 38 85 39 33 40 88 41 82 42 81 43
REMARK SMILES IDX 34 45 68 46 47 47 67 48 48 49 51 50 66 51 86 52 49 53 50 54
REMARK SMILES IDX 65 56 87 57 52 58 35 59 36 60 45 61 37 62 38 63 44 64 46 65
REMARK SMILES IDX 39 66 40 67 41 68 42 69 43 70 69 71 70 72 79 73 71 74 72 75
REMARK SMILES IDX 78 76 80 77 73 78 74 79 75 80 76 81 77 82 53 83 54 84 63 85
REMARK SMILES IDX 55 86 56 87 62 88 64 89 57 90 58 91 59 92 60 93 61 94
REMARK H PARENT 85 44 51 55
REMARK Flexibility Score: inf
ROOT
ATOM      1  C   UNL A   1      32.509  28.510  25.000  1.00  0.00     0.202 C 
ENDROOT
BRANCH   1   2
ATOM      2  O   UNL A   1      31.718  27.423  25.404  1.00  0.00    -0.374 OA
BRANCH   2   3
ATOM      3  C   UNL A   1      32.044  26.154  24.855  1.00  0.00     0.202 C 
BRANCH   3   4
ATOM      4  C   UNL A   1      32.250  25.270  26.047  1.00  0.00     0.261 C 
BRANCH   4   5
ATOM      5  O   UNL A   1      33.560  24.660  26.017  1.00  0.00    -0.460 OA
BRANCH   5   6
ATOM      6  C   UNL A   1      33.807  23.412  26.514  1.00  0.00     0.338 C 
ATOM      7  O   UNL A   1      33.092  22.720  27.191  1.00  0.00    -0.246 OA
BRANCH   6   8
ATOM      8  C   UNL A   1      35.111  22.984  25.930  1.00  0.00     0.068 A 
ATOM      9  C   UNL A   1      38.667  24.214  26.400  1.00  0.00     0.044 C 
ATOM     10  C   UNL A   1      37.505  23.455  25.838  1.00  0.00    -0.050 A 
ATOM     11  C   UNL A   1      37.596  22.652  24.704  1.00  0.00     0.004 A 
ATOM     12  C   UNL A   1      36.274  23.564  26.470  1.00  0.00     0.019 A 
ATOM     13  C   UNL A   1      36.458  21.996  24.200  1.00  0.00     0.010 A 
ATOM     14  C   UNL A   1      35.188  22.152  24.792  1.00  0.00    -0.002 A 
BRANCH  14  15
ATOM     15  C   UNL A   1      34.015  21.476  24.189  1.00  0.00     0.003 A 
ATOM     16  C   UNL A   1      33.688  20.166  24.586  1.00  0.00     0.030 A 
ATOM     17  C   UNL A   1      33.220  22.071  23.187  1.00  0.00     0.049 A 
ATOM     18  C   UNL A   1      32.649  19.460  23.969  1.00  0.00     0.041 A 
ATOM     19  C   UNL A   1      32.170  21.364  22.581  1.00  0.00     0.023 A 
ATOM     20  Cl  UNL A   1      33.486  23.700  22.670  1.00  0.00    -0.084 Cl
ATOM     21  Cl  UNL A   1      32.300  17.845  24.456  1.00  0.00    -0.084 Cl
ATOM     22  C   UNL A   1      31.893  20.052  22.963  1.00  0.00     0.022 A 
ENDBRANCH  14  15
ENDBRANCH   6   8
ENDBRANCH   5   6
ENDBRANCH   4   5
ENDBRANCH   3   4
ENDBRANCH   2   3
ENDBRANCH   1   2
BRANCH   1  23
ATOM     23  C   UNL A   1      33.988  28.311  25.316  1.00  0.00     0.261 C 
BRANCH  23  24
ATOM     24  O   UNL A   1      34.195  28.211  26.743  1.00  0.00    -0.460 OA
BRANCH  24  25
ATOM     25  C   UNL A   1      34.133  29.386  27.438  1.00  0.00     0.338 C 
ATOM     26  O   UNL A   1      33.103  30.016  27.604  1.00  0.00    -0.246 OA
BRANCH  25  27
ATOM     27  C   UNL A   1      35.480  29.769  27.955  1.00  0.00     0.060 A 
ATOM     28  C   UNL A   1      36.574  29.943  27.088  1.00  0.00     0.016 A 
ATOM     29  C   UNL A   1      35.694  29.747  29.328  1.00  0.00     0.016 A 
ATOM     30  C   UNL A   1      37.893  29.923  27.584  1.00  0.00     0.010 A 
ATOM     31  C   UNL A   1      36.986  29.627  29.797  1.00  0.00     0.010 A 
ATOM     32  C   UNL A   1      38.101  29.677  28.937  1.00  0.00    -0.014 A 
BRANCH  32  33
ATOM     33  C   UNL A   1      39.381  29.440  29.629  1.00  0.00     0.031 A 
ATOM     34  C   UNL A   1      40.011  28.115  29.383  1.00  0.00     0.074 A 
ATOM     35  C   UNL A   1      40.142  30.458  30.116  1.00  0.00     0.049 A 
ATOM     36  N   UNL A   1      41.175  27.778  29.809  1.00  0.00    -0.248 NA
ATOM     37  C   UNL A   1      39.367  27.033  28.630  1.00  0.00     0.031 C 
ATOM     38  C   UNL A   1      41.609  30.546  30.144  1.00  0.00     0.029 A 
ATOM     39  N   UNL A   1      39.771  31.681  30.694  1.00  0.00    -0.354 N 
ATOM     40  C   UNL A   1      41.574  26.671  29.099  1.00  0.00     0.074 A 
ATOM     41  C   UNL A   1      40.376  26.168  28.483  1.00  0.00     0.031 C 
ATOM     42  C   UNL A   1      41.992  31.558  30.943  1.00  0.00     0.029 A 
ATOM     43  C   UNL A   1      40.792  32.066  31.579  1.00  0.00     0.049 A 
ATOM     44  H   UNL A   1      38.943  32.180  30.512  1.00  0.00     0.167 HD
ATOM     45  C   UNL A   1      42.907  26.413  29.028  1.00  0.00     0.037 A 
ATOM     46  C   UNL A   1      40.548  32.187  32.913  1.00  0.00     0.037 A 
ATOM     47  C   UNL A   1      43.628  27.232  30.008  1.00  0.00     0.049 A 
ATOM     48  C   UNL A   1      41.380  31.174  33.645  1.00  0.00     0.074 A 
ATOM     49  C   UNL A   1      44.464  28.330  29.918  1.00  0.00     0.029 A 
ATOM     50  N   UNL A   1      43.254  27.134  31.350  1.00  0.00    -0.354 N 
ATOM     51  N   UNL A   1      41.832  30.095  33.064  1.00  0.00    -0.248 NA
ATOM     52  C   UNL A   1      41.876  31.325  35.007  1.00  0.00     0.031 C 
ATOM     53  C   UNL A   1      44.477  28.962  31.200  1.00  0.00     0.029 A 
ATOM     54  C   UNL A   1      43.694  28.223  32.076  1.00  0.00     0.049 A 
ATOM     55  H   UNL A   1      42.741  26.384  31.729  1.00  0.00     0.167 HD
ATOM     56  C   UNL A   1      42.704  29.459  33.888  1.00  0.00     0.074 A 
ATOM     57  C   UNL A   1      42.675  30.247  35.111  1.00  0.00     0.031 C 
ATOM     58  C   UNL A   1      43.385  28.343  33.501  1.00  0.00     0.037 A 
BRANCH  45  59
ATOM     59  C   UNL A   1      43.582  25.535  27.996  1.00  0.00     0.058 A 
ATOM     60  C   UNL A   1      44.111  26.111  26.821  1.00  0.00     0.135 A 
ATOM     61  C   UNL A   1      43.650  24.123  28.038  1.00  0.00     0.135 A 
ATOM     62  F   UNL A   1      44.079  27.438  26.627  1.00  0.00    -0.206 F 
ATOM     63  C   UNL A   1      44.672  25.355  25.785  1.00  0.00     0.059 A 
ATOM     64  C   UNL A   1      44.251  23.350  27.039  1.00  0.00     0.059 A 
ATOM     65  F   UNL A   1      43.081  23.410  29.018  1.00  0.00    -0.206 F 
ATOM     66  C   UNL A   1      44.748  23.973  25.906  1.00  0.00     0.060 A 
BRANCH  66  67
ATOM     67  S   UNL A   1      45.473  23.007  24.568  1.00  0.00     0.124 S 
ATOM     68  O   UNL A   1      44.292  22.612  23.807  1.00  0.00    -0.237 OA
ATOM     69  O   UNL A   1      46.350  23.978  23.923  1.00  0.00    -0.237 OA
ATOM     70  O   UNL A   1      46.157  21.920  25.264  1.00  0.00    -0.744 OA
ENDBRANCH  66  67
ENDBRANCH  45  59
BRANCH  46  71
ATOM     71  C   UNL A   1      39.156  32.673  33.176  1.00  0.00     0.058 A 
ATOM     72  C   UNL A   1      38.872  34.000  32.779  1.00  0.00     0.135 A 
ATOM     73  C   UNL A   1      38.072  31.779  33.209  1.00  0.00     0.135 A 
ATOM     74  F   UNL A   1      39.863  34.907  32.730  1.00  0.00    -0.206 F 
ATOM     75  C   UNL A   1      37.630  34.375  32.264  1.00  0.00     0.059 A 
ATOM     76  C   UNL A   1      36.819  32.133  32.685  1.00  0.00     0.059 A 
ATOM     77  F   UNL A   1      38.263  30.504  33.576  1.00  0.00    -0.206 F 
ATOM     78  C   UNL A   1      36.627  33.413  32.159  1.00  0.00     0.060 A 
BRANCH  78  79
ATOM     79  S   UNL A   1      35.182  33.780  31.116  1.00  0.00     0.124 S 
ATOM     80  O   UNL A   1      34.367  32.585  31.297  1.00  0.00    -0.237 OA
ATOM     81  O   UNL A   1      34.650  35.001  31.721  1.00  0.00    -0.237 OA
ATOM     82  O   UNL A   1      35.766  33.960  29.793  1.00  0.00    -0.744 OA
ENDBRANCH  78  79
ENDBRANCH  46  71
BRANCH  58  83
ATOM     83  C   UNL A   1      43.882  27.313  34.479  1.00  0.00     0.058 A 
ATOM     84  C   UNL A   1      43.055  26.316  35.027  1.00  0.00     0.135 A 
ATOM     85  C   UNL A   1      45.259  27.196  34.776  1.00  0.00     0.135 A 
ATOM     86  F   UNL A   1      41.761  26.204  34.695  1.00  0.00    -0.206 F 
ATOM     87  C   UNL A   1      43.532  25.358  35.913  1.00  0.00     0.059 A 
ATOM     88  C   UNL A   1      45.769  26.197  35.596  1.00  0.00     0.059 A 
ATOM     89  F   UNL A   1      46.167  28.038  34.262  1.00  0.00    -0.206 F 
ATOM     90  C   UNL A   1      44.889  25.313  36.200  1.00  0.00     0.060 A 
BRANCH  90  91
ATOM     91  S   UNL A   1      45.488  24.078  37.357  1.00  0.00     0.124 S 
ATOM     92  O   UNL A   1      46.908  24.411  37.417  1.00  0.00    -0.237 OA
ATOM     93  O   UNL A   1      44.720  24.373  38.563  1.00  0.00    -0.237 OA
ATOM     94  O   UNL A   1      45.161  22.815  36.705  1.00  0.00    -0.744 OA
ENDBRANCH  90  91
ENDBRANCH  58  83
ENDBRANCH  32  33
ENDBRANCH  25  27
ENDBRANCH  24  25
ENDBRANCH  23  24
ENDBRANCH   1  23
TORSDOF 18
ENDMDL
MODEL 3
REMARK VINA RESULT:     -11.6      1.337      2.749
REMARK SMILES Cc1ccc(-c2cc(Cl)ccc2Cl)c(C(=O)OCCOCCOC(=O)c2ccc(-c3c4nc(c(-c5c(F)cc(S(=O)(=O)[O-])cc5F)c5ccc([nH]5)c(-c5c(F)cc(S(=O)(=O)[O-])cc5F)c5nc(c(-c6c(F)cc(S(=O)(=O)[O-])cc6F)c6ccc3[nH]6)C=C5)C=C4)cc2)c1
REMARK SMILES IDX 21 1 20 2 19 3 18 4 17 5 15 6 16 7 14 8 1 9 2 10 3 11 92 12
REMARK SMILES IDX 4 13 5 14 6 15 7 16 12 17 8 18 11 19 13 20 9 21 10 22 22 23
REMARK SMILES IDX 23 24 24 25 25 26 26 27 27 28 91 29 28 30 90 31 29 32 30 33
REMARK SMILES IDX 31 34 84 35 32 36 89 37 83 38 85 39 33 40 88 41 82 42 81 43
REMARK SMILES IDX 34 45 68 46 47 47 67 48 48 49 51 50 66 51 86 52 49 53 50 54
REMARK SMILES IDX 65 56 87 57 52 58 35 59 36 60 45 61 37 62 38 63 44 64 46 65
REMARK SMILES IDX 39 66 40 67 41 68 42 69 43 70 69 71 70 72 79 73 71 74 72 75
REMARK SMILES IDX 78 76 80 77 73 78 74 79 75 80 76 81 77 82 53 83 54 84 63 85
REMARK SMILES IDX 55 86 56 87 62 88 64 89 57 90 58 91 59 92 60 93 61 94
REMARK H PARENT 85 44 51 55
REMARK Flexibility Score: inf
ROOT
ATOM      1  C   UNL A   1      33.144  27.803  26.452  1.00  0.00     0.202 C 
ENDROOT
BRANCH   1   2
ATOM      2  O   UNL A   1      33.552  26.788  25.572  1.00  0.00    -0.374 OA
BRANCH   2   3
ATOM      3  C   UNL A   1      33.635  25.474  26.104  1.00  0.00     0.202 C 
BRANCH   3   4
ATOM      4  C   UNL A   1      34.797  24.852  25.392  1.00  0.00     0.261 C 
BRANCH   4   5
ATOM      5  O   UNL A   1      34.734  23.410  25.461  1.00  0.00    -0.460 OA
BRANCH   5   6
ATOM      6  C   UNL A   1      35.197  22.600  24.464  1.00  0.00     0.338 C 
ATOM      7  O   UNL A   1      36.201  22.716  23.810  1.00  0.00    -0.246 OA
BRANCH   6   8
ATOM      8  C   UNL A   1      34.279  21.425  24.425  1.00  0.00     0.068 A 
ATOM      9  C   UNL A   1      34.866  17.693  24.753  1.00  0.00     0.044 C 
ATOM     10  C   UNL A   1      34.157  18.987  24.498  1.00  0.00    -0.050 A 
ATOM     11  C   UNL A   1      32.858  19.061  24.002  1.00  0.00     0.004 A 
ATOM     12  C   UNL A   1      34.830  20.173  24.757  1.00  0.00     0.019 A 
ATOM     13  C   UNL A   1      32.261  20.309  23.745  1.00  0.00     0.010 A 
ATOM     14  C   UNL A   1      32.957  21.519  23.939  1.00  0.00    -0.002 A 
BRANCH  14  15
ATOM     15  C   UNL A   1      32.296  22.802  23.605  1.00  0.00     0.003 A 
ATOM     16  C   UNL A   1      32.708  23.521  22.466  1.00  0.00     0.030 A 
ATOM     17  C   UNL A   1      31.286  23.375  24.407  1.00  0.00     0.049 A 
ATOM     18  C   UNL A   1      32.177  24.782  22.175  1.00  0.00     0.041 A 
ATOM     19  C   UNL A   1      30.746  24.634  24.101  1.00  0.00     0.023 A 
ATOM     20  Cl  UNL A   1      30.653  22.551  25.789  1.00  0.00    -0.084 Cl
ATOM     21  Cl  UNL A   1      32.732  25.649  20.793  1.00  0.00    -0.084 Cl
ATOM     22  C   UNL A   1      31.202  25.345  22.991  1.00  0.00     0.022 A 
ENDBRANCH  14  15
ENDBRANCH   6   8
ENDBRANCH   5   6
ENDBRANCH   4   5
ENDBRANCH   3   4
ENDBRANCH   2   3
ENDBRANCH   1   2
BRANCH   1  23
ATOM     23  C   UNL A   1      33.640  29.182  26.031  1.00  0.00     0.261 C 
BRANCH  23  24
ATOM     24  O   UNL A   1      33.366  30.157  27.062  1.00  0.00    -0.460 OA
BRANCH  24  25
ATOM     25  C   UNL A   1      34.409  30.971  27.406  1.00  0.00     0.338 C 
ATOM     26  O   UNL A   1      34.398  32.180  27.253  1.00  0.00    -0.246 OA
BRANCH  25  27
ATOM     27  C   UNL A   1      35.533  30.178  27.985  1.00  0.00     0.060 A 
ATOM     28  C   UNL A   1      35.483  29.695  29.305  1.00  0.00     0.016 A 
ATOM     29  C   UNL A   1      36.724  30.098  27.273  1.00  0.00     0.016 A 
ATOM     30  C   UNL A   1      36.662  29.294  29.967  1.00  0.00     0.010 A 
ATOM     31  C   UNL A   1      37.886  29.800  27.954  1.00  0.00     0.010 A 
ATOM     32  C   UNL A   1      37.882  29.429  29.314  1.00  0.00    -0.014 A 
BRANCH  32  33
ATOM     33  C   UNL A   1      39.234  29.241  29.870  1.00  0.00     0.031 A 
ATOM     34  C   UNL A   1      39.900  27.956  29.530  1.00  0.00     0.074 A 
ATOM     35  C   UNL A   1      39.990  30.287  30.305  1.00  0.00     0.049 A 
ATOM     36  N   UNL A   1      41.115  27.668  29.830  1.00  0.00    -0.248 NA
ATOM     37  C   UNL A   1      39.236  26.858  28.818  1.00  0.00     0.031 C 
ATOM     38  C   UNL A   1      41.447  30.448  30.189  1.00  0.00     0.029 A 
ATOM     39  N   UNL A   1      39.621  31.478  30.947  1.00  0.00    -0.354 N 
ATOM     40  C   UNL A   1      41.493  26.598  29.056  1.00  0.00     0.074 A 
ATOM     41  C   UNL A   1      40.266  26.048  28.549  1.00  0.00     0.031 C 
ATOM     42  C   UNL A   1      41.859  31.461  30.972  1.00  0.00     0.029 A 
ATOM     43  C   UNL A   1      40.706  31.896  31.736  1.00  0.00     0.049 A 
ATOM     44  H   UNL A   1      38.755  31.938  30.861  1.00  0.00     0.167 HD
ATOM     45  C   UNL A   1      42.824  26.408  28.847  1.00  0.00     0.037 A 
ATOM     46  C   UNL A   1      40.591  31.977  33.090  1.00  0.00     0.037 A 
ATOM     47  C   UNL A   1      43.599  27.243  29.771  1.00  0.00     0.049 A 
ATOM     48  C   UNL A   1      41.540  30.993  33.710  1.00  0.00     0.074 A 
ATOM     49  C   UNL A   1      44.368  28.383  29.626  1.00  0.00     0.029 A 
ATOM     50  N   UNL A   1      43.366  27.099  31.141  1.00  0.00    -0.354 N 
ATOM     51  N   UNL A   1      41.983  29.950  33.061  1.00  0.00    -0.248 NA
ATOM     52  C   UNL A   1      42.162  31.141  35.021  1.00  0.00     0.031 C 
ATOM     53  C   UNL A   1      44.479  28.989  30.916  1.00  0.00     0.029 A 
ATOM     54  C   UNL A   1      43.824  28.194  31.847  1.00  0.00     0.049 A 
ATOM     55  H   UNL A   1      42.930  26.317  31.549  1.00  0.00     0.167 HD
ATOM     56  C   UNL A   1      42.962  29.342  33.779  1.00  0.00     0.074 A 
ATOM     57  C   UNL A   1      43.018  30.102  35.017  1.00  0.00     0.031 C 
ATOM     58  C   UNL A   1      43.654  28.270  33.298  1.00  0.00     0.037 A 
BRANCH  45  59
ATOM     59  C   UNL A   1      43.433  25.586  27.732  1.00  0.00     0.058 A 
ATOM     60  C   UNL A   1      43.496  24.181  27.848  1.00  0.00     0.135 A 
ATOM     61  C   UNL A   1      44.067  26.108  26.581  1.00  0.00     0.135 A 
ATOM     62  F   UNL A   1      42.970  23.551  28.909  1.00  0.00    -0.206 F 
ATOM     63  C   UNL A   1      44.120  23.363  26.899  1.00  0.00     0.059 A 
ATOM     64  C   UNL A   1      44.653  25.308  25.594  1.00  0.00     0.059 A 
ATOM     65  F   UNL A   1      44.213  27.424  26.381  1.00  0.00    -0.206 F 
ATOM     66  C   UNL A   1      44.688  23.935  25.767  1.00  0.00     0.060 A 
BRANCH  66  67
ATOM     67  S   UNL A   1      45.489  22.873  24.549  1.00  0.00     0.124 S 
ATOM     68  O   UNL A   1      46.379  23.810  23.872  1.00  0.00    -0.237 OA
ATOM     69  O   UNL A   1      46.137  21.871  25.387  1.00  0.00    -0.237 OA
ATOM     70  O   UNL A   1      44.375  22.381  23.742  1.00  0.00    -0.744 OA
ENDBRANCH  66  67
ENDBRANCH  45  59
BRANCH  46  71
ATOM     71  C   UNL A   1      39.210  32.387  33.502  1.00  0.00     0.058 A 
ATOM     72  C   UNL A   1      38.859  33.734  33.254  1.00  0.00     0.135 A 
ATOM     73  C   UNL A   1      38.158  31.456  33.533  1.00  0.00     0.135 A 
ATOM     74  F   UNL A   1      39.817  34.676  33.216  1.00  0.00    -0.206 F 
ATOM     75  C   UNL A   1      37.570  34.110  32.872  1.00  0.00     0.059 A 
ATOM     76  C   UNL A   1      36.859  31.811  33.140  1.00  0.00     0.059 A 
ATOM     77  F   UNL A   1      38.414  30.160  33.763  1.00  0.00    -0.206 F 
ATOM     78  C   UNL A   1      36.589  33.127  32.752  1.00  0.00     0.060 A 
BRANCH  78  79
ATOM     79  S   UNL A   1      35.058  33.536  31.861  1.00  0.00     0.124 S 
ATOM     80  O   UNL A   1      35.397  33.170  30.491  1.00  0.00    -0.237 OA
ATOM     81  O   UNL A   1      34.068  32.679  32.513  1.00  0.00    -0.237 OA
ATOM     82  O   UNL A   1      34.894  34.961  32.119  1.00  0.00    -0.744 OA
ENDBRANCH  78  79
ENDBRANCH  46  71
BRANCH  58  83
ATOM     83  C   UNL A   1      44.295  27.247  34.196  1.00  0.00     0.058 A 
ATOM     84  C   UNL A   1      43.563  26.249  34.866  1.00  0.00     0.135 A 
ATOM     85  C   UNL A   1      45.702  27.135  34.285  1.00  0.00     0.135 A 
ATOM     86  F   UNL A   1      42.235  26.131  34.730  1.00  0.00    -0.206 F 
ATOM     87  C   UNL A   1      44.170  25.297  35.675  1.00  0.00     0.059 A 
ATOM     88  C   UNL A   1      46.332  26.143  35.025  1.00  0.00     0.059 A 
ATOM     89  F   UNL A   1      46.519  27.978  33.638  1.00  0.00    -0.206 F 
ATOM     90  C   UNL A   1      45.555  25.259  35.757  1.00  0.00     0.060 A 
BRANCH  90  91
ATOM     91  S   UNL A   1      46.325  24.032  36.817  1.00  0.00     0.124 S 
ATOM     92  O   UNL A   1      46.199  24.668  38.125  1.00  0.00    -0.237 OA
ATOM     93  O   UNL A   1      45.485  22.857  36.605  1.00  0.00    -0.237 OA
ATOM     94  O   UNL A   1      47.681  23.930  36.291  1.00  0.00    -0.744 OA
ENDBRANCH  90  91
ENDBRANCH  58  83
ENDBRANCH  32  33
ENDBRANCH  25  27
ENDBRANCH  24  25
ENDBRANCH  23  24
ENDBRANCH   1  23
TORSDOF 18
ENDMDL
