MODEL 1
REMARK VINA RESULT:     -12.1      0.000      0.000
REMARK SMILES NS(=O)(=O)c1ccc(-n2nc(C(F)F)cc2-c2ccc(C(=O)OCCOCCOC(=O)c3ccc(-c4c5nc(c(-c6c(F)cc(S(=O)(=O)[O-])cc6F)c6ccc([nH]6)c(-c6c(F)cc(S(=O)(=O)[O-])cc6F)c6nc(c(-c7c(F)cc(S(=O)(=O)[O-])cc7F)c7ccc4[nH]7)C=C6)C=C5)cc3)cc2)cc1
REMARK SMILES IDX 25 1 24 2 23 3 21 4 22 5 20 6 17 7 18 8 99 9 19 10 98 11
REMARK SMILES IDX 16 12 9 13 10 14 11 15 15 16 8 17 5 18 6 19 101 20 7 21
REMARK SMILES IDX 100 22 2 23 3 24 4 25 1 26 12 29 13 30 14 31 26 32 27 33
REMARK SMILES IDX 28 34 29 35 30 36 31 37 32 38 33 39 97 40 34 41 96 42 35 43
REMARK SMILES IDX 36 44 37 45 90 46 38 47 95 48 89 49 91 50 39 51 94 52 88 53
REMARK SMILES IDX 87 54 40 56 74 57 53 58 73 59 54 60 57 61 72 62 92 63 55 64
REMARK SMILES IDX 56 65 71 67 93 68 58 69 41 70 42 71 51 72 43 73 44 74 50 75
REMARK SMILES IDX 52 76 45 77 46 78 47 79 48 80 49 81 75 82 76 83 85 84 77 85
REMARK SMILES IDX 78 86 84 87 86 88 79 89 80 90 81 91 82 92 83 93 59 94 60 95
REMARK SMILES IDX 69 96 61 97 62 98 68 99 70 100 63 101 64 102 65 103 66 104
REMARK SMILES IDX 67 105
REMARK H PARENT 1 27 1 28 91 55 57 66
REMARK Flexibility Score: inf
ROOT
ATOM      1  C   UNL A   1      41.787  21.568  26.817  1.00  0.00     0.202 C 
ENDROOT
BRANCH   1   2
ATOM      2  C   UNL A   1      40.369  21.763  27.358  1.00  0.00     0.261 C 
BRANCH   2   3
ATOM      3  O   UNL A   1      39.555  22.572  26.499  1.00  0.00    -0.460 OA
BRANCH   3   4
ATOM      4  C   UNL A   1      38.723  21.865  25.698  1.00  0.00     0.338 C 
ATOM      5  O   UNL A   1      38.821  20.687  25.393  1.00  0.00    -0.246 OA
BRANCH   4   6
ATOM      6  C   UNL A   1      37.540  22.670  25.338  1.00  0.00     0.060 A 
ATOM      7  C   UNL A   1      35.122  23.974  24.825  1.00  0.00     0.000 A 
ATOM      8  C   UNL A   1      35.614  23.890  26.135  1.00  0.00     0.011 A 
ATOM      9  C   UNL A   1      35.886  23.463  23.767  1.00  0.00     0.011 A 
ATOM     10  C   UNL A   1      36.816  23.238  26.391  1.00  0.00     0.016 A 
ATOM     11  C   UNL A   1      37.103  22.820  24.019  1.00  0.00     0.016 A 
BRANCH   7  12
ATOM     12  C   UNL A   1      33.769  24.478  24.595  1.00  0.00     0.075 A 
ATOM     13  N   UNL A   1      32.722  23.772  24.016  1.00  0.00    -0.233 N 
ATOM     14  N   UNL A   1      31.749  24.600  23.558  1.00  0.00    -0.166 NA
ATOM     15  C   UNL A   1      32.055  25.805  24.072  1.00  0.00     0.129 A 
ATOM     16  C   UNL A   1      33.323  25.780  24.697  1.00  0.00     0.060 A 
BRANCH  13  17
ATOM     17  C   UNL A   1      32.625  22.367  23.846  1.00  0.00     0.065 A 
ATOM     18  C   UNL A   1      32.594  19.614  23.466  1.00  0.00     0.082 A 
ATOM     19  C   UNL A   1      32.983  20.133  24.702  1.00  0.00     0.024 A 
ATOM     20  C   UNL A   1      32.188  20.460  22.427  1.00  0.00     0.024 A 
ATOM     21  C   UNL A   1      33.017  21.513  24.888  1.00  0.00     0.030 A 
ATOM     22  C   UNL A   1      32.174  21.844  22.628  1.00  0.00     0.030 A 
BRANCH  18  23
ATOM     23  S   UNL A   1      32.575  17.859  23.265  1.00  0.00     0.238 S 
ATOM     24  O   UNL A   1      33.932  17.364  23.376  1.00  0.00    -0.207 OA
ATOM     25  O   UNL A   1      31.714  17.539  22.159  1.00  0.00    -0.207 OA
BRANCH  23  26
ATOM     26  N   UNL A   1      31.799  17.298  24.647  1.00  0.00    -0.225 NA
ATOM     27  H   UNL A   1      31.950  16.294  24.739  1.00  0.00     0.137 HD
ATOM     28  H   UNL A   1      30.799  17.486  24.576  1.00  0.00     0.137 HD
ENDBRANCH  23  26
ENDBRANCH  18  23
ENDBRANCH  13  17
BRANCH  15  29
ATOM     29  C   UNL A   1      31.170  27.007  23.930  1.00  0.00     0.393 C 
ATOM     30  F   UNL A   1      31.865  28.142  23.650  1.00  0.00    -0.203 F 
ATOM     31  F   UNL A   1      30.261  26.846  22.929  1.00  0.00    -0.203 F 
ENDBRANCH  15  29
ENDBRANCH   7  12
ENDBRANCH   4   6
ENDBRANCH   3   4
ENDBRANCH   2   3
ENDBRANCH   1   2
BRANCH   1  32
ATOM     32  O   UNL A   1      41.982  20.680  25.718  1.00  0.00    -0.374 OA
BRANCH  32  33
ATOM     33  C   UNL A   1      42.376  19.331  25.947  1.00  0.00     0.202 C 
BRANCH  33  34
ATOM     34  C   UNL A   1      43.746  18.866  25.479  1.00  0.00     0.261 C 
BRANCH  34  35
ATOM     35  O   UNL A   1      44.701  19.913  25.474  1.00  0.00    -0.460 OA
BRANCH  35  36
ATOM     36  C   UNL A   1      44.708  20.624  24.322  1.00  0.00     0.338 C 
ATOM     37  O   UNL A   1      44.616  20.191  23.187  1.00  0.00    -0.246 OA
BRANCH  36  38
ATOM     38  C   UNL A   1      44.992  22.024  24.642  1.00  0.00     0.060 A 
ATOM     39  C   UNL A   1      45.853  22.247  25.717  1.00  0.00     0.016 A 
ATOM     40  C   UNL A   1      44.162  23.027  24.121  1.00  0.00     0.016 A 
ATOM     41  C   UNL A   1      45.691  23.405  26.440  1.00  0.00     0.010 A 
ATOM     42  C   UNL A   1      43.988  24.170  24.855  1.00  0.00     0.010 A 
ATOM     43  C   UNL A   1      44.682  24.292  26.055  1.00  0.00    -0.014 A 
BRANCH  43  44
ATOM     44  C   UNL A   1      44.439  25.454  26.877  1.00  0.00     0.031 A 
ATOM     45  C   UNL A   1      45.489  26.474  26.675  1.00  0.00     0.074 A 
ATOM     46  C   UNL A   1      43.321  25.589  27.616  1.00  0.00     0.049 A 
ATOM     47  N   UNL A   1      46.458  26.767  27.475  1.00  0.00    -0.248 NA
ATOM     48  C   UNL A   1      45.644  27.037  25.320  1.00  0.00     0.031 C 
ATOM     49  C   UNL A   1      42.141  24.721  27.649  1.00  0.00     0.029 A 
ATOM     50  N   UNL A   1      42.966  26.612  28.438  1.00  0.00    -0.354 N 
ATOM     51  C   UNL A   1      47.164  27.772  26.825  1.00  0.00     0.074 A 
ATOM     52  C   UNL A   1      46.804  27.682  25.438  1.00  0.00     0.031 C 
ATOM     53  C   UNL A   1      41.123  25.371  28.261  1.00  0.00     0.029 A 
ATOM     54  C   UNL A   1      41.612  26.638  28.775  1.00  0.00     0.049 A 
ATOM     55  H   UNL A   1      43.611  27.279  28.768  1.00  0.00     0.167 HD
ATOM     56  C   UNL A   1      47.698  28.804  27.532  1.00  0.00     0.037 A 
ATOM     57  C   UNL A   1      40.965  27.684  29.359  1.00  0.00     0.037 A 
ATOM     58  C   UNL A   1      47.809  28.464  28.930  1.00  0.00     0.049 A 
ATOM     59  C   UNL A   1      42.016  28.526  30.001  1.00  0.00     0.074 A 
ATOM     60  C   UNL A   1      48.450  27.461  29.635  1.00  0.00     0.029 A 
ATOM     61  N   UNL A   1      46.855  28.973  29.780  1.00  0.00    -0.354 N 
ATOM     62  N   UNL A   1      42.742  28.122  31.011  1.00  0.00    -0.248 NA
ATOM     63  C   UNL A   1      42.605  29.588  29.198  1.00  0.00     0.031 C 
ATOM     64  C   UNL A   1      47.548  27.107  30.680  1.00  0.00     0.029 A 
ATOM     65  C   UNL A   1      46.447  27.964  30.615  1.00  0.00     0.049 A 
ATOM     66  H   UNL A   1      46.523  29.899  29.787  1.00  0.00     0.167 HD
ATOM     67  C   UNL A   1      44.030  28.554  30.719  1.00  0.00     0.074 A 
ATOM     68  C   UNL A   1      43.871  29.500  29.615  1.00  0.00     0.031 C 
ATOM     69  C   UNL A   1      45.123  27.884  31.192  1.00  0.00     0.037 A 
BRANCH  56  70
ATOM     70  C   UNL A   1      47.702  30.235  27.041  1.00  0.00     0.058 A 
ATOM     71  C   UNL A   1      48.902  30.969  27.113  1.00  0.00     0.135 A 
ATOM     72  C   UNL A   1      46.541  30.998  26.771  1.00  0.00     0.135 A 
ATOM     73  F   UNL A   1      50.066  30.353  27.370  1.00  0.00    -0.206 F 
ATOM     74  C   UNL A   1      48.934  32.360  27.003  1.00  0.00     0.059 A 
ATOM     75  C   UNL A   1      46.559  32.374  26.602  1.00  0.00     0.059 A 
ATOM     76  F   UNL A   1      45.312  30.473  26.747  1.00  0.00    -0.206 F 
ATOM     77  C   UNL A   1      47.752  33.052  26.759  1.00  0.00     0.060 A 
BRANCH  77  78
ATOM     78  S   UNL A   1      47.771  34.849  26.696  1.00  0.00     0.124 S 
ATOM     79  O   UNL A   1      46.358  35.146  26.490  1.00  0.00    -0.237 OA
ATOM     80  O   UNL A   1      48.316  35.188  28.006  1.00  0.00    -0.237 OA
ATOM     81  O   UNL A   1      48.649  35.136  25.565  1.00  0.00    -0.744 OA
ENDBRANCH  77  78
ENDBRANCH  56  70
BRANCH  57  82
ATOM     82  C   UNL A   1      39.604  28.210  29.047  1.00  0.00     0.058 A 
ATOM     83  C   UNL A   1      38.577  28.213  30.013  1.00  0.00     0.135 A 
ATOM     84  C   UNL A   1      39.363  28.986  27.895  1.00  0.00     0.135 A 
ATOM     85  F   UNL A   1      38.725  27.522  31.154  1.00  0.00    -0.206 F 
ATOM     86  C   UNL A   1      37.411  28.978  29.868  1.00  0.00     0.059 A 
ATOM     87  C   UNL A   1      38.206  29.748  27.726  1.00  0.00     0.059 A 
ATOM     88  F   UNL A   1      40.291  29.105  26.935  1.00  0.00    -0.206 F 
ATOM     89  C   UNL A   1      37.244  29.761  28.727  1.00  0.00     0.060 A 
BRANCH  89  90
ATOM     90  S   UNL A   1      35.833  30.890  28.607  1.00  0.00     0.124 S 
ATOM     91  O   UNL A   1      36.359  31.940  27.742  1.00  0.00    -0.237 OA
ATOM     92  O   UNL A   1      34.803  30.038  28.021  1.00  0.00    -0.237 OA
ATOM     93  O   UNL A   1      35.596  31.284  29.993  1.00  0.00    -0.744 OA
ENDBRANCH  89  90
ENDBRANCH  57  82
BRANCH  69  94
ATOM     94  C   UNL A   1      44.919  26.847  32.268  1.00  0.00     0.058 A 
ATOM     95  C   UNL A   1      44.797  27.124  33.642  1.00  0.00     0.135 A 
ATOM     96  C   UNL A   1      44.679  25.527  31.858  1.00  0.00     0.135 A 
ATOM     97  F   UNL A   1      44.910  28.377  34.105  1.00  0.00    -0.206 F 
ATOM     98  C   UNL A   1      44.488  26.123  34.570  1.00  0.00     0.059 A 
ATOM     99  C   UNL A   1      44.339  24.523  32.758  1.00  0.00     0.059 A 
ATOM    100  F   UNL A   1      44.719  25.212  30.554  1.00  0.00    -0.206 F 
ATOM    101  C   UNL A   1      44.261  24.823  34.115  1.00  0.00     0.060 A 
BRANCH 101 102
ATOM    102  S   UNL A   1      43.806  23.536  35.298  1.00  0.00     0.124 S 
ATOM    103  O   UNL A   1      44.354  22.337  34.674  1.00  0.00    -0.237 OA
ATOM    104  O   UNL A   1      44.471  23.977  36.520  1.00  0.00    -0.237 OA
ATOM    105  O   UNL A   1      42.346  23.607  35.335  1.00  0.00    -0.744 OA
ENDBRANCH 101 102
ENDBRANCH  69  94
ENDBRANCH  43  44
ENDBRANCH  36  38
ENDBRANCH  35  36
ENDBRANCH  34  35
ENDBRANCH  33  34
ENDBRANCH  32  33
ENDBRANCH   1  32
TORSDOF 22
ENDMDL
MODEL 2
REMARK VINA RESULT:     -11.9      3.479      5.666
REMARK SMILES NS(=O)(=O)c1ccc(-n2nc(C(F)F)cc2-c2ccc(C(=O)OCCOCCOC(=O)c3ccc(-c4c5nc(c(-c6c(F)cc(S(=O)(=O)[O-])cc6F)c6ccc([nH]6)c(-c6c(F)cc(S(=O)(=O)[O-])cc6F)c6nc(c(-c7c(F)cc(S(=O)(=O)[O-])cc7F)c7ccc4[nH]7)C=C6)C=C5)cc3)cc2)cc1
REMARK SMILES IDX 25 1 24 2 23 3 21 4 22 5 20 6 17 7 18 8 99 9 19 10 98 11
REMARK SMILES IDX 16 12 9 13 10 14 11 15 15 16 8 17 5 18 6 19 101 20 7 21
REMARK SMILES IDX 100 22 2 23 3 24 4 25 1 26 12 29 13 30 14 31 26 32 27 33
REMARK SMILES IDX 28 34 29 35 30 36 31 37 32 38 33 39 97 40 34 41 96 42 35 43
REMARK SMILES IDX 36 44 37 45 90 46 38 47 95 48 89 49 91 50 39 51 94 52 88 53
REMARK SMILES IDX 87 54 40 56 74 57 53 58 73 59 54 60 57 61 72 62 92 63 55 64
REMARK SMILES IDX 56 65 71 67 93 68 58 69 41 70 42 71 51 72 43 73 44 74 50 75
REMARK SMILES IDX 52 76 45 77 46 78 47 79 48 80 49 81 75 82 76 83 85 84 77 85
REMARK SMILES IDX 78 86 84 87 86 88 79 89 80 90 81 91 82 92 83 93 59 94 60 95
REMARK SMILES IDX 69 96 61 97 62 98 68 99 70 100 63 101 64 102 65 103 66 104
REMARK SMILES IDX 67 105
REMARK H PARENT 1 27 1 28 91 55 57 66
REMARK Flexibility Score: inf
ROOT
ATOM      1  C   UNL A   1      35.341  21.412  25.958  1.00  0.00     0.202 C 
ENDROOT
BRANCH   1   2
ATOM      2  C   UNL A   1      34.620  22.288  26.984  1.00  0.00     0.261 C 
BRANCH   2   3
ATOM      3  O   UNL A   1      33.970  23.419  26.389  1.00  0.00    -0.460 OA
BRANCH   3   4
ATOM      4  C   UNL A   1      32.690  23.597  26.792  1.00  0.00     0.338 C 
ATOM      5  O   UNL A   1      32.154  23.111  27.775  1.00  0.00    -0.246 OA
BRANCH   4   6
ATOM      6  C   UNL A   1      32.019  24.614  25.958  1.00  0.00     0.060 A 
ATOM      7  C   UNL A   1      30.998  26.740  24.459  1.00  0.00     0.000 A 
ATOM      8  C   UNL A   1      32.216  26.145  24.100  1.00  0.00     0.011 A 
ATOM      9  C   UNL A   1      30.262  26.214  25.530  1.00  0.00     0.011 A 
ATOM     10  C   UNL A   1      32.726  25.089  24.848  1.00  0.00     0.016 A 
ATOM     11  C   UNL A   1      30.765  25.141  26.275  1.00  0.00     0.016 A 
BRANCH   7  12
ATOM     12  C   UNL A   1      30.575  27.971  23.795  1.00  0.00     0.075 A 
ATOM     13  N   UNL A   1      30.816  29.264  24.242  1.00  0.00    -0.233 N 
ATOM     14  N   UNL A   1      29.970  30.160  23.672  1.00  0.00    -0.166 NA
ATOM     15  C   UNL A   1      29.369  29.479  22.680  1.00  0.00     0.129 A 
ATOM     16  C   UNL A   1      29.693  28.104  22.741  1.00  0.00     0.060 A 
BRANCH  13  17
ATOM     17  C   UNL A   1      31.774  29.675  25.203  1.00  0.00     0.065 A 
ATOM     18  C   UNL A   1      33.703  30.598  26.979  1.00  0.00     0.082 A 
ATOM     19  C   UNL A   1      32.435  31.182  26.977  1.00  0.00     0.024 A 
ATOM     20  C   UNL A   1      34.005  29.533  26.121  1.00  0.00     0.024 A 
ATOM     21  C   UNL A   1      31.473  30.733  26.075  1.00  0.00     0.030 A 
ATOM     22  C   UNL A   1      33.025  29.048  25.249  1.00  0.00     0.030 A 
BRANCH  18  23
ATOM     23  S   UNL A   1      34.900  31.201  28.130  1.00  0.00     0.238 S 
ATOM     24  O   UNL A   1      35.645  32.275  27.504  1.00  0.00    -0.207 OA
ATOM     25  O   UNL A   1      35.531  30.075  28.760  1.00  0.00    -0.207 OA
BRANCH  23  26
ATOM     26  N   UNL A   1      33.979  31.955  29.319  1.00  0.00    -0.225 NA
ATOM     27  H   UNL A   1      33.293  31.296  29.686  1.00  0.00     0.137 HD
ATOM     28  H   UNL A   1      33.498  32.759  28.917  1.00  0.00     0.137 HD
ENDBRANCH  23  26
ENDBRANCH  18  23
ENDBRANCH  13  17
BRANCH  15  29
ATOM     29  C   UNL A   1      28.439  30.117  21.692  1.00  0.00     0.393 C 
ATOM     30  F   UNL A   1      27.194  30.326  22.200  1.00  0.00    -0.203 F 
ATOM     31  F   UNL A   1      28.901  31.329  21.276  1.00  0.00    -0.203 F 
ENDBRANCH  15  29
ENDBRANCH   7  12
ENDBRANCH   4   6
ENDBRANCH   3   4
ENDBRANCH   2   3
ENDBRANCH   1   2
BRANCH   1  32
ATOM     32  O   UNL A   1      35.790  22.012  24.745  1.00  0.00    -0.374 OA
BRANCH  32  33
ATOM     33  C   UNL A   1      37.163  21.945  24.376  1.00  0.00     0.202 C 
BRANCH  33  34
ATOM     34  C   UNL A   1      38.191  21.508  25.409  1.00  0.00     0.261 C 
BRANCH  34  35
ATOM     35  O   UNL A   1      38.541  22.553  26.299  1.00  0.00    -0.460 OA
BRANCH  35  36
ATOM     36  C   UNL A   1      39.775  22.406  26.837  1.00  0.00     0.338 C 
ATOM     37  O   UNL A   1      40.258  21.391  27.308  1.00  0.00    -0.246 OA
BRANCH  36  38
ATOM     38  C   UNL A   1      40.415  23.720  26.901  1.00  0.00     0.060 A 
ATOM     39  C   UNL A   1      41.562  23.808  27.691  1.00  0.00     0.016 A 
ATOM     40  C   UNL A   1      39.698  24.851  26.487  1.00  0.00     0.016 A 
ATOM     41  C   UNL A   1      41.843  25.015  28.284  1.00  0.00     0.010 A 
ATOM     42  C   UNL A   1      39.968  26.048  27.094  1.00  0.00     0.010 A 
ATOM     43  C   UNL A   1      40.971  26.085  28.058  1.00  0.00    -0.014 A 
BRANCH  43  44
ATOM     44  C   UNL A   1      41.204  27.321  28.766  1.00  0.00     0.031 A 
ATOM     45  C   UNL A   1      42.380  28.030  28.220  1.00  0.00     0.074 A 
ATOM     46  C   UNL A   1      40.356  27.780  29.706  1.00  0.00     0.049 A 
ATOM     47  N   UNL A   1      43.553  28.123  28.751  1.00  0.00    -0.248 NA
ATOM     48  C   UNL A   1      42.331  28.447  26.806  1.00  0.00     0.031 C 
ATOM     49  C   UNL A   1      39.052  27.240  30.098  1.00  0.00     0.029 A 
ATOM     50  N   UNL A   1      40.450  28.911  30.456  1.00  0.00    -0.354 N 
ATOM     51  C   UNL A   1      44.293  28.874  27.848  1.00  0.00     0.074 A 
ATOM     52  C   UNL A   1      43.602  28.787  26.592  1.00  0.00     0.031 C 
ATOM     53  C   UNL A   1      38.385  28.163  30.832  1.00  0.00     0.029 A 
ATOM     54  C   UNL A   1      39.259  29.297  31.071  1.00  0.00     0.049 A 
ATOM     55  H   UNL A   1      41.290  29.415  30.556  1.00  0.00     0.167 HD
ATOM     56  C   UNL A   1      45.202  29.783  28.292  1.00  0.00     0.037 A 
ATOM     57  C   UNL A   1      39.027  30.508  31.648  1.00  0.00     0.037 A 
ATOM     58  C   UNL A   1      45.563  29.518  29.665  1.00  0.00     0.049 A 
ATOM     59  C   UNL A   1      40.364  31.100  31.943  1.00  0.00     0.074 A 
ATOM     60  C   UNL A   1      46.106  28.436  30.331  1.00  0.00     0.029 A 
ATOM     61  N   UNL A   1      44.981  30.304  30.631  1.00  0.00    -0.354 N 
ATOM     62  N   UNL A   1      41.198  30.594  32.814  1.00  0.00    -0.248 NA
ATOM     63  C   UNL A   1      40.971  31.926  30.909  1.00  0.00     0.031 C 
ATOM     64  C   UNL A   1      45.423  28.388  31.581  1.00  0.00     0.029 A 
ATOM     65  C   UNL A   1      44.564  29.487  31.651  1.00  0.00     0.049 A 
ATOM     66  H   UNL A   1      44.881  31.283  30.598  1.00  0.00     0.167 HD
ATOM     67  C   UNL A   1      42.442  30.670  32.201  1.00  0.00     0.074 A 
ATOM     68  C   UNL A   1      42.246  31.551  31.051  1.00  0.00     0.031 C 
ATOM     69  C   UNL A   1      43.433  29.779  32.505  1.00  0.00     0.037 A 
BRANCH  56  70
ATOM     70  C   UNL A   1      45.416  31.132  27.642  1.00  0.00     0.058 A 
ATOM     71  C   UNL A   1      46.695  31.444  27.141  1.00  0.00     0.135 A 
ATOM     72  C   UNL A   1      44.520  32.224  27.738  1.00  0.00     0.135 A 
ATOM     73  F   UNL A   1      47.630  30.490  27.012  1.00  0.00    -0.206 F 
ATOM     74  C   UNL A   1      47.078  32.750  26.832  1.00  0.00     0.059 A 
ATOM     75  C   UNL A   1      44.863  33.520  27.383  1.00  0.00     0.059 A 
ATOM     76  F   UNL A   1      43.296  32.121  28.264  1.00  0.00    -0.206 F 
ATOM     77  C   UNL A   1      46.155  33.782  26.970  1.00  0.00     0.060 A 
BRANCH  77  78
ATOM     78  S   UNL A   1      46.663  35.478  26.652  1.00  0.00     0.124 S 
ATOM     79  O   UNL A   1      45.381  36.119  26.388  1.00  0.00    -0.237 OA
ATOM     80  O   UNL A   1      47.315  35.834  27.908  1.00  0.00    -0.237 OA
ATOM     81  O   UNL A   1      47.556  35.351  25.504  1.00  0.00    -0.744 OA
ENDBRANCH  77  78
ENDBRANCH  56  70
BRANCH  57  82
ATOM     82  C   UNL A   1      37.788  31.336  31.576  1.00  0.00     0.058 A 
ATOM     83  C   UNL A   1      36.826  31.315  32.607  1.00  0.00     0.135 A 
ATOM     84  C   UNL A   1      37.659  32.383  30.640  1.00  0.00     0.135 A 
ATOM     85  F   UNL A   1      36.881  30.369  33.557  1.00  0.00    -0.206 F 
ATOM     86  C   UNL A   1      35.834  32.298  32.730  1.00  0.00     0.059 A 
ATOM     87  C   UNL A   1      36.674  33.367  30.738  1.00  0.00     0.059 A 
ATOM     88  F   UNL A   1      38.548  32.539  29.649  1.00  0.00    -0.206 F 
ATOM     89  C   UNL A   1      35.779  33.335  31.799  1.00  0.00     0.060 A 
BRANCH  89  90
ATOM     90  S   UNL A   1      34.622  34.706  32.045  1.00  0.00     0.124 S 
ATOM     91  O   UNL A   1      35.451  35.679  32.747  1.00  0.00    -0.237 OA
ATOM     92  O   UNL A   1      34.254  35.051  30.677  1.00  0.00    -0.237 OA
ATOM     93  O   UNL A   1      33.553  34.108  32.842  1.00  0.00    -0.744 OA
ENDBRANCH  89  90
ENDBRANCH  57  82
BRANCH  69  94
ATOM     94  C   UNL A   1      43.260  28.898  33.717  1.00  0.00     0.058 A 
ATOM     95  C   UNL A   1      43.496  29.300  35.046  1.00  0.00     0.135 A 
ATOM     96  C   UNL A   1      42.676  27.639  33.525  1.00  0.00     0.135 A 
ATOM     97  F   UNL A   1      43.957  30.528  35.323  1.00  0.00    -0.206 F 
ATOM     98  C   UNL A   1      43.198  28.467  36.129  1.00  0.00     0.059 A 
ATOM     99  C   UNL A   1      42.342  26.807  34.588  1.00  0.00     0.059 A 
ATOM    100  F   UNL A   1      42.369  27.224  32.285  1.00  0.00    -0.206 F 
ATOM    101  C   UNL A   1      42.620  27.220  35.888  1.00  0.00     0.060 A 
BRANCH 101 102
ATOM    102  S   UNL A   1      42.179  26.161  37.283  1.00  0.00     0.124 S 
ATOM    103  O   UNL A   1      42.330  24.825  36.715  1.00  0.00    -0.237 OA
ATOM    104  O   UNL A   1      43.164  26.537  38.293  1.00  0.00    -0.237 OA
ATOM    105  O   UNL A   1      40.805  26.555  37.590  1.00  0.00    -0.744 OA
ENDBRANCH 101 102
ENDBRANCH  69  94
ENDBRANCH  43  44
ENDBRANCH  36  38
ENDBRANCH  35  36
ENDBRANCH  34  35
ENDBRANCH  33  34
ENDBRANCH  32  33
ENDBRANCH   1  32
TORSDOF 22
ENDMDL
MODEL 3
REMARK VINA RESULT:     -11.4      4.405     10.439
REMARK SMILES NS(=O)(=O)c1ccc(-n2nc(C(F)F)cc2-c2ccc(C(=O)OCCOCCOC(=O)c3ccc(-c4c5nc(c(-c6c(F)cc(S(=O)(=O)[O-])cc6F)c6ccc([nH]6)c(-c6c(F)cc(S(=O)(=O)[O-])cc6F)c6nc(c(-c7c(F)cc(S(=O)(=O)[O-])cc7F)c7ccc4[nH]7)C=C6)C=C5)cc3)cc2)cc1
REMARK SMILES IDX 25 1 24 2 23 3 21 4 22 5 20 6 17 7 18 8 99 9 19 10 98 11
REMARK SMILES IDX 16 12 9 13 10 14 11 15 15 16 8 17 5 18 6 19 101 20 7 21
REMARK SMILES IDX 100 22 2 23 3 24 4 25 1 26 12 29 13 30 14 31 26 32 27 33
REMARK SMILES IDX 28 34 29 35 30 36 31 37 32 38 33 39 97 40 34 41 96 42 35 43
REMARK SMILES IDX 36 44 37 45 90 46 38 47 95 48 89 49 91 50 39 51 94 52 88 53
REMARK SMILES IDX 87 54 40 56 74 57 53 58 73 59 54 60 57 61 72 62 92 63 55 64
REMARK SMILES IDX 56 65 71 67 93 68 58 69 41 70 42 71 51 72 43 73 44 74 50 75
REMARK SMILES IDX 52 76 45 77 46 78 47 79 48 80 49 81 75 82 76 83 85 84 77 85
REMARK SMILES IDX 78 86 84 87 86 88 79 89 80 90 81 91 82 92 83 93 59 94 60 95
REMARK SMILES IDX 69 96 61 97 62 98 68 99 70 100 63 101 64 102 65 103 66 104
REMARK SMILES IDX 67 105
REMARK H PARENT 1 27 1 28 91 55 57 66
REMARK Flexibility Score: inf
ROOT
ATOM      1  C   UNL A   1      34.995  33.886  28.458  1.00  0.00     0.202 C 
ENDROOT
BRANCH   1   2
ATOM      2  C   UNL A   1      35.331  32.528  27.841  1.00  0.00     0.261 C 
BRANCH   2   3
ATOM      3  O   UNL A   1      34.815  31.430  28.605  1.00  0.00    -0.460 OA
BRANCH   3   4
ATOM      4  C   UNL A   1      34.937  30.227  27.995  1.00  0.00     0.338 C 
ATOM      5  O   UNL A   1      35.673  29.309  28.321  1.00  0.00    -0.246 OA
BRANCH   4   6
ATOM      6  C   UNL A   1      33.924  30.078  26.932  1.00  0.00     0.060 A 
ATOM      7  C   UNL A   1      31.822  29.641  25.144  1.00  0.00     0.000 A 
ATOM      8  C   UNL A   1      31.641  30.477  26.254  1.00  0.00     0.011 A 
ATOM      9  C   UNL A   1      33.085  29.084  24.898  1.00  0.00     0.011 A 
ATOM     10  C   UNL A   1      32.686  30.692  27.146  1.00  0.00     0.016 A 
ATOM     11  C   UNL A   1      34.143  29.311  25.785  1.00  0.00     0.016 A 
BRANCH   7  12
ATOM     12  C   UNL A   1      30.666  29.262  24.332  1.00  0.00     0.075 A 
ATOM     13  N   UNL A   1      30.327  27.971  23.948  1.00  0.00    -0.233 N 
ATOM     14  N   UNL A   1      29.482  27.968  22.885  1.00  0.00    -0.166 NA
ATOM     15  C   UNL A   1      29.087  29.247  22.758  1.00  0.00     0.129 A 
ATOM     16  C   UNL A   1      29.825  30.092  23.619  1.00  0.00     0.060 A 
BRANCH  13  17
ATOM     17  C   UNL A   1      30.793  26.757  24.513  1.00  0.00     0.065 A 
ATOM     18  C   UNL A   1      31.591  24.297  25.533  1.00  0.00     0.082 A 
ATOM     19  C   UNL A   1      32.146  24.758  24.338  1.00  0.00     0.024 A 
ATOM     20  C   UNL A   1      30.664  25.072  26.241  1.00  0.00     0.024 A 
ATOM     21  C   UNL A   1      31.733  25.983  23.816  1.00  0.00     0.030 A 
ATOM     22  C   UNL A   1      30.285  26.323  25.744  1.00  0.00     0.030 A 
BRANCH  18  23
ATOM     23  S   UNL A   1      32.131  22.735  26.157  1.00  0.00     0.238 S 
ATOM     24  O   UNL A   1      32.423  22.876  27.570  1.00  0.00    -0.207 OA
ATOM     25  O   UNL A   1      33.061  22.169  25.219  1.00  0.00    -0.207 OA
BRANCH  23  26
ATOM     26  N   UNL A   1      30.753  21.773  26.098  1.00  0.00    -0.225 NA
ATOM     27  H   UNL A   1      29.949  22.346  25.843  1.00  0.00     0.137 HD
ATOM     28  H   UNL A   1      30.594  21.350  27.012  1.00  0.00     0.137 HD
ENDBRANCH  23  26
ENDBRANCH  18  23
ENDBRANCH  13  17
BRANCH  15  29
ATOM     29  C   UNL A   1      28.039  29.690  21.781  1.00  0.00     0.393 C 
ATOM     30  F   UNL A   1      27.031  30.387  22.371  1.00  0.00    -0.203 F 
ATOM     31  F   UNL A   1      28.560  30.495  20.815  1.00  0.00    -0.203 F 
ENDBRANCH  15  29
ENDBRANCH   7  12
ENDBRANCH   4   6
ENDBRANCH   3   4
ENDBRANCH   2   3
ENDBRANCH   1   2
BRANCH   1  32
ATOM     32  O   UNL A   1      33.640  34.162  28.807  1.00  0.00    -0.374 OA
BRANCH  32  33
ATOM     33  C   UNL A   1      33.251  35.475  29.196  1.00  0.00     0.202 C 
BRANCH  33  34
ATOM     34  C   UNL A   1      32.850  35.735  30.640  1.00  0.00     0.261 C 
BRANCH  34  35
ATOM     35  O   UNL A   1      33.278  34.707  31.515  1.00  0.00    -0.460 OA
BRANCH  35  36
ATOM     36  C   UNL A   1      33.743  35.171  32.698  1.00  0.00     0.338 C 
ATOM     37  O   UNL A   1      33.405  36.190  33.276  1.00  0.00    -0.246 OA
BRANCH  36  38
ATOM     38  C   UNL A   1      34.849  34.315  33.132  1.00  0.00     0.060 A 
ATOM     39  C   UNL A   1      36.021  34.971  33.513  1.00  0.00     0.016 A 
ATOM     40  C   UNL A   1      34.816  32.948  32.827  1.00  0.00     0.016 A 
ATOM     41  C   UNL A   1      37.213  34.311  33.334  1.00  0.00     0.010 A 
ATOM     42  C   UNL A   1      36.006  32.299  32.630  1.00  0.00     0.010 A 
ATOM     43  C   UNL A   1      37.183  33.023  32.789  1.00  0.00    -0.014 A 
BRANCH  43  44
ATOM     44  C   UNL A   1      38.438  32.372  32.500  1.00  0.00     0.031 A 
ATOM     45  C   UNL A   1      39.234  32.185  33.731  1.00  0.00     0.074 A 
ATOM     46  C   UNL A   1      38.738  31.904  31.273  1.00  0.00     0.049 A 
ATOM     47  N   UNL A   1      40.274  32.855  34.099  1.00  0.00    -0.248 NA
ATOM     48  C   UNL A   1      38.653  31.352  34.801  1.00  0.00     0.031 C 
ATOM     49  C   UNL A   1      37.879  31.841  30.088  1.00  0.00     0.029 A 
ATOM     50  N   UNL A   1      39.874  31.285  30.854  1.00  0.00    -0.354 N 
ATOM     51  C   UNL A   1      40.638  32.303  35.321  1.00  0.00     0.074 A 
ATOM     52  C   UNL A   1      39.475  31.621  35.815  1.00  0.00     0.031 C 
ATOM     53  C   UNL A   1      38.439  31.017  29.171  1.00  0.00     0.029 A 
ATOM     54  C   UNL A   1      39.747  30.602  29.644  1.00  0.00     0.049 A 
ATOM     55  H   UNL A   1      40.717  31.317  31.363  1.00  0.00     0.167 HD
ATOM     56  C   UNL A   1      41.951  32.156  35.645  1.00  0.00     0.037 A 
ATOM     57  C   UNL A   1      40.642  29.703  29.149  1.00  0.00     0.037 A 
ATOM     58  C   UNL A   1      42.780  33.003  34.821  1.00  0.00     0.049 A 
ATOM     59  C   UNL A   1      41.936  29.969  29.841  1.00  0.00     0.074 A 
ATOM     60  C   UNL A   1      42.842  34.364  34.588  1.00  0.00     0.029 A 
ATOM     61  N   UNL A   1      43.441  32.409  33.772  1.00  0.00    -0.354 N 
ATOM     62  N   UNL A   1      42.620  31.073  29.685  1.00  0.00    -0.248 NA
ATOM     63  C   UNL A   1      42.192  29.249  31.081  1.00  0.00     0.031 C 
ATOM     64  C   UNL A   1      43.118  34.490  33.194  1.00  0.00     0.029 A 
ATOM     65  C   UNL A   1      43.294  33.209  32.668  1.00  0.00     0.049 A 
ATOM     66  H   UNL A   1      43.934  31.558  33.808  1.00  0.00     0.167 HD
ATOM     67  C   UNL A   1      43.049  31.409  30.963  1.00  0.00     0.074 A 
ATOM     68  C   UNL A   1      42.800  30.217  31.773  1.00  0.00     0.031 C 
ATOM     69  C   UNL A   1      43.282  32.710  31.309  1.00  0.00     0.037 A 
BRANCH  56  70
ATOM     70  C   UNL A   1      42.497  30.951  36.379  1.00  0.00     0.058 A 
ATOM     71  C   UNL A   1      43.453  31.155  37.392  1.00  0.00     0.135 A 
ATOM     72  C   UNL A   1      42.342  29.610  35.953  1.00  0.00     0.135 A 
ATOM     73  F   UNL A   1      43.690  32.387  37.871  1.00  0.00    -0.206 F 
ATOM     74  C   UNL A   1      44.247  30.120  37.889  1.00  0.00     0.059 A 
ATOM     75  C   UNL A   1      43.082  28.559  36.474  1.00  0.00     0.059 A 
ATOM     76  F   UNL A   1      41.537  29.250  34.949  1.00  0.00    -0.206 F 
ATOM     77  C   UNL A   1      44.060  28.827  37.411  1.00  0.00     0.060 A 
BRANCH  77  78
ATOM     78  S   UNL A   1      45.132  27.503  37.986  1.00  0.00     0.124 S 
ATOM     79  O   UNL A   1      44.311  26.898  39.028  1.00  0.00    -0.237 OA
ATOM     80  O   UNL A   1      45.311  26.717  36.771  1.00  0.00    -0.237 OA
ATOM     81  O   UNL A   1      46.322  28.211  38.448  1.00  0.00    -0.744 OA
ENDBRANCH  77  78
ENDBRANCH  56  70
BRANCH  57  82
ATOM     82  C   UNL A   1      40.357  28.409  28.463  1.00  0.00     0.058 A 
ATOM     83  C   UNL A   1      40.944  28.090  27.221  1.00  0.00     0.135 A 
ATOM     84  C   UNL A   1      39.740  27.338  29.141  1.00  0.00     0.135 A 
ATOM     85  F   UNL A   1      41.574  29.039  26.512  1.00  0.00    -0.206 F 
ATOM     86  C   UNL A   1      40.962  26.784  26.711  1.00  0.00     0.059 A 
ATOM     87  C   UNL A   1      39.739  26.032  28.649  1.00  0.00     0.059 A 
ATOM     88  F   UNL A   1      39.200  27.509  30.356  1.00  0.00    -0.206 F 
ATOM     89  C   UNL A   1      40.373  25.755  27.445  1.00  0.00     0.060 A 
BRANCH  89  90
ATOM     90  S   UNL A   1      40.545  24.040  26.890  1.00  0.00     0.124 S 
ATOM     91  O   UNL A   1      40.842  23.346  28.138  1.00  0.00    -0.237 OA
ATOM     92  O   UNL A   1      39.235  23.770  26.307  1.00  0.00    -0.237 OA
ATOM     93  O   UNL A   1      41.647  24.102  25.933  1.00  0.00    -0.744 OA
ENDBRANCH  89  90
ENDBRANCH  57  82
BRANCH  69  94
ATOM     94  C   UNL A   1      43.349  33.744  30.213  1.00  0.00     0.058 A 
ATOM     95  C   UNL A   1      42.238  34.413  29.667  1.00  0.00     0.135 A 
ATOM     96  C   UNL A   1      44.619  34.183  29.813  1.00  0.00     0.135 A 
ATOM     97  F   UNL A   1      40.993  34.124  30.071  1.00  0.00    -0.206 F 
ATOM     98  C   UNL A   1      42.386  35.447  28.737  1.00  0.00     0.059 A 
ATOM     99  C   UNL A   1      44.792  35.230  28.915  1.00  0.00     0.059 A 
ATOM    100  F   UNL A   1      45.720  33.627  30.345  1.00  0.00    -0.206 F 
ATOM    101  C   UNL A   1      43.671  35.849  28.367  1.00  0.00     0.060 A 
BRANCH 101 102
ATOM    102  S   UNL A   1      43.874  37.221  27.210  1.00  0.00     0.124 S 
ATOM    103  O   UNL A   1      44.038  38.359  28.109  1.00  0.00    -0.237 OA
ATOM    104  O   UNL A   1      45.062  36.830  26.457  1.00  0.00    -0.237 OA
ATOM    105  O   UNL A   1      42.630  37.208  26.443  1.00  0.00    -0.744 OA
ENDBRANCH 101 102
ENDBRANCH  69  94
ENDBRANCH  43  44
ENDBRANCH  36  38
ENDBRANCH  35  36
ENDBRANCH  34  35
ENDBRANCH  33  34
ENDBRANCH  32  33
ENDBRANCH   1  32
TORSDOF 22
ENDMDL
