MODEL 1
REMARK VINA RESULT:     -11.6      0.000      0.000
REMARK SMILES O=C(OCCOCCOC(=O)c1ccnc(Sc2ccc3nnnn3n2)c1)c1ccc(-c2c3nc(c(-c4c(F)cc(S(=O)(=O)[O-])cc4F)c4ccc([nH]4)c(-c4c(F)cc(S(=O)(=O)[O-])cc4F)c4nc(c(-c5c(F)cc(S(=O)(=O)[O-])cc5F)c5ccc2[nH]5)C=C4)C=C3)cc1
REMARK SMILES IDX 5 1 4 2 3 3 2 4 1 5 28 6 29 7 93 8 30 9 92 10 31 11 32 12
REMARK SMILES IDX 33 13 86 14 34 15 91 16 85 17 87 18 35 19 90 20 84 21 83 22
REMARK SMILES IDX 36 24 70 25 49 26 69 27 50 28 53 29 68 30 88 31 51 32 52 33
REMARK SMILES IDX 67 35 89 36 54 37 37 38 38 39 47 40 39 41 40 42 46 43 48 44
REMARK SMILES IDX 41 45 42 46 43 47 44 48 45 49 71 50 72 51 81 52 73 53 74 54
REMARK SMILES IDX 80 55 82 56 75 57 76 58 77 59 78 60 79 61 55 62 56 63 65 64
REMARK SMILES IDX 57 65 58 66 64 67 66 68 59 69 60 70 61 71 62 72 63 73 6 74
REMARK SMILES IDX 7 75 8 76 9 77 10 78 11 79 12 80 13 81 27 82 14 83 16 84
REMARK SMILES IDX 15 85 17 86 18 87 19 88 26 89 20 90 25 91 21 92 24 93 22 94
REMARK SMILES IDX 23 95
REMARK H PARENT 87 23 53 34
REMARK Flexibility Score: inf
ROOT
ATOM      1  C   UNL A   1      41.755  39.534  27.091  1.00  0.00     0.202 C 
ENDROOT
BRANCH   1   2
ATOM      2  C   UNL A   1      42.984  38.633  27.035  1.00  0.00     0.261 C 
BRANCH   2   3
ATOM      3  O   UNL A   1      42.608  37.302  26.675  1.00  0.00    -0.460 OA
BRANCH   3   4
ATOM      4  C   UNL A   1      43.434  36.258  26.956  1.00  0.00     0.338 C 
ATOM      5  O   UNL A   1      44.567  36.194  26.495  1.00  0.00    -0.246 OA
BRANCH   4   6
ATOM      6  C   UNL A   1      42.986  35.306  27.994  1.00  0.00     0.060 A 
ATOM      7  C   UNL A   1      43.802  34.286  28.510  1.00  0.00     0.016 A 
ATOM      8  C   UNL A   1      41.695  35.481  28.479  1.00  0.00     0.016 A 
ATOM      9  C   UNL A   1      43.335  33.427  29.482  1.00  0.00     0.010 A 
ATOM     10  C   UNL A   1      41.232  34.634  29.475  1.00  0.00     0.010 A 
ATOM     11  C   UNL A   1      42.068  33.636  30.004  1.00  0.00    -0.014 A 
BRANCH  11  12
ATOM     12  C   UNL A   1      41.786  32.933  31.262  1.00  0.00     0.031 A 
ATOM     13  C   UNL A   1      40.420  33.216  31.781  1.00  0.00     0.074 A 
ATOM     14  C   UNL A   1      42.427  31.788  31.563  1.00  0.00     0.049 A 
ATOM     15  N   UNL A   1      39.417  32.620  31.215  1.00  0.00    -0.248 NA
ATOM     16  C   UNL A   1      40.021  34.396  32.545  1.00  0.00     0.031 C 
ATOM     17  C   UNL A   1      42.960  30.860  30.556  1.00  0.00     0.029 A 
ATOM     18  N   UNL A   1      42.567  31.122  32.750  1.00  0.00    -0.354 N 
ATOM     19  C   UNL A   1      38.299  33.412  31.376  1.00  0.00     0.074 A 
ATOM     20  C   UNL A   1      38.699  34.460  32.286  1.00  0.00     0.031 C 
ATOM     21  C   UNL A   1      43.169  29.666  31.144  1.00  0.00     0.029 A 
ATOM     22  C   UNL A   1      42.911  29.786  32.574  1.00  0.00     0.049 A 
ATOM     23  H   UNL A   1      42.440  31.541  33.630  1.00  0.00     0.167 HD
ATOM     24  C   UNL A   1      37.151  33.110  30.704  1.00  0.00     0.037 A 
ATOM     25  C   UNL A   1      42.435  28.794  33.376  1.00  0.00     0.037 A 
ATOM     26  C   UNL A   1      37.232  31.948  29.840  1.00  0.00     0.049 A 
ATOM     27  C   UNL A   1      41.018  28.672  32.856  1.00  0.00     0.074 A 
ATOM     28  C   UNL A   1      36.994  31.564  28.539  1.00  0.00     0.029 A 
ATOM     29  N   UNL A   1      37.765  30.850  30.457  1.00  0.00    -0.354 N 
ATOM     30  N   UNL A   1      40.672  28.109  31.722  1.00  0.00    -0.248 NA
ATOM     31  C   UNL A   1      39.940  29.451  33.477  1.00  0.00     0.031 C 
ATOM     32  C   UNL A   1      37.558  30.244  28.389  1.00  0.00     0.029 A 
ATOM     33  C   UNL A   1      38.112  29.849  29.606  1.00  0.00     0.049 A 
ATOM     34  H   UNL A   1      37.887  30.790  31.431  1.00  0.00     0.167 HD
ATOM     35  C   UNL A   1      39.457  28.697  31.365  1.00  0.00     0.074 A 
ATOM     36  C   UNL A   1      38.976  29.341  32.569  1.00  0.00     0.031 C 
ATOM     37  C   UNL A   1      39.030  28.817  30.068  1.00  0.00     0.037 A 
BRANCH  24  38
ATOM     38  C   UNL A   1      35.825  33.623  31.099  1.00  0.00     0.058 A 
ATOM     39  C   UNL A   1      35.185  34.453  30.159  1.00  0.00     0.135 A 
ATOM     40  C   UNL A   1      35.250  33.494  32.364  1.00  0.00     0.135 A 
ATOM     41  F   UNL A   1      35.698  34.592  28.925  1.00  0.00    -0.206 F 
ATOM     42  C   UNL A   1      34.045  35.171  30.472  1.00  0.00     0.059 A 
ATOM     43  C   UNL A   1      34.088  34.196  32.698  1.00  0.00     0.059 A 
ATOM     44  F   UNL A   1      35.824  32.716  33.296  1.00  0.00    -0.206 F 
ATOM     45  C   UNL A   1      33.509  35.049  31.751  1.00  0.00     0.060 A 
BRANCH  45  46
ATOM     46  S   UNL A   1      32.056  36.046  32.138  1.00  0.00     0.124 S 
ATOM     47  O   UNL A   1      31.216  35.091  32.853  1.00  0.00    -0.237 OA
ATOM     48  O   UNL A   1      32.632  37.116  32.947  1.00  0.00    -0.237 OA
ATOM     49  O   UNL A   1      31.564  36.453  30.825  1.00  0.00    -0.744 OA
ENDBRANCH  45  46
ENDBRANCH  24  38
BRANCH  25  50
ATOM     50  C   UNL A   1      42.867  28.961  34.803  1.00  0.00     0.058 A 
ATOM     51  C   UNL A   1      43.730  27.969  35.332  1.00  0.00     0.135 A 
ATOM     52  C   UNL A   1      42.585  30.036  35.653  1.00  0.00     0.135 A 
ATOM     53  F   UNL A   1      43.940  26.827  34.657  1.00  0.00    -0.206 F 
ATOM     54  C   UNL A   1      44.433  28.141  36.518  1.00  0.00     0.059 A 
ATOM     55  C   UNL A   1      43.298  30.247  36.838  1.00  0.00     0.059 A 
ATOM     56  F   UNL A   1      41.629  30.926  35.358  1.00  0.00    -0.206 F 
ATOM     57  C   UNL A   1      44.258  29.320  37.232  1.00  0.00     0.060 A 
BRANCH  57  58
ATOM     58  S   UNL A   1      45.350  29.637  38.631  1.00  0.00     0.124 S 
ATOM     59  O   UNL A   1      44.561  30.568  39.432  1.00  0.00    -0.237 OA
ATOM     60  O   UNL A   1      45.512  28.298  39.187  1.00  0.00    -0.237 OA
ATOM     61  O   UNL A   1      46.544  30.201  38.008  1.00  0.00    -0.744 OA
ENDBRANCH  57  58
ENDBRANCH  25  50
BRANCH  37  62
ATOM     62  C   UNL A   1      39.672  27.887  29.098  1.00  0.00     0.058 A 
ATOM     63  C   UNL A   1      40.626  28.397  28.202  1.00  0.00     0.135 A 
ATOM     64  C   UNL A   1      39.430  26.505  29.081  1.00  0.00     0.135 A 
ATOM     65  F   UNL A   1      40.927  29.707  28.202  1.00  0.00    -0.206 F 
ATOM     66  C   UNL A   1      41.318  27.573  27.328  1.00  0.00     0.059 A 
ATOM     67  C   UNL A   1      40.134  25.656  28.229  1.00  0.00     0.059 A 
ATOM     68  F   UNL A   1      38.528  25.954  29.912  1.00  0.00    -0.206 F 
ATOM     69  C   UNL A   1      41.080  26.200  27.360  1.00  0.00     0.060 A 
BRANCH  69  70
ATOM     70  S   UNL A   1      42.092  25.141  26.308  1.00  0.00     0.124 S 
ATOM     71  O   UNL A   1      43.390  25.195  26.973  1.00  0.00    -0.237 OA
ATOM     72  O   UNL A   1      41.390  23.863  26.393  1.00  0.00    -0.237 OA
ATOM     73  O   UNL A   1      42.028  25.791  25.002  1.00  0.00    -0.744 OA
ENDBRANCH  69  70
ENDBRANCH  37  62
ENDBRANCH  11  12
ENDBRANCH   4   6
ENDBRANCH   3   4
ENDBRANCH   2   3
ENDBRANCH   1   2
BRANCH   1  74
ATOM     74  O   UNL A   1      41.993  40.867  26.646  1.00  0.00    -0.374 OA
BRANCH  74  75
ATOM     75  C   UNL A   1      42.773  40.999  25.461  1.00  0.00     0.202 C 
BRANCH  75  76
ATOM     76  C   UNL A   1      41.975  41.740  24.387  1.00  0.00     0.261 C 
BRANCH  76  77
ATOM     77  O   UNL A   1      42.801  41.996  23.234  1.00  0.00    -0.460 OA
BRANCH  77  78
ATOM     78  C   UNL A   1      42.921  43.295  22.849  1.00  0.00     0.338 C 
ATOM     79  O   UNL A   1      42.603  44.294  23.475  1.00  0.00    -0.246 OA
BRANCH  78  80
ATOM     80  C   UNL A   1      43.718  43.325  21.600  1.00  0.00     0.064 A 
ATOM     81  C   UNL A   1      45.043  42.902  21.630  1.00  0.00     0.036 A 
ATOM     82  C   UNL A   1      43.164  43.868  20.426  1.00  0.00     0.051 A 
ATOM     83  C   UNL A   1      45.784  43.080  20.490  1.00  0.00     0.113 A 
ATOM     84  C   UNL A   1      43.998  44.053  19.337  1.00  0.00     0.103 A 
ATOM     85  N   UNL A   1      45.298  43.661  19.375  1.00  0.00    -0.249 NA
BRANCH  84  86
ATOM     86  S   UNL A   1      43.547  44.717  17.763  1.00  0.00    -0.048 SA
BRANCH  86  87
ATOM     87  C   UNL A   1      43.540  46.458  17.834  1.00  0.00     0.125 A 
ATOM     88  C   UNL A   1      42.441  47.154  17.101  1.00  0.00     0.042 A 
ATOM     89  N   UNL A   1      44.394  47.011  18.632  1.00  0.00    -0.140 NA
ATOM     90  C   UNL A   1      42.304  48.474  17.316  1.00  0.00     0.056 A 
ATOM     91  N   UNL A   1      44.174  48.340  18.787  1.00  0.00    -0.109 N 
ATOM     92  C   UNL A   1      43.190  49.113  18.209  1.00  0.00     0.200 A 
ATOM     93  N   UNL A   1      44.885  49.091  19.635  1.00  0.00    -0.022 NA
ATOM     94  N   UNL A   1      43.295  50.335  18.675  1.00  0.00    -0.107 NA
ATOM     95  N   UNL A   1      44.350  50.306  19.562  1.00  0.00    -0.022 NA
ENDBRANCH  86  87
ENDBRANCH  84  86
ENDBRANCH  78  80
ENDBRANCH  77  78
ENDBRANCH  76  77
ENDBRANCH  75  76
ENDBRANCH  74  75
ENDBRANCH   1  74
TORSDOF 19
ENDMDL
MODEL 2
REMARK VINA RESULT:     -11.1      6.051     15.901
REMARK SMILES O=C(OCCOCCOC(=O)c1ccnc(Sc2ccc3nnnn3n2)c1)c1ccc(-c2c3nc(c(-c4c(F)cc(S(=O)(=O)[O-])cc4F)c4ccc([nH]4)c(-c4c(F)cc(S(=O)(=O)[O-])cc4F)c4nc(c(-c5c(F)cc(S(=O)(=O)[O-])cc5F)c5ccc2[nH]5)C=C4)C=C3)cc1
REMARK SMILES IDX 5 1 4 2 3 3 2 4 1 5 28 6 29 7 93 8 30 9 92 10 31 11 32 12
REMARK SMILES IDX 33 13 86 14 34 15 91 16 85 17 87 18 35 19 90 20 84 21 83 22
REMARK SMILES IDX 36 24 70 25 49 26 69 27 50 28 53 29 68 30 88 31 51 32 52 33
REMARK SMILES IDX 67 35 89 36 54 37 37 38 38 39 47 40 39 41 40 42 46 43 48 44
REMARK SMILES IDX 41 45 42 46 43 47 44 48 45 49 71 50 72 51 81 52 73 53 74 54
REMARK SMILES IDX 80 55 82 56 75 57 76 58 77 59 78 60 79 61 55 62 56 63 65 64
REMARK SMILES IDX 57 65 58 66 64 67 66 68 59 69 60 70 61 71 62 72 63 73 6 74
REMARK SMILES IDX 7 75 8 76 9 77 10 78 11 79 12 80 13 81 27 82 14 83 16 84
REMARK SMILES IDX 15 85 17 86 18 87 19 88 26 89 20 90 25 91 21 92 24 93 22 94
REMARK SMILES IDX 23 95
REMARK H PARENT 87 23 53 34
REMARK Flexibility Score: inf
ROOT
ATOM      1  C   UNL A   1      46.948  29.833  27.301  1.00  0.00     0.202 C 
ENDROOT
BRANCH   1   2
ATOM      2  C   UNL A   1      47.903  30.882  27.861  1.00  0.00     0.261 C 
BRANCH   2   3
ATOM      3  O   UNL A   1      48.753  31.383  26.828  1.00  0.00    -0.460 OA
BRANCH   3   4
ATOM      4  C   UNL A   1      49.353  32.597  26.962  1.00  0.00     0.338 C 
ATOM      5  O   UNL A   1      50.572  32.709  26.999  1.00  0.00    -0.246 OA
BRANCH   4   6
ATOM      6  C   UNL A   1      48.486  33.790  26.862  1.00  0.00     0.060 A 
ATOM      7  C   UNL A   1      48.284  34.498  25.666  1.00  0.00     0.016 A 
ATOM      8  C   UNL A   1      47.834  34.181  28.026  1.00  0.00     0.016 A 
ATOM      9  C   UNL A   1      47.461  35.604  25.628  1.00  0.00     0.010 A 
ATOM     10  C   UNL A   1      46.986  35.278  27.983  1.00  0.00     0.010 A 
ATOM     11  C   UNL A   1      46.767  35.960  26.774  1.00  0.00    -0.014 A 
BRANCH  11  12
ATOM     12  C   UNL A   1      45.656  36.897  26.567  1.00  0.00     0.031 A 
ATOM     13  C   UNL A   1      44.341  36.321  26.965  1.00  0.00     0.074 A 
ATOM     14  C   UNL A   1      45.870  38.225  26.576  1.00  0.00     0.049 A 
ATOM     15  N   UNL A   1      44.062  36.258  28.230  1.00  0.00    -0.248 NA
ATOM     16  C   UNL A   1      43.519  35.423  26.157  1.00  0.00     0.031 C 
ATOM     17  C   UNL A   1      46.964  38.872  27.316  1.00  0.00     0.029 A 
ATOM     18  N   UNL A   1      45.100  39.264  26.129  1.00  0.00    -0.354 N 
ATOM     19  C   UNL A   1      43.182  35.214  28.425  1.00  0.00     0.074 A 
ATOM     20  C   UNL A   1      42.801  34.781  27.101  1.00  0.00     0.031 C 
ATOM     21  C   UNL A   1      46.673  40.180  27.451  1.00  0.00     0.029 A 
ATOM     22  C   UNL A   1      45.456  40.479  26.704  1.00  0.00     0.049 A 
ATOM     23  H   UNL A   1      44.374  39.162  25.473  1.00  0.00     0.167 HD
ATOM     24  C   UNL A   1      42.882  34.808  29.692  1.00  0.00     0.037 A 
ATOM     25  C   UNL A   1      44.541  41.431  27.035  1.00  0.00     0.037 A 
ATOM     26  C   UNL A   1      43.560  35.534  30.748  1.00  0.00     0.049 A 
ATOM     27  C   UNL A   1      43.946  40.821  28.287  1.00  0.00     0.074 A 
ATOM     28  C   UNL A   1      44.340  35.321  31.862  1.00  0.00     0.029 A 
ATOM     29  N   UNL A   1      43.471  36.892  30.614  1.00  0.00    -0.354 N 
ATOM     30  N   UNL A   1      44.530  40.780  29.462  1.00  0.00    -0.248 NA
ATOM     31  C   UNL A   1      42.759  39.964  28.192  1.00  0.00     0.031 C 
ATOM     32  C   UNL A   1      44.829  36.615  32.276  1.00  0.00     0.029 A 
ATOM     33  C   UNL A   1      44.323  37.586  31.414  1.00  0.00     0.049 A 
ATOM     34  H   UNL A   1      42.845  37.329  29.994  1.00  0.00     0.167 HD
ATOM     35  C   UNL A   1      43.960  39.694  30.127  1.00  0.00     0.074 A 
ATOM     36  C   UNL A   1      42.757  39.379  29.385  1.00  0.00     0.031 C 
ATOM     37  C   UNL A   1      44.611  38.977  31.099  1.00  0.00     0.037 A 
BRANCH  24  38
ATOM     38  C   UNL A   1      41.688  34.005  30.021  1.00  0.00     0.058 A 
ATOM     39  C   UNL A   1      41.931  32.675  30.412  1.00  0.00     0.135 A 
ATOM     40  C   UNL A   1      40.365  34.400  29.815  1.00  0.00     0.135 A 
ATOM     41  F   UNL A   1      43.189  32.260  30.635  1.00  0.00    -0.206 F 
ATOM     42  C   UNL A   1      40.910  31.752  30.545  1.00  0.00     0.059 A 
ATOM     43  C   UNL A   1      39.314  33.488  29.960  1.00  0.00     0.059 A 
ATOM     44  F   UNL A   1      40.080  35.657  29.438  1.00  0.00    -0.206 F 
ATOM     45  C   UNL A   1      39.603  32.163  30.303  1.00  0.00     0.060 A 
BRANCH  45  46
ATOM     46  S   UNL A   1      38.306  30.914  30.431  1.00  0.00     0.124 S 
ATOM     47  O   UNL A   1      37.144  31.721  30.786  1.00  0.00    -0.237 OA
ATOM     48  O   UNL A   1      38.299  30.349  29.085  1.00  0.00    -0.237 OA
ATOM     49  O   UNL A   1      38.794  30.024  31.479  1.00  0.00    -0.744 OA
ENDBRANCH  45  46
ENDBRANCH  24  38
BRANCH  25  50
ATOM     50  C   UNL A   1      43.800  41.947  25.836  1.00  0.00     0.058 A 
ATOM     51  C   UNL A   1      44.383  43.036  25.143  1.00  0.00     0.135 A 
ATOM     52  C   UNL A   1      42.636  41.419  25.268  1.00  0.00     0.135 A 
ATOM     53  F   UNL A   1      45.411  43.710  25.685  1.00  0.00    -0.206 F 
ATOM     54  C   UNL A   1      43.974  43.423  23.872  1.00  0.00     0.059 A 
ATOM     55  C   UNL A   1      42.218  41.770  23.980  1.00  0.00     0.059 A 
ATOM     56  F   UNL A   1      41.878  40.534  25.927  1.00  0.00    -0.206 F 
ATOM     57  C   UNL A   1      42.927  42.735  23.271  1.00  0.00     0.060 A 
BRANCH  57  58
ATOM     58  S   UNL A   1      42.567  43.080  21.539  1.00  0.00     0.124 S 
ATOM     59  O   UNL A   1      41.172  43.507  21.595  1.00  0.00    -0.237 OA
ATOM     60  O   UNL A   1      43.541  44.124  21.239  1.00  0.00    -0.237 OA
ATOM     61  O   UNL A   1      42.806  41.799  20.882  1.00  0.00    -0.744 OA
ENDBRANCH  57  58
ENDBRANCH  25  50
BRANCH  37  62
ATOM     62  C   UNL A   1      45.752  39.680  31.749  1.00  0.00     0.058 A 
ATOM     63  C   UNL A   1      47.060  39.365  31.344  1.00  0.00     0.135 A 
ATOM     64  C   UNL A   1      45.588  40.700  32.698  1.00  0.00     0.135 A 
ATOM     65  F   UNL A   1      47.273  38.425  30.408  1.00  0.00    -0.206 F 
ATOM     66  C   UNL A   1      48.161  40.037  31.851  1.00  0.00     0.059 A 
ATOM     67  C   UNL A   1      46.680  41.406  33.201  1.00  0.00     0.059 A 
ATOM     68  F   UNL A   1      44.363  41.048  33.130  1.00  0.00    -0.206 F 
ATOM     69  C   UNL A   1      47.962  41.069  32.766  1.00  0.00     0.060 A 
BRANCH  69  70
ATOM     70  S   UNL A   1      49.402  42.012  33.303  1.00  0.00     0.124 S 
ATOM     71  O   UNL A   1      48.864  43.364  33.408  1.00  0.00    -0.237 OA
ATOM     72  O   UNL A   1      49.738  41.365  34.569  1.00  0.00    -0.237 OA
ATOM     73  O   UNL A   1      50.371  41.802  32.230  1.00  0.00    -0.744 OA
ENDBRANCH  69  70
ENDBRANCH  37  62
ENDBRANCH  11  12
ENDBRANCH   4   6
ENDBRANCH   3   4
ENDBRANCH   2   3
ENDBRANCH   1   2
BRANCH   1  74
ATOM     74  O   UNL A   1      46.745  29.926  25.894  1.00  0.00    -0.374 OA
BRANCH  74  75
ATOM     75  C   UNL A   1      46.462  28.702  25.222  1.00  0.00     0.202 C 
BRANCH  75  76
ATOM     76  C   UNL A   1      45.442  27.889  26.021  1.00  0.00     0.261 C 
BRANCH  76  77
ATOM     77  O   UNL A   1      44.630  27.092  25.136  1.00  0.00    -0.460 OA
BRANCH  77  78
ATOM     78  C   UNL A   1      43.285  27.270  25.222  1.00  0.00     0.338 C 
ATOM     79  O   UNL A   1      42.591  28.054  24.593  1.00  0.00    -0.246 OA
BRANCH  78  80
ATOM     80  C   UNL A   1      42.738  26.184  26.069  1.00  0.00     0.064 A 
ATOM     81  C   UNL A   1      42.530  26.421  27.424  1.00  0.00     0.036 A 
ATOM     82  C   UNL A   1      42.529  24.903  25.523  1.00  0.00     0.051 A 
ATOM     83  C   UNL A   1      42.160  25.350  28.198  1.00  0.00     0.113 A 
ATOM     84  C   UNL A   1      42.201  23.873  26.387  1.00  0.00     0.103 A 
ATOM     85  N   UNL A   1      42.021  24.100  27.713  1.00  0.00    -0.249 NA
BRANCH  84  86
ATOM     86  S   UNL A   1      41.896  22.188  25.951  1.00  0.00    -0.048 SA
BRANCH  86  87
ATOM     87  C   UNL A   1      43.395  21.404  25.530  1.00  0.00     0.125 A 
ATOM     88  C   UNL A   1      44.632  22.238  25.605  1.00  0.00     0.042 A 
ATOM     89  N   UNL A   1      43.346  20.127  25.330  1.00  0.00    -0.140 NA
ATOM     90  C   UNL A   1      45.807  21.596  25.485  1.00  0.00     0.056 A 
ATOM     91  N   UNL A   1      44.579  19.571  25.225  1.00  0.00    -0.109 N 
ATOM     92  C   UNL A   1      45.804  20.198  25.303  1.00  0.00     0.200 A 
ATOM     93  N   UNL A   1      44.764  18.252  25.103  1.00  0.00    -0.022 NA
ATOM     94  N   UNL A   1      46.743  19.285  25.214  1.00  0.00    -0.107 NA
ATOM     95  N   UNL A   1      46.081  18.082  25.092  1.00  0.00    -0.022 NA
ENDBRANCH  86  87
ENDBRANCH  84  86
ENDBRANCH  78  80
ENDBRANCH  77  78
ENDBRANCH  76  77
ENDBRANCH  75  76
ENDBRANCH  74  75
ENDBRANCH   1  74
TORSDOF 19
ENDMDL
MODEL 3
REMARK VINA RESULT:     -10.8      8.649     20.877
REMARK SMILES O=C(OCCOCCOC(=O)c1ccnc(Sc2ccc3nnnn3n2)c1)c1ccc(-c2c3nc(c(-c4c(F)cc(S(=O)(=O)[O-])cc4F)c4ccc([nH]4)c(-c4c(F)cc(S(=O)(=O)[O-])cc4F)c4nc(c(-c5c(F)cc(S(=O)(=O)[O-])cc5F)c5ccc2[nH]5)C=C4)C=C3)cc1
REMARK SMILES IDX 5 1 4 2 3 3 2 4 1 5 28 6 29 7 93 8 30 9 92 10 31 11 32 12
REMARK SMILES IDX 33 13 86 14 34 15 91 16 85 17 87 18 35 19 90 20 84 21 83 22
REMARK SMILES IDX 36 24 70 25 49 26 69 27 50 28 53 29 68 30 88 31 51 32 52 33
REMARK SMILES IDX 67 35 89 36 54 37 37 38 38 39 47 40 39 41 40 42 46 43 48 44
REMARK SMILES IDX 41 45 42 46 43 47 44 48 45 49 71 50 72 51 81 52 73 53 74 54
REMARK SMILES IDX 80 55 82 56 75 57 76 58 77 59 78 60 79 61 55 62 56 63 65 64
REMARK SMILES IDX 57 65 58 66 64 67 66 68 59 69 60 70 61 71 62 72 63 73 6 74
REMARK SMILES IDX 7 75 8 76 9 77 10 78 11 79 12 80 13 81 27 82 14 83 16 84
REMARK SMILES IDX 15 85 17 86 18 87 19 88 26 89 20 90 25 91 21 92 24 93 22 94
REMARK SMILES IDX 23 95
REMARK H PARENT 87 23 53 34
REMARK Flexibility Score: inf
ROOT
ATOM      1  C   UNL A   1      45.879  20.863  36.060  1.00  0.00     0.202 C 
ENDROOT
BRANCH   1   2
ATOM      2  C   UNL A   1      46.608  22.006  35.362  1.00  0.00     0.261 C 
BRANCH   2   3
ATOM      3  O   UNL A   1      45.957  23.249  35.629  1.00  0.00    -0.460 OA
BRANCH   3   4
ATOM      4  C   UNL A   1      44.827  23.590  34.951  1.00  0.00     0.338 C 
ATOM      5  O   UNL A   1      43.721  23.218  35.321  1.00  0.00    -0.246 OA
BRANCH   4   6
ATOM      6  C   UNL A   1      44.967  24.587  33.868  1.00  0.00     0.060 A 
ATOM      7  C   UNL A   1      45.874  25.658  33.920  1.00  0.00     0.016 A 
ATOM      8  C   UNL A   1      44.164  24.403  32.749  1.00  0.00     0.016 A 
ATOM      9  C   UNL A   1      45.967  26.559  32.879  1.00  0.00     0.010 A 
ATOM     10  C   UNL A   1      44.274  25.294  31.691  1.00  0.00     0.010 A 
ATOM     11  C   UNL A   1      45.206  26.344  31.740  1.00  0.00    -0.014 A 
BRANCH  11  12
ATOM     12  C   UNL A   1      45.619  27.111  30.558  1.00  0.00     0.031 A 
ATOM     13  C   UNL A   1      45.733  26.264  29.339  1.00  0.00     0.074 A 
ATOM     14  C   UNL A   1      45.362  28.429  30.474  1.00  0.00     0.049 A 
ATOM     15  N   UNL A   1      44.639  25.913  28.737  1.00  0.00    -0.248 NA
ATOM     16  C   UNL A   1      46.872  25.420  28.984  1.00  0.00     0.031 C 
ATOM     17  C   UNL A   1      44.237  29.087  31.155  1.00  0.00     0.029 A 
ATOM     18  N   UNL A   1      45.880  29.396  29.658  1.00  0.00    -0.354 N 
ATOM     19  C   UNL A   1      44.873  24.722  28.080  1.00  0.00     0.074 A 
ATOM     20  C   UNL A   1      46.296  24.499  28.184  1.00  0.00     0.031 C 
ATOM     21  C   UNL A   1      44.022  30.280  30.567  1.00  0.00     0.029 A 
ATOM     22  C   UNL A   1      45.062  30.518  29.573  1.00  0.00     0.049 A 
ATOM     23  H   UNL A   1      46.737  29.309  29.183  1.00  0.00     0.167 HD
ATOM     24  C   UNL A   1      43.831  24.034  27.531  1.00  0.00     0.037 A 
ATOM     25  C   UNL A   1      44.906  31.227  28.422  1.00  0.00     0.037 A 
ATOM     26  C   UNL A   1      42.527  24.641  27.717  1.00  0.00     0.049 A 
ATOM     27  C   UNL A   1      43.997  30.298  27.644  1.00  0.00     0.074 A 
ATOM     28  C   UNL A   1      41.266  24.344  28.182  1.00  0.00     0.029 A 
ATOM     29  N   UNL A   1      42.495  25.967  27.383  1.00  0.00    -0.354 N 
ATOM     30  N   UNL A   1      42.716  30.123  27.872  1.00  0.00    -0.248 NA
ATOM     31  C   UNL A   1      44.574  29.296  26.741  1.00  0.00     0.031 C 
ATOM     32  C   UNL A   1      40.547  25.595  28.250  1.00  0.00     0.029 A 
ATOM     33  C   UNL A   1      41.382  26.620  27.810  1.00  0.00     0.049 A 
ATOM     34  H   UNL A   1      43.213  26.410  26.877  1.00  0.00     0.167 HD
ATOM     35  C   UNL A   1      42.416  28.851  27.382  1.00  0.00     0.074 A 
ATOM     36  C   UNL A   1      43.532  28.497  26.530  1.00  0.00     0.031 C 
ATOM     37  C   UNL A   1      41.398  28.075  27.873  1.00  0.00     0.037 A 
BRANCH  24  38
ATOM     38  C   UNL A   1      44.004  23.002  26.491  1.00  0.00     0.058 A 
ATOM     39  C   UNL A   1      43.507  21.723  26.809  1.00  0.00     0.135 A 
ATOM     40  C   UNL A   1      44.751  23.147  25.322  1.00  0.00     0.135 A 
ATOM     41  F   UNL A   1      42.770  21.544  27.918  1.00  0.00    -0.206 F 
ATOM     42  C   UNL A   1      43.783  20.615  26.028  1.00  0.00     0.059 A 
ATOM     43  C   UNL A   1      45.028  22.044  24.507  1.00  0.00     0.059 A 
ATOM     44  F   UNL A   1      45.249  24.345  24.976  1.00  0.00    -0.206 F 
ATOM     45  C   UNL A   1      44.557  20.781  24.883  1.00  0.00     0.060 A 
BRANCH  45  46
ATOM     46  S   UNL A   1      44.942  19.303  23.923  1.00  0.00     0.124 S 
ATOM     47  O   UNL A   1      46.398  19.254  24.014  1.00  0.00    -0.237 OA
ATOM     48  O   UNL A   1      44.225  18.269  24.661  1.00  0.00    -0.237 OA
ATOM     49  O   UNL A   1      44.407  19.609  22.600  1.00  0.00    -0.744 OA
ENDBRANCH  45  46
ENDBRANCH  24  38
BRANCH  25  50
ATOM     50  C   UNL A   1      46.192  31.840  27.953  1.00  0.00     0.058 A 
ATOM     51  C   UNL A   1      46.164  32.519  26.710  1.00  0.00     0.135 A 
ATOM     52  C   UNL A   1      47.406  31.895  28.647  1.00  0.00     0.135 A 
ATOM     53  F   UNL A   1      45.100  32.400  25.899  1.00  0.00    -0.206 F 
ATOM     54  C   UNL A   1      47.181  33.370  26.296  1.00  0.00     0.059 A 
ATOM     55  C   UNL A   1      48.435  32.763  28.267  1.00  0.00     0.059 A 
ATOM     56  F   UNL A   1      47.630  31.129  29.722  1.00  0.00    -0.206 F 
ATOM     57  C   UNL A   1      48.288  33.535  27.119  1.00  0.00     0.060 A 
BRANCH  57  58
ATOM     58  S   UNL A   1      49.481  34.819  26.693  1.00  0.00     0.124 S 
ATOM     59  O   UNL A   1      49.800  35.388  27.998  1.00  0.00    -0.237 OA
ATOM     60  O   UNL A   1      50.540  34.037  26.063  1.00  0.00    -0.237 OA
ATOM     61  O   UNL A   1      48.733  35.691  25.793  1.00  0.00    -0.744 OA
ENDBRANCH  57  58
ENDBRANCH  25  50
BRANCH  37  62
ATOM     62  C   UNL A   1      40.335  28.812  28.610  1.00  0.00     0.058 A 
ATOM     63  C   UNL A   1      39.327  29.458  27.877  1.00  0.00     0.135 A 
ATOM     64  C   UNL A   1      40.242  28.832  30.010  1.00  0.00     0.135 A 
ATOM     65  F   UNL A   1      39.344  29.436  26.533  1.00  0.00    -0.206 F 
ATOM     66  C   UNL A   1      38.265  30.094  28.501  1.00  0.00     0.059 A 
ATOM     67  C   UNL A   1      39.169  29.443  30.657  1.00  0.00     0.059 A 
ATOM     68  F   UNL A   1      41.176  28.234  30.771  1.00  0.00    -0.206 F 
ATOM     69  C   UNL A   1      38.183  30.066  29.892  1.00  0.00     0.060 A 
BRANCH  69  70
ATOM     70  S   UNL A   1      36.722  30.784  30.668  1.00  0.00     0.124 S 
ATOM     71  O   UNL A   1      37.259  31.993  31.280  1.00  0.00    -0.237 OA
ATOM     72  O   UNL A   1      35.838  30.993  29.523  1.00  0.00    -0.237 OA
ATOM     73  O   UNL A   1      36.284  29.749  31.600  1.00  0.00    -0.744 OA
ENDBRANCH  69  70
ENDBRANCH  37  62
ENDBRANCH  11  12
ENDBRANCH   4   6
ENDBRANCH   3   4
ENDBRANCH   2   3
ENDBRANCH   1   2
BRANCH   1  74
ATOM     74  O   UNL A   1      46.233  20.701  37.430  1.00  0.00    -0.374 OA
BRANCH  74  75
ATOM     75  C   UNL A   1      47.425  19.962  37.683  1.00  0.00     0.202 C 
BRANCH  75  76
ATOM     76  C   UNL A   1      47.124  18.780  38.606  1.00  0.00     0.261 C 
BRANCH  76  77
ATOM     77  O   UNL A   1      45.719  18.736  38.925  1.00  0.00    -0.460 OA
BRANCH  77  78
ATOM     78  C   UNL A   1      44.970  17.826  38.247  1.00  0.00     0.338 C 
ATOM     79  O   UNL A   1      44.909  17.657  37.039  1.00  0.00    -0.246 OA
BRANCH  78  80
ATOM     80  C   UNL A   1      44.380  16.897  39.239  1.00  0.00     0.064 A 
ATOM     81  C   UNL A   1      43.469  15.936  38.811  1.00  0.00     0.036 A 
ATOM     82  C   UNL A   1      44.667  17.056  40.608  1.00  0.00     0.051 A 
ATOM     83  C   UNL A   1      42.841  15.194  39.778  1.00  0.00     0.113 A 
ATOM     84  C   UNL A   1      43.950  16.294  41.516  1.00  0.00     0.103 A 
ATOM     85  N   UNL A   1      43.045  15.373  41.098  1.00  0.00    -0.249 NA
BRANCH  84  86
ATOM     86  S   UNL A   1      44.120  16.315  43.274  1.00  0.00    -0.048 SA
BRANCH  86  87
ATOM     87  C   UNL A   1      44.671  14.759  43.835  1.00  0.00     0.125 A 
ATOM     88  C   UNL A   1      46.137  14.617  44.084  1.00  0.00     0.042 A 
ATOM     89  N   UNL A   1      43.759  13.892  44.135  1.00  0.00    -0.140 NA
ATOM     90  C   UNL A   1      46.544  13.499  44.709  1.00  0.00     0.056 A 
ATOM     91  N   UNL A   1      44.266  12.802  44.763  1.00  0.00    -0.109 N 
ATOM     92  C   UNL A   1      45.579  12.542  45.089  1.00  0.00     0.200 A 
ATOM     93  N   UNL A   1      43.489  11.823  45.238  1.00  0.00    -0.022 NA
ATOM     94  N   UNL A   1      45.626  11.407  45.745  1.00  0.00    -0.107 NA
ATOM     95  N   UNL A   1      44.321  10.973  45.832  1.00  0.00    -0.022 NA
ENDBRANCH  86  87
ENDBRANCH  84  86
ENDBRANCH  78  80
ENDBRANCH  77  78
ENDBRANCH  76  77
ENDBRANCH  75  76
ENDBRANCH  74  75
ENDBRANCH   1  74
TORSDOF 19
ENDMDL
