MODEL 1
REMARK VINA RESULT:     -14.4      0.000      0.000
REMARK SMILES O=C(OCCOCCOC(=O)[C@H]1CC=CC[C@H]1C(=O)Nc1ccc(S(=O)(=O)N2CCc3ccccc32)cc1)c1ccc(-c2c3nc(c(-c4c(F)cc(S(=O)(=O)[O-])cc4F)c4ccc([nH]4)c(-c4c(F)cc(S(=O)(=O)[O-])cc4F)c4nc(c(-c5c(F)cc(S(=O)(=O)[O-])cc5F)c5ccc2[nH]5)C=C4)C=C3)cc1
REMARK SMILES IDX 7 1 6 2 5 3 4 4 3 5 2 6 1 7 39 8 40 9 104 10 41 11 103 12
REMARK SMILES IDX 42 13 43 14 44 15 97 16 45 17 102 18 96 19 98 20 46 21
REMARK SMILES IDX 101 22 95 23 94 24 47 26 81 27 60 28 80 29 61 30 64 31 79 32
REMARK SMILES IDX 99 33 62 34 63 35 78 37 100 38 65 39 48 40 49 41 58 42 50 43
REMARK SMILES IDX 51 44 57 45 59 46 52 47 53 48 54 49 55 50 56 51 82 52 83 53
REMARK SMILES IDX 92 54 84 55 85 56 91 57 93 58 86 59 87 60 88 61 89 62 90 63
REMARK SMILES IDX 66 64 67 65 76 66 68 67 69 68 75 69 77 70 70 71 71 72 72 73
REMARK SMILES IDX 73 74 74 75 8 76 9 77 10 78 11 79 12 80 13 81 17 82 14 83
REMARK SMILES IDX 16 84 15 85 18 86 19 87 20 88 21 90 22 91 38 92 23 93 37 94
REMARK SMILES IDX 24 95 25 96 26 97 27 98 28 99 29 100 36 101 30 102 31 103
REMARK SMILES IDX 35 104 32 105 34 106 33 107
REMARK H PARENT 98 25 64 36 20 89
REMARK Flexibility Score: inf
ROOT
ATOM      1  C   UNL A   1      33.446  29.666  27.234  1.00  0.00     0.202 C 
ENDROOT
BRANCH   1   2
ATOM      2  O   UNL A   1      33.418  31.254  27.907  1.00  0.00    -0.374 OA
BRANCH   2   3
ATOM      3  C   UNL A   1      34.459  32.257  28.225  1.00  0.00     0.202 C 
BRANCH   3   4
ATOM      4  C   UNL A   1      34.779  32.780  29.662  1.00  0.00     0.261 C 
BRANCH   4   5
ATOM      5  O   UNL A   1      36.023  32.264  30.224  1.00  0.00    -0.460 OA
BRANCH   5   6
ATOM      6  C   UNL A   1      36.255  31.005  30.674  1.00  0.00     0.338 C 
ATOM      7  O   UNL A   1      35.785  30.597  31.722  1.00  0.00    -0.246 OA
BRANCH   6   8
ATOM      8  C   UNL A   1      37.169  30.180  29.885  1.00  0.00     0.060 A 
ATOM      9  C   UNL A   1      37.754  29.154  30.562  1.00  0.00     0.016 A 
ATOM     10  C   UNL A   1      37.502  30.355  28.559  1.00  0.00     0.016 A 
ATOM     11  C   UNL A   1      39.040  28.844  30.270  1.00  0.00     0.010 A 
ATOM     12  C   UNL A   1      38.547  29.585  28.047  1.00  0.00     0.010 A 
ATOM     13  C   UNL A   1      39.427  28.971  28.958  1.00  0.00    -0.014 A 
BRANCH  13  14
ATOM     14  C   UNL A   1      40.829  28.657  28.657  1.00  0.00     0.031 A 
ATOM     15  C   UNL A   1      41.832  29.719  28.982  1.00  0.00     0.074 A 
ATOM     16  C   UNL A   1      41.182  27.401  28.304  1.00  0.00     0.049 A 
ATOM     17  N   UNL A   1      43.095  29.777  28.685  1.00  0.00    -0.248 NA
ATOM     18  C   UNL A   1      41.342  30.898  29.726  1.00  0.00     0.031 C 
ATOM     19  C   UNL A   1      40.267  26.251  28.173  1.00  0.00     0.029 A 
ATOM     20  N   UNL A   1      42.408  26.852  28.061  1.00  0.00    -0.354 N 
ATOM     21  C   UNL A   1      43.513  31.027  29.117  1.00  0.00     0.074 A 
ATOM     22  C   UNL A   1      42.376  31.715  29.666  1.00  0.00     0.031 C 
ATOM     23  C   UNL A   1      40.974  25.133  27.964  1.00  0.00     0.029 A 
ATOM     24  C   UNL A   1      42.367  25.502  27.791  1.00  0.00     0.049 A 
ATOM     25  H   UNL A   1      43.243  27.372  28.078  1.00  0.00     0.167 HD
ATOM     26  C   UNL A   1      44.758  31.542  29.060  1.00  0.00     0.037 A 
ATOM     27  C   UNL A   1      43.351  24.679  27.395  1.00  0.00     0.037 A 
ATOM     28  C   UNL A   1      45.861  30.779  28.562  1.00  0.00     0.049 A 
ATOM     29  C   UNL A   1      44.707  25.308  27.231  1.00  0.00     0.074 A 
ATOM     30  C   UNL A   1      47.168  31.170  28.364  1.00  0.00     0.029 A 
ATOM     31  N   UNL A   1      45.770  29.441  28.189  1.00  0.00    -0.354 N 
ATOM     32  N   UNL A   1      45.080  26.539  27.508  1.00  0.00    -0.248 NA
ATOM     33  C   UNL A   1      45.766  24.461  26.682  1.00  0.00     0.031 C 
ATOM     34  C   UNL A   1      47.850  30.087  27.804  1.00  0.00     0.029 A 
ATOM     35  C   UNL A   1      46.991  28.995  27.732  1.00  0.00     0.049 A 
ATOM     36  H   UNL A   1      44.954  28.894  28.245  1.00  0.00     0.167 HD
ATOM     37  C   UNL A   1      46.430  26.606  27.199  1.00  0.00     0.074 A 
ATOM     38  C   UNL A   1      46.804  25.284  26.726  1.00  0.00     0.031 C 
ATOM     39  C   UNL A   1      47.289  27.652  27.292  1.00  0.00     0.037 A 
BRANCH  26  40
ATOM     40  C   UNL A   1      44.911  32.986  29.432  1.00  0.00     0.058 A 
ATOM     41  C   UNL A   1      45.196  33.413  30.739  1.00  0.00     0.135 A 
ATOM     42  C   UNL A   1      44.657  33.968  28.462  1.00  0.00     0.135 A 
ATOM     43  F   UNL A   1      45.378  32.516  31.721  1.00  0.00    -0.206 F 
ATOM     44  C   UNL A   1      45.195  34.764  31.078  1.00  0.00     0.059 A 
ATOM     45  C   UNL A   1      44.688  35.324  28.769  1.00  0.00     0.059 A 
ATOM     46  F   UNL A   1      44.337  33.614  27.208  1.00  0.00    -0.206 F 
ATOM     47  C   UNL A   1      44.945  35.710  30.083  1.00  0.00     0.060 A 
BRANCH  47  48
ATOM     48  S   UNL A   1      44.962  37.458  30.530  1.00  0.00     0.124 S 
ATOM     49  O   UNL A   1      46.049  37.962  29.697  1.00  0.00    -0.237 OA
ATOM     50  O   UNL A   1      43.620  37.885  30.147  1.00  0.00    -0.237 OA
ATOM     51  O   UNL A   1      45.227  37.439  31.964  1.00  0.00    -0.744 OA
ENDBRANCH  47  48
ENDBRANCH  26  40
BRANCH  27  52
ATOM     52  C   UNL A   1      43.087  23.247  27.073  1.00  0.00     0.058 A 
ATOM     53  C   UNL A   1      42.904  22.291  28.084  1.00  0.00     0.135 A 
ATOM     54  C   UNL A   1      43.029  22.793  25.742  1.00  0.00     0.135 A 
ATOM     55  F   UNL A   1      42.947  22.663  29.372  1.00  0.00    -0.206 F 
ATOM     56  C   UNL A   1      42.704  20.943  27.793  1.00  0.00     0.059 A 
ATOM     57  C   UNL A   1      42.796  21.457  25.425  1.00  0.00     0.059 A 
ATOM     58  F   UNL A   1      43.184  23.656  24.727  1.00  0.00    -0.206 F 
ATOM     59  C   UNL A   1      42.652  20.535  26.459  1.00  0.00     0.060 A 
BRANCH  59  60
ATOM     60  S   UNL A   1      42.381  18.787  26.094  1.00  0.00     0.124 S 
ATOM     61  O   UNL A   1      40.983  18.787  25.677  1.00  0.00    -0.237 OA
ATOM     62  O   UNL A   1      43.362  18.539  25.043  1.00  0.00    -0.237 OA
ATOM     63  O   UNL A   1      42.658  18.130  27.368  1.00  0.00    -0.744 OA
ENDBRANCH  59  60
ENDBRANCH  27  52
BRANCH  39  64
ATOM     64  C   UNL A   1      48.716  27.376  26.940  1.00  0.00     0.058 A 
ATOM     65  C   UNL A   1      49.647  26.951  27.897  1.00  0.00     0.135 A 
ATOM     66  C   UNL A   1      49.130  27.475  25.601  1.00  0.00     0.135 A 
ATOM     67  F   UNL A   1      49.293  26.845  29.188  1.00  0.00    -0.206 F 
ATOM     68  C   UNL A   1      50.957  26.665  27.542  1.00  0.00     0.059 A 
ATOM     69  C   UNL A   1      50.421  27.152  25.219  1.00  0.00     0.059 A 
ATOM     70  F   UNL A   1      48.262  27.860  24.650  1.00  0.00    -0.206 F 
ATOM     71  C   UNL A   1      51.331  26.763  26.200  1.00  0.00     0.060 A 
BRANCH  71  72
ATOM     72  S   UNL A   1      53.028  26.358  25.750  1.00  0.00     0.124 S 
ATOM     73  O   UNL A   1      52.884  26.041  24.334  1.00  0.00    -0.237 OA
ATOM     74  O   UNL A   1      53.733  27.599  26.057  1.00  0.00    -0.237 OA
ATOM     75  O   UNL A   1      53.349  25.230  26.618  1.00  0.00    -0.744 OA
ENDBRANCH  71  72
ENDBRANCH  39  64
ENDBRANCH  13  14
ENDBRANCH   6   8
ENDBRANCH   5   6
ENDBRANCH   4   5
ENDBRANCH   3   4
ENDBRANCH   2   3
ENDBRANCH   1   2
BRANCH   1  76
ATOM     76  C   UNL A   1      32.012  28.029  27.455  1.00  0.00     0.261 C 
BRANCH  76  77
ATOM     77  O   UNL A   1      30.852  27.536  26.289  1.00  0.00    -0.463 OA
BRANCH  77  78
ATOM     78  C   UNL A   1      30.417  26.332  25.788  1.00  0.00     0.310 C 
ATOM     79  O   UNL A   1      29.734  25.505  26.394  1.00  0.00    -0.252 OA
BRANCH  78  80
ATOM     80  C   UNL A   1      30.791  26.098  24.357  1.00  0.00     0.116 C 
ATOM     81  C   UNL A   1      29.453  25.504  23.876  1.00  0.00     0.043 C 
ATOM     82  C   UNL A   1      31.258  27.352  23.605  1.00  0.00     0.097 C 
ATOM     83  C   UNL A   1      28.405  26.579  23.836  1.00  0.00    -0.030 C 
ATOM     84  C   UNL A   1      30.126  28.389  23.400  1.00  0.00     0.041 C 
ATOM     85  C   UNL A   1      28.717  27.873  23.642  1.00  0.00    -0.030 C 
BRANCH  82  86
ATOM     86  C   UNL A   1      32.713  27.916  23.873  1.00  0.00     0.228 C 
ATOM     87  O   UNL A   1      32.857  29.148  23.789  1.00  0.00    -0.274 OA
ATOM     88  N   UNL A   1      33.833  27.259  24.313  1.00  0.00    -0.326 N 
ATOM     89  H   UNL A   1      34.488  27.854  24.746  1.00  0.00     0.169 HD
BRANCH  88  90
ATOM     90  C   UNL A   1      34.240  25.920  24.276  1.00  0.00     0.041 A 
ATOM     91  C   UNL A   1      34.127  25.018  25.776  1.00  0.00     0.027 A 
ATOM     92  C   UNL A   1      34.244  25.034  22.756  1.00  0.00     0.027 A 
ATOM     93  C   UNL A   1      33.866  23.280  25.767  1.00  0.00     0.024 A 
ATOM     94  C   UNL A   1      33.894  23.169  22.714  1.00  0.00     0.024 A 
ATOM     95  C   UNL A   1      33.747  22.265  24.283  1.00  0.00     0.088 A 
BRANCH  95  96
ATOM     96  S   UNL A   1      32.745  20.732  24.828  1.00  0.00     0.264 S 
ATOM     97  O   UNL A   1      33.789  20.099  25.626  1.00  0.00    -0.201 OA
ATOM     98  O   UNL A   1      31.610  21.261  25.553  1.00  0.00    -0.201 OA
BRANCH  96  99
ATOM     99  N   UNL A   1      32.207  19.441  23.868  1.00  0.00    -0.266 N 
ATOM    100  C   UNL A   1      31.907  19.389  22.430  1.00  0.00     0.140 C 
ATOM    101  C   UNL A   1      32.577  18.120  24.239  1.00  0.00     0.055 A 
ATOM    102  C   UNL A   1      32.690  18.145  21.905  1.00  0.00     0.060 C 
ATOM    103  C   UNL A   1      33.159  17.488  23.164  1.00  0.00    -0.022 A 
ATOM    104  C   UNL A   1      32.474  17.530  25.481  1.00  0.00     0.027 A 
ATOM    105  C   UNL A   1      34.081  16.495  23.425  1.00  0.00     0.006 A 
ATOM    106  C   UNL A   1      33.355  16.502  25.757  1.00  0.00     0.002 A 
ATOM    107  C   UNL A   1      34.225  16.057  24.754  1.00  0.00     0.000 A 
ENDBRANCH  96  99
ENDBRANCH  95  96
ENDBRANCH  88  90
ENDBRANCH  82  86
ENDBRANCH  78  80
ENDBRANCH  77  78
ENDBRANCH  76  77
ENDBRANCH   1  76
TORSDOF 21
ENDMDL
MODEL 2
REMARK VINA RESULT:     -14.2      0.811      7.851
REMARK SMILES O=C(OCCOCCOC(=O)[C@H]1CC=CC[C@H]1C(=O)Nc1ccc(S(=O)(=O)N2CCc3ccccc32)cc1)c1ccc(-c2c3nc(c(-c4c(F)cc(S(=O)(=O)[O-])cc4F)c4ccc([nH]4)c(-c4c(F)cc(S(=O)(=O)[O-])cc4F)c4nc(c(-c5c(F)cc(S(=O)(=O)[O-])cc5F)c5ccc2[nH]5)C=C4)C=C3)cc1
REMARK SMILES IDX 7 1 6 2 5 3 4 4 3 5 2 6 1 7 39 8 40 9 104 10 41 11 103 12
REMARK SMILES IDX 42 13 43 14 44 15 97 16 45 17 102 18 96 19 98 20 46 21
REMARK SMILES IDX 101 22 95 23 94 24 47 26 81 27 60 28 80 29 61 30 64 31 79 32
REMARK SMILES IDX 99 33 62 34 63 35 78 37 100 38 65 39 48 40 49 41 58 42 50 43
REMARK SMILES IDX 51 44 57 45 59 46 52 47 53 48 54 49 55 50 56 51 82 52 83 53
REMARK SMILES IDX 92 54 84 55 85 56 91 57 93 58 86 59 87 60 88 61 89 62 90 63
REMARK SMILES IDX 66 64 67 65 76 66 68 67 69 68 75 69 77 70 70 71 71 72 72 73
REMARK SMILES IDX 73 74 74 75 8 76 9 77 10 78 11 79 12 80 13 81 17 82 14 83
REMARK SMILES IDX 16 84 15 85 18 86 19 87 20 88 21 90 22 91 38 92 23 93 37 94
REMARK SMILES IDX 24 95 25 96 26 97 27 98 28 99 29 100 36 101 30 102 31 103
REMARK SMILES IDX 35 104 32 105 34 106 33 107
REMARK H PARENT 98 25 64 36 20 89
REMARK Flexibility Score: inf
ROOT
ATOM      1  C   UNL A   1      33.643  29.384  27.290  1.00  0.00     0.202 C 
ENDROOT
BRANCH   1   2
ATOM      2  O   UNL A   1      33.698  31.052  27.724  1.00  0.00    -0.374 OA
BRANCH   2   3
ATOM      3  C   UNL A   1      34.778  31.974  28.141  1.00  0.00     0.202 C 
BRANCH   3   4
ATOM      4  C   UNL A   1      35.078  32.380  29.620  1.00  0.00     0.261 C 
BRANCH   4   5
ATOM      5  O   UNL A   1      36.313  31.819  30.157  1.00  0.00    -0.460 OA
BRANCH   5   6
ATOM      6  C   UNL A   1      36.525  30.537  30.548  1.00  0.00     0.338 C 
ATOM      7  O   UNL A   1      35.927  30.040  31.487  1.00  0.00    -0.246 OA
BRANCH   6   8
ATOM      8  C   UNL A   1      37.570  29.795  29.841  1.00  0.00     0.060 A 
ATOM      9  C   UNL A   1      38.193  28.833  30.575  1.00  0.00     0.016 A 
ATOM     10  C   UNL A   1      37.986  29.993  28.543  1.00  0.00     0.016 A 
ATOM     11  C   UNL A   1      39.521  28.643  30.385  1.00  0.00     0.010 A 
ATOM     12  C   UNL A   1      39.135  29.321  28.122  1.00  0.00     0.010 A 
ATOM     13  C   UNL A   1      39.995  28.797  29.105  1.00  0.00    -0.014 A 
BRANCH  13  14
ATOM     14  C   UNL A   1      41.439  28.614  28.916  1.00  0.00     0.031 A 
ATOM     15  C   UNL A   1      41.873  27.300  28.346  1.00  0.00     0.074 A 
ATOM     16  C   UNL A   1      42.280  29.661  29.063  1.00  0.00     0.049 A 
ATOM     17  N   UNL A   1      43.070  26.813  28.221  1.00  0.00    -0.248 NA
ATOM     18  C   UNL A   1      40.809  26.391  27.871  1.00  0.00     0.031 C 
ATOM     19  C   UNL A   1      41.889  31.040  29.416  1.00  0.00     0.029 A 
ATOM     20  N   UNL A   1      43.626  29.761  28.862  1.00  0.00    -0.354 N 
ATOM     21  C   UNL A   1      42.889  25.520  27.749  1.00  0.00     0.074 A 
ATOM     22  C   UNL A   1      41.476  25.278  27.640  1.00  0.00     0.031 C 
ATOM     23  C   UNL A   1      42.953  31.849  29.320  1.00  0.00     0.029 A 
ATOM     24  C   UNL A   1      44.122  31.032  29.053  1.00  0.00     0.049 A 
ATOM     25  H   UNL A   1      44.190  28.997  28.606  1.00  0.00     0.167 HD
ATOM     26  C   UNL A   1      43.842  24.622  27.430  1.00  0.00     0.037 A 
ATOM     27  C   UNL A   1      45.394  31.461  29.060  1.00  0.00     0.037 A 
ATOM     28  C   UNL A   1      45.233  24.949  27.499  1.00  0.00     0.049 A 
ATOM     29  C   UNL A   1      46.443  30.413  28.812  1.00  0.00     0.074 A 
ATOM     30  C   UNL A   1      46.327  24.139  27.285  1.00  0.00     0.029 A 
ATOM     31  N   UNL A   1      45.714  26.220  27.802  1.00  0.00    -0.354 N 
ATOM     32  N   UNL A   1      46.279  29.145  28.501  1.00  0.00    -0.248 NA
ATOM     33  C   UNL A   1      47.839  30.832  28.938  1.00  0.00     0.031 C 
ATOM     34  C   UNL A   1      47.470  24.904  27.530  1.00  0.00     0.029 A 
ATOM     35  C   UNL A   1      47.091  26.212  27.812  1.00  0.00     0.049 A 
ATOM     36  H   UNL A   1      45.152  27.007  27.983  1.00  0.00     0.167 HD
ATOM     37  C   UNL A   1      47.553  28.619  28.359  1.00  0.00     0.074 A 
ATOM     38  C   UNL A   1      48.474  29.716  28.608  1.00  0.00     0.031 C 
ATOM     39  C   UNL A   1      47.940  27.355  28.053  1.00  0.00     0.037 A 
BRANCH  26  40
ATOM     40  C   UNL A   1      43.381  23.231  27.113  1.00  0.00     0.058 A 
ATOM     41  C   UNL A   1      43.030  22.297  28.102  1.00  0.00     0.135 A 
ATOM     42  C   UNL A   1      43.398  22.796  25.779  1.00  0.00     0.135 A 
ATOM     43  F   UNL A   1      43.064  22.640  29.400  1.00  0.00    -0.206 F 
ATOM     44  C   UNL A   1      42.740  20.974  27.782  1.00  0.00     0.059 A 
ATOM     45  C   UNL A   1      43.076  21.489  25.432  1.00  0.00     0.059 A 
ATOM     46  F   UNL A   1      43.769  23.635  24.799  1.00  0.00    -0.206 F 
ATOM     47  C   UNL A   1      42.761  20.583  26.442  1.00  0.00     0.060 A 
BRANCH  47  48
ATOM     48  S   UNL A   1      42.369  18.869  26.037  1.00  0.00     0.124 S 
ATOM     49  O   UNL A   1      40.986  18.986  25.585  1.00  0.00    -0.237 OA
ATOM     50  O   UNL A   1      43.351  18.567  25.001  1.00  0.00    -0.237 OA
ATOM     51  O   UNL A   1      42.559  18.169  27.302  1.00  0.00    -0.744 OA
ENDBRANCH  47  48
ENDBRANCH  26  40
BRANCH  27  52
ATOM     52  C   UNL A   1      45.736  32.880  29.367  1.00  0.00     0.058 A 
ATOM     53  C   UNL A   1      45.885  33.834  28.348  1.00  0.00     0.135 A 
ATOM     54  C   UNL A   1      45.943  33.316  30.689  1.00  0.00     0.135 A 
ATOM     55  F   UNL A   1      45.700  33.479  27.067  1.00  0.00    -0.206 F 
ATOM     56  C   UNL A   1      46.250  35.150  28.622  1.00  0.00     0.059 A 
ATOM     57  C   UNL A   1      46.274  34.635  30.991  1.00  0.00     0.059 A 
ATOM     58  F   UNL A   1      45.805  32.458  31.712  1.00  0.00    -0.206 F 
ATOM     59  C   UNL A   1      46.443  35.541  29.947  1.00  0.00     0.060 A 
BRANCH  59  60
ATOM     60  S   UNL A   1      46.906  37.254  30.291  1.00  0.00     0.124 S 
ATOM     61  O   UNL A   1      47.753  37.100  31.468  1.00  0.00    -0.237 OA
ATOM     62  O   UNL A   1      47.588  37.638  29.058  1.00  0.00    -0.237 OA
ATOM     63  O   UNL A   1      45.622  37.911  30.519  1.00  0.00    -0.744 OA
ENDBRANCH  59  60
ENDBRANCH  27  52
BRANCH  39  64
ATOM     64  C   UNL A   1      49.411  27.125  27.908  1.00  0.00     0.058 A 
ATOM     65  C   UNL A   1      50.209  26.722  28.987  1.00  0.00     0.135 A 
ATOM     66  C   UNL A   1      50.008  27.245  26.642  1.00  0.00     0.135 A 
ATOM     67  F   UNL A   1      49.677  26.597  30.214  1.00  0.00    -0.206 F 
ATOM     68  C   UNL A   1      51.564  26.478  28.822  1.00  0.00     0.059 A 
ATOM     69  C   UNL A   1      51.350  26.964  26.447  1.00  0.00     0.059 A 
ATOM     70  F   UNL A   1      49.274  27.610  25.578  1.00  0.00    -0.206 F 
ATOM     71  C   UNL A   1      52.123  26.597  27.548  1.00  0.00     0.060 A 
BRANCH  71  72
ATOM     72  S   UNL A   1      53.878  26.247  27.343  1.00  0.00     0.124 S 
ATOM     73  O   UNL A   1      53.839  24.961  26.655  1.00  0.00    -0.237 OA
ATOM     74  O   UNL A   1      54.328  27.383  26.546  1.00  0.00    -0.237 OA
ATOM     75  O   UNL A   1      54.378  26.211  28.713  1.00  0.00    -0.744 OA
ENDBRANCH  71  72
ENDBRANCH  39  64
ENDBRANCH  13  14
ENDBRANCH   6   8
ENDBRANCH   5   6
ENDBRANCH   4   5
ENDBRANCH   3   4
ENDBRANCH   2   3
ENDBRANCH   1   2
BRANCH   1  76
ATOM     76  C   UNL A   1      32.015  27.938  27.501  1.00  0.00     0.261 C 
BRANCH  76  77
ATOM     77  O   UNL A   1      30.877  27.511  26.288  1.00  0.00    -0.463 OA
BRANCH  77  78
ATOM     78  C   UNL A   1      30.406  26.334  25.757  1.00  0.00     0.310 C 
ATOM     79  O   UNL A   1      29.719  25.501  26.350  1.00  0.00    -0.252 OA
BRANCH  78  80
ATOM     80  C   UNL A   1      30.742  26.143  24.311  1.00  0.00     0.116 C 
ATOM     81  C   UNL A   1      29.424  25.480  23.865  1.00  0.00     0.043 C 
ATOM     82  C   UNL A   1      31.110  27.432  23.563  1.00  0.00     0.097 C 
ATOM     83  C   UNL A   1      28.316  26.493  23.878  1.00  0.00    -0.030 C 
ATOM     84  C   UNL A   1      29.915  28.405  23.414  1.00  0.00     0.041 C 
ATOM     85  C   UNL A   1      28.546  27.805  23.695  1.00  0.00    -0.030 C 
BRANCH  82  86
ATOM     86  C   UNL A   1      32.539  28.075  23.790  1.00  0.00     0.228 C 
ATOM     87  O   UNL A   1      32.599  29.317  23.777  1.00  0.00    -0.274 OA
ATOM     88  N   UNL A   1      33.721  27.469  24.130  1.00  0.00    -0.326 N 
ATOM     89  H   UNL A   1      34.360  28.080  24.564  1.00  0.00     0.169 HD
BRANCH  88  90
ATOM     90  C   UNL A   1      34.209  26.166  23.987  1.00  0.00     0.041 A 
ATOM     91  C   UNL A   1      34.474  25.254  25.463  1.00  0.00     0.027 A 
ATOM     92  C   UNL A   1      33.968  25.285  22.483  1.00  0.00     0.027 A 
ATOM     93  C   UNL A   1      34.346  23.502  25.477  1.00  0.00     0.024 A 
ATOM     94  C   UNL A   1      33.755  23.399  22.481  1.00  0.00     0.024 A 
ATOM     95  C   UNL A   1      34.000  22.484  24.032  1.00  0.00     0.088 A 
BRANCH  95  96
ATOM     96  S   UNL A   1      33.247  20.878  24.743  1.00  0.00     0.264 S 
ATOM     97  O   UNL A   1      34.501  20.232  25.117  1.00  0.00    -0.201 OA
ATOM     98  O   UNL A   1      32.396  21.309  25.831  1.00  0.00    -0.201 OA
BRANCH  96  99
ATOM     99  N   UNL A   1      32.451  19.637  23.905  1.00  0.00    -0.266 N 
ATOM    100  C   UNL A   1      32.006  19.572  22.505  1.00  0.00     0.140 C 
ATOM    101  C   UNL A   1      32.675  18.293  24.308  1.00  0.00     0.055 A 
ATOM    102  C   UNL A   1      32.561  18.212  21.975  1.00  0.00     0.060 C 
ATOM    103  C   UNL A   1      33.059  17.546  23.218  1.00  0.00    -0.022 A 
ATOM    104  C   UNL A   1      32.616  17.771  25.583  1.00  0.00     0.027 A 
ATOM    105  C   UNL A   1      33.862  16.446  23.444  1.00  0.00     0.006 A 
ATOM    106  C   UNL A   1      33.375  16.643  25.830  1.00  0.00     0.002 A 
ATOM    107  C   UNL A   1      34.076  16.044  24.775  1.00  0.00     0.000 A 
ENDBRANCH  96  99
ENDBRANCH  95  96
ENDBRANCH  88  90
ENDBRANCH  82  86
ENDBRANCH  78  80
ENDBRANCH  77  78
ENDBRANCH  76  77
ENDBRANCH   1  76
TORSDOF 21
ENDMDL
MODEL 3
REMARK VINA RESULT:     -13.1      1.821      8.022
REMARK SMILES O=C(OCCOCCOC(=O)[C@H]1CC=CC[C@H]1C(=O)Nc1ccc(S(=O)(=O)N2CCc3ccccc32)cc1)c1ccc(-c2c3nc(c(-c4c(F)cc(S(=O)(=O)[O-])cc4F)c4ccc([nH]4)c(-c4c(F)cc(S(=O)(=O)[O-])cc4F)c4nc(c(-c5c(F)cc(S(=O)(=O)[O-])cc5F)c5ccc2[nH]5)C=C4)C=C3)cc1
REMARK SMILES IDX 7 1 6 2 5 3 4 4 3 5 2 6 1 7 39 8 40 9 104 10 41 11 103 12
REMARK SMILES IDX 42 13 43 14 44 15 97 16 45 17 102 18 96 19 98 20 46 21
REMARK SMILES IDX 101 22 95 23 94 24 47 26 81 27 60 28 80 29 61 30 64 31 79 32
REMARK SMILES IDX 99 33 62 34 63 35 78 37 100 38 65 39 48 40 49 41 58 42 50 43
REMARK SMILES IDX 51 44 57 45 59 46 52 47 53 48 54 49 55 50 56 51 82 52 83 53
REMARK SMILES IDX 92 54 84 55 85 56 91 57 93 58 86 59 87 60 88 61 89 62 90 63
REMARK SMILES IDX 66 64 67 65 76 66 68 67 69 68 75 69 77 70 70 71 71 72 72 73
REMARK SMILES IDX 73 74 74 75 8 76 9 77 10 78 11 79 12 80 13 81 17 82 14 83
REMARK SMILES IDX 16 84 15 85 18 86 19 87 20 88 21 90 22 91 38 92 23 93 37 94
REMARK SMILES IDX 24 95 25 96 26 97 27 98 28 99 29 100 36 101 30 102 31 103
REMARK SMILES IDX 35 104 32 105 34 106 33 107
REMARK H PARENT 98 25 64 36 20 89
REMARK Flexibility Score: inf
ROOT
ATOM      1  C   UNL A   1      33.299  30.161  26.571  1.00  0.00     0.202 C 
ENDROOT
BRANCH   1   2
ATOM      2  O   UNL A   1      33.722  31.430  27.660  1.00  0.00    -0.374 OA
BRANCH   2   3
ATOM      3  C   UNL A   1      35.002  31.938  28.203  1.00  0.00     0.202 C 
BRANCH   3   4
ATOM      4  C   UNL A   1      35.646  31.467  29.546  1.00  0.00     0.261 C 
BRANCH   4   5
ATOM      5  O   UNL A   1      36.377  30.208  29.450  1.00  0.00    -0.460 OA
BRANCH   5   6
ATOM      6  C   UNL A   1      37.142  29.633  30.412  1.00  0.00     0.338 C 
ATOM      7  O   UNL A   1      36.658  28.954  31.302  1.00  0.00    -0.246 OA
BRANCH   6   8
ATOM      8  C   UNL A   1      38.574  29.932  30.384  1.00  0.00     0.060 A 
ATOM      9  C   UNL A   1      39.004  30.597  29.277  1.00  0.00     0.016 A 
ATOM     10  C   UNL A   1      39.506  29.589  31.339  1.00  0.00     0.016 A 
ATOM     11  C   UNL A   1      40.221  30.281  28.774  1.00  0.00     0.010 A 
ATOM     12  C   UNL A   1      40.852  29.787  31.029  1.00  0.00     0.010 A 
ATOM     13  C   UNL A   1      41.204  29.958  29.678  1.00  0.00    -0.014 A 
BRANCH  13  14
ATOM     14  C   UNL A   1      42.512  29.592  29.119  1.00  0.00     0.031 A 
ATOM     15  C   UNL A   1      42.623  28.221  28.532  1.00  0.00     0.074 A 
ATOM     16  C   UNL A   1      43.472  30.531  28.972  1.00  0.00     0.049 A 
ATOM     17  N   UNL A   1      43.677  27.586  28.119  1.00  0.00    -0.248 NA
ATOM     18  C   UNL A   1      41.374  27.438  28.415  1.00  0.00     0.031 C 
ATOM     19  C   UNL A   1      43.350  31.956  29.334  1.00  0.00     0.029 A 
ATOM     20  N   UNL A   1      44.714  30.458  28.411  1.00  0.00    -0.354 N 
ATOM     21  C   UNL A   1      43.231  26.313  27.791  1.00  0.00     0.074 A 
ATOM     22  C   UNL A   1      41.824  26.245  28.079  1.00  0.00     0.031 C 
ATOM     23  C   UNL A   1      44.430  32.625  28.908  1.00  0.00     0.029 A 
ATOM     24  C   UNL A   1      45.382  31.663  28.386  1.00  0.00     0.049 A 
ATOM     25  H   UNL A   1      45.098  29.623  28.059  1.00  0.00     0.167 HD
ATOM     26  C   UNL A   1      43.952  25.295  27.281  1.00  0.00     0.037 A 
ATOM     27  C   UNL A   1      46.648  31.931  28.025  1.00  0.00     0.037 A 
ATOM     28  C   UNL A   1      45.337  25.450  26.953  1.00  0.00     0.049 A 
ATOM     29  C   UNL A   1      47.464  30.754  27.567  1.00  0.00     0.074 A 
ATOM     30  C   UNL A   1      46.233  24.505  26.502  1.00  0.00     0.029 A 
ATOM     31  N   UNL A   1      46.022  26.658  27.041  1.00  0.00    -0.354 N 
ATOM     32  N   UNL A   1      47.080  29.509  27.387  1.00  0.00    -0.248 NA
ATOM     33  C   UNL A   1      48.879  31.000  27.288  1.00  0.00     0.031 C 
ATOM     34  C   UNL A   1      47.478  25.129  26.385  1.00  0.00     0.029 A 
ATOM     35  C   UNL A   1      47.339  26.480  26.681  1.00  0.00     0.049 A 
ATOM     36  H   UNL A   1      45.623  27.514  27.319  1.00  0.00     0.167 HD
ATOM     37  C   UNL A   1      48.200  28.825  26.939  1.00  0.00     0.074 A 
ATOM     38  C   UNL A   1      49.270  29.806  26.867  1.00  0.00     0.031 C 
ATOM     39  C   UNL A   1      48.344  27.516  26.617  1.00  0.00     0.037 A 
BRANCH  26  40
ATOM     40  C   UNL A   1      43.270  23.964  27.182  1.00  0.00     0.058 A 
ATOM     41  C   UNL A   1      43.036  23.140  28.296  1.00  0.00     0.135 A 
ATOM     42  C   UNL A   1      42.940  23.461  25.915  1.00  0.00     0.135 A 
ATOM     43  F   UNL A   1      43.397  23.544  29.525  1.00  0.00    -0.206 F 
ATOM     44  C   UNL A   1      42.526  21.853  28.152  1.00  0.00     0.059 A 
ATOM     45  C   UNL A   1      42.395  22.193  25.751  1.00  0.00     0.059 A 
ATOM     46  F   UNL A   1      43.183  24.189  24.814  1.00  0.00    -0.206 F 
ATOM     47  C   UNL A   1      42.205  21.392  26.875  1.00  0.00     0.060 A 
BRANCH  47  48
ATOM     48  S   UNL A   1      41.530  19.727  26.702  1.00  0.00     0.124 S 
ATOM     49  O   UNL A   1      42.373  18.973  27.623  1.00  0.00    -0.237 OA
ATOM     50  O   UNL A   1      40.144  19.915  27.118  1.00  0.00    -0.237 OA
ATOM     51  O   UNL A   1      41.723  19.429  25.287  1.00  0.00    -0.744 OA
ENDBRANCH  47  48
ENDBRANCH  26  40
BRANCH  27  52
ATOM     52  C   UNL A   1      47.218  33.304  28.144  1.00  0.00     0.058 A 
ATOM     53  C   UNL A   1      47.059  34.253  27.122  1.00  0.00     0.135 A 
ATOM     54  C   UNL A   1      47.953  33.698  29.278  1.00  0.00     0.135 A 
ATOM     55  F   UNL A   1      46.367  33.937  26.017  1.00  0.00    -0.206 F 
ATOM     56  C   UNL A   1      47.628  35.523  27.205  1.00  0.00     0.059 A 
ATOM     57  C   UNL A   1      48.501  34.972  29.398  1.00  0.00     0.059 A 
ATOM     58  F   UNL A   1      48.132  32.843  30.297  1.00  0.00    -0.206 F 
ATOM     59  C   UNL A   1      48.348  35.873  28.347  1.00  0.00     0.060 A 
BRANCH  59  60
ATOM     60  S   UNL A   1      49.071  37.526  28.447  1.00  0.00     0.124 S 
ATOM     61  O   UNL A   1      47.880  38.366  28.493  1.00  0.00    -0.237 OA
ATOM     62  O   UNL A   1      49.846  37.445  29.681  1.00  0.00    -0.237 OA
ATOM     63  O   UNL A   1      49.862  37.622  27.223  1.00  0.00    -0.744 OA
ENDBRANCH  59  60
ENDBRANCH  27  52
BRANCH  39  64
ATOM     64  C   UNL A   1      49.684  27.101  26.095  1.00  0.00     0.058 A 
ATOM     65  C   UNL A   1      50.653  26.519  26.922  1.00  0.00     0.135 A 
ATOM     66  C   UNL A   1      49.962  27.230  24.724  1.00  0.00     0.135 A 
ATOM     67  F   UNL A   1      50.427  26.380  28.238  1.00  0.00    -0.206 F 
ATOM     68  C   UNL A   1      51.875  26.108  26.411  1.00  0.00     0.059 A 
ATOM     69  C   UNL A   1      51.159  26.786  24.186  1.00  0.00     0.059 A 
ATOM     70  F   UNL A   1      49.051  27.765  23.895  1.00  0.00    -0.206 F 
ATOM     71  C   UNL A   1      52.115  26.241  25.041  1.00  0.00     0.060 A 
BRANCH  71  72
ATOM     72  S   UNL A   1      53.694  25.674  24.386  1.00  0.00     0.124 S 
ATOM     73  O   UNL A   1      53.480  25.815  22.950  1.00  0.00    -0.237 OA
ATOM     74  O   UNL A   1      54.633  26.618  24.986  1.00  0.00    -0.237 OA
ATOM     75  O   UNL A   1      53.792  24.303  24.876  1.00  0.00    -0.744 OA
ENDBRANCH  71  72
ENDBRANCH  39  64
ENDBRANCH  13  14
ENDBRANCH   6   8
ENDBRANCH   5   6
ENDBRANCH   4   5
ENDBRANCH   3   4
ENDBRANCH   2   3
ENDBRANCH   1   2
BRANCH   1  76
ATOM     76  C   UNL A   1      31.735  28.640  26.738  1.00  0.00     0.261 C 
BRANCH  76  77
ATOM     77  O   UNL A   1      30.831  27.972  25.440  1.00  0.00    -0.463 OA
BRANCH  77  78
ATOM     78  C   UNL A   1      30.362  26.721  25.115  1.00  0.00     0.310 C 
ATOM     79  O   UNL A   1      29.966  25.870  25.914  1.00  0.00    -0.252 OA
BRANCH  78  80
ATOM     80  C   UNL A   1      30.294  26.461  23.642  1.00  0.00     0.116 C 
ATOM     81  C   UNL A   1      28.952  25.706  23.614  1.00  0.00     0.043 C 
ATOM     82  C   UNL A   1      30.354  27.720  22.766  1.00  0.00     0.097 C 
ATOM     83  C   UNL A   1      27.826  26.660  23.895  1.00  0.00    -0.030 C 
ATOM     84  C   UNL A   1      29.103  28.621  22.918  1.00  0.00     0.041 C 
ATOM     85  C   UNL A   1      27.910  27.968  23.598  1.00  0.00    -0.030 C 
BRANCH  82  86
ATOM     86  C   UNL A   1      31.744  28.448  22.555  1.00  0.00     0.228 C 
ATOM     87  O   UNL A   1      31.705  29.673  22.342  1.00  0.00    -0.274 OA
ATOM     88  N   UNL A   1      33.015  27.954  22.697  1.00  0.00    -0.326 N 
ATOM     89  H   UNL A   1      33.687  28.652  22.874  1.00  0.00     0.169 HD
BRANCH  88  90
ATOM     90  C   UNL A   1      33.558  26.665  22.642  1.00  0.00     0.041 A 
ATOM     91  C   UNL A   1      33.997  25.926  24.171  1.00  0.00     0.027 A 
ATOM     92  C   UNL A   1      33.233  25.622  21.263  1.00  0.00     0.027 A 
ATOM     93  C   UNL A   1      33.964  24.181  24.373  1.00  0.00     0.024 A 
ATOM     94  C   UNL A   1      33.121  23.739  21.470  1.00  0.00     0.024 A 
ATOM     95  C   UNL A   1      33.548  23.003  23.076  1.00  0.00     0.088 A 
BRANCH  95  96
ATOM     96  S   UNL A   1      32.946  21.449  24.011  1.00  0.00     0.264 S 
ATOM     97  O   UNL A   1      32.239  22.139  25.085  1.00  0.00    -0.201 OA
ATOM     98  O   UNL A   1      32.127  20.728  23.060  1.00  0.00    -0.201 OA
BRANCH  96  99
ATOM     99  N   UNL A   1      33.876  20.323  24.872  1.00  0.00    -0.266 N 
ATOM    100  C   UNL A   1      33.880  18.853  24.814  1.00  0.00     0.140 C 
ATOM    101  C   UNL A   1      35.178  20.701  25.297  1.00  0.00     0.055 A 
ATOM    102  C   UNL A   1      35.383  18.466  24.645  1.00  0.00     0.060 C 
ATOM    103  C   UNL A   1      36.091  19.765  24.868  1.00  0.00    -0.022 A 
ATOM    104  C   UNL A   1      35.550  21.849  25.964  1.00  0.00     0.027 A 
ATOM    105  C   UNL A   1      37.385  20.186  24.642  1.00  0.00     0.006 A 
ATOM    106  C   UNL A   1      36.854  22.274  25.793  1.00  0.00     0.002 A 
ATOM    107  C   UNL A   1      37.739  21.486  25.046  1.00  0.00     0.000 A 
ENDBRANCH  96  99
ENDBRANCH  95  96
ENDBRANCH  88  90
ENDBRANCH  82  86
ENDBRANCH  78  80
ENDBRANCH  77  78
ENDBRANCH  76  77
ENDBRANCH   1  76
TORSDOF 21
ENDMDL
