MODEL 1
REMARK VINA RESULT:     -13.0      0.000      0.000
REMARK SMILES O=C(OCCOCCOC(=O)c1ccn(-c2cc(-c3ccncc3)nc(-c3ccccc3F)n2)n1)c1ccc(-c2c3nc(c(-c4c(F)cc(S(=O)(=O)[O-])cc4F)c4ccc([nH]4)c(-c4c(F)cc(S(=O)(=O)[O-])cc4F)c4nc(c(-c5c(F)cc(S(=O)(=O)[O-])cc5F)c5ccc2[nH]5)C=C4)C=C3)cc1
REMARK SMILES IDX 5 1 4 2 3 3 2 4 1 5 36 6 37 7 101 8 38 9 100 10 39 11 40 12
REMARK SMILES IDX 41 13 94 14 42 15 99 16 93 17 95 18 43 19 98 20 92 21 91 22
REMARK SMILES IDX 44 24 78 25 57 26 77 27 58 28 61 29 76 30 96 31 59 32 60 33
REMARK SMILES IDX 75 35 97 36 62 37 45 38 46 39 55 40 47 41 48 42 54 43 56 44
REMARK SMILES IDX 49 45 50 46 51 47 52 48 53 49 79 50 80 51 89 52 81 53 82 54
REMARK SMILES IDX 88 55 90 56 83 57 84 58 85 59 86 60 87 61 63 62 64 63 73 64
REMARK SMILES IDX 65 65 66 66 72 67 74 68 67 69 68 70 69 71 70 72 71 73 6 74
REMARK SMILES IDX 7 75 8 76 9 77 10 78 11 79 12 80 13 81 35 82 14 83 15 84
REMARK SMILES IDX 16 85 17 86 34 87 18 88 26 89 25 90 19 91 20 92 24 93 21 94
REMARK SMILES IDX 23 95 22 96 27 97 28 98 32 99 29 100 31 101 33 102 30 103
REMARK H PARENT 95 23 61 34
REMARK Flexibility Score: inf
ROOT
ATOM      1  C   UNL A   1      37.128  21.750  24.478  1.00  0.00     0.202 C 
ENDROOT
BRANCH   1   2
ATOM      2  C   UNL A   1      37.996  21.545  25.715  1.00  0.00     0.261 C 
BRANCH   2   3
ATOM      3  O   UNL A   1      39.124  22.439  25.830  1.00  0.00    -0.460 OA
BRANCH   3   4
ATOM      4  C   UNL A   1      39.862  22.557  26.958  1.00  0.00     0.338 C 
ATOM      5  O   UNL A   1      40.345  21.574  27.511  1.00  0.00    -0.246 OA
BRANCH   4   6
ATOM      6  C   UNL A   1      40.335  23.925  27.297  1.00  0.00     0.060 A 
ATOM      7  C   UNL A   1      41.372  24.185  28.192  1.00  0.00     0.016 A 
ATOM      8  C   UNL A   1      39.618  25.001  26.752  1.00  0.00     0.016 A 
ATOM      9  C   UNL A   1      41.550  25.458  28.696  1.00  0.00     0.010 A 
ATOM     10  C   UNL A   1      39.831  26.294  27.216  1.00  0.00     0.010 A 
ATOM     11  C   UNL A   1      40.734  26.498  28.255  1.00  0.00    -0.014 A 
BRANCH  11  12
ATOM     12  C   UNL A   1      40.875  27.769  28.954  1.00  0.00     0.031 A 
ATOM     13  C   UNL A   1      42.010  28.635  28.521  1.00  0.00     0.074 A 
ATOM     14  C   UNL A   1      40.032  28.158  29.928  1.00  0.00     0.049 A 
ATOM     15  N   UNL A   1      43.035  29.036  29.205  1.00  0.00    -0.248 NA
ATOM     16  C   UNL A   1      42.045  29.022  27.103  1.00  0.00     0.031 C 
ATOM     17  C   UNL A   1      38.742  27.580  30.315  1.00  0.00     0.029 A 
ATOM     18  N   UNL A   1      40.138  29.246  30.736  1.00  0.00    -0.354 N 
ATOM     19  C   UNL A   1      43.771  29.857  28.353  1.00  0.00     0.074 A 
ATOM     20  C   UNL A   1      43.173  29.732  27.047  1.00  0.00     0.031 C 
ATOM     21  C   UNL A   1      38.088  28.453  31.113  1.00  0.00     0.029 A 
ATOM     22  C   UNL A   1      38.973  29.567  31.410  1.00  0.00     0.049 A 
ATOM     23  H   UNL A   1      40.971  29.761  30.834  1.00  0.00     0.167 HD
ATOM     24  C   UNL A   1      44.746  30.704  28.789  1.00  0.00     0.037 A 
ATOM     25  C   UNL A   1      38.735  30.713  32.090  1.00  0.00     0.037 A 
ATOM     26  C   UNL A   1      45.212  30.368  30.103  1.00  0.00     0.049 A 
ATOM     27  C   UNL A   1      40.055  31.299  32.443  1.00  0.00     0.074 A 
ATOM     28  C   UNL A   1      45.881  29.288  30.644  1.00  0.00     0.029 A 
ATOM     29  N   UNL A   1      44.713  31.066  31.176  1.00  0.00    -0.354 N 
ATOM     30  N   UNL A   1      40.900  30.755  33.277  1.00  0.00    -0.248 NA
ATOM     31  C   UNL A   1      40.623  32.292  31.544  1.00  0.00     0.031 C 
ATOM     32  C   UNL A   1      45.335  29.127  31.951  1.00  0.00     0.029 A 
ATOM     33  C   UNL A   1      44.392  30.139  32.137  1.00  0.00     0.049 A 
ATOM     34  H   UNL A   1      44.605  32.042  31.242  1.00  0.00     0.167 HD
ATOM     35  C   UNL A   1      42.155  31.032  32.753  1.00  0.00     0.074 A 
ATOM     36  C   UNL A   1      41.922  32.057  31.739  1.00  0.00     0.031 C 
ATOM     37  C   UNL A   1      43.230  30.225  32.997  1.00  0.00     0.037 A 
BRANCH  24  38
ATOM     38  C   UNL A   1      45.111  31.987  28.092  1.00  0.00     0.058 A 
ATOM     39  C   UNL A   1      44.326  33.156  28.203  1.00  0.00     0.135 A 
ATOM     40  C   UNL A   1      46.375  32.152  27.494  1.00  0.00     0.135 A 
ATOM     41  F   UNL A   1      43.157  33.158  28.860  1.00  0.00    -0.206 F 
ATOM     42  C   UNL A   1      44.742  34.391  27.725  1.00  0.00     0.059 A 
ATOM     43  C   UNL A   1      46.836  33.397  27.052  1.00  0.00     0.059 A 
ATOM     44  F   UNL A   1      47.215  31.112  27.374  1.00  0.00    -0.206 F 
ATOM     45  C   UNL A   1      46.010  34.510  27.173  1.00  0.00     0.060 A 
BRANCH  45  46
ATOM     46  S   UNL A   1      46.579  36.161  26.725  1.00  0.00     0.124 S 
ATOM     47  O   UNL A   1      45.314  36.861  26.523  1.00  0.00    -0.237 OA
ATOM     48  O   UNL A   1      47.338  36.550  27.910  1.00  0.00    -0.237 OA
ATOM     49  O   UNL A   1      47.371  35.931  25.523  1.00  0.00    -0.744 OA
ENDBRANCH  45  46
ENDBRANCH  24  38
BRANCH  25  50
ATOM     50  C   UNL A   1      37.481  31.511  32.054  1.00  0.00     0.058 A 
ATOM     51  C   UNL A   1      37.062  32.171  30.880  1.00  0.00     0.135 A 
ATOM     52  C   UNL A   1      36.822  31.871  33.241  1.00  0.00     0.135 A 
ATOM     53  F   UNL A   1      37.662  31.947  29.701  1.00  0.00    -0.206 F 
ATOM     54  C   UNL A   1      36.081  33.157  30.888  1.00  0.00     0.059 A 
ATOM     55  C   UNL A   1      35.840  32.867  33.275  1.00  0.00     0.059 A 
ATOM     56  F   UNL A   1      37.177  31.307  34.406  1.00  0.00    -0.206 F 
ATOM     57  C   UNL A   1      35.497  33.522  32.094  1.00  0.00     0.060 A 
BRANCH  57  58
ATOM     58  S   UNL A   1      34.364  34.929  32.088  1.00  0.00     0.124 S 
ATOM     59  O   UNL A   1      34.199  35.171  30.658  1.00  0.00    -0.237 OA
ATOM     60  O   UNL A   1      33.197  34.383  32.774  1.00  0.00    -0.237 OA
ATOM     61  O   UNL A   1      35.094  35.959  32.818  1.00  0.00    -0.744 OA
ENDBRANCH  57  58
ENDBRANCH  25  50
BRANCH  37  62
ATOM     62  C   UNL A   1      43.102  29.160  34.061  1.00  0.00     0.058 A 
ATOM     63  C   UNL A   1      42.535  27.926  33.711  1.00  0.00     0.135 A 
ATOM     64  C   UNL A   1      43.344  29.389  35.428  1.00  0.00     0.135 A 
ATOM     65  F   UNL A   1      42.227  27.666  32.429  1.00  0.00    -0.206 F 
ATOM     66  C   UNL A   1      42.211  26.965  34.667  1.00  0.00     0.059 A 
ATOM     67  C   UNL A   1      43.058  28.429  36.401  1.00  0.00     0.059 A 
ATOM     68  F   UNL A   1      43.792  30.577  35.858  1.00  0.00    -0.206 F 
ATOM     69  C   UNL A   1      42.472  27.227  36.012  1.00  0.00     0.060 A 
BRANCH  69  70
ATOM     70  S   UNL A   1      41.992  25.987  37.235  1.00  0.00     0.124 S 
ATOM     71  O   UNL A   1      42.269  24.742  36.524  1.00  0.00    -0.237 OA
ATOM     72  O   UNL A   1      42.886  26.285  38.350  1.00  0.00    -0.237 OA
ATOM     73  O   UNL A   1      40.580  26.265  37.479  1.00  0.00    -0.744 OA
ENDBRANCH  69  70
ENDBRANCH  37  62
ENDBRANCH  11  12
ENDBRANCH   4   6
ENDBRANCH   3   4
ENDBRANCH   2   3
ENDBRANCH   1   2
BRANCH   1  74
ATOM     74  O   UNL A   1      35.855  22.348  24.715  1.00  0.00    -0.374 OA
BRANCH  74  75
ATOM     75  C   UNL A   1      34.900  21.523  25.393  1.00  0.00     0.202 C 
BRANCH  75  76
ATOM     76  C   UNL A   1      33.899  20.747  24.527  1.00  0.00     0.261 C 
BRANCH  76  77
ATOM     77  O   UNL A   1      32.601  21.372  24.524  1.00  0.00    -0.458 OA
BRANCH  77  78
ATOM     78  C   UNL A   1      32.498  22.489  23.742  1.00  0.00     0.358 C 
ATOM     79  O   UNL A   1      32.848  22.556  22.577  1.00  0.00    -0.244 OA
BRANCH  78  80
ATOM     80  C   UNL A   1      31.813  23.584  24.445  1.00  0.00     0.170 A 
ATOM     81  C   UNL A   1      31.203  23.538  25.722  1.00  0.00     0.058 A 
ATOM     82  N   UNL A   1      31.693  24.813  23.895  1.00  0.00    -0.159 NA
ATOM     83  C   UNL A   1      30.921  24.848  26.021  1.00  0.00     0.118 A 
ATOM     84  N   UNL A   1      31.238  25.586  24.905  1.00  0.00    -0.222 N 
BRANCH  84  85
ATOM     85  C   UNL A   1      31.283  27.000  24.840  1.00  0.00     0.158 A 
ATOM     86  C   UNL A   1      30.508  27.664  23.910  1.00  0.00     0.078 A 
ATOM     87  N   UNL A   1      32.076  27.618  25.739  1.00  0.00    -0.209 NA
ATOM     88  C   UNL A   1      30.548  29.044  23.988  1.00  0.00     0.077 A 
ATOM     89  C   UNL A   1      32.139  28.951  25.641  1.00  0.00     0.165 A 
ATOM     90  N   UNL A   1      31.398  29.697  24.811  1.00  0.00    -0.228 NA
BRANCH  88  91
ATOM     91  C   UNL A   1      29.608  29.920  23.275  1.00  0.00     0.003 A 
ATOM     92  C   UNL A   1      29.138  31.105  23.859  1.00  0.00     0.030 A 
ATOM     93  C   UNL A   1      29.230  29.653  21.954  1.00  0.00     0.030 A 
ATOM     94  C   UNL A   1      28.340  31.956  23.109  1.00  0.00     0.111 A 
ATOM     95  C   UNL A   1      28.420  30.560  21.289  1.00  0.00     0.111 A 
ATOM     96  N   UNL A   1      27.973  31.710  21.836  1.00  0.00    -0.265 NA
ENDBRANCH  88  91
BRANCH  89  97
ATOM     97  C   UNL A   1      33.158  29.613  26.438  1.00  0.00     0.055 A 
ATOM     98  C   UNL A   1      34.424  29.023  26.622  1.00  0.00     0.015 A 
ATOM     99  C   UNL A   1      32.903  30.831  27.069  1.00  0.00     0.134 A 
ATOM    100  C   UNL A   1      35.396  29.643  27.412  1.00  0.00     0.001 A 
ATOM    101  C   UNL A   1      33.866  31.451  27.864  1.00  0.00     0.040 A 
ATOM    102  F   UNL A   1      31.702  31.419  26.949  1.00  0.00    -0.206 F 
ATOM    103  C   UNL A   1      35.115  30.857  28.035  1.00  0.00     0.003 A 
ENDBRANCH  89  97
ENDBRANCH  84  85
ENDBRANCH  78  80
ENDBRANCH  77  78
ENDBRANCH  76  77
ENDBRANCH  75  76
ENDBRANCH  74  75
ENDBRANCH   1  74
TORSDOF 20
ENDMDL
MODEL 2
REMARK VINA RESULT:     -12.7      3.309     10.029
REMARK SMILES O=C(OCCOCCOC(=O)c1ccn(-c2cc(-c3ccncc3)nc(-c3ccccc3F)n2)n1)c1ccc(-c2c3nc(c(-c4c(F)cc(S(=O)(=O)[O-])cc4F)c4ccc([nH]4)c(-c4c(F)cc(S(=O)(=O)[O-])cc4F)c4nc(c(-c5c(F)cc(S(=O)(=O)[O-])cc5F)c5ccc2[nH]5)C=C4)C=C3)cc1
REMARK SMILES IDX 5 1 4 2 3 3 2 4 1 5 36 6 37 7 101 8 38 9 100 10 39 11 40 12
REMARK SMILES IDX 41 13 94 14 42 15 99 16 93 17 95 18 43 19 98 20 92 21 91 22
REMARK SMILES IDX 44 24 78 25 57 26 77 27 58 28 61 29 76 30 96 31 59 32 60 33
REMARK SMILES IDX 75 35 97 36 62 37 45 38 46 39 55 40 47 41 48 42 54 43 56 44
REMARK SMILES IDX 49 45 50 46 51 47 52 48 53 49 79 50 80 51 89 52 81 53 82 54
REMARK SMILES IDX 88 55 90 56 83 57 84 58 85 59 86 60 87 61 63 62 64 63 73 64
REMARK SMILES IDX 65 65 66 66 72 67 74 68 67 69 68 70 69 71 70 72 71 73 6 74
REMARK SMILES IDX 7 75 8 76 9 77 10 78 11 79 12 80 13 81 35 82 14 83 15 84
REMARK SMILES IDX 16 85 17 86 34 87 18 88 26 89 25 90 19 91 20 92 24 93 21 94
REMARK SMILES IDX 23 95 22 96 27 97 28 98 32 99 29 100 31 101 33 102 30 103
REMARK H PARENT 95 23 61 34
REMARK Flexibility Score: inf
ROOT
ATOM      1  C   UNL A   1      32.080  30.323  26.247  1.00  0.00     0.202 C 
ENDROOT
BRANCH   1   2
ATOM      2  C   UNL A   1      33.573  30.191  26.530  1.00  0.00     0.261 C 
BRANCH   2   3
ATOM      3  O   UNL A   1      34.035  30.868  27.719  1.00  0.00    -0.460 OA
BRANCH   3   4
ATOM      4  C   UNL A   1      35.182  31.585  27.763  1.00  0.00     0.338 C 
ATOM      5  O   UNL A   1      35.187  32.794  27.552  1.00  0.00    -0.246 OA
BRANCH   4   6
ATOM      6  C   UNL A   1      36.352  30.922  28.395  1.00  0.00     0.060 A 
ATOM      7  C   UNL A   1      37.439  31.614  28.926  1.00  0.00     0.016 A 
ATOM      8  C   UNL A   1      36.388  29.519  28.355  1.00  0.00     0.016 A 
ATOM      9  C   UNL A   1      38.615  30.946  29.209  1.00  0.00     0.010 A 
ATOM     10  C   UNL A   1      37.552  28.838  28.691  1.00  0.00     0.010 A 
ATOM     11  C   UNL A   1      38.689  29.567  29.027  1.00  0.00    -0.014 A 
BRANCH  11  12
ATOM     12  C   UNL A   1      40.007  28.965  29.188  1.00  0.00     0.031 A 
ATOM     13  C   UNL A   1      40.521  28.871  30.585  1.00  0.00     0.074 A 
ATOM     14  C   UNL A   1      40.726  28.507  28.146  1.00  0.00     0.049 A 
ATOM     15  N   UNL A   1      41.569  29.425  31.105  1.00  0.00    -0.248 NA
ATOM     16  C   UNL A   1      39.691  28.132  31.548  1.00  0.00     0.031 C 
ATOM     17  C   UNL A   1      40.303  28.285  26.761  1.00  0.00     0.029 A 
ATOM     18  N   UNL A   1      42.008  28.054  28.154  1.00  0.00    -0.354 N 
ATOM     19  C   UNL A   1      41.626  28.983  32.426  1.00  0.00     0.074 A 
ATOM     20  C   UNL A   1      40.394  28.274  32.671  1.00  0.00     0.031 C 
ATOM     21  C   UNL A   1      41.230  27.529  26.132  1.00  0.00     0.029 A 
ATOM     22  C   UNL A   1      42.367  27.351  27.018  1.00  0.00     0.049 A 
ATOM     23  H   UNL A   1      42.627  28.213  28.903  1.00  0.00     0.167 HD
ATOM     24  C   UNL A   1      42.736  29.099  33.207  1.00  0.00     0.037 A 
ATOM     25  C   UNL A   1      43.487  26.606  26.863  1.00  0.00     0.037 A 
ATOM     26  C   UNL A   1      43.664  30.067  32.694  1.00  0.00     0.049 A 
ATOM     27  C   UNL A   1      44.481  27.092  27.855  1.00  0.00     0.074 A 
ATOM     28  C   UNL A   1      43.627  31.435  32.507  1.00  0.00     0.029 A 
ATOM     29  N   UNL A   1      44.739  29.624  31.963  1.00  0.00    -0.354 N 
ATOM     30  N   UNL A   1      45.034  28.275  27.824  1.00  0.00    -0.248 NA
ATOM     31  C   UNL A   1      44.554  26.408  29.138  1.00  0.00     0.031 C 
ATOM     32  C   UNL A   1      44.359  31.666  31.305  1.00  0.00     0.029 A 
ATOM     33  C   UNL A   1      44.824  30.429  30.854  1.00  0.00     0.049 A 
ATOM     34  H   UNL A   1      45.334  28.873  32.191  1.00  0.00     0.167 HD
ATOM     35  C   UNL A   1      45.165  28.649  29.153  1.00  0.00     0.074 A 
ATOM     36  C   UNL A   1      44.939  27.423  29.914  1.00  0.00     0.031 C 
ATOM     37  C   UNL A   1      45.185  29.961  29.532  1.00  0.00     0.037 A 
BRANCH  24  38
ATOM     38  C   UNL A   1      43.074  28.152  34.325  1.00  0.00     0.058 A 
ATOM     39  C   UNL A   1      43.689  26.902  34.095  1.00  0.00     0.135 A 
ATOM     40  C   UNL A   1      43.014  28.567  35.670  1.00  0.00     0.135 A 
ATOM     41  F   UNL A   1      43.918  26.448  32.855  1.00  0.00    -0.206 F 
ATOM     42  C   UNL A   1      44.176  26.101  35.121  1.00  0.00     0.059 A 
ATOM     43  C   UNL A   1      43.545  27.802  36.713  1.00  0.00     0.059 A 
ATOM     44  F   UNL A   1      42.484  29.757  35.994  1.00  0.00    -0.206 F 
ATOM     45  C   UNL A   1      44.123  26.569  36.426  1.00  0.00     0.060 A 
BRANCH  45  46
ATOM     46  S   UNL A   1      44.922  25.580  37.705  1.00  0.00     0.124 S 
ATOM     47  O   UNL A   1      44.385  24.252  37.426  1.00  0.00    -0.237 OA
ATOM     48  O   UNL A   1      46.336  25.772  37.395  1.00  0.00    -0.237 OA
ATOM     49  O   UNL A   1      44.465  26.197  38.944  1.00  0.00    -0.744 OA
ENDBRANCH  45  46
ENDBRANCH  24  38
BRANCH  25  50
ATOM     50  C   UNL A   1      43.567  25.264  26.229  1.00  0.00     0.058 A 
ATOM     51  C   UNL A   1      42.932  24.141  26.800  1.00  0.00     0.135 A 
ATOM     52  C   UNL A   1      44.499  25.002  25.212  1.00  0.00     0.135 A 
ATOM     53  F   UNL A   1      42.068  24.271  27.818  1.00  0.00    -0.206 F 
ATOM     54  C   UNL A   1      43.231  22.839  26.416  1.00  0.00     0.059 A 
ATOM     55  C   UNL A   1      44.824  23.700  24.816  1.00  0.00     0.059 A 
ATOM     56  F   UNL A   1      45.165  26.013  24.633  1.00  0.00    -0.206 F 
ATOM     57  C   UNL A   1      44.202  22.624  25.445  1.00  0.00     0.060 A 
BRANCH  57  58
ATOM     58  S   UNL A   1      44.690  20.918  25.108  1.00  0.00     0.124 S 
ATOM     59  O   UNL A   1      46.030  20.873  25.687  1.00  0.00    -0.237 OA
ATOM     60  O   UNL A   1      43.668  20.162  25.823  1.00  0.00    -0.237 OA
ATOM     61  O   UNL A   1      44.633  20.828  23.653  1.00  0.00    -0.744 OA
ENDBRANCH  57  58
ENDBRANCH  25  50
BRANCH  37  62
ATOM     62  C   UNL A   1      45.321  31.017  28.461  1.00  0.00     0.058 A 
ATOM     63  C   UNL A   1      46.573  31.616  28.264  1.00  0.00     0.135 A 
ATOM     64  C   UNL A   1      44.229  31.574  27.771  1.00  0.00     0.135 A 
ATOM     65  F   UNL A   1      47.647  31.169  28.936  1.00  0.00    -0.206 F 
ATOM     66  C   UNL A   1      46.740  32.722  27.432  1.00  0.00     0.059 A 
ATOM     67  C   UNL A   1      44.377  32.662  26.906  1.00  0.00     0.059 A 
ATOM     68  F   UNL A   1      42.983  31.125  27.977  1.00  0.00    -0.206 F 
ATOM     69  C   UNL A   1      45.634  33.242  26.760  1.00  0.00     0.060 A 
BRANCH  69  70
ATOM     70  S   UNL A   1      45.868  34.708  25.731  1.00  0.00     0.124 S 
ATOM     71  O   UNL A   1      47.324  34.802  25.669  1.00  0.00    -0.237 OA
ATOM     72  O   UNL A   1      45.209  34.325  24.486  1.00  0.00    -0.237 OA
ATOM     73  O   UNL A   1      45.207  35.771  26.483  1.00  0.00    -0.744 OA
ENDBRANCH  69  70
ENDBRANCH  37  62
ENDBRANCH  11  12
ENDBRANCH   4   6
ENDBRANCH   3   4
ENDBRANCH   2   3
ENDBRANCH   1   2
BRANCH   1  74
ATOM     74  O   UNL A   1      31.476  29.197  25.613  1.00  0.00    -0.374 OA
BRANCH  74  75
ATOM     75  C   UNL A   1      31.367  29.274  24.186  1.00  0.00     0.202 C 
BRANCH  75  76
ATOM     76  C   UNL A   1      30.928  28.006  23.443  1.00  0.00     0.261 C 
BRANCH  76  77
ATOM     77  O   UNL A   1      32.044  27.340  22.822  1.00  0.00    -0.458 OA
BRANCH  77  78
ATOM     78  C   UNL A   1      31.726  26.211  22.119  1.00  0.00     0.358 C 
ATOM     79  O   UNL A   1      31.583  26.163  20.910  1.00  0.00    -0.244 OA
BRANCH  78  80
ATOM     80  C   UNL A   1      31.675  25.025  22.986  1.00  0.00     0.170 A 
ATOM     81  C   UNL A   1      30.531  24.274  23.352  1.00  0.00     0.058 A 
ATOM     82  N   UNL A   1      32.790  24.515  23.555  1.00  0.00    -0.159 NA
ATOM     83  C   UNL A   1      31.031  23.154  23.968  1.00  0.00     0.118 A 
ATOM     84  N   UNL A   1      32.391  23.328  24.064  1.00  0.00    -0.222 N 
BRANCH  84  85
ATOM     85  C   UNL A   1      33.322  22.337  24.458  1.00  0.00     0.158 A 
ATOM     86  C   UNL A   1      32.916  21.021  24.557  1.00  0.00     0.078 A 
ATOM     87  N   UNL A   1      34.585  22.754  24.682  1.00  0.00    -0.209 NA
ATOM     88  C   UNL A   1      33.918  20.116  24.855  1.00  0.00     0.077 A 
ATOM     89  C   UNL A   1      35.445  21.815  25.091  1.00  0.00     0.165 A 
ATOM     90  N   UNL A   1      35.172  20.506  25.177  1.00  0.00    -0.228 NA
BRANCH  88  91
ATOM     91  C   UNL A   1      33.749  18.661  24.746  1.00  0.00     0.003 A 
ATOM     92  C   UNL A   1      34.779  17.847  24.255  1.00  0.00     0.030 A 
ATOM     93  C   UNL A   1      32.594  18.029  25.223  1.00  0.00     0.030 A 
ATOM     94  C   UNL A   1      34.618  16.470  24.272  1.00  0.00     0.111 A 
ATOM     95  C   UNL A   1      32.521  16.645  25.189  1.00  0.00     0.111 A 
ATOM     96  N   UNL A   1      33.512  15.852  24.732  1.00  0.00    -0.265 NA
ENDBRANCH  88  91
BRANCH  89  97
ATOM     97  C   UNL A   1      36.740  22.279  25.560  1.00  0.00     0.055 A 
ATOM     98  C   UNL A   1      36.896  23.584  26.066  1.00  0.00     0.015 A 
ATOM     99  C   UNL A   1      37.868  21.461  25.493  1.00  0.00     0.134 A 
ATOM    100  C   UNL A   1      38.145  24.044  26.491  1.00  0.00     0.001 A 
ATOM    101  C   UNL A   1      39.119  21.916  25.908  1.00  0.00     0.040 A 
ATOM    102  F   UNL A   1      37.778  20.219  24.990  1.00  0.00    -0.206 F 
ATOM    103  C   UNL A   1      39.258  23.210  26.409  1.00  0.00     0.003 A 
ENDBRANCH  89  97
ENDBRANCH  84  85
ENDBRANCH  78  80
ENDBRANCH  77  78
ENDBRANCH  76  77
ENDBRANCH  75  76
ENDBRANCH  74  75
ENDBRANCH   1  74
TORSDOF 20
ENDMDL
MODEL 3
REMARK VINA RESULT:     -12.7      0.882      2.807
REMARK SMILES O=C(OCCOCCOC(=O)c1ccn(-c2cc(-c3ccncc3)nc(-c3ccccc3F)n2)n1)c1ccc(-c2c3nc(c(-c4c(F)cc(S(=O)(=O)[O-])cc4F)c4ccc([nH]4)c(-c4c(F)cc(S(=O)(=O)[O-])cc4F)c4nc(c(-c5c(F)cc(S(=O)(=O)[O-])cc5F)c5ccc2[nH]5)C=C4)C=C3)cc1
REMARK SMILES IDX 5 1 4 2 3 3 2 4 1 5 36 6 37 7 101 8 38 9 100 10 39 11 40 12
REMARK SMILES IDX 41 13 94 14 42 15 99 16 93 17 95 18 43 19 98 20 92 21 91 22
REMARK SMILES IDX 44 24 78 25 57 26 77 27 58 28 61 29 76 30 96 31 59 32 60 33
REMARK SMILES IDX 75 35 97 36 62 37 45 38 46 39 55 40 47 41 48 42 54 43 56 44
REMARK SMILES IDX 49 45 50 46 51 47 52 48 53 49 79 50 80 51 89 52 81 53 82 54
REMARK SMILES IDX 88 55 90 56 83 57 84 58 85 59 86 60 87 61 63 62 64 63 73 64
REMARK SMILES IDX 65 65 66 66 72 67 74 68 67 69 68 70 69 71 70 72 71 73 6 74
REMARK SMILES IDX 7 75 8 76 9 77 10 78 11 79 12 80 13 81 35 82 14 83 15 84
REMARK SMILES IDX 16 85 17 86 34 87 18 88 26 89 25 90 19 91 20 92 24 93 21 94
REMARK SMILES IDX 23 95 22 96 27 97 28 98 32 99 29 100 31 101 33 102 30 103
REMARK H PARENT 95 23 61 34
REMARK Flexibility Score: inf
ROOT
ATOM      1  C   UNL A   1      36.707  21.063  25.371  1.00  0.00     0.202 C 
ENDROOT
BRANCH   1   2
ATOM      2  C   UNL A   1      38.177  21.469  25.361  1.00  0.00     0.261 C 
BRANCH   2   3
ATOM      3  O   UNL A   1      38.548  22.458  26.346  1.00  0.00    -0.460 OA
BRANCH   3   4
ATOM      4  C   UNL A   1      39.795  22.556  26.862  1.00  0.00     0.338 C 
ATOM      5  O   UNL A   1      40.587  21.621  26.802  1.00  0.00    -0.246 OA
BRANCH   4   6
ATOM      6  C   UNL A   1      40.267  23.926  27.195  1.00  0.00     0.060 A 
ATOM      7  C   UNL A   1      41.331  24.190  28.055  1.00  0.00     0.016 A 
ATOM      8  C   UNL A   1      39.522  24.999  26.680  1.00  0.00     0.016 A 
ATOM      9  C   UNL A   1      41.515  25.462  28.561  1.00  0.00     0.010 A 
ATOM     10  C   UNL A   1      39.739  26.291  27.146  1.00  0.00     0.010 A 
ATOM     11  C   UNL A   1      40.675  26.497  28.155  1.00  0.00    -0.014 A 
BRANCH  11  12
ATOM     12  C   UNL A   1      40.828  27.765  28.857  1.00  0.00     0.031 A 
ATOM     13  C   UNL A   1      41.976  28.618  28.431  1.00  0.00     0.074 A 
ATOM     14  C   UNL A   1      39.985  28.162  29.827  1.00  0.00     0.049 A 
ATOM     15  N   UNL A   1      43.001  29.004  29.121  1.00  0.00    -0.248 NA
ATOM     16  C   UNL A   1      42.023  29.007  27.014  1.00  0.00     0.031 C 
ATOM     17  C   UNL A   1      38.686  27.599  30.207  1.00  0.00     0.029 A 
ATOM     18  N   UNL A   1      40.100  29.248  30.638  1.00  0.00    -0.354 N 
ATOM     19  C   UNL A   1      43.752  29.818  28.275  1.00  0.00     0.074 A 
ATOM     20  C   UNL A   1      43.159  29.702  26.965  1.00  0.00     0.031 C 
ATOM     21  C   UNL A   1      38.038  28.480  31.003  1.00  0.00     0.029 A 
ATOM     22  C   UNL A   1      38.935  29.582  31.306  1.00  0.00     0.049 A 
ATOM     23  H   UNL A   1      40.938  29.752  30.741  1.00  0.00     0.167 HD
ATOM     24  C   UNL A   1      44.735  30.652  28.717  1.00  0.00     0.037 A 
ATOM     25  C   UNL A   1      38.708  30.730  31.987  1.00  0.00     0.037 A 
ATOM     26  C   UNL A   1      45.190  30.309  30.034  1.00  0.00     0.049 A 
ATOM     27  C   UNL A   1      40.033  31.298  32.348  1.00  0.00     0.074 A 
ATOM     28  C   UNL A   1      45.843  29.219  30.576  1.00  0.00     0.029 A 
ATOM     29  N   UNL A   1      44.694  31.010  31.104  1.00  0.00    -0.354 N 
ATOM     30  N   UNL A   1      40.867  30.743  33.186  1.00  0.00    -0.248 NA
ATOM     31  C   UNL A   1      40.618  32.286  31.453  1.00  0.00     0.031 C 
ATOM     32  C   UNL A   1      45.288  29.063  31.879  1.00  0.00     0.029 A 
ATOM     33  C   UNL A   1      44.357  30.086  32.063  1.00  0.00     0.049 A 
ATOM     34  H   UNL A   1      44.598  31.988  31.172  1.00  0.00     0.167 HD
ATOM     35  C   UNL A   1      42.127  31.005  32.668  1.00  0.00     0.074 A 
ATOM     36  C   UNL A   1      41.913  32.034  31.655  1.00  0.00     0.031 C 
ATOM     37  C   UNL A   1      43.191  30.184  32.917  1.00  0.00     0.037 A 
BRANCH  24  38
ATOM     38  C   UNL A   1      45.119  31.932  28.025  1.00  0.00     0.058 A 
ATOM     39  C   UNL A   1      44.367  33.119  28.161  1.00  0.00     0.135 A 
ATOM     40  C   UNL A   1      46.376  32.071  27.404  1.00  0.00     0.135 A 
ATOM     41  F   UNL A   1      43.211  33.145  28.840  1.00  0.00    -0.206 F 
ATOM     42  C   UNL A   1      44.806  34.348  27.685  1.00  0.00     0.059 A 
ATOM     43  C   UNL A   1      46.860  33.307  26.964  1.00  0.00     0.059 A 
ATOM     44  F   UNL A   1      47.186  31.010  27.258  1.00  0.00    -0.206 F 
ATOM     45  C   UNL A   1      46.065  34.439  27.110  1.00  0.00     0.060 A 
BRANCH  45  46
ATOM     46  S   UNL A   1      46.667  36.080  26.666  1.00  0.00     0.124 S 
ATOM     47  O   UNL A   1      47.456  36.430  27.843  1.00  0.00    -0.237 OA
ATOM     48  O   UNL A   1      47.427  35.804  25.451  1.00  0.00    -0.237 OA
ATOM     49  O   UNL A   1      45.443  36.849  26.476  1.00  0.00    -0.744 OA
ENDBRANCH  45  46
ENDBRANCH  24  38
BRANCH  25  50
ATOM     50  C   UNL A   1      37.464  31.542  31.945  1.00  0.00     0.058 A 
ATOM     51  C   UNL A   1      37.133  32.326  30.821  1.00  0.00     0.135 A 
ATOM     52  C   UNL A   1      36.724  31.787  33.114  1.00  0.00     0.135 A 
ATOM     53  F   UNL A   1      37.814  32.217  29.670  1.00  0.00    -0.206 F 
ATOM     54  C   UNL A   1      36.160  33.318  30.861  1.00  0.00     0.059 A 
ATOM     55  C   UNL A   1      35.747  32.786  33.182  1.00  0.00     0.059 A 
ATOM     56  F   UNL A   1      36.992  31.101  34.237  1.00  0.00    -0.206 F 
ATOM     57  C   UNL A   1      35.493  33.564  32.055  1.00  0.00     0.060 A 
BRANCH  57  58
ATOM     58  S   UNL A   1      34.370  34.979  32.115  1.00  0.00     0.124 S 
ATOM     59  O   UNL A   1      35.192  35.981  32.787  1.00  0.00    -0.237 OA
ATOM     60  O   UNL A   1      34.111  35.220  30.700  1.00  0.00    -0.237 OA
ATOM     61  O   UNL A   1      33.235  34.481  32.883  1.00  0.00    -0.744 OA
ENDBRANCH  57  58
ENDBRANCH  25  50
BRANCH  37  62
ATOM     62  C   UNL A   1      43.045  29.120  33.977  1.00  0.00     0.058 A 
ATOM     63  C   UNL A   1      42.435  27.906  33.631  1.00  0.00     0.135 A 
ATOM     64  C   UNL A   1      43.312  29.335  35.342  1.00  0.00     0.135 A 
ATOM     65  F   UNL A   1      42.101  27.660  32.352  1.00  0.00    -0.206 F 
ATOM     66  C   UNL A   1      42.094  26.951  34.587  1.00  0.00     0.059 A 
ATOM     67  C   UNL A   1      43.010  28.379  36.316  1.00  0.00     0.059 A 
ATOM     68  F   UNL A   1      43.803  30.506  35.771  1.00  0.00    -0.206 F 
ATOM     69  C   UNL A   1      42.381  27.199  35.929  1.00  0.00     0.060 A 
BRANCH  69  70
ATOM     70  S   UNL A   1      41.880  25.969  37.154  1.00  0.00     0.124 S 
ATOM     71  O   UNL A   1      42.861  26.184  38.214  1.00  0.00    -0.237 OA
ATOM     72  O   UNL A   1      40.515  26.379  37.469  1.00  0.00    -0.237 OA
ATOM     73  O   UNL A   1      41.999  24.699  36.443  1.00  0.00    -0.744 OA
ENDBRANCH  69  70
ENDBRANCH  37  62
ENDBRANCH  11  12
ENDBRANCH   4   6
ENDBRANCH   3   4
ENDBRANCH   2   3
ENDBRANCH   1   2
BRANCH   1  74
ATOM     74  O   UNL A   1      35.791  22.075  24.957  1.00  0.00    -0.374 OA
BRANCH  74  75
ATOM     75  C   UNL A   1      34.728  22.361  25.874  1.00  0.00     0.202 C 
BRANCH  75  76
ATOM     76  C   UNL A   1      33.350  21.762  25.565  1.00  0.00     0.261 C 
BRANCH  76  77
ATOM     77  O   UNL A   1      32.332  22.292  26.435  1.00  0.00    -0.458 OA
BRANCH  77  78
ATOM     78  C   UNL A   1      31.119  22.509  25.841  1.00  0.00     0.358 C 
ATOM     79  O   UNL A   1      30.112  21.859  26.060  1.00  0.00    -0.244 OA
BRANCH  78  80
ATOM     80  C   UNL A   1      31.142  23.695  24.973  1.00  0.00     0.170 A 
ATOM     81  C   UNL A   1      30.656  23.801  23.647  1.00  0.00     0.058 A 
ATOM     82  N   UNL A   1      31.669  24.868  25.390  1.00  0.00    -0.159 NA
ATOM     83  C   UNL A   1      30.695  25.144  23.367  1.00  0.00     0.118 A 
ATOM     84  N   UNL A   1      31.300  25.755  24.440  1.00  0.00    -0.222 N 
BRANCH  84  85
ATOM     85  C   UNL A   1      31.374  27.152  24.657  1.00  0.00     0.158 A 
ATOM     86  C   UNL A   1      32.214  27.646  25.636  1.00  0.00     0.078 A 
ATOM     87  N   UNL A   1      30.625  27.927  23.846  1.00  0.00    -0.209 NA
ATOM     88  C   UNL A   1      32.289  29.025  25.706  1.00  0.00     0.077 A 
ATOM     89  C   UNL A   1      30.675  29.242  24.087  1.00  0.00     0.165 A 
ATOM     90  N   UNL A   1      31.486  29.831  24.976  1.00  0.00    -0.228 NA
BRANCH  88  91
ATOM     91  C   UNL A   1      33.308  29.739  26.489  1.00  0.00     0.003 A 
ATOM     92  C   UNL A   1      33.040  30.995  27.050  1.00  0.00     0.030 A 
ATOM     93  C   UNL A   1      34.541  29.145  26.783  1.00  0.00     0.030 A 
ATOM     94  C   UNL A   1      33.990  31.583  27.872  1.00  0.00     0.111 A 
ATOM     95  C   UNL A   1      35.431  29.816  27.608  1.00  0.00     0.111 A 
ATOM     96  N   UNL A   1      35.179  31.018  28.165  1.00  0.00    -0.265 NA
ENDBRANCH  88  91
BRANCH  89  97
ATOM     97  C   UNL A   1      29.706  30.069  23.387  1.00  0.00     0.055 A 
ATOM     98  C   UNL A   1      29.151  29.646  22.163  1.00  0.00     0.015 A 
ATOM     99  C   UNL A   1      29.324  31.314  23.886  1.00  0.00     0.134 A 
ATOM    100  C   UNL A   1      28.241  30.450  21.473  1.00  0.00     0.001 A 
ATOM    101  C   UNL A   1      28.422  32.125  23.199  1.00  0.00     0.040 A 
ATOM    102  F   UNL A   1      29.848  31.775  25.033  1.00  0.00    -0.206 F 
ATOM    103  C   UNL A   1      27.878  31.692  21.990  1.00  0.00     0.003 A 
ENDBRANCH  89  97
ENDBRANCH  84  85
ENDBRANCH  78  80
ENDBRANCH  77  78
ENDBRANCH  76  77
ENDBRANCH  75  76
ENDBRANCH  74  75
ENDBRANCH   1  74
TORSDOF 20
ENDMDL
