MODEL 1
REMARK VINA RESULT:     -13.0      0.000      0.000
REMARK SMILES O=C(OCCOCCOC(=O)c1nnn(-c2cccc(Br)c2)c1[C@@H]1COc2ccccc2O1)c1ccc(-c2c3nc(c(-c4c(F)cc(S(=O)(=O)[O-])cc4F)c4ccc([nH]4)c(-c4c(F)cc(S(=O)(=O)[O-])cc4F)c4nc(c(-c5c(F)cc(S(=O)(=O)[O-])cc5F)c5ccc2[nH]5)C=C4)C=C3)cc1
REMARK SMILES IDX 5 1 4 2 3 3 2 4 1 5 34 6 35 7 99 8 36 9 98 10 37 11 38 12
REMARK SMILES IDX 39 13 92 14 40 15 97 16 91 17 93 18 41 19 96 20 90 21 89 22
REMARK SMILES IDX 42 24 76 25 55 26 75 27 56 28 59 29 74 30 94 31 57 32 58 33
REMARK SMILES IDX 73 35 95 36 60 37 43 38 44 39 53 40 45 41 46 42 52 43 54 44
REMARK SMILES IDX 47 45 48 46 49 47 50 48 51 49 77 50 78 51 87 52 79 53 80 54
REMARK SMILES IDX 86 55 88 56 81 57 82 58 83 59 84 60 85 61 61 62 62 63 71 64
REMARK SMILES IDX 63 65 64 66 70 67 72 68 65 69 66 70 67 71 68 72 69 73 6 74
REMARK SMILES IDX 7 75 8 76 9 77 10 78 11 79 12 80 13 81 23 82 14 83 15 84
REMARK SMILES IDX 24 85 25 86 33 87 26 88 32 89 27 90 31 91 28 92 30 93 29 94
REMARK SMILES IDX 16 95 17 96 22 97 18 98 20 99 19 100 21 101
REMARK H PARENT 93 23 59 34
REMARK Flexibility Score: inf
ROOT
ATOM      1  C   UNL A   1      31.736  29.582  25.668  1.00  0.00     0.202 C 
ENDROOT
BRANCH   1   2
ATOM      2  C   UNL A   1      32.167  30.778  26.534  1.00  0.00     0.261 C 
BRANCH   2   3
ATOM      3  O   UNL A   1      33.588  30.855  26.726  1.00  0.00    -0.460 OA
BRANCH   3   4
ATOM      4  C   UNL A   1      34.299  31.549  27.645  1.00  0.00     0.338 C 
ATOM      5  O   UNL A   1      33.830  32.605  28.070  1.00  0.00    -0.246 OA
BRANCH   4   6
ATOM      6  C   UNL A   1      35.641  31.130  28.153  1.00  0.00     0.060 A 
ATOM      7  C   UNL A   1      36.630  31.981  28.650  1.00  0.00     0.016 A 
ATOM      8  C   UNL A   1      35.897  29.745  28.145  1.00  0.00     0.016 A 
ATOM      9  C   UNL A   1      37.903  31.506  28.907  1.00  0.00     0.010 A 
ATOM     10  C   UNL A   1      37.149  29.249  28.473  1.00  0.00     0.010 A 
ATOM     11  C   UNL A   1      38.166  30.147  28.772  1.00  0.00    -0.014 A 
BRANCH  11  12
ATOM     12  C   UNL A   1      39.512  29.704  29.088  1.00  0.00     0.031 A 
ATOM     13  C   UNL A   1      39.826  29.749  30.541  1.00  0.00     0.074 A 
ATOM     14  C   UNL A   1      40.343  29.231  28.140  1.00  0.00     0.049 A 
ATOM     15  N   UNL A   1      40.701  30.481  31.148  1.00  0.00    -0.248 NA
ATOM     16  C   UNL A   1      38.926  29.020  31.453  1.00  0.00     0.031 C 
ATOM     17  C   UNL A   1      40.015  28.927  26.746  1.00  0.00     0.029 A 
ATOM     18  N   UNL A   1      41.634  28.814  28.246  1.00  0.00    -0.354 N 
ATOM     19  C   UNL A   1      40.636  30.103  32.488  1.00  0.00     0.074 A 
ATOM     20  C   UNL A   1      39.401  29.385  32.643  1.00  0.00     0.031 C 
ATOM     21  C   UNL A   1      40.989  28.151  26.221  1.00  0.00     0.029 A 
ATOM     22  C   UNL A   1      42.054  28.002  27.198  1.00  0.00     0.049 A 
ATOM     23  H   UNL A   1      42.218  29.065  28.996  1.00  0.00     0.167 HD
ATOM     24  C   UNL A   1      41.747  30.136  33.274  1.00  0.00     0.037 A 
ATOM     25  C   UNL A   1      43.145  27.193  27.188  1.00  0.00     0.037 A 
ATOM     26  C   UNL A   1      42.722  31.062  32.749  1.00  0.00     0.049 A 
ATOM     27  C   UNL A   1      44.056  27.671  28.262  1.00  0.00     0.074 A 
ATOM     28  C   UNL A   1      42.702  32.402  32.408  1.00  0.00     0.029 A 
ATOM     29  N   UNL A   1      43.845  30.546  32.148  1.00  0.00    -0.354 N 
ATOM     30  N   UNL A   1      44.679  28.819  28.230  1.00  0.00    -0.248 NA
ATOM     31  C   UNL A   1      43.909  27.086  29.587  1.00  0.00     0.031 C 
ATOM     32  C   UNL A   1      43.511  32.499  31.238  1.00  0.00     0.029 A 
ATOM     33  C   UNL A   1      44.039  31.234  30.979  1.00  0.00     0.049 A 
ATOM     34  H   UNL A   1      44.408  29.815  32.493  1.00  0.00     0.167 HD
ATOM     35  C   UNL A   1      44.608  29.300  29.530  1.00  0.00     0.074 A 
ATOM     36  C   UNL A   1      44.201  28.152  30.337  1.00  0.00     0.031 C 
ATOM     37  C   UNL A   1      44.603  30.642  29.787  1.00  0.00     0.037 A 
BRANCH  24  38
ATOM     38  C   UNL A   1      42.116  29.014  34.229  1.00  0.00     0.058 A 
ATOM     39  C   UNL A   1      42.206  27.698  33.728  1.00  0.00     0.135 A 
ATOM     40  C   UNL A   1      42.072  29.118  35.639  1.00  0.00     0.135 A 
ATOM     41  F   UNL A   1      42.268  27.471  32.407  1.00  0.00    -0.206 F 
ATOM     42  C   UNL A   1      42.137  26.576  34.557  1.00  0.00     0.059 A 
ATOM     43  C   UNL A   1      42.054  28.016  36.483  1.00  0.00     0.059 A 
ATOM     44  F   UNL A   1      41.951  30.284  36.282  1.00  0.00    -0.206 F 
ATOM     45  C   UNL A   1      42.037  26.749  35.933  1.00  0.00     0.060 A 
BRANCH  45  46
ATOM     46  S   UNL A   1      41.828  25.316  36.999  1.00  0.00     0.124 S 
ATOM     47  O   UNL A   1      43.115  25.279  37.686  1.00  0.00    -0.237 OA
ATOM     48  O   UNL A   1      40.679  25.708  37.808  1.00  0.00    -0.237 OA
ATOM     49  O   UNL A   1      41.582  24.230  36.055  1.00  0.00    -0.744 OA
ENDBRANCH  45  46
ENDBRANCH  24  38
BRANCH  25  50
ATOM     50  C   UNL A   1      43.270  25.842  26.568  1.00  0.00     0.058 A 
ATOM     51  C   UNL A   1      44.068  25.631  25.429  1.00  0.00     0.135 A 
ATOM     52  C   UNL A   1      42.828  24.677  27.231  1.00  0.00     0.135 A 
ATOM     53  F   UNL A   1      44.554  26.678  24.743  1.00  0.00    -0.206 F 
ATOM     54  C   UNL A   1      44.445  24.350  25.004  1.00  0.00     0.059 A 
ATOM     55  C   UNL A   1      43.175  23.393  26.817  1.00  0.00     0.059 A 
ATOM     56  F   UNL A   1      42.116  24.746  28.365  1.00  0.00    -0.206 F 
ATOM     57  C   UNL A   1      44.008  23.236  25.719  1.00  0.00     0.060 A 
BRANCH  57  58
ATOM     58  S   UNL A   1      44.629  21.592  25.290  1.00  0.00     0.124 S 
ATOM     59  O   UNL A   1      45.966  21.612  25.873  1.00  0.00    -0.237 OA
ATOM     60  O   UNL A   1      43.661  20.716  25.942  1.00  0.00    -0.237 OA
ATOM     61  O   UNL A   1      44.587  21.584  23.830  1.00  0.00    -0.744 OA
ENDBRANCH  57  58
ENDBRANCH  25  50
BRANCH  37  62
ATOM     62  C   UNL A   1      45.008  31.585  28.686  1.00  0.00     0.058 A 
ATOM     63  C   UNL A   1      44.219  31.896  27.565  1.00  0.00     0.135 A 
ATOM     64  C   UNL A   1      46.200  32.307  28.851  1.00  0.00     0.135 A 
ATOM     65  F   UNL A   1      43.012  31.338  27.393  1.00  0.00    -0.206 F 
ATOM     66  C   UNL A   1      44.628  32.839  26.619  1.00  0.00     0.059 A 
ATOM     67  C   UNL A   1      46.610  33.275  27.941  1.00  0.00     0.059 A 
ATOM     68  F   UNL A   1      46.966  32.106  29.937  1.00  0.00    -0.206 F 
ATOM     69  C   UNL A   1      45.829  33.521  26.815  1.00  0.00     0.060 A 
BRANCH  69  70
ATOM     70  S   UNL A   1      46.337  34.775  25.618  1.00  0.00     0.124 S 
ATOM     71  O   UNL A   1      45.412  34.539  24.515  1.00  0.00    -0.237 OA
ATOM     72  O   UNL A   1      46.139  36.018  26.358  1.00  0.00    -0.237 OA
ATOM     73  O   UNL A   1      47.732  34.440  25.345  1.00  0.00    -0.744 OA
ENDBRANCH  69  70
ENDBRANCH  37  62
ENDBRANCH  11  12
ENDBRANCH   4   6
ENDBRANCH   3   4
ENDBRANCH   2   3
ENDBRANCH   1   2
BRANCH   1  74
ATOM     74  O   UNL A   1      31.393  28.353  26.303  1.00  0.00    -0.374 OA
BRANCH  74  75
ATOM     75  C   UNL A   1      32.422  27.521  26.828  1.00  0.00     0.202 C 
BRANCH  75  76
ATOM     76  C   UNL A   1      33.224  26.644  25.872  1.00  0.00     0.261 C 
BRANCH  76  77
ATOM     77  O   UNL A   1      33.091  25.240  26.122  1.00  0.00    -0.458 OA
BRANCH  77  78
ATOM     78  C   UNL A   1      34.113  24.461  25.671  1.00  0.00     0.361 C 
ATOM     79  O   UNL A   1      35.186  24.873  25.251  1.00  0.00    -0.244 OA
BRANCH  78  80
ATOM     80  C   UNL A   1      33.806  23.048  25.724  1.00  0.00     0.198 A 
ATOM     81  N   UNL A   1      34.117  22.254  26.804  1.00  0.00    -0.122 NA
ATOM     82  C   UNL A   1      33.262  22.261  24.725  1.00  0.00     0.123 A 
ATOM     83  N   UNL A   1      33.782  21.002  26.510  1.00  0.00    -0.061 NA
ATOM     84  N   UNL A   1      33.414  20.978  25.214  1.00  0.00    -0.213 N 
BRANCH  82  85
ATOM     85  C   UNL A   1      32.576  22.554  23.433  1.00  0.00     0.262 C 
ATOM     86  C   UNL A   1      33.451  23.124  22.318  1.00  0.00     0.281 C 
ATOM     87  O   UNL A   1      31.402  23.293  23.754  1.00  0.00    -0.477 OA
ATOM     88  O   UNL A   1      33.596  24.539  22.318  1.00  0.00    -0.485 OA
ATOM     89  C   UNL A   1      31.388  24.583  23.320  1.00  0.00     0.162 A 
ATOM     90  C   UNL A   1      32.414  25.172  22.586  1.00  0.00     0.161 A 
ATOM     91  C   UNL A   1      30.283  25.343  23.701  1.00  0.00     0.050 A 
ATOM     92  C   UNL A   1      32.316  26.507  22.192  1.00  0.00     0.050 A 
ATOM     93  C   UNL A   1      30.200  26.688  23.340  1.00  0.00     0.004 A 
ATOM     94  C   UNL A   1      31.209  27.268  22.574  1.00  0.00     0.004 A 
ENDBRANCH  82  85
BRANCH  84  95
ATOM     95  C   UNL A   1      33.380  19.777  24.480  1.00  0.00     0.068 A 
ATOM     96  C   UNL A   1      32.456  19.653  23.429  1.00  0.00     0.028 A 
ATOM     97  C   UNL A   1      34.190  18.705  24.858  1.00  0.00     0.044 A 
ATOM     98  C   UNL A   1      32.296  18.428  22.790  1.00  0.00     0.003 A 
ATOM     99  C   UNL A   1      33.990  17.475  24.231  1.00  0.00     0.020 A 
ATOM    100  C   UNL A   1      33.046  17.330  23.208  1.00  0.00     0.016 A 
ATOM    101  Br  UNL A   1      34.964  15.959  24.807  1.00  0.00    -0.051 Br
ENDBRANCH  84  95
ENDBRANCH  78  80
ENDBRANCH  77  78
ENDBRANCH  76  77
ENDBRANCH  75  76
ENDBRANCH  74  75
ENDBRANCH   1  74
TORSDOF 19
ENDMDL
MODEL 2
REMARK VINA RESULT:     -12.5      3.457      9.477
REMARK SMILES O=C(OCCOCCOC(=O)c1nnn(-c2cccc(Br)c2)c1[C@@H]1COc2ccccc2O1)c1ccc(-c2c3nc(c(-c4c(F)cc(S(=O)(=O)[O-])cc4F)c4ccc([nH]4)c(-c4c(F)cc(S(=O)(=O)[O-])cc4F)c4nc(c(-c5c(F)cc(S(=O)(=O)[O-])cc5F)c5ccc2[nH]5)C=C4)C=C3)cc1
REMARK SMILES IDX 5 1 4 2 3 3 2 4 1 5 34 6 35 7 99 8 36 9 98 10 37 11 38 12
REMARK SMILES IDX 39 13 92 14 40 15 97 16 91 17 93 18 41 19 96 20 90 21 89 22
REMARK SMILES IDX 42 24 76 25 55 26 75 27 56 28 59 29 74 30 94 31 57 32 58 33
REMARK SMILES IDX 73 35 95 36 60 37 43 38 44 39 53 40 45 41 46 42 52 43 54 44
REMARK SMILES IDX 47 45 48 46 49 47 50 48 51 49 77 50 78 51 87 52 79 53 80 54
REMARK SMILES IDX 86 55 88 56 81 57 82 58 83 59 84 60 85 61 61 62 62 63 71 64
REMARK SMILES IDX 63 65 64 66 70 67 72 68 65 69 66 70 67 71 68 72 69 73 6 74
REMARK SMILES IDX 7 75 8 76 9 77 10 78 11 79 12 80 13 81 23 82 14 83 15 84
REMARK SMILES IDX 24 85 25 86 33 87 26 88 32 89 27 90 31 91 28 92 30 93 29 94
REMARK SMILES IDX 16 95 17 96 22 97 18 98 20 99 19 100 21 101
REMARK H PARENT 93 23 59 34
REMARK Flexibility Score: inf
ROOT
ATOM      1  C   UNL A   1      36.337  20.714  25.007  1.00  0.00     0.202 C 
ENDROOT
BRANCH   1   2
ATOM      2  C   UNL A   1      37.756  21.277  24.821  1.00  0.00     0.261 C 
BRANCH   2   3
ATOM      3  O   UNL A   1      38.273  21.910  26.003  1.00  0.00    -0.460 OA
BRANCH   3   4
ATOM      4  C   UNL A   1      39.556  22.110  26.385  1.00  0.00     0.338 C 
ATOM      5  O   UNL A   1      40.349  21.173  26.280  1.00  0.00    -0.246 OA
BRANCH   4   6
ATOM      6  C   UNL A   1      40.065  23.391  26.962  1.00  0.00     0.060 A 
ATOM      7  C   UNL A   1      41.246  23.548  27.692  1.00  0.00     0.016 A 
ATOM      8  C   UNL A   1      39.281  24.534  26.711  1.00  0.00     0.016 A 
ATOM      9  C   UNL A   1      41.517  24.736  28.344  1.00  0.00     0.010 A 
ATOM     10  C   UNL A   1      39.586  25.751  27.300  1.00  0.00     0.010 A 
ATOM     11  C   UNL A   1      40.659  25.818  28.180  1.00  0.00    -0.014 A 
BRANCH  11  12
ATOM     12  C   UNL A   1      41.015  27.048  28.863  1.00  0.00     0.031 A 
ATOM     13  C   UNL A   1      42.184  27.743  28.263  1.00  0.00     0.074 A 
ATOM     14  C   UNL A   1      40.286  27.524  29.890  1.00  0.00     0.049 A 
ATOM     15  N   UNL A   1      43.343  27.963  28.793  1.00  0.00    -0.248 NA
ATOM     16  C   UNL A   1      42.116  28.072  26.827  1.00  0.00     0.031 C 
ATOM     17  C   UNL A   1      38.992  27.028  30.364  1.00  0.00     0.029 A 
ATOM     18  N   UNL A   1      40.490  28.625  30.663  1.00  0.00    -0.354 N 
ATOM     19  C   UNL A   1      44.052  28.695  27.843  1.00  0.00     0.074 A 
ATOM     20  C   UNL A   1      43.345  28.536  26.602  1.00  0.00     0.031 C 
ATOM     21  C   UNL A   1      38.422  27.963  31.156  1.00  0.00     0.029 A 
ATOM     22  C   UNL A   1      39.354  29.064  31.335  1.00  0.00     0.049 A 
ATOM     23  H   UNL A   1      41.364  29.071  30.741  1.00  0.00     0.167 HD
ATOM     24  C   UNL A   1      44.974  29.621  28.225  1.00  0.00     0.037 A 
ATOM     25  C   UNL A   1      39.169  30.283  31.903  1.00  0.00     0.037 A 
ATOM     26  C   UNL A   1      45.467  29.341  29.552  1.00  0.00     0.049 A 
ATOM     27  C   UNL A   1      40.517  30.881  32.108  1.00  0.00     0.074 A 
ATOM     28  C   UNL A   1      46.052  28.243  30.157  1.00  0.00     0.029 A 
ATOM     29  N   UNL A   1      45.049  30.149  30.582  1.00  0.00    -0.354 N 
ATOM     30  N   UNL A   1      41.398  30.416  32.953  1.00  0.00    -0.248 NA
ATOM     31  C   UNL A   1      41.062  31.707  31.039  1.00  0.00     0.031 C 
ATOM     32  C   UNL A   1      45.513  28.216  31.476  1.00  0.00     0.029 A 
ATOM     33  C   UNL A   1      44.695  29.336  31.625  1.00  0.00     0.049 A 
ATOM     34  H   UNL A   1      45.011  31.133  30.572  1.00  0.00     0.167 HD
ATOM     35  C   UNL A   1      42.614  30.515  32.291  1.00  0.00     0.074 A 
ATOM     36  C   UNL A   1      42.356  31.396  31.154  1.00  0.00     0.031 C 
ATOM     37  C   UNL A   1      43.636  29.648  32.558  1.00  0.00     0.037 A 
BRANCH  24  38
ATOM     38  C   UNL A   1      45.072  30.998  27.590  1.00  0.00     0.058 A 
ATOM     39  C   UNL A   1      46.323  31.436  27.106  1.00  0.00     0.135 A 
ATOM     40  C   UNL A   1      44.091  32.010  27.721  1.00  0.00     0.135 A 
ATOM     41  F   UNL A   1      47.330  30.566  26.927  1.00  0.00    -0.206 F 
ATOM     42  C   UNL A   1      46.609  32.784  26.884  1.00  0.00     0.059 A 
ATOM     43  C   UNL A   1      44.341  33.350  27.457  1.00  0.00     0.059 A 
ATOM     44  F   UNL A   1      42.864  31.779  28.198  1.00  0.00    -0.206 F 
ATOM     45  C   UNL A   1      45.615  33.735  27.087  1.00  0.00     0.060 A 
BRANCH  45  46
ATOM     46  S   UNL A   1      46.005  35.483  26.920  1.00  0.00     0.124 S 
ATOM     47  O   UNL A   1      47.112  35.622  27.859  1.00  0.00    -0.237 OA
ATOM     48  O   UNL A   1      46.346  35.581  25.505  1.00  0.00    -0.237 OA
ATOM     49  O   UNL A   1      44.760  36.141  27.306  1.00  0.00    -0.744 OA
ENDBRANCH  45  46
ENDBRANCH  24  38
BRANCH  25  50
ATOM     50  C   UNL A   1      37.917  31.092  31.935  1.00  0.00     0.058 A 
ATOM     51  C   UNL A   1      37.323  31.474  33.152  1.00  0.00     0.135 A 
ATOM     52  C   UNL A   1      37.420  31.737  30.782  1.00  0.00     0.135 A 
ATOM     53  F   UNL A   1      37.743  30.931  34.306  1.00  0.00    -0.206 F 
ATOM     54  C   UNL A   1      36.336  32.466  33.227  1.00  0.00     0.059 A 
ATOM     55  C   UNL A   1      36.427  32.714  30.829  1.00  0.00     0.059 A 
ATOM     56  F   UNL A   1      37.949  31.509  29.571  1.00  0.00    -0.206 F 
ATOM     57  C   UNL A   1      35.909  33.095  32.058  1.00  0.00     0.060 A 
BRANCH  57  58
ATOM     58  S   UNL A   1      34.770  34.496  32.157  1.00  0.00     0.124 S 
ATOM     59  O   UNL A   1      33.615  33.901  32.819  1.00  0.00    -0.237 OA
ATOM     60  O   UNL A   1      35.532  35.460  32.945  1.00  0.00    -0.237 OA
ATOM     61  O   UNL A   1      34.564  34.865  30.758  1.00  0.00    -0.744 OA
ENDBRANCH  57  58
ENDBRANCH  25  50
BRANCH  37  62
ATOM     62  C   UNL A   1      43.553  28.803  33.800  1.00  0.00     0.058 A 
ATOM     63  C   UNL A   1      43.902  29.236  35.091  1.00  0.00     0.135 A 
ATOM     64  C   UNL A   1      42.965  27.533  33.688  1.00  0.00     0.135 A 
ATOM     65  F   UNL A   1      44.361  30.478  35.303  1.00  0.00    -0.206 F 
ATOM     66  C   UNL A   1      43.728  28.420  36.211  1.00  0.00     0.059 A 
ATOM     67  C   UNL A   1      42.750  26.718  34.794  1.00  0.00     0.059 A 
ATOM     68  F   UNL A   1      42.547  27.087  32.491  1.00  0.00    -0.206 F 
ATOM     69  C   UNL A   1      43.154  27.159  36.050  1.00  0.00     0.060 A 
BRANCH  69  70
ATOM     70  S   UNL A   1      42.885  26.119  37.503  1.00  0.00     0.124 S 
ATOM     71  O   UNL A   1      41.462  26.311  37.759  1.00  0.00    -0.237 OA
ATOM     72  O   UNL A   1      43.270  24.796  37.021  1.00  0.00    -0.237 OA
ATOM     73  O   UNL A   1      43.782  26.693  38.504  1.00  0.00    -0.744 OA
ENDBRANCH  69  70
ENDBRANCH  37  62
ENDBRANCH  11  12
ENDBRANCH   4   6
ENDBRANCH   3   4
ENDBRANCH   2   3
ENDBRANCH   1   2
BRANCH   1  74
ATOM     74  O   UNL A   1      35.218  21.579  24.831  1.00  0.00    -0.374 OA
BRANCH  74  75
ATOM     75  C   UNL A   1      35.371  22.789  24.097  1.00  0.00     0.202 C 
BRANCH  75  76
ATOM     76  C   UNL A   1      35.181  24.120  24.816  1.00  0.00     0.261 C 
BRANCH  76  77
ATOM     77  O   UNL A   1      34.287  25.018  24.149  1.00  0.00    -0.458 OA
BRANCH  77  78
ATOM     78  C   UNL A   1      33.736  25.989  24.928  1.00  0.00     0.361 C 
ATOM     79  O   UNL A   1      33.888  26.099  26.137  1.00  0.00    -0.244 OA
BRANCH  78  80
ATOM     80  C   UNL A   1      32.915  26.913  24.176  1.00  0.00     0.198 A 
ATOM     81  N   UNL A   1      33.413  28.058  23.598  1.00  0.00    -0.122 NA
ATOM     82  C   UNL A   1      31.545  26.870  23.988  1.00  0.00     0.123 A 
ATOM     83  N   UNL A   1      32.399  28.725  23.056  1.00  0.00    -0.061 NA
ATOM     84  N   UNL A   1      31.264  28.096  23.419  1.00  0.00    -0.213 N 
BRANCH  82  85
ATOM     85  C   UNL A   1      30.502  25.826  24.206  1.00  0.00     0.262 C 
ATOM     86  C   UNL A   1      30.199  25.468  25.660  1.00  0.00     0.281 C 
ATOM     87  O   UNL A   1      30.824  24.740  23.343  1.00  0.00    -0.477 OA
ATOM     88  O   UNL A   1      31.026  24.457  26.225  1.00  0.00    -0.485 OA
ATOM     89  C   UNL A   1      31.197  23.589  23.967  1.00  0.00     0.162 A 
ATOM     90  C   UNL A   1      31.246  23.431  25.349  1.00  0.00     0.161 A 
ATOM     91  C   UNL A   1      31.599  22.546  23.135  1.00  0.00     0.050 A 
ATOM     92  C   UNL A   1      31.652  22.214  25.901  1.00  0.00     0.050 A 
ATOM     93  C   UNL A   1      32.040  21.341  23.684  1.00  0.00     0.004 A 
ATOM     94  C   UNL A   1      32.054  21.169  25.066  1.00  0.00     0.004 A 
ENDBRANCH  82  85
BRANCH  84  95
ATOM     95  C   UNL A   1      30.013  28.739  23.356  1.00  0.00     0.068 A 
ATOM     96  C   UNL A   1      28.862  27.961  23.152  1.00  0.00     0.028 A 
ATOM     97  C   UNL A   1      29.942  30.133  23.404  1.00  0.00     0.044 A 
ATOM     98  C   UNL A   1      27.637  28.581  22.933  1.00  0.00     0.003 A 
ATOM     99  C   UNL A   1      28.712  30.739  23.146  1.00  0.00     0.020 A 
ATOM    100  C   UNL A   1      27.566  29.974  22.905  1.00  0.00     0.016 A 
ATOM    101  Br  UNL A   1      28.596  32.625  23.059  1.00  0.00    -0.051 Br
ENDBRANCH  84  95
ENDBRANCH  78  80
ENDBRANCH  77  78
ENDBRANCH  76  77
ENDBRANCH  75  76
ENDBRANCH  74  75
ENDBRANCH   1  74
TORSDOF 19
ENDMDL
MODEL 3
REMARK VINA RESULT:     -12.4      2.815      9.302
REMARK SMILES O=C(OCCOCCOC(=O)c1nnn(-c2cccc(Br)c2)c1[C@@H]1COc2ccccc2O1)c1ccc(-c2c3nc(c(-c4c(F)cc(S(=O)(=O)[O-])cc4F)c4ccc([nH]4)c(-c4c(F)cc(S(=O)(=O)[O-])cc4F)c4nc(c(-c5c(F)cc(S(=O)(=O)[O-])cc5F)c5ccc2[nH]5)C=C4)C=C3)cc1
REMARK SMILES IDX 5 1 4 2 3 3 2 4 1 5 34 6 35 7 99 8 36 9 98 10 37 11 38 12
REMARK SMILES IDX 39 13 92 14 40 15 97 16 91 17 93 18 41 19 96 20 90 21 89 22
REMARK SMILES IDX 42 24 76 25 55 26 75 27 56 28 59 29 74 30 94 31 57 32 58 33
REMARK SMILES IDX 73 35 95 36 60 37 43 38 44 39 53 40 45 41 46 42 52 43 54 44
REMARK SMILES IDX 47 45 48 46 49 47 50 48 51 49 77 50 78 51 87 52 79 53 80 54
REMARK SMILES IDX 86 55 88 56 81 57 82 58 83 59 84 60 85 61 61 62 62 63 71 64
REMARK SMILES IDX 63 65 64 66 70 67 72 68 65 69 66 70 67 71 68 72 69 73 6 74
REMARK SMILES IDX 7 75 8 76 9 77 10 78 11 79 12 80 13 81 23 82 14 83 15 84
REMARK SMILES IDX 24 85 25 86 33 87 26 88 32 89 27 90 31 91 28 92 30 93 29 94
REMARK SMILES IDX 16 95 17 96 22 97 18 98 20 99 19 100 21 101
REMARK H PARENT 93 23 59 34
REMARK Flexibility Score: inf
ROOT
ATOM      1  C   UNL A   1      40.424  19.805  25.994  1.00  0.00     0.202 C 
ENDROOT
BRANCH   1   2
ATOM      2  C   UNL A   1      41.876  19.731  26.497  1.00  0.00     0.261 C 
BRANCH   2   3
ATOM      3  O   UNL A   1      42.844  19.742  25.436  1.00  0.00    -0.460 OA
BRANCH   3   4
ATOM      4  C   UNL A   1      43.768  20.679  25.120  1.00  0.00     0.338 C 
ATOM      5  O   UNL A   1      44.655  20.379  24.321  1.00  0.00    -0.246 OA
BRANCH   4   6
ATOM      6  C   UNL A   1      43.799  22.052  25.710  1.00  0.00     0.060 A 
ATOM      7  C   UNL A   1      44.650  22.486  26.729  1.00  0.00     0.016 A 
ATOM      8  C   UNL A   1      42.899  22.982  25.153  1.00  0.00     0.016 A 
ATOM      9  C   UNL A   1      44.457  23.716  27.331  1.00  0.00     0.010 A 
ATOM     10  C   UNL A   1      42.750  24.246  25.702  1.00  0.00     0.010 A 
ATOM     11  C   UNL A   1      43.475  24.571  26.841  1.00  0.00    -0.014 A 
BRANCH  11  12
ATOM     12  C   UNL A   1      43.344  25.861  27.493  1.00  0.00     0.031 A 
ATOM     13  C   UNL A   1      44.463  26.794  27.195  1.00  0.00     0.074 A 
ATOM     14  C   UNL A   1      42.260  26.176  28.227  1.00  0.00     0.049 A 
ATOM     15  N   UNL A   1      45.338  27.280  28.012  1.00  0.00    -0.248 NA
ATOM     16  C   UNL A   1      44.754  27.075  25.777  1.00  0.00     0.031 C 
ATOM     17  C   UNL A   1      41.020  25.407  28.353  1.00  0.00     0.029 A 
ATOM     18  N   UNL A   1      41.987  27.307  28.932  1.00  0.00    -0.354 N 
ATOM     19  C   UNL A   1      46.124  28.138  27.246  1.00  0.00     0.074 A 
ATOM     20  C   UNL A   1      45.866  27.802  25.873  1.00  0.00     0.031 C 
ATOM     21  C   UNL A   1      40.056  26.201  28.870  1.00  0.00     0.029 A 
ATOM     22  C   UNL A   1      40.638  27.487  29.214  1.00  0.00     0.049 A 
ATOM     23  H   UNL A   1      42.683  27.941  29.218  1.00  0.00     0.167 HD
ATOM     24  C   UNL A   1      46.673  29.256  27.797  1.00  0.00     0.037 A 
ATOM     25  C   UNL A   1      40.038  28.642  29.604  1.00  0.00     0.037 A 
ATOM     26  C   UNL A   1      46.799  29.117  29.228  1.00  0.00     0.049 A 
ATOM     27  C   UNL A   1      41.106  29.534  30.133  1.00  0.00     0.074 A 
ATOM     28  C   UNL A   1      47.398  28.191  30.063  1.00  0.00     0.029 A 
ATOM     29  N   UNL A   1      45.933  29.826  30.026  1.00  0.00    -0.354 N 
ATOM     30  N   UNL A   1      41.775  29.296  31.229  1.00  0.00    -0.248 NA
ATOM     31  C   UNL A   1      41.754  30.444  29.199  1.00  0.00     0.031 C 
ATOM     32  C   UNL A   1      46.511  28.064  31.172  1.00  0.00     0.029 A 
ATOM     33  C   UNL A   1      45.468  28.971  30.989  1.00  0.00     0.049 A 
ATOM     34  H   UNL A   1      45.692  30.775  29.924  1.00  0.00     0.167 HD
ATOM     35  C   UNL A   1      43.082  29.657  30.935  1.00  0.00     0.074 A 
ATOM     36  C   UNL A   1      42.991  30.438  29.703  1.00  0.00     0.031 C 
ATOM     37  C   UNL A   1      44.139  29.050  31.552  1.00  0.00     0.037 A 
BRANCH  24  38
ATOM     38  C   UNL A   1      46.660  30.608  27.105  1.00  0.00     0.058 A 
ATOM     39  C   UNL A   1      47.839  31.384  27.105  1.00  0.00     0.135 A 
ATOM     40  C   UNL A   1      45.485  31.302  26.729  1.00  0.00     0.135 A 
ATOM     41  F   UNL A   1      49.019  30.835  27.432  1.00  0.00    -0.206 F 
ATOM     42  C   UNL A   1      47.829  32.760  26.867  1.00  0.00     0.059 A 
ATOM     43  C   UNL A   1      45.463  32.659  26.438  1.00  0.00     0.059 A 
ATOM     44  F   UNL A   1      44.276  30.731  26.708  1.00  0.00    -0.206 F 
ATOM     45  C   UNL A   1      46.629  33.390  26.558  1.00  0.00     0.060 A 
BRANCH  45  46
ATOM     46  S   UNL A   1      46.584  35.178  26.367  1.00  0.00     0.124 S 
ATOM     47  O   UNL A   1      45.250  35.374  25.810  1.00  0.00    -0.237 OA
ATOM     48  O   UNL A   1      46.780  35.632  27.739  1.00  0.00    -0.237 OA
ATOM     49  O   UNL A   1      47.695  35.444  25.458  1.00  0.00    -0.744 OA
ENDBRANCH  45  46
ENDBRANCH  24  38
BRANCH  25  50
ATOM     50  C   UNL A   1      38.691  29.145  29.210  1.00  0.00     0.058 A 
ATOM     51  C   UNL A   1      37.723  29.477  30.177  1.00  0.00     0.135 A 
ATOM     52  C   UNL A   1      38.411  29.567  27.893  1.00  0.00     0.135 A 
ATOM     53  F   UNL A   1      37.910  29.136  31.462  1.00  0.00    -0.206 F 
ATOM     54  C   UNL A   1      36.578  30.222  29.866  1.00  0.00     0.059 A 
ATOM     55  C   UNL A   1      37.270  30.294  27.557  1.00  0.00     0.059 A 
ATOM     56  F   UNL A   1      39.285  29.371  26.896  1.00  0.00    -0.206 F 
ATOM     57  C   UNL A   1      36.371  30.643  28.554  1.00  0.00     0.060 A 
BRANCH  57  58
ATOM     58  S   UNL A   1      34.994  31.752  28.172  1.00  0.00     0.124 S 
ATOM     59  O   UNL A   1      34.440  32.014  29.495  1.00  0.00    -0.237 OA
ATOM     60  O   UNL A   1      35.670  32.875  27.529  1.00  0.00    -0.237 OA
ATOM     61  O   UNL A   1      34.148  30.952  27.290  1.00  0.00    -0.744 OA
ENDBRANCH  57  58
ENDBRANCH  25  50
BRANCH  37  62
ATOM     62  C   UNL A   1      43.874  28.229  32.785  1.00  0.00     0.058 A 
ATOM     63  C   UNL A   1      43.730  28.751  34.083  1.00  0.00     0.135 A 
ATOM     64  C   UNL A   1      43.624  26.858  32.616  1.00  0.00     0.135 A 
ATOM     65  F   UNL A   1      43.836  30.068  34.313  1.00  0.00    -0.206 F 
ATOM     66  C   UNL A   1      43.410  27.935  35.170  1.00  0.00     0.059 A 
ATOM     67  C   UNL A   1      43.270  26.034  33.678  1.00  0.00     0.059 A 
ATOM     68  F   UNL A   1      43.678  26.310  31.390  1.00  0.00    -0.206 F 
ATOM     69  C   UNL A   1      43.185  26.576  34.957  1.00  0.00     0.060 A 
BRANCH  69  70
ATOM     70  S   UNL A   1      42.725  25.527  36.355  1.00  0.00     0.124 S 
ATOM     71  O   UNL A   1      42.801  26.458  37.475  1.00  0.00    -0.237 OA
ATOM     72  O   UNL A   1      41.383  25.083  35.989  1.00  0.00    -0.237 OA
ATOM     73  O   UNL A   1      43.742  24.479  36.344  1.00  0.00    -0.744 OA
ENDBRANCH  69  70
ENDBRANCH  37  62
ENDBRANCH  11  12
ENDBRANCH   4   6
ENDBRANCH   3   4
ENDBRANCH   2   3
ENDBRANCH   1   2
BRANCH   1  74
ATOM     74  O   UNL A   1      39.710  21.032  26.113  1.00  0.00    -0.374 OA
BRANCH  74  75
ATOM     75  C   UNL A   1      38.488  21.208  25.405  1.00  0.00     0.202 C 
BRANCH  75  76
ATOM     76  C   UNL A   1      37.632  19.985  25.094  1.00  0.00     0.261 C 
BRANCH  76  77
ATOM     77  O   UNL A   1      36.312  20.301  24.637  1.00  0.00    -0.458 OA
BRANCH  77  78
ATOM     78  C   UNL A   1      35.704  21.344  25.267  1.00  0.00     0.361 C 
ATOM     79  O   UNL A   1      35.518  21.432  26.473  1.00  0.00    -0.244 OA
BRANCH  78  80
ATOM     80  C   UNL A   1      35.269  22.376  24.351  1.00  0.00     0.198 A 
ATOM     81  N   UNL A   1      36.132  23.283  23.782  1.00  0.00    -0.122 NA
ATOM     82  C   UNL A   1      33.975  22.684  23.973  1.00  0.00     0.123 A 
ATOM     83  N   UNL A   1      35.418  24.141  23.062  1.00  0.00    -0.061 NA
ATOM     84  N   UNL A   1      34.117  23.880  23.297  1.00  0.00    -0.213 N 
BRANCH  82  85
ATOM     85  C   UNL A   1      32.663  21.985  24.105  1.00  0.00     0.262 C 
ATOM     86  C   UNL A   1      32.190  21.698  25.529  1.00  0.00     0.281 C 
ATOM     87  O   UNL A   1      32.703  20.872  23.216  1.00  0.00    -0.477 OA
ATOM     88  O   UNL A   1      32.657  20.478  26.092  1.00  0.00    -0.485 OA
ATOM     89  C   UNL A   1      32.692  19.649  23.813  1.00  0.00     0.162 A 
ATOM     90  C   UNL A   1      32.617  19.452  25.189  1.00  0.00     0.161 A 
ATOM     91  C   UNL A   1      32.818  18.553  22.962  1.00  0.00     0.050 A 
ATOM     92  C   UNL A   1      32.621  18.158  25.712  1.00  0.00     0.050 A 
ATOM     93  C   UNL A   1      32.860  17.260  23.484  1.00  0.00     0.004 A 
ATOM     94  C   UNL A   1      32.748  17.060  24.858  1.00  0.00     0.004 A 
ENDBRANCH  82  85
BRANCH  84  95
ATOM     95  C   UNL A   1      33.112  24.826  23.017  1.00  0.00     0.068 A 
ATOM     96  C   UNL A   1      32.621  24.923  21.706  1.00  0.00     0.028 A 
ATOM     97  C   UNL A   1      32.686  25.705  24.014  1.00  0.00     0.044 A 
ATOM     98  C   UNL A   1      31.743  25.948  21.370  1.00  0.00     0.003 A 
ATOM     99  C   UNL A   1      31.834  26.748  23.652  1.00  0.00     0.020 A 
ATOM    100  C   UNL A   1      31.367  26.877  22.339  1.00  0.00     0.016 A 
ATOM    101  Br  UNL A   1      31.343  28.048  24.936  1.00  0.00    -0.051 Br
ENDBRANCH  84  95
ENDBRANCH  78  80
ENDBRANCH  77  78
ENDBRANCH  76  77
ENDBRANCH  75  76
ENDBRANCH  74  75
ENDBRANCH   1  74
TORSDOF 19
ENDMDL
