MODEL 1
REMARK VINA RESULT:     -11.0      0.000      0.000
REMARK SMILES COc1cccc(Cn2c(=O)c(=O)n(CC(=O)OCCOCCOC(=O)c3ccc(-c4c5nc(c(-c6c(F)cc(S(=O)(=O)[O-])cc6F)c6ccc([nH]6)c(-c6c(F)cc(S(=O)(=O)[O-])cc6F)c6nc(c(-c7c(F)cc(S(=O)(=O)[O-])cc7F)c7ccc4[nH]7)C=C6)C=C5)cc3)c3ccccc32)c1
REMARK SMILES IDX 20 1 19 2 18 3 16 4 17 5 15 6 14 7 9 8 10 9 98 10 11 11
REMARK SMILES IDX 12 12 93 13 97 14 13 15 94 16 96 17 95 18 8 19 7 20 3 21
REMARK SMILES IDX 4 22 99 23 5 24 6 25 2 26 1 27 21 28 22 29 23 30 24 31 25 32
REMARK SMILES IDX 26 33 27 34 28 35 92 36 29 37 91 38 30 39 31 40 32 41 85 42
REMARK SMILES IDX 33 43 90 44 84 45 86 46 34 47 89 48 83 49 82 50 35 52 69 53
REMARK SMILES IDX 48 54 68 55 49 56 52 57 67 58 87 59 50 60 51 61 66 63 88 64
REMARK SMILES IDX 53 65 36 66 37 67 46 68 38 69 39 70 45 71 47 72 40 73 41 74
REMARK SMILES IDX 42 75 43 76 44 77 70 78 71 79 80 80 72 81 73 82 79 83 81 84
REMARK SMILES IDX 74 85 75 86 76 87 77 88 78 89 54 90 55 91 64 92 56 93 57 94
REMARK SMILES IDX 63 95 65 96 58 97 59 98 60 99 61 100 62 101
REMARK H PARENT 86 51 52 62
REMARK Flexibility Score: inf
ROOT
ATOM      1  C   UNL A   1      34.973  31.552  28.217  1.00  0.00     0.202 C 
ENDROOT
BRANCH   1   2
ATOM      2  C   UNL A   1      34.540  30.500  27.194  1.00  0.00     0.261 C 
BRANCH   2   3
ATOM      3  O   UNL A   1      33.221  30.021  27.502  1.00  0.00    -0.462 OA
BRANCH   3   4
ATOM      4  C   UNL A   1      32.202  30.615  26.828  1.00  0.00     0.326 C 
ATOM      5  O   UNL A   1      32.012  31.826  26.751  1.00  0.00    -0.250 OA
BRANCH   4   6
ATOM      6  C   UNL A   1      31.433  29.630  25.947  1.00  0.00     0.248 C 
BRANCH   6   7
ATOM      7  N   UNL A   1      31.983  28.301  25.748  1.00  0.00    -0.291 N 
ATOM      8  N   UNL A   1      31.806  25.594  24.969  1.00  0.00    -0.298 N 
ATOM      9  C   UNL A   1      30.880  26.149  25.834  1.00  0.00     0.317 A 
ATOM     10  C   UNL A   1      32.566  26.494  24.168  1.00  0.00     0.068 A 
ATOM     11  O   UNL A   1      29.732  25.761  26.013  1.00  0.00    -0.263 OA
ATOM     12  C   UNL A   1      31.382  27.366  26.573  1.00  0.00     0.317 A 
ATOM     13  C   UNL A   1      32.598  27.874  24.523  1.00  0.00     0.069 A 
ATOM     14  C   UNL A   1      33.145  26.080  22.959  1.00  0.00     0.028 A 
ATOM     15  O   UNL A   1      31.081  27.533  27.749  1.00  0.00    -0.263 OA
ATOM     16  C   UNL A   1      33.258  28.780  23.681  1.00  0.00     0.028 A 
ATOM     17  C   UNL A   1      33.745  27.012  22.107  1.00  0.00     0.002 A 
ATOM     18  C   UNL A   1      33.814  28.353  22.473  1.00  0.00     0.002 A 
BRANCH   8  19
ATOM     19  C   UNL A   1      31.839  24.138  24.910  1.00  0.00     0.162 C 
BRANCH  19  20
ATOM     20  C   UNL A   1      32.869  23.644  25.928  1.00  0.00    -0.024 A 
ATOM     21  C   UNL A   1      35.099  22.700  26.233  1.00  0.00     0.119 A 
ATOM     22  C   UNL A   1      34.648  22.056  27.385  1.00  0.00     0.046 A 
ATOM     23  C   UNL A   1      34.230  23.553  25.556  1.00  0.00     0.052 A 
ATOM     24  C   UNL A   1      33.341  22.243  27.841  1.00  0.00     0.004 A 
ATOM     25  C   UNL A   1      32.445  23.016  27.105  1.00  0.00     0.006 A 
BRANCH  21  26
ATOM     26  O   UNL A   1      36.365  22.360  25.846  1.00  0.00    -0.497 OA
ATOM     27  C   UNL A   1      37.406  23.310  26.041  1.00  0.00     0.278 C 
ENDBRANCH  21  26
ENDBRANCH  19  20
ENDBRANCH   8  19
ENDBRANCH   6   7
ENDBRANCH   4   6
ENDBRANCH   3   4
ENDBRANCH   2   3
ENDBRANCH   1   2
BRANCH   1  28
ATOM     28  O   UNL A   1      35.670  32.664  27.645  1.00  0.00    -0.374 OA
BRANCH  28  29
ATOM     29  C   UNL A   1      35.975  33.751  28.522  1.00  0.00     0.202 C 
BRANCH  29  30
ATOM     30  C   UNL A   1      35.958  33.377  29.998  1.00  0.00     0.261 C 
BRANCH  30  31
ATOM     31  O   UNL A   1      37.300  33.070  30.409  1.00  0.00    -0.460 OA
BRANCH  31  32
ATOM     32  C   UNL A   1      37.387  31.975  31.193  1.00  0.00     0.338 C 
ATOM     33  O   UNL A   1      36.684  31.694  32.147  1.00  0.00    -0.246 OA
BRANCH  32  34
ATOM     34  C   UNL A   1      38.378  31.056  30.616  1.00  0.00     0.060 A 
ATOM     35  C   UNL A   1      39.410  30.616  31.449  1.00  0.00     0.016 A 
ATOM     36  C   UNL A   1      38.364  30.742  29.256  1.00  0.00     0.016 A 
ATOM     37  C   UNL A   1      40.484  29.922  30.901  1.00  0.00     0.010 A 
ATOM     38  C   UNL A   1      39.445  30.043  28.708  1.00  0.00     0.010 A 
ATOM     39  C   UNL A   1      40.533  29.680  29.520  1.00  0.00    -0.014 A 
BRANCH  39  40
ATOM     40  C   UNL A   1      41.815  29.224  28.929  1.00  0.00     0.031 A 
ATOM     41  C   UNL A   1      42.973  30.186  28.876  1.00  0.00     0.074 A 
ATOM     42  C   UNL A   1      41.976  27.951  28.528  1.00  0.00     0.049 A 
ATOM     43  N   UNL A   1      44.213  29.970  28.525  1.00  0.00    -0.248 NA
ATOM     44  C   UNL A   1      42.695  31.576  29.277  1.00  0.00     0.031 C 
ATOM     45  C   UNL A   1      40.937  26.921  28.541  1.00  0.00     0.029 A 
ATOM     46  N   UNL A   1      43.087  27.305  28.048  1.00  0.00    -0.354 N 
ATOM     47  C   UNL A   1      44.867  31.187  28.678  1.00  0.00     0.074 A 
ATOM     48  C   UNL A   1      43.878  32.149  29.113  1.00  0.00     0.031 C 
ATOM     49  C   UNL A   1      41.465  25.767  28.097  1.00  0.00     0.029 A 
ATOM     50  C   UNL A   1      42.874  25.976  27.768  1.00  0.00     0.049 A 
ATOM     51  H   UNL A   1      43.955  27.751  27.918  1.00  0.00     0.167 HD
ATOM     52  C   UNL A   1      46.177  31.476  28.494  1.00  0.00     0.037 A 
ATOM     53  C   UNL A   1      43.723  25.037  27.308  1.00  0.00     0.037 A 
ATOM     54  C   UNL A   1      47.165  30.524  28.063  1.00  0.00     0.049 A 
ATOM     55  C   UNL A   1      45.168  25.390  27.074  1.00  0.00     0.074 A 
ATOM     56  C   UNL A   1      48.522  30.717  27.868  1.00  0.00     0.029 A 
ATOM     57  N   UNL A   1      46.901  29.198  27.753  1.00  0.00    -0.354 N 
ATOM     58  N   UNL A   1      45.780  26.534  27.269  1.00  0.00    -0.248 NA
ATOM     59  C   UNL A   1      46.040  24.320  26.566  1.00  0.00     0.031 C 
ATOM     60  C   UNL A   1      49.072  29.515  27.408  1.00  0.00     0.029 A 
ATOM     61  C   UNL A   1      48.064  28.566  27.348  1.00  0.00     0.049 A 
ATOM     62  H   UNL A   1      46.016  28.770  27.813  1.00  0.00     0.167 HD
ATOM     63  C   UNL A   1      47.110  26.317  26.926  1.00  0.00     0.074 A 
ATOM     64  C   UNL A   1      47.217  24.929  26.520  1.00  0.00     0.031 C 
ATOM     65  C   UNL A   1      48.152  27.186  26.947  1.00  0.00     0.037 A 
BRANCH  52  66
ATOM     66  C   UNL A   1      46.613  32.887  28.757  1.00  0.00     0.058 A 
ATOM     67  C   UNL A   1      47.065  33.288  30.024  1.00  0.00     0.135 A 
ATOM     68  C   UNL A   1      46.592  33.844  27.732  1.00  0.00     0.135 A 
ATOM     69  F   UNL A   1      47.085  32.414  31.043  1.00  0.00    -0.206 F 
ATOM     70  C   UNL A   1      47.461  34.599  30.272  1.00  0.00     0.059 A 
ATOM     71  C   UNL A   1      47.000  35.156  27.952  1.00  0.00     0.059 A 
ATOM     72  F   UNL A   1      46.163  33.511  26.505  1.00  0.00    -0.206 F 
ATOM     73  C   UNL A   1      47.419  35.528  29.230  1.00  0.00     0.060 A 
BRANCH  73  74
ATOM     74  S   UNL A   1      47.928  37.228  29.562  1.00  0.00     0.124 S 
ATOM     75  O   UNL A   1      46.713  37.783  30.151  1.00  0.00    -0.237 OA
ATOM     76  O   UNL A   1      49.051  37.050  30.476  1.00  0.00    -0.237 OA
ATOM     77  O   UNL A   1      48.275  37.741  28.240  1.00  0.00    -0.744 OA
ENDBRANCH  73  74
ENDBRANCH  52  66
BRANCH  53  78
ATOM     78  C   UNL A   1      43.230  23.660  27.053  1.00  0.00     0.058 A 
ATOM     79  C   UNL A   1      42.987  23.208  25.750  1.00  0.00     0.135 A 
ATOM     80  C   UNL A   1      42.998  22.771  28.114  1.00  0.00     0.135 A 
ATOM     81  F   UNL A   1      43.187  24.027  24.706  1.00  0.00    -0.206 F 
ATOM     82  C   UNL A   1      42.518  21.922  25.503  1.00  0.00     0.059 A 
ATOM     83  C   UNL A   1      42.546  21.474  27.891  1.00  0.00     0.059 A 
ATOM     84  F   UNL A   1      43.227  23.157  29.378  1.00  0.00    -0.206 F 
ATOM     85  C   UNL A   1      42.299  21.062  26.582  1.00  0.00     0.060 A 
BRANCH  85  86
ATOM     86  S   UNL A   1      41.732  19.379  26.255  1.00  0.00     0.124 S 
ATOM     87  O   UNL A   1      42.456  19.060  25.030  1.00  0.00    -0.237 OA
ATOM     88  O   UNL A   1      42.163  18.668  27.456  1.00  0.00    -0.237 OA
ATOM     89  O   UNL A   1      40.288  19.536  26.115  1.00  0.00    -0.744 OA
ENDBRANCH  85  86
ENDBRANCH  53  78
BRANCH  65  90
ATOM     90  C   UNL A   1      49.497  26.662  26.532  1.00  0.00     0.058 A 
ATOM     91  C   UNL A   1      49.949  26.776  25.209  1.00  0.00     0.135 A 
ATOM     92  C   UNL A   1      50.362  26.088  27.477  1.00  0.00     0.135 A 
ATOM     93  F   UNL A   1      49.157  27.315  24.269  1.00  0.00    -0.206 F 
ATOM     94  C   UNL A   1      51.208  26.320  24.831  1.00  0.00     0.059 A 
ATOM     95  C   UNL A   1      51.632  25.642  27.125  1.00  0.00     0.059 A 
ATOM     96  F   UNL A   1      49.980  25.966  28.758  1.00  0.00    -0.206 F 
ATOM     97  C   UNL A   1      52.042  25.752  25.796  1.00  0.00     0.060 A 
BRANCH  97  98
ATOM     98  S   UNL A   1      53.688  25.193  25.306  1.00  0.00     0.124 S 
ATOM     99  O   UNL A   1      54.519  25.780  26.350  1.00  0.00    -0.237 OA
ATOM    100  O   UNL A   1      53.554  23.740  25.344  1.00  0.00    -0.237 OA
ATOM    101  O   UNL A   1      53.854  25.765  23.972  1.00  0.00    -0.744 OA
ENDBRANCH  97  98
ENDBRANCH  65  90
ENDBRANCH  39  40
ENDBRANCH  32  34
ENDBRANCH  31  32
ENDBRANCH  30  31
ENDBRANCH  29  30
ENDBRANCH  28  29
ENDBRANCH   1  28
TORSDOF 21
ENDMDL
MODEL 2
REMARK VINA RESULT:     -11.0      2.278      8.909
REMARK SMILES COc1cccc(Cn2c(=O)c(=O)n(CC(=O)OCCOCCOC(=O)c3ccc(-c4c5nc(c(-c6c(F)cc(S(=O)(=O)[O-])cc6F)c6ccc([nH]6)c(-c6c(F)cc(S(=O)(=O)[O-])cc6F)c6nc(c(-c7c(F)cc(S(=O)(=O)[O-])cc7F)c7ccc4[nH]7)C=C6)C=C5)cc3)c3ccccc32)c1
REMARK SMILES IDX 20 1 19 2 18 3 16 4 17 5 15 6 14 7 9 8 10 9 98 10 11 11
REMARK SMILES IDX 12 12 93 13 97 14 13 15 94 16 96 17 95 18 8 19 7 20 3 21
REMARK SMILES IDX 4 22 99 23 5 24 6 25 2 26 1 27 21 28 22 29 23 30 24 31 25 32
REMARK SMILES IDX 26 33 27 34 28 35 92 36 29 37 91 38 30 39 31 40 32 41 85 42
REMARK SMILES IDX 33 43 90 44 84 45 86 46 34 47 89 48 83 49 82 50 35 52 69 53
REMARK SMILES IDX 48 54 68 55 49 56 52 57 67 58 87 59 50 60 51 61 66 63 88 64
REMARK SMILES IDX 53 65 36 66 37 67 46 68 38 69 39 70 45 71 47 72 40 73 41 74
REMARK SMILES IDX 42 75 43 76 44 77 70 78 71 79 80 80 72 81 73 82 79 83 81 84
REMARK SMILES IDX 74 85 75 86 76 87 77 88 78 89 54 90 55 91 64 92 56 93 57 94
REMARK SMILES IDX 63 95 65 96 58 97 59 98 60 99 61 100 62 101
REMARK H PARENT 86 51 52 62
REMARK Flexibility Score: inf
ROOT
ATOM      1  C   UNL A   1      36.072  23.290  25.923  1.00  0.00     0.202 C 
ENDROOT
BRANCH   1   2
ATOM      2  C   UNL A   1      34.667  22.691  25.852  1.00  0.00     0.261 C 
BRANCH   2   3
ATOM      3  O   UNL A   1      33.682  23.702  26.118  1.00  0.00    -0.462 OA
BRANCH   3   4
ATOM      4  C   UNL A   1      32.471  23.254  26.543  1.00  0.00     0.326 C 
ATOM      5  O   UNL A   1      32.174  23.011  27.709  1.00  0.00    -0.250 OA
BRANCH   4   6
ATOM      6  C   UNL A   1      31.409  23.314  25.445  1.00  0.00     0.248 C 
BRANCH   6   7
ATOM      7  N   UNL A   1      31.105  24.598  24.842  1.00  0.00    -0.291 N 
ATOM      8  N   UNL A   1      31.386  27.396  24.602  1.00  0.00    -0.298 N 
ATOM      9  C   UNL A   1      31.135  26.807  25.828  1.00  0.00     0.317 A 
ATOM     10  C   UNL A   1      31.913  26.560  23.576  1.00  0.00     0.068 A 
ATOM     11  O   UNL A   1      31.418  27.273  26.927  1.00  0.00    -0.263 OA
ATOM     12  C   UNL A   1      30.480  25.451  25.736  1.00  0.00     0.317 A 
ATOM     13  C   UNL A   1      31.832  25.145  23.733  1.00  0.00     0.069 A 
ATOM     14  C   UNL A   1      32.644  27.095  22.506  1.00  0.00     0.028 A 
ATOM     15  O   UNL A   1      29.609  25.137  26.540  1.00  0.00    -0.263 OA
ATOM     16  C   UNL A   1      32.440  24.318  22.778  1.00  0.00     0.028 A 
ATOM     17  C   UNL A   1      33.293  26.249  21.600  1.00  0.00     0.002 A 
ATOM     18  C   UNL A   1      33.180  24.868  21.727  1.00  0.00     0.002 A 
BRANCH   8  19
ATOM     19  C   UNL A   1      31.164  28.835  24.521  1.00  0.00     0.162 C 
BRANCH  19  20
ATOM     20  C   UNL A   1      29.896  29.075  23.698  1.00  0.00    -0.024 A 
ATOM     21  C   UNL A   1      28.206  30.709  23.043  1.00  0.00     0.119 A 
ATOM     22  C   UNL A   1      27.279  29.673  22.922  1.00  0.00     0.046 A 
ATOM     23  C   UNL A   1      29.528  30.395  23.353  1.00  0.00     0.052 A 
ATOM     24  C   UNL A   1      27.662  28.346  23.130  1.00  0.00     0.004 A 
ATOM     25  C   UNL A   1      28.960  28.046  23.539  1.00  0.00     0.006 A 
BRANCH  21  26
ATOM     26  O   UNL A   1      27.683  31.964  22.905  1.00  0.00    -0.497 OA
ATOM     27  C   UNL A   1      28.583  33.056  22.760  1.00  0.00     0.278 C 
ENDBRANCH  21  26
ENDBRANCH  19  20
ENDBRANCH   8  19
ENDBRANCH   6   7
ENDBRANCH   4   6
ENDBRANCH   3   4
ENDBRANCH   2   3
ENDBRANCH   1   2
BRANCH   1  28
ATOM     28  O   UNL A   1      37.083  22.473  25.322  1.00  0.00    -0.374 OA
BRANCH  28  29
ATOM     29  C   UNL A   1      38.231  22.178  26.121  1.00  0.00     0.202 C 
BRANCH  29  30
ATOM     30  C   UNL A   1      39.060  21.011  25.604  1.00  0.00     0.261 C 
BRANCH  30  31
ATOM     31  O   UNL A   1      39.852  20.496  26.687  1.00  0.00    -0.460 OA
BRANCH  31  32
ATOM     32  C   UNL A   1      41.089  20.107  26.313  1.00  0.00     0.338 C 
ATOM     33  O   UNL A   1      41.399  19.070  25.754  1.00  0.00    -0.246 OA
BRANCH  32  34
ATOM     34  C   UNL A   1      42.023  21.219  26.536  1.00  0.00     0.060 A 
ATOM     35  C   UNL A   1      42.361  21.521  27.858  1.00  0.00     0.016 A 
ATOM     36  C   UNL A   1      42.450  22.025  25.479  1.00  0.00     0.016 A 
ATOM     37  C   UNL A   1      43.067  22.688  28.135  1.00  0.00     0.010 A 
ATOM     38  C   UNL A   1      43.160  23.198  25.761  1.00  0.00     0.010 A 
ATOM     39  C   UNL A   1      43.422  23.559  27.094  1.00  0.00    -0.014 A 
BRANCH  39  40
ATOM     40  C   UNL A   1      43.887  24.924  27.443  1.00  0.00     0.031 A 
ATOM     41  C   UNL A   1      45.339  25.269  27.243  1.00  0.00     0.074 A 
ATOM     42  C   UNL A   1      43.018  25.867  27.846  1.00  0.00     0.049 A 
ATOM     43  N   UNL A   1      45.939  26.424  27.357  1.00  0.00    -0.248 NA
ATOM     44  C   UNL A   1      46.233  24.163  26.858  1.00  0.00     0.031 C 
ATOM     45  C   UNL A   1      41.587  25.661  28.066  1.00  0.00     0.029 A 
ATOM     46  N   UNL A   1      43.216  27.195  28.126  1.00  0.00    -0.354 N 
ATOM     47  C   UNL A   1      47.272  26.192  27.043  1.00  0.00     0.074 A 
ATOM     48  C   UNL A   1      47.405  24.776  26.774  1.00  0.00     0.031 C 
ATOM     49  C   UNL A   1      41.032  26.829  28.437  1.00  0.00     0.029 A 
ATOM     50  C   UNL A   1      42.068  27.860  28.484  1.00  0.00     0.049 A 
ATOM     51  H   UNL A   1      44.097  27.631  28.073  1.00  0.00     0.167 HD
ATOM     52  C   UNL A   1      48.294  27.078  26.964  1.00  0.00     0.037 A 
ATOM     53  C   UNL A   1      41.876  29.154  28.803  1.00  0.00     0.037 A 
ATOM     54  C   UNL A   1      48.168  28.486  27.229  1.00  0.00     0.049 A 
ATOM     55  C   UNL A   1      43.033  30.116  28.745  1.00  0.00     0.074 A 
ATOM     56  C   UNL A   1      49.141  29.468  27.154  1.00  0.00     0.029 A 
ATOM     57  N   UNL A   1      46.996  29.112  27.625  1.00  0.00    -0.354 N 
ATOM     58  N   UNL A   1      44.278  29.888  28.400  1.00  0.00    -0.248 NA
ATOM     59  C   UNL A   1      42.756  31.513  29.112  1.00  0.00     0.031 C 
ATOM     60  C   UNL A   1      48.564  30.684  27.538  1.00  0.00     0.029 A 
ATOM     61  C   UNL A   1      47.226  30.464  27.821  1.00  0.00     0.049 A 
ATOM     62  H   UNL A   1      46.130  28.662  27.750  1.00  0.00     0.167 HD
ATOM     63  C   UNL A   1      44.928  31.114  28.489  1.00  0.00     0.074 A 
ATOM     64  C   UNL A   1      43.937  32.084  28.912  1.00  0.00     0.031 C 
ATOM     65  C   UNL A   1      46.228  31.413  28.242  1.00  0.00     0.037 A 
BRANCH  52  66
ATOM     66  C   UNL A   1      49.640  26.542  26.577  1.00  0.00     0.058 A 
ATOM     67  C   UNL A   1      50.014  26.406  25.231  1.00  0.00     0.135 A 
ATOM     68  C   UNL A   1      50.571  26.172  27.560  1.00  0.00     0.135 A 
ATOM     69  F   UNL A   1      49.151  26.729  24.254  1.00  0.00    -0.206 F 
ATOM     70  C   UNL A   1      51.259  25.901  24.871  1.00  0.00     0.059 A 
ATOM     71  C   UNL A   1      51.829  25.681  27.222  1.00  0.00     0.059 A 
ATOM     72  F   UNL A   1      50.259  26.277  28.860  1.00  0.00    -0.206 F 
ATOM     73  C   UNL A   1      52.158  25.535  25.874  1.00  0.00     0.060 A 
BRANCH  73  74
ATOM     74  S   UNL A   1      53.769  24.873  25.399  1.00  0.00     0.124 S 
ATOM     75  O   UNL A   1      54.144  25.777  24.316  1.00  0.00    -0.237 OA
ATOM     76  O   UNL A   1      54.541  25.005  26.630  1.00  0.00    -0.237 OA
ATOM     77  O   UNL A   1      53.467  23.503  24.997  1.00  0.00    -0.744 OA
ENDBRANCH  73  74
ENDBRANCH  52  66
BRANCH  53  78
ATOM     78  C   UNL A   1      40.522  29.624  29.192  1.00  0.00     0.058 A 
ATOM     79  C   UNL A   1      39.495  29.736  28.245  1.00  0.00     0.135 A 
ATOM     80  C   UNL A   1      40.233  29.967  30.521  1.00  0.00     0.135 A 
ATOM     81  F   UNL A   1      39.729  29.427  26.960  1.00  0.00    -0.206 F 
ATOM     82  C   UNL A   1      38.226  30.183  28.599  1.00  0.00     0.059 A 
ATOM     83  C   UNL A   1      38.967  30.400  30.903  1.00  0.00     0.059 A 
ATOM     84  F   UNL A   1      41.183  29.866  31.463  1.00  0.00    -0.206 F 
ATOM     85  C   UNL A   1      37.973  30.514  29.932  1.00  0.00     0.060 A 
BRANCH  85  86
ATOM     86  S   UNL A   1      36.313  31.052  30.397  1.00  0.00     0.124 S 
ATOM     87  O   UNL A   1      35.630  31.041  29.108  1.00  0.00    -0.237 OA
ATOM     88  O   UNL A   1      35.905  30.018  31.345  1.00  0.00    -0.237 OA
ATOM     89  O   UNL A   1      36.542  32.370  30.981  1.00  0.00    -0.744 OA
ENDBRANCH  85  86
ENDBRANCH  53  78
BRANCH  65  90
ATOM     90  C   UNL A   1      46.651  32.845  28.408  1.00  0.00     0.058 A 
ATOM     91  C   UNL A   1      46.526  33.770  27.361  1.00  0.00     0.135 A 
ATOM     92  C   UNL A   1      47.140  33.306  29.641  1.00  0.00     0.135 A 
ATOM     93  F   UNL A   1      46.067  33.376  26.163  1.00  0.00    -0.206 F 
ATOM     94  C   UNL A   1      46.888  35.103  27.525  1.00  0.00     0.059 A 
ATOM     95  C   UNL A   1      47.491  34.639  29.832  1.00  0.00     0.059 A 
ATOM     96  F   UNL A   1      47.268  32.462  30.676  1.00  0.00    -0.206 F 
ATOM     97  C   UNL A   1      47.372  35.528  28.764  1.00  0.00     0.060 A 
BRANCH  97  98
ATOM     98  S   UNL A   1      47.809  37.267  28.979  1.00  0.00     0.124 S 
ATOM     99  O   UNL A   1      47.070  37.892  27.888  1.00  0.00    -0.237 OA
ATOM    100  O   UNL A   1      47.317  37.554  30.323  1.00  0.00    -0.237 OA
ATOM    101  O   UNL A   1      49.263  37.269  28.838  1.00  0.00    -0.744 OA
ENDBRANCH  97  98
ENDBRANCH  65  90
ENDBRANCH  39  40
ENDBRANCH  32  34
ENDBRANCH  31  32
ENDBRANCH  30  31
ENDBRANCH  29  30
ENDBRANCH  28  29
ENDBRANCH   1  28
TORSDOF 21
ENDMDL
MODEL 3
REMARK VINA RESULT:     -11.0      2.852      9.554
REMARK SMILES COc1cccc(Cn2c(=O)c(=O)n(CC(=O)OCCOCCOC(=O)c3ccc(-c4c5nc(c(-c6c(F)cc(S(=O)(=O)[O-])cc6F)c6ccc([nH]6)c(-c6c(F)cc(S(=O)(=O)[O-])cc6F)c6nc(c(-c7c(F)cc(S(=O)(=O)[O-])cc7F)c7ccc4[nH]7)C=C6)C=C5)cc3)c3ccccc32)c1
REMARK SMILES IDX 20 1 19 2 18 3 16 4 17 5 15 6 14 7 9 8 10 9 98 10 11 11
REMARK SMILES IDX 12 12 93 13 97 14 13 15 94 16 96 17 95 18 8 19 7 20 3 21
REMARK SMILES IDX 4 22 99 23 5 24 6 25 2 26 1 27 21 28 22 29 23 30 24 31 25 32
REMARK SMILES IDX 26 33 27 34 28 35 92 36 29 37 91 38 30 39 31 40 32 41 85 42
REMARK SMILES IDX 33 43 90 44 84 45 86 46 34 47 89 48 83 49 82 50 35 52 69 53
REMARK SMILES IDX 48 54 68 55 49 56 52 57 67 58 87 59 50 60 51 61 66 63 88 64
REMARK SMILES IDX 53 65 36 66 37 67 46 68 38 69 39 70 45 71 47 72 40 73 41 74
REMARK SMILES IDX 42 75 43 76 44 77 70 78 71 79 80 80 72 81 73 82 79 83 81 84
REMARK SMILES IDX 74 85 75 86 76 87 77 88 78 89 54 90 55 91 64 92 56 93 57 94
REMARK SMILES IDX 63 95 65 96 58 97 59 98 60 99 61 100 62 101
REMARK H PARENT 86 51 52 62
REMARK Flexibility Score: inf
ROOT
ATOM      1  C   UNL A   1      34.866  22.377  24.788  1.00  0.00     0.202 C 
ENDROOT
BRANCH   1   2
ATOM      2  C   UNL A   1      34.113  22.685  26.084  1.00  0.00     0.261 C 
BRANCH   2   3
ATOM      3  O   UNL A   1      32.775  22.168  26.015  1.00  0.00    -0.462 OA
BRANCH   3   4
ATOM      4  C   UNL A   1      31.801  22.974  26.513  1.00  0.00     0.326 C 
ATOM      5  O   UNL A   1      31.793  23.467  27.638  1.00  0.00    -0.250 OA
BRANCH   4   6
ATOM      6  C   UNL A   1      30.811  23.423  25.438  1.00  0.00     0.248 C 
BRANCH   6   7
ATOM      7  N   UNL A   1      30.834  24.809  25.008  1.00  0.00    -0.291 N 
ATOM      8  N   UNL A   1      31.671  27.496  25.219  1.00  0.00    -0.298 N 
ATOM      9  C   UNL A   1      31.161  26.821  26.312  1.00  0.00     0.317 A 
ATOM     10  C   UNL A   1      32.154  26.707  24.135  1.00  0.00     0.068 A 
ATOM     11  O   UNL A   1      31.388  27.074  27.490  1.00  0.00    -0.263 OA
ATOM     12  C   UNL A   1      30.276  25.652  25.955  1.00  0.00     0.317 A 
ATOM     13  C   UNL A   1      31.786  25.331  24.069  1.00  0.00     0.069 A 
ATOM     14  C   UNL A   1      33.102  27.211  23.233  1.00  0.00     0.028 A 
ATOM     15  O   UNL A   1      29.268  25.425  26.614  1.00  0.00    -0.263 OA
ATOM     16  C   UNL A   1      32.340  24.525  23.065  1.00  0.00     0.028 A 
ATOM     17  C   UNL A   1      33.686  26.372  22.279  1.00  0.00     0.002 A 
ATOM     18  C   UNL A   1      33.296  25.039  22.186  1.00  0.00     0.002 A 
BRANCH   8  19
ATOM     19  C   UNL A   1      31.740  28.948  25.333  1.00  0.00     0.162 C 
BRANCH  19  20
ATOM     20  C   UNL A   1      32.827  29.294  26.354  1.00  0.00    -0.024 A 
ATOM     21  C   UNL A   1      33.771  31.045  27.768  1.00  0.00     0.119 A 
ATOM     22  C   UNL A   1      35.023  30.445  27.642  1.00  0.00     0.046 A 
ATOM     23  C   UNL A   1      32.666  30.423  27.188  1.00  0.00     0.052 A 
ATOM     24  C   UNL A   1      35.175  29.253  26.930  1.00  0.00     0.004 A 
ATOM     25  C   UNL A   1      34.086  28.689  26.267  1.00  0.00     0.006 A 
BRANCH  21  26
ATOM     26  O   UNL A   1      33.776  32.252  28.409  1.00  0.00    -0.497 OA
ATOM     27  C   UNL A   1      33.350  33.401  27.686  1.00  0.00     0.278 C 
ENDBRANCH  21  26
ENDBRANCH  19  20
ENDBRANCH   8  19
ENDBRANCH   6   7
ENDBRANCH   4   6
ENDBRANCH   3   4
ENDBRANCH   2   3
ENDBRANCH   1   2
BRANCH   1  28
ATOM     28  O   UNL A   1      35.251  21.004  24.654  1.00  0.00    -0.374 OA
BRANCH  28  29
ATOM     29  C   UNL A   1      36.604  20.681  24.980  1.00  0.00     0.202 C 
BRANCH  29  30
ATOM     30  C   UNL A   1      37.570  21.850  24.839  1.00  0.00     0.261 C 
BRANCH  30  31
ATOM     31  O   UNL A   1      37.913  22.322  26.152  1.00  0.00    -0.460 OA
BRANCH  31  32
ATOM     32  C   UNL A   1      39.229  22.582  26.305  1.00  0.00     0.338 C 
ATOM     33  O   UNL A   1      40.163  21.876  25.970  1.00  0.00    -0.246 OA
BRANCH  32  34
ATOM     34  C   UNL A   1      39.387  23.956  26.802  1.00  0.00     0.060 A 
ATOM     35  C   UNL A   1      39.987  24.884  25.947  1.00  0.00     0.016 A 
ATOM     36  C   UNL A   1      39.072  24.286  28.121  1.00  0.00     0.016 A 
ATOM     37  C   UNL A   1      40.351  26.134  26.440  1.00  0.00     0.010 A 
ATOM     38  C   UNL A   1      39.439  25.543  28.614  1.00  0.00     0.010 A 
ATOM     39  C   UNL A   1      40.129  26.449  27.789  1.00  0.00    -0.014 A 
BRANCH  39  40
ATOM     40  C   UNL A   1      40.799  27.646  28.353  1.00  0.00     0.031 A 
ATOM     41  C   UNL A   1      42.297  27.757  28.244  1.00  0.00     0.074 A 
ATOM     42  C   UNL A   1      40.083  28.657  28.873  1.00  0.00     0.049 A 
ATOM     43  N   UNL A   1      43.077  28.761  28.548  1.00  0.00    -0.248 NA
ATOM     44  C   UNL A   1      43.010  26.580  27.718  1.00  0.00     0.031 C 
ATOM     45  C   UNL A   1      38.628  28.675  29.022  1.00  0.00     0.029 A 
ATOM     46  N   UNL A   1      40.487  29.876  29.356  1.00  0.00    -0.354 N 
ATOM     47  C   UNL A   1      44.366  28.348  28.235  1.00  0.00     0.074 A 
ATOM     48  C   UNL A   1      44.271  26.985  27.758  1.00  0.00     0.031 C 
ATOM     49  C   UNL A   1      38.261  29.855  29.553  1.00  0.00     0.029 A 
ATOM     50  C   UNL A   1      39.452  30.672  29.782  1.00  0.00     0.049 A 
ATOM     51  H   UNL A   1      41.432  30.154  29.393  1.00  0.00     0.167 HD
ATOM     52  C   UNL A   1      45.525  29.044  28.318  1.00  0.00     0.037 A 
ATOM     53  C   UNL A   1      39.465  31.919  30.290  1.00  0.00     0.037 A 
ATOM     54  C   UNL A   1      45.626  30.398  28.790  1.00  0.00     0.049 A 
ATOM     55  C   UNL A   1      40.770  32.662  30.408  1.00  0.00     0.074 A 
ATOM     56  C   UNL A   1      46.753  31.195  28.891  1.00  0.00     0.029 A 
ATOM     57  N   UNL A   1      44.558  31.155  29.248  1.00  0.00    -0.354 N 
ATOM     58  N   UNL A   1      41.974  32.273  30.064  1.00  0.00    -0.248 NA
ATOM     59  C   UNL A   1      40.715  34.017  30.976  1.00  0.00     0.031 C 
ATOM     60  C   UNL A   1      46.371  32.424  29.441  1.00  0.00     0.029 A 
ATOM     61  C   UNL A   1      45.002  32.402  29.653  1.00  0.00     0.049 A 
ATOM     62  H   UNL A   1      43.623  30.850  29.281  1.00  0.00     0.167 HD
ATOM     63  C   UNL A   1      42.817  33.340  30.354  1.00  0.00     0.074 A 
ATOM     64  C   UNL A   1      41.984  34.396  30.894  1.00  0.00     0.031 C 
ATOM     65  C   UNL A   1      44.159  33.440  30.188  1.00  0.00     0.037 A 
BRANCH  52  66
ATOM     66  C   UNL A   1      46.780  28.342  27.888  1.00  0.00     0.058 A 
ATOM     67  C   UNL A   1      47.245  28.421  26.566  1.00  0.00     0.135 A 
ATOM     68  C   UNL A   1      47.531  27.595  28.807  1.00  0.00     0.135 A 
ATOM     69  F   UNL A   1      46.550  29.108  25.645  1.00  0.00    -0.206 F 
ATOM     70  C   UNL A   1      48.404  27.764  26.164  1.00  0.00     0.059 A 
ATOM     71  C   UNL A   1      48.703  26.945  28.431  1.00  0.00     0.059 A 
ATOM     72  F   UNL A   1      47.125  27.484  30.081  1.00  0.00    -0.206 F 
ATOM     73  C   UNL A   1      49.123  27.023  27.103  1.00  0.00     0.060 A 
BRANCH  73  74
ATOM     74  S   UNL A   1      50.621  26.167  26.572  1.00  0.00     0.124 S 
ATOM     75  O   UNL A   1      50.462  24.873  27.227  1.00  0.00    -0.237 OA
ATOM     76  O   UNL A   1      50.484  26.162  25.119  1.00  0.00    -0.237 OA
ATOM     77  O   UNL A   1      51.694  27.008  27.093  1.00  0.00    -0.744 OA
ENDBRANCH  73  74
ENDBRANCH  52  66
BRANCH  53  78
ATOM     78  C   UNL A   1      38.192  32.557  30.711  1.00  0.00     0.058 A 
ATOM     79  C   UNL A   1      37.725  32.441  32.027  1.00  0.00     0.135 A 
ATOM     80  C   UNL A   1      37.423  33.297  29.801  1.00  0.00     0.135 A 
ATOM     81  F   UNL A   1      38.425  31.735  32.928  1.00  0.00    -0.206 F 
ATOM     82  C   UNL A   1      36.530  33.029  32.428  1.00  0.00     0.059 A 
ATOM     83  C   UNL A   1      36.232  33.909  30.183  1.00  0.00     0.059 A 
ATOM     84  F   UNL A   1      37.835  33.443  28.533  1.00  0.00    -0.206 F 
ATOM     85  C   UNL A   1      35.789  33.760  31.496  1.00  0.00     0.060 A 
BRANCH  85  86
ATOM     86  S   UNL A   1      34.260  34.559  32.031  1.00  0.00     0.124 S 
ATOM     87  O   UNL A   1      33.708  33.557  32.934  1.00  0.00    -0.237 OA
ATOM     88  O   UNL A   1      34.752  35.783  32.657  1.00  0.00    -0.237 OA
ATOM     89  O   UNL A   1      33.533  34.754  30.780  1.00  0.00    -0.744 OA
ENDBRANCH  85  86
ENDBRANCH  53  78
BRANCH  65  90
ATOM     90  C   UNL A   1      44.810  34.736  30.581  1.00  0.00     0.058 A 
ATOM     91  C   UNL A   1      45.294  34.946  31.881  1.00  0.00     0.135 A 
ATOM     92  C   UNL A   1      44.996  35.757  29.636  1.00  0.00     0.135 A 
ATOM     93  F   UNL A   1      45.137  34.000  32.821  1.00  0.00    -0.206 F 
ATOM     94  C   UNL A   1      45.925  36.133  32.237  1.00  0.00     0.059 A 
ATOM     95  C   UNL A   1      45.640  36.946  29.965  1.00  0.00     0.059 A 
ATOM     96  F   UNL A   1      44.559  35.600  28.376  1.00  0.00    -0.206 F 
ATOM     97  C   UNL A   1      46.091  37.129  31.272  1.00  0.00     0.060 A 
BRANCH  97  98
ATOM     98  S   UNL A   1      46.941  38.655  31.732  1.00  0.00     0.124 S 
ATOM     99  O   UNL A   1      46.889  39.406  30.483  1.00  0.00    -0.237 OA
ATOM    100  O   UNL A   1      46.109  39.167  32.816  1.00  0.00    -0.237 OA
ATOM    101  O   UNL A   1      48.267  38.193  32.135  1.00  0.00    -0.744 OA
ENDBRANCH  97  98
ENDBRANCH  65  90
ENDBRANCH  39  40
ENDBRANCH  32  34
ENDBRANCH  31  32
ENDBRANCH  30  31
ENDBRANCH  29  30
ENDBRANCH  28  29
ENDBRANCH   1  28
TORSDOF 21
ENDMDL
