MODEL 1
REMARK VINA RESULT:      -7.6      0.000      0.000
REMARK SMILES CCCN(C(=O)Cc1c(C(=O)OCCOCCOC(=O)c2ccc(-c3c4nc(c(-c5c(F)cc(S(=O)(=O)[O-])cc5F)c5ccc([nH]5)c(-c5c(F)cc(S(=O)(=O)[O-])cc5F)c5nc(c(-c6c(F)cc(S(=O)(=O)[O-])cc6F)c6ccc3[nH]6)C=C5)C=C4)cc2)c(C)cn1CC)c1cccc(Cl)c1
REMARK SMILES IDX 14 1 13 2 12 3 10 4 11 5 9 6 8 7 90 8 87 9 89 10 88 11 7 12
REMARK SMILES IDX 5 13 6 14 4 15 3 16 2 17 1 18 93 19 94 20 99 21 95 22 97 23
REMARK SMILES IDX 96 24 98 25 91 26 92 27 15 28 16 29 17 30 18 31 19 32 20 33
REMARK SMILES IDX 21 34 22 35 86 36 23 37 85 38 24 39 25 40 26 41 79 42 27 43
REMARK SMILES IDX 84 44 78 45 80 46 28 47 83 48 77 49 76 50 29 52 63 53 42 54
REMARK SMILES IDX 62 55 43 56 46 57 61 58 81 59 44 60 45 61 60 63 82 64 47 65
REMARK SMILES IDX 30 66 31 67 40 68 32 69 33 70 39 71 41 72 34 73 35 74 36 75
REMARK SMILES IDX 37 76 38 77 64 78 65 79 74 80 66 81 67 82 73 83 75 84 68 85
REMARK SMILES IDX 69 86 70 87 71 88 72 89 48 90 49 91 58 92 50 93 51 94 57 95
REMARK SMILES IDX 59 96 52 97 53 98 54 99 55 100 56 101
REMARK H PARENT 80 51 46 62
REMARK Flexibility Score: inf
ROOT
ATOM      1  C   UNL A   1      38.332  33.964  35.199  1.00  0.00     0.202 C 
ENDROOT
BRANCH   1   2
ATOM      2  C   UNL A   1      37.133  34.439  34.345  1.00  0.00     0.261 C 
BRANCH   2   3
ATOM      3  O   UNL A   1      36.547  33.506  33.431  1.00  0.00    -0.460 OA
BRANCH   3   4
ATOM      4  C   UNL A   1      35.200  33.618  33.434  1.00  0.00     0.340 C 
ATOM      5  O   UNL A   1      34.527  33.093  34.330  1.00  0.00    -0.246 OA
BRANCH   4   6
ATOM      6  C   UNL A   1      34.590  34.380  32.363  1.00  0.00     0.084 A 
ATOM      7  C   UNL A   1      34.548  34.045  30.997  1.00  0.00     0.042 A 
ATOM      8  N   UNL A   1      33.785  35.031  30.383  1.00  0.00    -0.350 N 
ATOM      9  C   UNL A   1      34.053  35.707  32.493  1.00  0.00    -0.019 A 
ATOM     10  C   UNL A   1      33.579  36.070  31.253  1.00  0.00     0.090 A 
ATOM     11  C   UNL A   1      34.068  36.572  33.704  1.00  0.00     0.047 C 
BRANCH   7  12
ATOM     12  C   UNL A   1      35.156  32.932  30.154  1.00  0.00     0.155 C 
BRANCH  12  13
ATOM     13  C   UNL A   1      36.557  33.095  29.583  1.00  0.00     0.232 C 
ATOM     14  O   UNL A   1      36.654  33.826  28.587  1.00  0.00    -0.274 OA
BRANCH  13  15
ATOM     15  N   UNL A   1      37.660  32.476  30.204  1.00  0.00    -0.312 N 
BRANCH  15  16
ATOM     16  C   UNL A   1      38.674  33.192  31.022  1.00  0.00     0.125 C 
BRANCH  16  17
ATOM     17  C   UNL A   1      40.005  33.730  30.444  1.00  0.00     0.019 C 
ATOM     18  C   UNL A   1      39.891  34.853  29.411  1.00  0.00     0.006 C 
ENDBRANCH  16  17
ENDBRANCH  15  16
BRANCH  15  19
ATOM     19  C   UNL A   1      37.882  31.064  29.954  1.00  0.00     0.045 A 
ATOM     20  C   UNL A   1      37.569  30.085  30.908  1.00  0.00     0.026 A 
ATOM     21  C   UNL A   1      38.523  30.636  28.785  1.00  0.00     0.046 A 
ATOM     22  C   UNL A   1      37.907  28.738  30.711  1.00  0.00     0.004 A 
ATOM     23  C   UNL A   1      38.864  29.294  28.588  1.00  0.00     0.043 A 
ATOM     24  C   UNL A   1      38.563  28.342  29.551  1.00  0.00     0.020 A 
ATOM     25  Cl  UNL A   1      39.710  28.829  27.158  1.00  0.00    -0.084 Cl
ENDBRANCH  15  19
ENDBRANCH  13  15
ENDBRANCH  12  13
ENDBRANCH   7  12
BRANCH   8  26
ATOM     26  C   UNL A   1      33.201  35.012  29.047  1.00  0.00     0.118 C 
ATOM     27  C   UNL A   1      32.901  36.378  28.451  1.00  0.00     0.027 C 
ENDBRANCH   8  26
ENDBRANCH   4   6
ENDBRANCH   3   4
ENDBRANCH   2   3
ENDBRANCH   1   2
BRANCH   1  28
ATOM     28  O   UNL A   1      38.273  33.148  36.358  1.00  0.00    -0.374 OA
BRANCH  28  29
ATOM     29  C   UNL A   1      37.970  31.761  36.408  1.00  0.00     0.202 C 
BRANCH  29  30
ATOM     30  C   UNL A   1      39.027  30.680  36.250  1.00  0.00     0.261 C 
BRANCH  30  31
ATOM     31  O   UNL A   1      38.827  29.999  35.039  1.00  0.00    -0.460 OA
BRANCH  31  32
ATOM     32  C   UNL A   1      39.723  30.373  34.109  1.00  0.00     0.338 C 
ATOM     33  O   UNL A   1      39.761  31.419  33.482  1.00  0.00    -0.246 OA
BRANCH  32  34
ATOM     34  C   UNL A   1      40.682  29.278  33.951  1.00  0.00     0.060 A 
ATOM     35  C   UNL A   1      41.867  29.499  34.636  1.00  0.00     0.016 A 
ATOM     36  C   UNL A   1      40.576  28.444  32.825  1.00  0.00     0.016 A 
ATOM     37  C   UNL A   1      42.997  29.312  33.906  1.00  0.00     0.010 A 
ATOM     38  C   UNL A   1      41.711  28.227  32.108  1.00  0.00     0.010 A 
ATOM     39  C   UNL A   1      42.866  28.808  32.602  1.00  0.00    -0.014 A 
BRANCH  39  40
ATOM     40  C   UNL A   1      44.040  28.886  31.783  1.00  0.00     0.031 A 
ATOM     41  C   UNL A   1      44.026  30.130  31.014  1.00  0.00     0.074 A 
ATOM     42  C   UNL A   1      44.965  27.917  31.756  1.00  0.00     0.049 A 
ATOM     43  N   UNL A   1      43.665  30.274  29.787  1.00  0.00    -0.248 NA
ATOM     44  C   UNL A   1      44.128  31.383  31.777  1.00  0.00     0.031 C 
ATOM     45  C   UNL A   1      45.152  26.822  32.715  1.00  0.00     0.029 A 
ATOM     46  N   UNL A   1      46.012  27.772  30.905  1.00  0.00    -0.354 N 
ATOM     47  C   UNL A   1      43.807  31.631  29.552  1.00  0.00     0.074 A 
ATOM     48  C   UNL A   1      43.809  32.274  30.838  1.00  0.00     0.031 C 
ATOM     49  C   UNL A   1      46.381  26.288  32.531  1.00  0.00     0.029 A 
ATOM     50  C   UNL A   1      46.984  26.898  31.358  1.00  0.00     0.049 A 
ATOM     51  H   UNL A   1      46.072  28.245  30.044  1.00  0.00     0.167 HD
ATOM     52  C   UNL A   1      44.316  32.049  28.365  1.00  0.00     0.037 A 
ATOM     53  C   UNL A   1      48.231  26.781  30.844  1.00  0.00     0.037 A 
ATOM     54  C   UNL A   1      44.266  31.000  27.376  1.00  0.00     0.049 A 
ATOM     55  C   UNL A   1      48.188  27.290  29.446  1.00  0.00     0.074 A 
ATOM     56  C   UNL A   1      43.292  30.413  26.599  1.00  0.00     0.029 A 
ATOM     57  N   UNL A   1      45.339  30.144  27.408  1.00  0.00    -0.354 N 
ATOM     58  N   UNL A   1      47.481  26.730  28.498  1.00  0.00    -0.248 NA
ATOM     59  C   UNL A   1      48.628  28.653  29.161  1.00  0.00     0.031 C 
ATOM     60  C   UNL A   1      43.771  29.112  26.267  1.00  0.00     0.029 A 
ATOM     61  C   UNL A   1      45.033  28.936  26.835  1.00  0.00     0.049 A 
ATOM     62  H   UNL A   1      46.216  30.368  27.793  1.00  0.00     0.167 HD
ATOM     63  C   UNL A   1      47.052  27.783  27.710  1.00  0.00     0.074 A 
ATOM     64  C   UNL A   1      47.914  28.902  28.058  1.00  0.00     0.031 C 
ATOM     65  C   UNL A   1      45.837  27.755  27.088  1.00  0.00     0.037 A 
BRANCH  52  66
ATOM     66  C   UNL A   1      45.302  33.182  28.258  1.00  0.00     0.058 A 
ATOM     67  C   UNL A   1      45.014  34.251  27.391  1.00  0.00     0.135 A 
ATOM     68  C   UNL A   1      46.631  33.123  28.742  1.00  0.00     0.135 A 
ATOM     69  F   UNL A   1      43.790  34.384  26.858  1.00  0.00    -0.206 F 
ATOM     70  C   UNL A   1      45.990  35.164  26.995  1.00  0.00     0.059 A 
ATOM     71  C   UNL A   1      47.599  34.057  28.410  1.00  0.00     0.059 A 
ATOM     72  F   UNL A   1      47.093  32.103  29.473  1.00  0.00    -0.206 F 
ATOM     73  C   UNL A   1      47.282  35.051  27.504  1.00  0.00     0.060 A 
BRANCH  73  74
ATOM     74  S   UNL A   1      48.569  36.167  26.933  1.00  0.00     0.124 S 
ATOM     75  O   UNL A   1      49.629  35.904  27.899  1.00  0.00    -0.237 OA
ATOM     76  O   UNL A   1      48.802  35.690  25.574  1.00  0.00    -0.237 OA
ATOM     77  O   UNL A   1      47.940  37.482  27.028  1.00  0.00    -0.744 OA
ENDBRANCH  73  74
ENDBRANCH  52  66
BRANCH  53  78
ATOM     78  C   UNL A   1      49.482  26.603  31.622  1.00  0.00     0.058 A 
ATOM     79  C   UNL A   1      49.738  27.356  32.779  1.00  0.00     0.135 A 
ATOM     80  C   UNL A   1      50.344  25.511  31.382  1.00  0.00     0.135 A 
ATOM     81  F   UNL A   1      48.946  28.391  33.096  1.00  0.00    -0.206 F 
ATOM     82  C   UNL A   1      50.773  27.029  33.662  1.00  0.00     0.059 A 
ATOM     83  C   UNL A   1      51.387  25.173  32.240  1.00  0.00     0.059 A 
ATOM     84  F   UNL A   1      50.144  24.683  30.345  1.00  0.00    -0.206 F 
ATOM     85  C   UNL A   1      51.583  25.926  33.390  1.00  0.00     0.060 A 
BRANCH  85  86
ATOM     86  S   UNL A   1      52.831  25.419  34.597  1.00  0.00     0.124 S 
ATOM     87  O   UNL A   1      52.269  25.929  35.842  1.00  0.00    -0.237 OA
ATOM     88  O   UNL A   1      52.834  23.968  34.444  1.00  0.00    -0.237 OA
ATOM     89  O   UNL A   1      54.041  26.095  34.138  1.00  0.00    -0.744 OA
ENDBRANCH  85  86
ENDBRANCH  53  78
BRANCH  65  90
ATOM     90  C   UNL A   1      45.239  26.416  26.773  1.00  0.00     0.058 A 
ATOM     91  C   UNL A   1      44.350  25.714  27.602  1.00  0.00     0.135 A 
ATOM     92  C   UNL A   1      45.512  25.868  25.509  1.00  0.00     0.135 A 
ATOM     93  F   UNL A   1      43.985  26.211  28.793  1.00  0.00    -0.206 F 
ATOM     94  C   UNL A   1      43.775  24.506  27.199  1.00  0.00     0.059 A 
ATOM     95  C   UNL A   1      44.928  24.683  25.075  1.00  0.00     0.059 A 
ATOM     96  F   UNL A   1      46.320  26.517  24.655  1.00  0.00    -0.206 F 
ATOM     97  C   UNL A   1      44.067  24.000  25.930  1.00  0.00     0.060 A 
BRANCH  97  98
ATOM     98  S   UNL A   1      43.265  22.482  25.372  1.00  0.00     0.124 S 
ATOM     99  O   UNL A   1      43.388  22.583  23.922  1.00  0.00    -0.237 OA
ATOM    100  O   UNL A   1      44.072  21.444  26.007  1.00  0.00    -0.237 OA
ATOM    101  O   UNL A   1      41.905  22.604  25.891  1.00  0.00    -0.744 OA
ENDBRANCH  97  98
ENDBRANCH  65  90
ENDBRANCH  39  40
ENDBRANCH  32  34
ENDBRANCH  31  32
ENDBRANCH  30  31
ENDBRANCH  29  30
ENDBRANCH  28  29
ENDBRANCH   1  28
TORSDOF 24
ENDMDL
MODEL 2
REMARK VINA RESULT:      -7.6      5.371     10.551
REMARK SMILES CCCN(C(=O)Cc1c(C(=O)OCCOCCOC(=O)c2ccc(-c3c4nc(c(-c5c(F)cc(S(=O)(=O)[O-])cc5F)c5ccc([nH]5)c(-c5c(F)cc(S(=O)(=O)[O-])cc5F)c5nc(c(-c6c(F)cc(S(=O)(=O)[O-])cc6F)c6ccc3[nH]6)C=C5)C=C4)cc2)c(C)cn1CC)c1cccc(Cl)c1
REMARK SMILES IDX 14 1 13 2 12 3 10 4 11 5 9 6 8 7 90 8 87 9 89 10 88 11 7 12
REMARK SMILES IDX 5 13 6 14 4 15 3 16 2 17 1 18 93 19 94 20 99 21 95 22 97 23
REMARK SMILES IDX 96 24 98 25 91 26 92 27 15 28 16 29 17 30 18 31 19 32 20 33
REMARK SMILES IDX 21 34 22 35 86 36 23 37 85 38 24 39 25 40 26 41 79 42 27 43
REMARK SMILES IDX 84 44 78 45 80 46 28 47 83 48 77 49 76 50 29 52 63 53 42 54
REMARK SMILES IDX 62 55 43 56 46 57 61 58 81 59 44 60 45 61 60 63 82 64 47 65
REMARK SMILES IDX 30 66 31 67 40 68 32 69 33 70 39 71 41 72 34 73 35 74 36 75
REMARK SMILES IDX 37 76 38 77 64 78 65 79 74 80 66 81 67 82 73 83 75 84 68 85
REMARK SMILES IDX 69 86 70 87 71 88 72 89 48 90 49 91 58 92 50 93 51 94 57 95
REMARK SMILES IDX 59 96 52 97 53 98 54 99 55 100 56 101
REMARK H PARENT 80 51 46 62
REMARK Flexibility Score: inf
ROOT
ATOM      1  C   UNL A   1      37.393  33.228  36.904  1.00  0.00     0.202 C 
ENDROOT
BRANCH   1   2
ATOM      2  C   UNL A   1      37.602  31.836  37.543  1.00  0.00     0.261 C 
BRANCH   2   3
ATOM      3  O   UNL A   1      38.281  31.769  38.801  1.00  0.00    -0.460 OA
BRANCH   3   4
ATOM      4  C   UNL A   1      37.462  32.153  39.806  1.00  0.00     0.340 C 
ATOM      5  O   UNL A   1      36.291  32.480  39.573  1.00  0.00    -0.246 OA
BRANCH   4   6
ATOM      6  C   UNL A   1      38.006  32.153  41.149  1.00  0.00     0.084 A 
ATOM      7  C   UNL A   1      37.396  31.651  42.314  1.00  0.00     0.042 A 
ATOM      8  N   UNL A   1      38.333  31.796  43.330  1.00  0.00    -0.350 N 
ATOM      9  C   UNL A   1      39.213  32.821  41.555  1.00  0.00    -0.019 A 
ATOM     10  C   UNL A   1      39.369  32.582  42.901  1.00  0.00     0.090 A 
ATOM     11  C   UNL A   1      40.096  33.676  40.715  1.00  0.00     0.047 C 
BRANCH   7  12
ATOM     12  C   UNL A   1      36.024  31.072  42.634  1.00  0.00     0.155 C 
BRANCH  12  13
ATOM     13  C   UNL A   1      34.971  31.946  43.298  1.00  0.00     0.232 C 
ATOM     14  O   UNL A   1      34.103  32.412  42.547  1.00  0.00    -0.274 OA
BRANCH  13  15
ATOM     15  N   UNL A   1      34.985  32.150  44.693  1.00  0.00    -0.312 N 
BRANCH  15  16
ATOM     16  C   UNL A   1      35.476  33.388  45.354  1.00  0.00     0.125 C 
BRANCH  16  17
ATOM     17  C   UNL A   1      36.022  34.608  44.574  1.00  0.00     0.019 C 
ATOM     18  C   UNL A   1      37.514  34.906  44.740  1.00  0.00     0.006 C 
ENDBRANCH  16  17
ENDBRANCH  15  16
BRANCH  15  19
ATOM     19  C   UNL A   1      34.587  31.049  45.549  1.00  0.00     0.045 A 
ATOM     20  C   UNL A   1      35.147  30.862  46.821  1.00  0.00     0.026 A 
ATOM     21  C   UNL A   1      33.704  30.066  45.088  1.00  0.00     0.046 A 
ATOM     22  C   UNL A   1      34.854  29.725  47.589  1.00  0.00     0.004 A 
ATOM     23  C   UNL A   1      33.413  28.930  45.849  1.00  0.00     0.043 A 
ATOM     24  C   UNL A   1      33.990  28.751  47.098  1.00  0.00     0.020 A 
ATOM     25  Cl  UNL A   1      32.368  27.716  45.208  1.00  0.00    -0.084 Cl
ENDBRANCH  15  19
ENDBRANCH  13  15
ENDBRANCH  12  13
ENDBRANCH   7  12
BRANCH   8  26
ATOM     26  C   UNL A   1      38.321  31.185  44.655  1.00  0.00     0.118 C 
ATOM     27  C   UNL A   1      38.487  29.674  44.674  1.00  0.00     0.027 C 
ENDBRANCH   8  26
ENDBRANCH   4   6
ENDBRANCH   3   4
ENDBRANCH   2   3
ENDBRANCH   1   2
BRANCH   1  28
ATOM     28  O   UNL A   1      36.263  33.656  36.160  1.00  0.00    -0.374 OA
BRANCH  28  29
ATOM     29  C   UNL A   1      36.205  33.893  34.761  1.00  0.00     0.202 C 
BRANCH  29  30
ATOM     30  C   UNL A   1      35.203  33.204  33.848  1.00  0.00     0.261 C 
BRANCH  30  31
ATOM     31  O   UNL A   1      35.863  32.711  32.712  1.00  0.00    -0.460 OA
BRANCH  31  32
ATOM     32  C   UNL A   1      35.140  32.913  31.596  1.00  0.00     0.338 C 
ATOM     33  O   UNL A   1      34.018  33.382  31.504  1.00  0.00    -0.246 OA
BRANCH  32  34
ATOM     34  C   UNL A   1      35.941  32.454  30.460  1.00  0.00     0.060 A 
ATOM     35  C   UNL A   1      35.756  31.108  30.181  1.00  0.00     0.016 A 
ATOM     36  C   UNL A   1      37.101  33.169  30.117  1.00  0.00     0.016 A 
ATOM     37  C   UNL A   1      36.900  30.388  30.042  1.00  0.00     0.010 A 
ATOM     38  C   UNL A   1      38.243  32.450  29.946  1.00  0.00     0.010 A 
ATOM     39  C   UNL A   1      38.123  31.076  30.070  1.00  0.00    -0.014 A 
BRANCH  39  40
ATOM     40  C   UNL A   1      39.294  30.260  30.195  1.00  0.00     0.031 A 
ATOM     41  C   UNL A   1      39.750  30.257  31.585  1.00  0.00     0.074 A 
ATOM     42  C   UNL A   1      39.854  29.636  29.149  1.00  0.00     0.049 A 
ATOM     43  N   UNL A   1      40.697  30.969  32.089  1.00  0.00    -0.248 NA
ATOM     44  C   UNL A   1      38.859  29.630  32.574  1.00  0.00     0.031 C 
ATOM     45  C   UNL A   1      39.264  29.384  27.829  1.00  0.00     0.029 A 
ATOM     46  N   UNL A   1      41.048  28.997  29.087  1.00  0.00    -0.354 N 
ATOM     47  C   UNL A   1      40.706  30.618  33.427  1.00  0.00     0.074 A 
ATOM     48  C   UNL A   1      39.419  30.041  33.711  1.00  0.00     0.031 C 
ATOM     49  C   UNL A   1      39.997  28.439  27.199  1.00  0.00     0.029 A 
ATOM     50  C   UNL A   1      41.173  28.147  28.002  1.00  0.00     0.049 A 
ATOM     51  H   UNL A   1      41.761  29.126  29.754  1.00  0.00     0.167 HD
ATOM     52  C   UNL A   1      41.894  30.459  34.064  1.00  0.00     0.037 A 
ATOM     53  C   UNL A   1      42.132  27.205  27.853  1.00  0.00     0.037 A 
ATOM     54  C   UNL A   1      42.970  31.070  33.322  1.00  0.00     0.049 A 
ATOM     55  C   UNL A   1      43.286  27.602  28.705  1.00  0.00     0.074 A 
ATOM     56  C   UNL A   1      43.417  32.352  33.093  1.00  0.00     0.029 A 
ATOM     57  N   UNL A   1      43.510  30.265  32.348  1.00  0.00    -0.354 N 
ATOM     58  N   UNL A   1      43.983  28.692  28.510  1.00  0.00    -0.248 NA
ATOM     59  C   UNL A   1      43.452  26.994  30.023  1.00  0.00     0.031 C 
ATOM     60  C   UNL A   1      44.146  32.312  31.868  1.00  0.00     0.029 A 
ATOM     61  C   UNL A   1      44.143  31.005  31.382  1.00  0.00     0.049 A 
ATOM     62  H   UNL A   1      43.451  29.284  32.344  1.00  0.00     0.167 HD
ATOM     63  C   UNL A   1      44.334  29.117  29.779  1.00  0.00     0.074 A 
ATOM     64  C   UNL A   1      44.133  27.964  30.643  1.00  0.00     0.031 C 
ATOM     65  C   UNL A   1      44.443  30.445  30.078  1.00  0.00     0.037 A 
BRANCH  52  66
ATOM     66  C   UNL A   1      42.150  29.342  35.041  1.00  0.00     0.058 A 
ATOM     67  C   UNL A   1      42.832  29.631  36.236  1.00  0.00     0.135 A 
ATOM     68  C   UNL A   1      42.013  27.969  34.727  1.00  0.00     0.135 A 
ATOM     69  F   UNL A   1      43.036  30.902  36.613  1.00  0.00    -0.206 F 
ATOM     70  C   UNL A   1      43.381  28.628  37.033  1.00  0.00     0.059 A 
ATOM     71  C   UNL A   1      42.497  26.956  35.538  1.00  0.00     0.059 A 
ATOM     72  F   UNL A   1      41.500  27.537  33.569  1.00  0.00    -0.206 F 
ATOM     73  C   UNL A   1      43.216  27.294  36.669  1.00  0.00     0.060 A 
BRANCH  73  74
ATOM     74  S   UNL A   1      43.994  25.997  37.639  1.00  0.00     0.124 S 
ATOM     75  O   UNL A   1      43.717  26.448  38.998  1.00  0.00    -0.237 OA
ATOM     76  O   UNL A   1      43.270  24.811  37.194  1.00  0.00    -0.237 OA
ATOM     77  O   UNL A   1      45.393  26.061  37.225  1.00  0.00    -0.744 OA
ENDBRANCH  73  74
ENDBRANCH  52  66
BRANCH  53  78
ATOM     78  C   UNL A   1      41.936  25.836  27.312  1.00  0.00     0.058 A 
ATOM     79  C   UNL A   1      42.823  25.285  26.376  1.00  0.00     0.135 A 
ATOM     80  C   UNL A   1      41.006  24.947  27.893  1.00  0.00     0.135 A 
ATOM     81  F   UNL A   1      43.759  26.055  25.802  1.00  0.00    -0.206 F 
ATOM     82  C   UNL A   1      42.809  23.924  26.053  1.00  0.00     0.059 A 
ATOM     83  C   UNL A   1      40.964  23.592  27.579  1.00  0.00     0.059 A 
ATOM     84  F   UNL A   1      40.160  25.355  28.852  1.00  0.00    -0.206 F 
ATOM     85  C   UNL A   1      41.883  23.082  26.671  1.00  0.00     0.060 A 
BRANCH  85  86
ATOM     86  S   UNL A   1      41.951  21.303  26.359  1.00  0.00     0.124 S 
ATOM     87  O   UNL A   1      40.562  21.002  26.032  1.00  0.00    -0.237 OA
ATOM     88  O   UNL A   1      42.900  21.222  25.254  1.00  0.00    -0.237 OA
ATOM     89  O   UNL A   1      42.425  20.753  27.627  1.00  0.00    -0.744 OA
ENDBRANCH  85  86
ENDBRANCH  53  78
BRANCH  65  90
ATOM     90  C   UNL A   1      44.756  31.394  28.959  1.00  0.00     0.058 A 
ATOM     91  C   UNL A   1      45.997  31.496  28.311  1.00  0.00     0.135 A 
ATOM     92  C   UNL A   1      43.699  32.168  28.454  1.00  0.00     0.135 A 
ATOM     93  F   UNL A   1      47.034  30.734  28.689  1.00  0.00    -0.206 F 
ATOM     94  C   UNL A   1      46.184  32.351  27.222  1.00  0.00     0.059 A 
ATOM     95  C   UNL A   1      43.853  33.003  27.354  1.00  0.00     0.059 A 
ATOM     96  F   UNL A   1      42.477  32.078  29.005  1.00  0.00    -0.206 F 
ATOM     97  C   UNL A   1      45.102  33.098  26.747  1.00  0.00     0.060 A 
BRANCH  97  98
ATOM     98  S   UNL A   1      45.316  34.144  25.290  1.00  0.00     0.124 S 
ATOM     99  O   UNL A   1      44.631  35.369  25.687  1.00  0.00    -0.237 OA
ATOM    100  O   UNL A   1      46.769  34.236  25.176  1.00  0.00    -0.237 OA
ATOM    101  O   UNL A   1      44.666  33.384  24.226  1.00  0.00    -0.744 OA
ENDBRANCH  97  98
ENDBRANCH  65  90
ENDBRANCH  39  40
ENDBRANCH  32  34
ENDBRANCH  31  32
ENDBRANCH  30  31
ENDBRANCH  29  30
ENDBRANCH  28  29
ENDBRANCH   1  28
TORSDOF 24
ENDMDL
MODEL 3
REMARK VINA RESULT:      -7.5      7.390     12.469
REMARK SMILES CCCN(C(=O)Cc1c(C(=O)OCCOCCOC(=O)c2ccc(-c3c4nc(c(-c5c(F)cc(S(=O)(=O)[O-])cc5F)c5ccc([nH]5)c(-c5c(F)cc(S(=O)(=O)[O-])cc5F)c5nc(c(-c6c(F)cc(S(=O)(=O)[O-])cc6F)c6ccc3[nH]6)C=C5)C=C4)cc2)c(C)cn1CC)c1cccc(Cl)c1
REMARK SMILES IDX 14 1 13 2 12 3 10 4 11 5 9 6 8 7 90 8 87 9 89 10 88 11 7 12
REMARK SMILES IDX 5 13 6 14 4 15 3 16 2 17 1 18 93 19 94 20 99 21 95 22 97 23
REMARK SMILES IDX 96 24 98 25 91 26 92 27 15 28 16 29 17 30 18 31 19 32 20 33
REMARK SMILES IDX 21 34 22 35 86 36 23 37 85 38 24 39 25 40 26 41 79 42 27 43
REMARK SMILES IDX 84 44 78 45 80 46 28 47 83 48 77 49 76 50 29 52 63 53 42 54
REMARK SMILES IDX 62 55 43 56 46 57 61 58 81 59 44 60 45 61 60 63 82 64 47 65
REMARK SMILES IDX 30 66 31 67 40 68 32 69 33 70 39 71 41 72 34 73 35 74 36 75
REMARK SMILES IDX 37 76 38 77 64 78 65 79 74 80 66 81 67 82 73 83 75 84 68 85
REMARK SMILES IDX 69 86 70 87 71 88 72 89 48 90 49 91 58 92 50 93 51 94 57 95
REMARK SMILES IDX 59 96 52 97 53 98 54 99 55 100 56 101
REMARK H PARENT 80 51 46 62
REMARK Flexibility Score: inf
ROOT
ATOM      1  C   UNL A   1      46.143  40.564  26.099  1.00  0.00     0.202 C 
ENDROOT
BRANCH   1   2
ATOM      2  C   UNL A   1      45.057  41.324  25.302  1.00  0.00     0.261 C 
BRANCH   2   3
ATOM      3  O   UNL A   1      45.330  41.649  23.935  1.00  0.00    -0.460 OA
BRANCH   3   4
ATOM      4  C   UNL A   1      44.836  42.869  23.627  1.00  0.00     0.340 C 
ATOM      5  O   UNL A   1      45.183  43.869  24.269  1.00  0.00    -0.246 OA
BRANCH   4   6
ATOM      6  C   UNL A   1      43.905  42.954  22.520  1.00  0.00     0.084 A 
ATOM      7  C   UNL A   1      44.134  43.534  21.259  1.00  0.00     0.042 A 
ATOM      8  N   UNL A   1      42.987  43.295  20.512  1.00  0.00    -0.350 N 
ATOM      9  C   UNL A   1      42.514  42.595  22.577  1.00  0.00    -0.019 A 
ATOM     10  C   UNL A   1      41.989  42.829  21.327  1.00  0.00     0.090 A 
ATOM     11  C   UNL A   1      41.751  42.133  23.768  1.00  0.00     0.047 C 
BRANCH   7  12
ATOM     12  C   UNL A   1      45.279  44.327  20.642  1.00  0.00     0.155 C 
BRANCH  12  13
ATOM     13  C   UNL A   1      45.414  45.814  20.935  1.00  0.00     0.232 C 
ATOM     14  O   UNL A   1      45.046  46.179  22.061  1.00  0.00    -0.274 OA
BRANCH  13  15
ATOM     15  N   UNL A   1      45.971  46.685  19.978  1.00  0.00    -0.312 N 
BRANCH  15  16
ATOM     16  C   UNL A   1      47.403  46.691  19.581  1.00  0.00     0.125 C 
BRANCH  16  17
ATOM     17  C   UNL A   1      48.554  47.024  20.560  1.00  0.00     0.019 C 
ATOM     18  C   UNL A   1      48.372  48.276  21.421  1.00  0.00     0.006 C 
ENDBRANCH  16  17
ENDBRANCH  15  16
BRANCH  15  19
ATOM     19  C   UNL A   1      45.117  47.711  19.409  1.00  0.00     0.045 A 
ATOM     20  C   UNL A   1      44.974  48.971  20.008  1.00  0.00     0.026 A 
ATOM     21  C   UNL A   1      44.315  47.439  18.294  1.00  0.00     0.046 A 
ATOM     22  C   UNL A   1      44.050  49.910  19.527  1.00  0.00     0.004 A 
ATOM     23  C   UNL A   1      43.390  48.371  17.814  1.00  0.00     0.043 A 
ATOM     24  C   UNL A   1      43.249  49.606  18.430  1.00  0.00     0.020 A 
ATOM     25  Cl  UNL A   1      42.381  47.962  16.476  1.00  0.00    -0.084 Cl
ENDBRANCH  15  19
ENDBRANCH  13  15
ENDBRANCH  12  13
ENDBRANCH   7  12
BRANCH   8  26
ATOM     26  C   UNL A   1      42.809  43.431  19.070  1.00  0.00     0.118 C 
ATOM     27  C   UNL A   1      41.945  44.602  18.631  1.00  0.00     0.027 C 
ENDBRANCH   8  26
ENDBRANCH   4   6
ENDBRANCH   3   4
ENDBRANCH   2   3
ENDBRANCH   1   2
BRANCH   1  28
ATOM     28  O   UNL A   1      46.377  39.164  26.086  1.00  0.00    -0.374 OA
BRANCH  28  29
ATOM     29  C   UNL A   1      45.587  38.164  26.712  1.00  0.00     0.202 C 
BRANCH  29  30
ATOM     30  C   UNL A   1      45.554  37.961  28.218  1.00  0.00     0.261 C 
BRANCH  30  31
ATOM     31  O   UNL A   1      45.991  36.664  28.529  1.00  0.00    -0.460 OA
BRANCH  31  32
ATOM     32  C   UNL A   1      47.087  36.686  29.307  1.00  0.00     0.338 C 
ATOM     33  O   UNL A   1      47.781  37.647  29.597  1.00  0.00    -0.246 OA
BRANCH  32  34
ATOM     34  C   UNL A   1      47.335  35.318  29.764  1.00  0.00     0.060 A 
ATOM     35  C   UNL A   1      47.327  34.396  28.729  1.00  0.00     0.016 A 
ATOM     36  C   UNL A   1      47.056  34.992  31.102  1.00  0.00     0.016 A 
ATOM     37  C   UNL A   1      46.552  33.300  28.943  1.00  0.00     0.010 A 
ATOM     38  C   UNL A   1      46.307  33.878  31.324  1.00  0.00     0.010 A 
ATOM     39  C   UNL A   1      45.950  33.150  30.202  1.00  0.00    -0.014 A 
BRANCH  39  40
ATOM     40  C   UNL A   1      44.936  32.142  30.291  1.00  0.00     0.031 A 
ATOM     41  C   UNL A   1      43.615  32.769  30.341  1.00  0.00     0.074 A 
ATOM     42  C   UNL A   1      45.223  30.833  30.341  1.00  0.00     0.049 A 
ATOM     43  N   UNL A   1      42.905  32.989  31.392  1.00  0.00    -0.248 NA
ATOM     44  C   UNL A   1      43.183  33.501  29.141  1.00  0.00     0.031 C 
ATOM     45  C   UNL A   1      46.490  30.175  30.001  1.00  0.00     0.029 A 
ATOM     46  N   UNL A   1      44.392  29.796  30.611  1.00  0.00    -0.354 N 
ATOM     47  C   UNL A   1      41.774  33.622  30.906  1.00  0.00     0.074 A 
ATOM     48  C   UNL A   1      42.120  34.151  29.614  1.00  0.00     0.031 C 
ATOM     49  C   UNL A   1      46.264  28.851  29.845  1.00  0.00     0.029 A 
ATOM     50  C   UNL A   1      44.890  28.564  30.224  1.00  0.00     0.049 A 
ATOM     51  H   UNL A   1      43.515  29.910  31.045  1.00  0.00     0.167 HD
ATOM     52  C   UNL A   1      40.560  33.301  31.421  1.00  0.00     0.037 A 
ATOM     53  C   UNL A   1      44.168  27.423  30.131  1.00  0.00     0.037 A 
ATOM     54  C   UNL A   1      40.694  32.616  32.683  1.00  0.00     0.049 A 
ATOM     55  C   UNL A   1      42.978  27.574  31.012  1.00  0.00     0.074 A 
ATOM     56  C   UNL A   1      41.000  32.970  33.979  1.00  0.00     0.029 A 
ATOM     57  N   UNL A   1      40.882  31.260  32.572  1.00  0.00    -0.354 N 
ATOM     58  N   UNL A   1      43.057  27.706  32.311  1.00  0.00    -0.248 NA
ATOM     59  C   UNL A   1      41.695  27.963  30.432  1.00  0.00     0.031 C 
ATOM     60  C   UNL A   1      41.503  31.794  34.610  1.00  0.00     0.029 A 
ATOM     61  C   UNL A   1      41.479  30.744  33.693  1.00  0.00     0.049 A 
ATOM     62  H   UNL A   1      40.621  30.727  31.787  1.00  0.00     0.167 HD
ATOM     63  C   UNL A   1      42.018  28.558  32.643  1.00  0.00     0.074 A 
ATOM     64  C   UNL A   1      41.127  28.545  31.493  1.00  0.00     0.031 C 
ATOM     65  C   UNL A   1      42.131  29.447  33.672  1.00  0.00     0.037 A 
BRANCH  52  66
ATOM     66  C   UNL A   1      39.331  33.138  30.566  1.00  0.00     0.058 A 
ATOM     67  C   UNL A   1      38.227  33.975  30.801  1.00  0.00     0.135 A 
ATOM     68  C   UNL A   1      39.089  32.019  29.733  1.00  0.00     0.135 A 
ATOM     69  F   UNL A   1      38.345  35.051  31.596  1.00  0.00    -0.206 F 
ATOM     70  C   UNL A   1      36.963  33.693  30.286  1.00  0.00     0.059 A 
ATOM     71  C   UNL A   1      37.855  31.755  29.162  1.00  0.00     0.059 A 
ATOM     72  F   UNL A   1      40.001  31.065  29.516  1.00  0.00    -0.206 F 
ATOM     73  C   UNL A   1      36.787  32.573  29.476  1.00  0.00     0.060 A 
BRANCH  73  74
ATOM     74  S   UNL A   1      35.146  32.149  28.880  1.00  0.00     0.124 S 
ATOM     75  O   UNL A   1      34.308  32.628  29.973  1.00  0.00    -0.237 OA
ATOM     76  O   UNL A   1      35.072  32.906  27.634  1.00  0.00    -0.237 OA
ATOM     77  O   UNL A   1      35.211  30.699  28.721  1.00  0.00    -0.744 OA
ENDBRANCH  73  74
ENDBRANCH  52  66
BRANCH  53  78
ATOM     78  C   UNL A   1      44.278  26.406  29.056  1.00  0.00     0.058 A 
ATOM     79  C   UNL A   1      44.028  26.730  27.713  1.00  0.00     0.135 A 
ATOM     80  C   UNL A   1      44.874  25.149  29.296  1.00  0.00     0.135 A 
ATOM     81  F   UNL A   1      43.493  27.918  27.396  1.00  0.00    -0.206 F 
ATOM     82  C   UNL A   1      44.373  25.869  26.666  1.00  0.00     0.059 A 
ATOM     83  C   UNL A   1      45.216  24.270  28.272  1.00  0.00     0.059 A 
ATOM     84  F   UNL A   1      45.222  24.771  30.536  1.00  0.00    -0.206 F 
ATOM     85  C   UNL A   1      44.981  24.646  26.956  1.00  0.00     0.060 A 
BRANCH  85  86
ATOM     86  S   UNL A   1      45.552  23.593  25.602  1.00  0.00     0.124 S 
ATOM     87  O   UNL A   1      47.001  23.692  25.735  1.00  0.00    -0.237 OA
ATOM     88  O   UNL A   1      44.966  22.302  25.950  1.00  0.00    -0.237 OA
ATOM     89  O   UNL A   1      44.991  24.231  24.415  1.00  0.00    -0.744 OA
ENDBRANCH  85  86
ENDBRANCH  53  78
BRANCH  65  90
ATOM     90  C   UNL A   1      43.091  29.124  34.779  1.00  0.00     0.058 A 
ATOM     91  C   UNL A   1      44.401  29.618  34.880  1.00  0.00     0.135 A 
ATOM     92  C   UNL A   1      42.609  28.348  35.846  1.00  0.00     0.135 A 
ATOM     93  F   UNL A   1      44.905  30.426  33.936  1.00  0.00    -0.206 F 
ATOM     94  C   UNL A   1      45.205  29.332  35.986  1.00  0.00     0.059 A 
ATOM     95  C   UNL A   1      43.381  28.075  36.969  1.00  0.00     0.059 A 
ATOM     96  F   UNL A   1      41.349  27.885  35.824  1.00  0.00    -0.206 F 
ATOM     97  C   UNL A   1      44.684  28.562  37.029  1.00  0.00     0.060 A 
BRANCH  97  98
ATOM     98  S   UNL A   1      45.690  28.257  38.498  1.00  0.00     0.124 S 
ATOM     99  O   UNL A   1      45.550  26.815  38.673  1.00  0.00    -0.237 OA
ATOM    100  O   UNL A   1      47.011  28.720  38.079  1.00  0.00    -0.237 OA
ATOM    101  O   UNL A   1      45.052  29.074  39.526  1.00  0.00    -0.744 OA
ENDBRANCH  97  98
ENDBRANCH  65  90
ENDBRANCH  39  40
ENDBRANCH  32  34
ENDBRANCH  31  32
ENDBRANCH  30  31
ENDBRANCH  29  30
ENDBRANCH  28  29
ENDBRANCH   1  28
TORSDOF 24
ENDMDL
