MODEL 1
REMARK VINA RESULT:     -12.0      0.000      0.000
REMARK SMILES Cc1cccc(NC(=O)C[C@@H]2CCCCO2)c1C(=O)OCCOCCOC(=O)c1ccc(-c2c3nc(c(-c4c(F)cc(S(=O)(=O)[O-])cc4F)c4ccc([nH]4)c(-c4c(F)cc(S(=O)(=O)[O-])cc4F)c4nc(c(-c5c(F)cc(S(=O)(=O)[O-])cc5F)c5ccc2[nH]5)C=C4)C=C3)cc1
REMARK SMILES IDX 23 1 22 2 21 3 20 4 18 5 19 6 17 7 1 8 2 9 3 10 4 11 6 12
REMARK SMILES IDX 5 13 7 14 8 15 9 17 10 18 11 19 12 20 16 21 13 22 15 23
REMARK SMILES IDX 14 24 24 25 25 26 26 27 27 28 28 29 29 30 30 31 94 32 31 33
REMARK SMILES IDX 93 34 32 35 33 36 34 37 87 38 35 39 92 40 86 41 88 42 36 43
REMARK SMILES IDX 91 44 85 45 84 46 37 48 71 49 50 50 70 51 51 52 54 53 69 54
REMARK SMILES IDX 89 55 52 56 53 57 68 59 90 60 55 61 38 62 39 63 48 64 40 65
REMARK SMILES IDX 41 66 47 67 49 68 42 69 43 70 44 71 45 72 46 73 72 74 73 75
REMARK SMILES IDX 82 76 74 77 75 78 81 79 83 80 76 81 77 82 78 83 79 84 80 85
REMARK SMILES IDX 56 86 57 87 66 88 58 89 59 90 65 91 67 92 60 93 61 94 62 95
REMARK SMILES IDX 63 96 64 97
REMARK H PARENT 7 16 88 47 54 58
REMARK Flexibility Score: inf
ROOT
ATOM      1  O   UNL A   1      34.051  28.051  24.557  1.00  0.00    -0.374 OA
ENDROOT
BRANCH   1   2
ATOM      2  C   UNL A   1      33.517  27.228  23.532  1.00  0.00     0.202 C 
BRANCH   2   3
ATOM      3  C   UNL A   1      33.339  25.911  24.203  1.00  0.00     0.261 C 
BRANCH   3   4
ATOM      4  O   UNL A   1      33.609  24.834  23.282  1.00  0.00    -0.460 OA
BRANCH   4   5
ATOM      5  C   UNL A   1      34.454  23.813  23.519  1.00  0.00     0.340 C 
ATOM      6  O   UNL A   1      35.269  23.333  22.758  1.00  0.00    -0.246 OA
BRANCH   5   7
ATOM      7  C   UNL A   1      34.211  23.284  24.901  1.00  0.00     0.086 A 
ATOM      8  C   UNL A   1      36.508  24.080  25.847  1.00  0.00     0.045 C 
ATOM      9  C   UNL A   1      35.129  23.472  25.977  1.00  0.00    -0.034 A 
ATOM     10  C   UNL A   1      34.805  22.953  27.238  1.00  0.00     0.004 A 
ATOM     11  C   UNL A   1      33.604  22.289  27.452  1.00  0.00     0.002 A 
ATOM     12  C   UNL A   1      33.055  22.470  25.094  1.00  0.00     0.056 A 
ATOM     13  C   UNL A   1      32.733  22.054  26.389  1.00  0.00     0.027 A 
BRANCH  12  14
ATOM     14  N   UNL A   1      32.340  21.995  23.961  1.00  0.00    -0.325 N 
ATOM     15  C   UNL A   1      32.346  20.785  23.314  1.00  0.00     0.227 C 
ATOM     16  H   UNL A   1      31.726  22.658  23.568  1.00  0.00     0.169 HD
ATOM     17  O   UNL A   1      31.778  20.693  22.220  1.00  0.00    -0.275 OA
BRANCH  15  18
ATOM     18  C   UNL A   1      33.038  19.564  23.875  1.00  0.00     0.132 C 
BRANCH  18  19
ATOM     19  C   UNL A   1      32.401  18.190  23.588  1.00  0.00     0.127 C 
ATOM     20  C   UNL A   1      32.154  17.415  24.893  1.00  0.00     0.033 C 
ATOM     21  O   UNL A   1      33.065  17.320  22.673  1.00  0.00    -0.378 OA
ATOM     22  C   UNL A   1      33.467  16.939  25.506  1.00  0.00     0.005 C 
ATOM     23  C   UNL A   1      34.300  16.773  23.106  1.00  0.00     0.160 C 
ATOM     24  C   UNL A   1      34.277  16.145  24.491  1.00  0.00     0.029 C 
ENDBRANCH  18  19
ENDBRANCH  15  18
ENDBRANCH  12  14
ENDBRANCH   5   7
ENDBRANCH   4   5
ENDBRANCH   3   4
ENDBRANCH   2   3
ENDBRANCH   1   2
BRANCH   1  25
ATOM     25  C   UNL A   1      33.196  28.351  25.628  1.00  0.00     0.202 C 
BRANCH  25  26
ATOM     26  C   UNL A   1      33.044  29.861  25.802  1.00  0.00     0.261 C 
BRANCH  26  27
ATOM     27  O   UNL A   1      33.225  30.242  27.186  1.00  0.00    -0.460 OA
BRANCH  27  28
ATOM     28  C   UNL A   1      34.314  31.020  27.472  1.00  0.00     0.338 C 
ATOM     29  O   UNL A   1      34.338  32.229  27.322  1.00  0.00    -0.246 OA
BRANCH  28  30
ATOM     30  C   UNL A   1      35.430  30.198  28.033  1.00  0.00     0.060 A 
ATOM     31  C   UNL A   1      35.445  29.787  29.382  1.00  0.00     0.016 A 
ATOM     32  C   UNL A   1      36.562  30.012  27.249  1.00  0.00     0.016 A 
ATOM     33  C   UNL A   1      36.640  29.329  29.976  1.00  0.00     0.010 A 
ATOM     34  C   UNL A   1      37.747  29.660  27.858  1.00  0.00     0.010 A 
ATOM     35  C   UNL A   1      37.814  29.340  29.226  1.00  0.00    -0.014 A 
BRANCH  35  36
ATOM     36  C   UNL A   1      39.191  29.135  29.702  1.00  0.00     0.031 A 
ATOM     37  C   UNL A   1      39.874  27.882  29.285  1.00  0.00     0.074 A 
ATOM     38  C   UNL A   1      39.933  30.180  30.155  1.00  0.00     0.049 A 
ATOM     39  N   UNL A   1      41.099  27.611  29.555  1.00  0.00    -0.248 NA
ATOM     40  C   UNL A   1      39.225  26.799  28.540  1.00  0.00     0.031 C 
ATOM     41  C   UNL A   1      41.378  30.389  30.016  1.00  0.00     0.029 A 
ATOM     42  N   UNL A   1      39.526  31.332  30.832  1.00  0.00    -0.354 N 
ATOM     43  C   UNL A   1      41.488  26.542  28.786  1.00  0.00     0.074 A 
ATOM     44  C   UNL A   1      40.262  26.000  28.265  1.00  0.00     0.031 C 
ATOM     45  C   UNL A   1      41.766  31.431  30.772  1.00  0.00     0.029 A 
ATOM     46  C   UNL A   1      40.612  31.862  31.540  1.00  0.00     0.049 A 
ATOM     47  H   UNL A   1      38.618  31.712  30.815  1.00  0.00     0.167 HD
ATOM     48  C   UNL A   1      42.825  26.336  28.618  1.00  0.00     0.037 A 
ATOM     49  C   UNL A   1      40.530  32.017  32.890  1.00  0.00     0.037 A 
ATOM     50  C   UNL A   1      43.577  27.189  29.552  1.00  0.00     0.049 A 
ATOM     51  C   UNL A   1      41.471  31.025  33.510  1.00  0.00     0.074 A 
ATOM     52  C   UNL A   1      44.348  28.328  29.405  1.00  0.00     0.029 A 
ATOM     53  N   UNL A   1      43.307  27.076  30.919  1.00  0.00    -0.354 N 
ATOM     54  N   UNL A   1      41.859  29.950  32.874  1.00  0.00    -0.248 NA
ATOM     55  C   UNL A   1      42.170  31.209  34.776  1.00  0.00     0.031 C 
ATOM     56  C   UNL A   1      44.426  28.962  30.686  1.00  0.00     0.029 A 
ATOM     57  C   UNL A   1      43.743  28.187  31.616  1.00  0.00     0.049 A 
ATOM     58  H   UNL A   1      42.861  26.302  31.332  1.00  0.00     0.167 HD
ATOM     59  C   UNL A   1      42.884  29.368  33.545  1.00  0.00     0.074 A 
ATOM     60  C   UNL A   1      43.014  30.160  34.758  1.00  0.00     0.031 C 
ATOM     61  C   UNL A   1      43.553  28.284  33.064  1.00  0.00     0.037 A 
BRANCH  48  62
ATOM     62  C   UNL A   1      43.474  25.474  27.548  1.00  0.00     0.058 A 
ATOM     63  C   UNL A   1      44.186  24.310  27.914  1.00  0.00     0.135 A 
ATOM     64  C   UNL A   1      43.519  25.768  26.166  1.00  0.00     0.135 A 
ATOM     65  F   UNL A   1      44.267  23.922  29.196  1.00  0.00    -0.206 F 
ATOM     66  C   UNL A   1      44.865  23.502  26.992  1.00  0.00     0.059 A 
ATOM     67  C   UNL A   1      44.154  24.953  25.220  1.00  0.00     0.059 A 
ATOM     68  F   UNL A   1      43.002  26.891  25.656  1.00  0.00    -0.206 F 
ATOM     69  C   UNL A   1      44.836  23.824  25.643  1.00  0.00     0.060 A 
BRANCH  69  70
ATOM     70  S   UNL A   1      45.703  22.774  24.462  1.00  0.00     0.124 S 
ATOM     71  O   UNL A   1      46.664  23.704  23.875  1.00  0.00    -0.237 OA
ATOM     72  O   UNL A   1      46.267  21.739  25.322  1.00  0.00    -0.237 OA
ATOM     73  O   UNL A   1      44.646  22.322  23.561  1.00  0.00    -0.744 OA
ENDBRANCH  69  70
ENDBRANCH  48  62
BRANCH  49  74
ATOM     74  C   UNL A   1      39.174  32.500  33.316  1.00  0.00     0.058 A 
ATOM     75  C   UNL A   1      38.842  33.825  32.946  1.00  0.00     0.135 A 
ATOM     76  C   UNL A   1      38.096  31.617  33.508  1.00  0.00     0.135 A 
ATOM     77  F   UNL A   1      39.821  34.721  32.734  1.00  0.00    -0.206 F 
ATOM     78  C   UNL A   1      37.539  34.210  32.620  1.00  0.00     0.059 A 
ATOM     79  C   UNL A   1      36.783  31.977  33.162  1.00  0.00     0.059 A 
ATOM     80  F   UNL A   1      38.326  30.343  33.858  1.00  0.00    -0.206 F 
ATOM     81  C   UNL A   1      36.523  33.258  32.666  1.00  0.00     0.060 A 
BRANCH  81  82
ATOM     82  S   UNL A   1      34.960  33.609  31.792  1.00  0.00     0.124 S 
ATOM     83  O   UNL A   1      34.030  32.703  32.450  1.00  0.00    -0.237 OA
ATOM     84  O   UNL A   1      34.748  35.030  32.059  1.00  0.00    -0.237 OA
ATOM     85  O   UNL A   1      35.292  33.299  30.405  1.00  0.00    -0.744 OA
ENDBRANCH  81  82
ENDBRANCH  49  74
BRANCH  61  86
ATOM     86  C   UNL A   1      44.129  27.252  33.989  1.00  0.00     0.058 A 
ATOM     87  C   UNL A   1      45.491  27.232  34.345  1.00  0.00     0.135 A 
ATOM     88  C   UNL A   1      43.296  26.354  34.690  1.00  0.00     0.135 A 
ATOM     89  F   UNL A   1      46.362  28.137  33.871  1.00  0.00    -0.206 F 
ATOM     90  C   UNL A   1      46.015  26.300  35.228  1.00  0.00     0.059 A 
ATOM     91  C   UNL A   1      43.788  25.466  35.637  1.00  0.00     0.059 A 
ATOM     92  F   UNL A   1      41.970  26.320  34.491  1.00  0.00    -0.206 F 
ATOM     93  C   UNL A   1      45.156  25.411  35.859  1.00  0.00     0.060 A 
BRANCH  93  94
ATOM     94  S   UNL A   1      45.847  24.183  36.968  1.00  0.00     0.124 S 
ATOM     95  O   UNL A   1      47.106  24.820  37.343  1.00  0.00    -0.237 OA
ATOM     96  O   UNL A   1      44.842  24.102  38.023  1.00  0.00    -0.237 OA
ATOM     97  O   UNL A   1      45.964  22.996  36.126  1.00  0.00    -0.744 OA
ENDBRANCH  93  94
ENDBRANCH  61  86
ENDBRANCH  35  36
ENDBRANCH  28  30
ENDBRANCH  27  28
ENDBRANCH  26  27
ENDBRANCH  25  26
ENDBRANCH   1  25
TORSDOF 20
ENDMDL
MODEL 2
REMARK VINA RESULT:     -11.8      2.403      3.415
REMARK SMILES Cc1cccc(NC(=O)C[C@@H]2CCCCO2)c1C(=O)OCCOCCOC(=O)c1ccc(-c2c3nc(c(-c4c(F)cc(S(=O)(=O)[O-])cc4F)c4ccc([nH]4)c(-c4c(F)cc(S(=O)(=O)[O-])cc4F)c4nc(c(-c5c(F)cc(S(=O)(=O)[O-])cc5F)c5ccc2[nH]5)C=C4)C=C3)cc1
REMARK SMILES IDX 23 1 22 2 21 3 20 4 18 5 19 6 17 7 1 8 2 9 3 10 4 11 6 12
REMARK SMILES IDX 5 13 7 14 8 15 9 17 10 18 11 19 12 20 16 21 13 22 15 23
REMARK SMILES IDX 14 24 24 25 25 26 26 27 27 28 28 29 29 30 30 31 94 32 31 33
REMARK SMILES IDX 93 34 32 35 33 36 34 37 87 38 35 39 92 40 86 41 88 42 36 43
REMARK SMILES IDX 91 44 85 45 84 46 37 48 71 49 50 50 70 51 51 52 54 53 69 54
REMARK SMILES IDX 89 55 52 56 53 57 68 59 90 60 55 61 38 62 39 63 48 64 40 65
REMARK SMILES IDX 41 66 47 67 49 68 42 69 43 70 44 71 45 72 46 73 72 74 73 75
REMARK SMILES IDX 82 76 74 77 75 78 81 79 83 80 76 81 77 82 78 83 79 84 80 85
REMARK SMILES IDX 56 86 57 87 66 88 58 89 59 90 65 91 67 92 60 93 61 94 62 95
REMARK SMILES IDX 63 96 64 97
REMARK H PARENT 7 16 88 47 54 58
REMARK Flexibility Score: inf
ROOT
ATOM      1  O   UNL A   1      33.272  29.543  24.935  1.00  0.00    -0.374 OA
ENDROOT
BRANCH   1   2
ATOM      2  C   UNL A   1      32.590  28.450  24.341  1.00  0.00     0.202 C 
BRANCH   2   3
ATOM      3  C   UNL A   1      33.452  27.282  24.675  1.00  0.00     0.261 C 
BRANCH   3   4
ATOM      4  O   UNL A   1      33.012  26.663  25.902  1.00  0.00    -0.460 OA
BRANCH   4   5
ATOM      5  C   UNL A   1      31.765  26.209  26.129  1.00  0.00     0.340 C 
ATOM      6  O   UNL A   1      30.992  26.568  26.993  1.00  0.00    -0.246 OA
BRANCH   5   7
ATOM      7  C   UNL A   1      31.459  25.107  25.161  1.00  0.00     0.086 A 
ATOM      8  C   UNL A   1      29.850  26.545  23.696  1.00  0.00     0.045 C 
ATOM      9  C   UNL A   1      30.634  25.291  24.010  1.00  0.00    -0.034 A 
ATOM     10  C   UNL A   1      30.418  24.203  23.154  1.00  0.00     0.004 A 
ATOM     11  C   UNL A   1      31.012  22.971  23.398  1.00  0.00     0.002 A 
ATOM     12  C   UNL A   1      31.936  23.801  25.483  1.00  0.00     0.056 A 
ATOM     13  C   UNL A   1      31.770  22.773  24.551  1.00  0.00     0.027 A 
BRANCH  12  14
ATOM     14  N   UNL A   1      32.447  23.548  26.786  1.00  0.00    -0.325 N 
ATOM     15  C   UNL A   1      33.552  22.859  27.219  1.00  0.00     0.227 C 
ATOM     16  H   UNL A   1      31.908  23.941  27.511  1.00  0.00     0.169 HD
ATOM     17  O   UNL A   1      33.662  22.610  28.425  1.00  0.00    -0.275 OA
BRANCH  15  18
ATOM     18  C   UNL A   1      34.629  22.372  26.278  1.00  0.00     0.132 C 
BRANCH  18  19
ATOM     19  C   UNL A   1      35.764  23.354  25.927  1.00  0.00     0.127 C 
ATOM     20  C   UNL A   1      35.371  24.249  24.740  1.00  0.00     0.033 C 
ATOM     21  O   UNL A   1      37.060  22.816  25.667  1.00  0.00    -0.378 OA
ATOM     22  C   UNL A   1      35.340  23.454  23.439  1.00  0.00     0.005 C 
ATOM     23  C   UNL A   1      37.203  22.063  24.475  1.00  0.00     0.160 C 
ATOM     24  C   UNL A   1      36.661  22.730  23.220  1.00  0.00     0.029 C 
ENDBRANCH  18  19
ENDBRANCH  15  18
ENDBRANCH  12  14
ENDBRANCH   5   7
ENDBRANCH   4   5
ENDBRANCH   3   4
ENDBRANCH   2   3
ENDBRANCH   1   2
BRANCH   1  25
ATOM     25  C   UNL A   1      32.685  30.100  26.080  1.00  0.00     0.202 C 
BRANCH  25  26
ATOM     26  C   UNL A   1      33.504  29.777  27.328  1.00  0.00     0.261 C 
BRANCH  26  27
ATOM     27  O   UNL A   1      33.809  30.981  28.072  1.00  0.00    -0.460 OA
BRANCH  27  28
ATOM     28  C   UNL A   1      35.076  31.481  27.937  1.00  0.00     0.338 C 
ATOM     29  O   UNL A   1      35.318  32.609  27.547  1.00  0.00    -0.246 OA
BRANCH  28  30
ATOM     30  C   UNL A   1      36.098  30.483  28.380  1.00  0.00     0.060 A 
ATOM     31  C   UNL A   1      36.085  29.930  29.676  1.00  0.00     0.016 A 
ATOM     32  C   UNL A   1      37.191  30.257  27.551  1.00  0.00     0.016 A 
ATOM     33  C   UNL A   1      37.227  29.279  30.188  1.00  0.00     0.010 A 
ATOM     34  C   UNL A   1      38.336  29.711  28.089  1.00  0.00     0.010 A 
ATOM     35  C   UNL A   1      38.384  29.241  29.414  1.00  0.00    -0.014 A 
BRANCH  35  36
ATOM     36  C   UNL A   1      39.736  28.832  29.830  1.00  0.00     0.031 A 
ATOM     37  C   UNL A   1      40.218  27.506  29.364  1.00  0.00     0.074 A 
ATOM     38  C   UNL A   1      40.635  29.752  30.270  1.00  0.00     0.049 A 
ATOM     39  N   UNL A   1      41.401  27.058  29.579  1.00  0.00    -0.248 NA
ATOM     40  C   UNL A   1      39.394  26.542  28.628  1.00  0.00     0.031 C 
ATOM     41  C   UNL A   1      42.089  29.757  30.076  1.00  0.00     0.029 A 
ATOM     42  N   UNL A   1      40.422  30.934  30.982  1.00  0.00    -0.354 N 
ATOM     43  C   UNL A   1      41.605  25.962  28.778  1.00  0.00     0.074 A 
ATOM     44  C   UNL A   1      40.296  25.611  28.297  1.00  0.00     0.031 C 
ATOM     45  C   UNL A   1      42.649  30.717  30.833  1.00  0.00     0.029 A 
ATOM     46  C   UNL A   1      41.598  31.289  31.654  1.00  0.00     0.049 A 
ATOM     47  H   UNL A   1      39.577  31.438  31.008  1.00  0.00     0.167 HD
ATOM     48  C   UNL A   1      42.892  25.573  28.553  1.00  0.00     0.037 A 
ATOM     49  C   UNL A   1      41.589  31.424  33.009  1.00  0.00     0.037 A 
ATOM     50  C   UNL A   1      43.792  26.291  29.469  1.00  0.00     0.049 A 
ATOM     51  C   UNL A   1      42.403  30.295  33.573  1.00  0.00     0.074 A 
ATOM     52  C   UNL A   1      44.711  27.313  29.310  1.00  0.00     0.029 A 
ATOM     53  N   UNL A   1      43.560  26.186  30.844  1.00  0.00    -0.354 N 
ATOM     54  N   UNL A   1      42.611  29.191  32.904  1.00  0.00    -0.248 NA
ATOM     55  C   UNL A   1      43.169  30.350  34.813  1.00  0.00     0.031 C 
ATOM     56  C   UNL A   1      44.927  27.900  30.597  1.00  0.00     0.029 A 
ATOM     57  C   UNL A   1      44.176  27.208  31.542  1.00  0.00     0.049 A 
ATOM     58  H   UNL A   1      43.026  25.473  31.262  1.00  0.00     0.167 HD
ATOM     59  C   UNL A   1      43.566  28.455  33.524  1.00  0.00     0.074 A 
ATOM     60  C   UNL A   1      43.853  29.193  34.743  1.00  0.00     0.031 C 
ATOM     61  C   UNL A   1      44.057  27.299  32.997  1.00  0.00     0.037 A 
BRANCH  48  62
ATOM     62  C   UNL A   1      43.371  24.652  27.442  1.00  0.00     0.058 A 
ATOM     63  C   UNL A   1      43.149  23.260  27.534  1.00  0.00     0.135 A 
ATOM     64  C   UNL A   1      44.127  25.044  26.313  1.00  0.00     0.135 A 
ATOM     65  F   UNL A   1      42.481  22.732  28.571  1.00  0.00    -0.206 F 
ATOM     66  C   UNL A   1      43.618  22.343  26.585  1.00  0.00     0.059 A 
ATOM     67  C   UNL A   1      44.568  24.151  25.329  1.00  0.00     0.059 A 
ATOM     68  F   UNL A   1      44.532  26.304  26.125  1.00  0.00    -0.206 F 
ATOM     69  C   UNL A   1      44.319  22.797  25.476  1.00  0.00     0.060 A 
BRANCH  69  70
ATOM     70  S   UNL A   1      44.909  21.611  24.254  1.00  0.00     0.124 S 
ATOM     71  O   UNL A   1      46.349  21.615  24.497  1.00  0.00    -0.237 OA
ATOM     72  O   UNL A   1      44.205  20.393  24.637  1.00  0.00    -0.237 OA
ATOM     73  O   UNL A   1      44.493  22.193  22.980  1.00  0.00    -0.744 OA
ENDBRANCH  69  70
ENDBRANCH  48  62
BRANCH  49  74
ATOM     74  C   UNL A   1      40.333  32.084  33.498  1.00  0.00     0.058 A 
ATOM     75  C   UNL A   1      39.347  31.222  34.034  1.00  0.00     0.135 A 
ATOM     76  C   UNL A   1      40.323  33.410  33.966  1.00  0.00     0.135 A 
ATOM     77  F   UNL A   1      39.304  29.936  33.643  1.00  0.00    -0.206 F 
ATOM     78  C   UNL A   1      38.513  31.598  35.091  1.00  0.00     0.059 A 
ATOM     79  C   UNL A   1      39.511  33.801  35.044  1.00  0.00     0.059 A 
ATOM     80  F   UNL A   1      41.226  34.289  33.509  1.00  0.00    -0.206 F 
ATOM     81  C   UNL A   1      38.649  32.873  35.636  1.00  0.00     0.060 A 
BRANCH  81  82
ATOM     82  S   UNL A   1      37.937  33.197  37.284  1.00  0.00     0.124 S 
ATOM     83  O   UNL A   1      38.231  31.960  37.994  1.00  0.00    -0.237 OA
ATOM     84  O   UNL A   1      38.680  34.373  37.736  1.00  0.00    -0.237 OA
ATOM     85  O   UNL A   1      36.532  33.451  36.983  1.00  0.00    -0.744 OA
ENDBRANCH  81  82
ENDBRANCH  49  74
BRANCH  61  86
ATOM     86  C   UNL A   1      44.515  26.176  33.881  1.00  0.00     0.058 A 
ATOM     87  C   UNL A   1      43.615  25.343  34.573  1.00  0.00     0.135 A 
ATOM     88  C   UNL A   1      45.871  25.786  33.921  1.00  0.00     0.135 A 
ATOM     89  F   UNL A   1      42.287  25.508  34.487  1.00  0.00    -0.206 F 
ATOM     90  C   UNL A   1      44.040  24.283  35.360  1.00  0.00     0.059 A 
ATOM     91  C   UNL A   1      46.308  24.681  34.640  1.00  0.00     0.059 A 
ATOM     92  F   UNL A   1      46.819  26.457  33.250  1.00  0.00    -0.206 F 
ATOM     93  C   UNL A   1      45.391  23.969  35.399  1.00  0.00     0.060 A 
BRANCH  93  94
ATOM     94  S   UNL A   1      45.934  22.623  36.452  1.00  0.00     0.124 S 
ATOM     95  O   UNL A   1      45.497  23.096  37.761  1.00  0.00    -0.237 OA
ATOM     96  O   UNL A   1      45.199  21.481  35.916  1.00  0.00    -0.237 OA
ATOM     97  O   UNL A   1      47.378  22.589  36.239  1.00  0.00    -0.744 OA
ENDBRANCH  93  94
ENDBRANCH  61  86
ENDBRANCH  35  36
ENDBRANCH  28  30
ENDBRANCH  27  28
ENDBRANCH  26  27
ENDBRANCH  25  26
ENDBRANCH   1  25
TORSDOF 20
ENDMDL
MODEL 3
REMARK VINA RESULT:     -11.6      1.676      2.589
REMARK SMILES Cc1cccc(NC(=O)C[C@@H]2CCCCO2)c1C(=O)OCCOCCOC(=O)c1ccc(-c2c3nc(c(-c4c(F)cc(S(=O)(=O)[O-])cc4F)c4ccc([nH]4)c(-c4c(F)cc(S(=O)(=O)[O-])cc4F)c4nc(c(-c5c(F)cc(S(=O)(=O)[O-])cc5F)c5ccc2[nH]5)C=C4)C=C3)cc1
REMARK SMILES IDX 23 1 22 2 21 3 20 4 18 5 19 6 17 7 1 8 2 9 3 10 4 11 6 12
REMARK SMILES IDX 5 13 7 14 8 15 9 17 10 18 11 19 12 20 16 21 13 22 15 23
REMARK SMILES IDX 14 24 24 25 25 26 26 27 27 28 28 29 29 30 30 31 94 32 31 33
REMARK SMILES IDX 93 34 32 35 33 36 34 37 87 38 35 39 92 40 86 41 88 42 36 43
REMARK SMILES IDX 91 44 85 45 84 46 37 48 71 49 50 50 70 51 51 52 54 53 69 54
REMARK SMILES IDX 89 55 52 56 53 57 68 59 90 60 55 61 38 62 39 63 48 64 40 65
REMARK SMILES IDX 41 66 47 67 49 68 42 69 43 70 44 71 45 72 46 73 72 74 73 75
REMARK SMILES IDX 82 76 74 77 75 78 81 79 83 80 76 81 77 82 78 83 79 84 80 85
REMARK SMILES IDX 56 86 57 87 66 88 58 89 59 90 65 91 67 92 60 93 61 94 62 95
REMARK SMILES IDX 63 96 64 97
REMARK H PARENT 7 16 88 47 54 58
REMARK Flexibility Score: inf
ROOT
ATOM      1  O   UNL A   1      32.980  29.668  24.243  1.00  0.00    -0.374 OA
ENDROOT
BRANCH   1   2
ATOM      2  C   UNL A   1      32.440  28.966  23.135  1.00  0.00     0.202 C 
BRANCH   2   3
ATOM      3  C   UNL A   1      33.643  28.403  22.461  1.00  0.00     0.261 C 
BRANCH   3   4
ATOM      4  O   UNL A   1      33.628  26.961  22.522  1.00  0.00    -0.460 OA
BRANCH   4   5
ATOM      5  C   UNL A   1      33.542  26.241  23.656  1.00  0.00     0.340 C 
ATOM      6  O   UNL A   1      34.038  26.494  24.735  1.00  0.00    -0.246 OA
BRANCH   5   7
ATOM      7  C   UNL A   1      32.757  24.992  23.387  1.00  0.00     0.086 A 
ATOM      8  C   UNL A   1      30.479  25.994  24.169  1.00  0.00     0.045 C 
ATOM      9  C   UNL A   1      31.343  24.912  23.560  1.00  0.00    -0.034 A 
ATOM     10  C   UNL A   1      30.695  23.705  23.268  1.00  0.00     0.004 A 
ATOM     11  C   UNL A   1      31.404  22.608  22.793  1.00  0.00     0.002 A 
ATOM     12  C   UNL A   1      33.493  23.818  23.048  1.00  0.00     0.056 A 
ATOM     13  C   UNL A   1      32.792  22.667  22.679  1.00  0.00     0.027 A 
BRANCH  12  14
ATOM     14  N   UNL A   1      34.904  23.807  23.218  1.00  0.00    -0.325 N 
ATOM     15  C   UNL A   1      35.734  22.983  23.936  1.00  0.00     0.227 C 
ATOM     16  H   UNL A   1      35.373  24.523  22.730  1.00  0.00     0.169 HD
ATOM     17  O   UNL A   1      36.916  23.314  24.085  1.00  0.00    -0.275 OA
BRANCH  15  18
ATOM     18  C   UNL A   1      35.257  21.698  24.572  1.00  0.00     0.132 C 
BRANCH  18  19
ATOM     19  C   UNL A   1      35.084  21.684  26.104  1.00  0.00     0.127 C 
ATOM     20  C   UNL A   1      33.817  20.913  26.508  1.00  0.00     0.033 C 
ATOM     21  O   UNL A   1      35.081  22.935  26.791  1.00  0.00    -0.378 OA
ATOM     22  C   UNL A   1      32.558  21.693  26.139  1.00  0.00     0.005 C 
ATOM     23  C   UNL A   1      33.960  23.774  26.568  1.00  0.00     0.160 C 
ATOM     24  C   UNL A   1      32.606  23.097  26.723  1.00  0.00     0.029 C 
ENDBRANCH  18  19
ENDBRANCH  15  18
ENDBRANCH  12  14
ENDBRANCH   5   7
ENDBRANCH   4   5
ENDBRANCH   3   4
ENDBRANCH   2   3
ENDBRANCH   1   2
BRANCH   1  25
ATOM     25  C   UNL A   1      32.255  29.600  25.442  1.00  0.00     0.202 C 
BRANCH  25  26
ATOM     26  C   UNL A   1      33.173  29.290  26.622  1.00  0.00     0.261 C 
BRANCH  26  27
ATOM     27  O   UNL A   1      33.233  30.408  27.538  1.00  0.00    -0.460 OA
BRANCH  27  28
ATOM     28  C   UNL A   1      34.413  31.100  27.587  1.00  0.00     0.338 C 
ATOM     29  O   UNL A   1      34.521  32.272  27.270  1.00  0.00    -0.246 OA
BRANCH  28  30
ATOM     30  C   UNL A   1      35.516  30.246  28.124  1.00  0.00     0.060 A 
ATOM     31  C   UNL A   1      35.484  29.728  29.435  1.00  0.00     0.016 A 
ATOM     32  C   UNL A   1      36.680  30.134  27.373  1.00  0.00     0.016 A 
ATOM     33  C   UNL A   1      36.660  29.234  30.037  1.00  0.00     0.010 A 
ATOM     34  C   UNL A   1      37.845  29.745  27.999  1.00  0.00     0.010 A 
ATOM     35  C   UNL A   1      37.862  29.317  29.338  1.00  0.00    -0.014 A 
BRANCH  35  36
ATOM     36  C   UNL A   1      39.222  29.087  29.851  1.00  0.00     0.031 A 
ATOM     37  C   UNL A   1      39.890  27.818  29.458  1.00  0.00     0.074 A 
ATOM     38  C   UNL A   1      39.974  30.120  30.316  1.00  0.00     0.049 A 
ATOM     39  N   UNL A   1      41.102  27.523  29.761  1.00  0.00    -0.248 NA
ATOM     40  C   UNL A   1      39.238  26.744  28.704  1.00  0.00     0.031 C 
ATOM     41  C   UNL A   1      41.426  30.298  30.212  1.00  0.00     0.029 A 
ATOM     42  N   UNL A   1      39.574  31.284  30.975  1.00  0.00    -0.354 N 
ATOM     43  C   UNL A   1      41.488  26.442  29.009  1.00  0.00     0.074 A 
ATOM     44  C   UNL A   1      40.265  25.922  28.460  1.00  0.00     0.031 C 
ATOM     45  C   UNL A   1      41.816  31.337  30.971  1.00  0.00     0.029 A 
ATOM     46  C   UNL A   1      40.652  31.797  31.707  1.00  0.00     0.049 A 
ATOM     47  H   UNL A   1      38.675  31.682  30.932  1.00  0.00     0.167 HD
ATOM     48  C   UNL A   1      42.824  26.207  28.877  1.00  0.00     0.037 A 
ATOM     49  C   UNL A   1      40.538  31.962  33.053  1.00  0.00     0.037 A 
ATOM     50  C   UNL A   1      43.569  27.051  29.824  1.00  0.00     0.049 A 
ATOM     51  C   UNL A   1      41.443  30.955  33.703  1.00  0.00     0.074 A 
ATOM     52  C   UNL A   1      44.367  28.173  29.690  1.00  0.00     0.029 A 
ATOM     53  N   UNL A   1      43.263  26.953  31.185  1.00  0.00    -0.354 N 
ATOM     54  N   UNL A   1      41.825  29.869  33.084  1.00  0.00    -0.248 NA
ATOM     55  C   UNL A   1      42.114  31.134  34.985  1.00  0.00     0.031 C 
ATOM     56  C   UNL A   1      44.426  28.814  30.969  1.00  0.00     0.029 A 
ATOM     57  C   UNL A   1      43.704  28.059  31.886  1.00  0.00     0.049 A 
ATOM     58  H   UNL A   1      42.791  26.190  31.591  1.00  0.00     0.167 HD
ATOM     59  C   UNL A   1      42.820  29.270  33.785  1.00  0.00     0.074 A 
ATOM     60  C   UNL A   1      42.936  30.067  34.995  1.00  0.00     0.031 C 
ATOM     61  C   UNL A   1      43.479  28.169  33.328  1.00  0.00     0.037 A 
BRANCH  48  62
ATOM     62  C   UNL A   1      43.483  25.325  27.829  1.00  0.00     0.058 A 
ATOM     63  C   UNL A   1      43.927  25.886  26.611  1.00  0.00     0.135 A 
ATOM     64  C   UNL A   1      43.630  23.920  27.905  1.00  0.00     0.135 A 
ATOM     65  F   UNL A   1      43.817  27.202  26.374  1.00  0.00    -0.206 F 
ATOM     66  C   UNL A   1      44.482  25.128  25.572  1.00  0.00     0.059 A 
ATOM     67  C   UNL A   1      44.222  23.147  26.899  1.00  0.00     0.059 A 
ATOM     68  F   UNL A   1      43.158  23.207  28.933  1.00  0.00    -0.206 F 
ATOM     69  C   UNL A   1      44.636  23.757  25.727  1.00  0.00     0.060 A 
BRANCH  69  70
ATOM     70  S   UNL A   1      45.362  22.790  24.390  1.00  0.00     0.124 S 
ATOM     71  O   UNL A   1      44.215  22.578  23.511  1.00  0.00    -0.237 OA
ATOM     72  O   UNL A   1      46.393  23.688  23.882  1.00  0.00    -0.237 OA
ATOM     73  O   UNL A   1      45.860  21.592  25.061  1.00  0.00    -0.744 OA
ENDBRANCH  69  70
ENDBRANCH  48  62
BRANCH  49  74
ATOM     74  C   UNL A   1      39.183  32.475  33.442  1.00  0.00     0.058 A 
ATOM     75  C   UNL A   1      38.878  33.795  33.032  1.00  0.00     0.135 A 
ATOM     76  C   UNL A   1      38.089  31.614  33.636  1.00  0.00     0.135 A 
ATOM     77  F   UNL A   1      39.874  34.671  32.816  1.00  0.00    -0.206 F 
ATOM     78  C   UNL A   1      37.586  34.191  32.672  1.00  0.00     0.059 A 
ATOM     79  C   UNL A   1      36.787  31.984  33.256  1.00  0.00     0.059 A 
ATOM     80  F   UNL A   1      38.293  30.346  34.023  1.00  0.00    -0.206 F 
ATOM     81  C   UNL A   1      36.555  33.255  32.723  1.00  0.00     0.060 A 
BRANCH  81  82
ATOM     82  S   UNL A   1      35.014  33.606  31.811  1.00  0.00     0.124 S 
ATOM     83  O   UNL A   1      35.345  33.157  30.466  1.00  0.00    -0.237 OA
ATOM     84  O   UNL A   1      34.024  32.795  32.519  1.00  0.00    -0.237 OA
ATOM     85  O   UNL A   1      34.855  35.045  31.993  1.00  0.00    -0.744 OA
ENDBRANCH  81  82
ENDBRANCH  49  74
BRANCH  61  86
ATOM     86  C   UNL A   1      44.010  27.133  34.274  1.00  0.00     0.058 A 
ATOM     87  C   UNL A   1      45.380  27.016  34.576  1.00  0.00     0.135 A 
ATOM     88  C   UNL A   1      43.139  26.334  35.045  1.00  0.00     0.135 A 
ATOM     89  F   UNL A   1      46.299  27.828  34.030  1.00  0.00    -0.206 F 
ATOM     90  C   UNL A   1      45.865  26.081  35.478  1.00  0.00     0.059 A 
ATOM     91  C   UNL A   1      43.598  25.447  36.009  1.00  0.00     0.059 A 
ATOM     92  F   UNL A   1      41.807  26.400  34.900  1.00  0.00    -0.206 F 
ATOM     93  C   UNL A   1      44.966  25.290  36.180  1.00  0.00     0.060 A 
BRANCH  93  94
ATOM     94  S   UNL A   1      45.604  24.056  37.313  1.00  0.00     0.124 S 
ATOM     95  O   UNL A   1      44.817  24.338  38.509  1.00  0.00    -0.237 OA
ATOM     96  O   UNL A   1      45.289  22.803  36.633  1.00  0.00    -0.237 OA
ATOM     97  O   UNL A   1      47.025  24.378  37.398  1.00  0.00    -0.744 OA
ENDBRANCH  93  94
ENDBRANCH  61  86
ENDBRANCH  35  36
ENDBRANCH  28  30
ENDBRANCH  27  28
ENDBRANCH  26  27
ENDBRANCH  25  26
ENDBRANCH   1  25
TORSDOF 20
ENDMDL
