MODEL 1
REMARK VINA RESULT:      -9.7      0.000      0.000
REMARK SMILES C[C@H](C(=O)Nc1ccc(C(F)(F)F)cc1)n1nc(C(=O)OCCOCCOC(=O)c2ccc(-c3c4nc(c(-c5c(F)cc(S(=O)(=O)[O-])cc5F)c5ccc([nH]5)c(-c5c(F)cc(S(=O)(=O)[O-])cc5F)c5nc(c(-c6c(F)cc(S(=O)(=O)[O-])cc6F)c6ccc3[nH]6)C=C5)C=C4)cc2)c2ccccc2c1=O
REMARK SMILES IDX 23 1 22 2 21 3 19 4 20 5 18 6 16 7 17 8 102 9 101 10 103 11
REMARK SMILES IDX 96 12 100 13 97 14 99 15 98 16 2 17 1 18 3 19 4 20 5 21 6 23
REMARK SMILES IDX 7 24 15 25 8 26 14 27 9 28 10 29 11 30 12 31 13 32 24 33
REMARK SMILES IDX 25 34 26 35 27 36 28 37 29 38 30 39 31 40 95 41 32 42 94 43
REMARK SMILES IDX 33 44 34 45 35 46 88 47 36 48 93 49 87 50 89 51 37 52 92 53
REMARK SMILES IDX 86 54 85 55 38 57 72 58 51 59 71 60 52 61 55 62 70 63 90 64
REMARK SMILES IDX 53 65 54 66 69 68 91 69 56 70 39 71 40 72 49 73 41 74 42 75
REMARK SMILES IDX 48 76 50 77 43 78 44 79 45 80 46 81 47 82 73 83 74 84 83 85
REMARK SMILES IDX 75 86 76 87 82 88 84 89 77 90 78 91 79 92 80 93 81 94 57 95
REMARK SMILES IDX 58 96 67 97 59 98 60 99 66 100 68 101 61 102 62 103 63 104
REMARK SMILES IDX 64 105 65 106
REMARK H PARENT 5 22 89 56 55 67
REMARK Flexibility Score: inf
ROOT
ATOM      1  C   UNL A   1      50.061  22.728  40.385  1.00  0.00     0.202 C 
ENDROOT
BRANCH   1   2
ATOM      2  C   UNL A   1      49.838  22.006  39.056  1.00  0.00     0.261 C 
BRANCH   2   3
ATOM      3  O   UNL A   1      50.713  20.887  38.877  1.00  0.00    -0.458 OA
BRANCH   3   4
ATOM      4  C   UNL A   1      50.086  19.737  38.585  1.00  0.00     0.359 C 
ATOM      5  O   UNL A   1      50.542  18.607  38.635  1.00  0.00    -0.244 OA
BRANCH   4   6
ATOM      6  C   UNL A   1      48.681  19.970  38.059  1.00  0.00     0.176 A 
ATOM      7  N   UNL A   1      47.429  20.198  36.148  1.00  0.00    -0.216 N 
ATOM      8  N   UNL A   1      48.583  20.443  36.859  1.00  0.00    -0.161 NA
ATOM      9  C   UNL A   1      46.399  19.380  36.617  1.00  0.00     0.275 A 
ATOM     10  C   UNL A   1      46.510  18.927  38.024  1.00  0.00     0.051 A 
ATOM     11  O   UNL A   1      45.430  19.022  35.956  1.00  0.00    -0.267 OA
ATOM     12  C   UNL A   1      47.559  19.398  38.799  1.00  0.00     0.022 A 
ATOM     13  C   UNL A   1      45.586  18.051  38.601  1.00  0.00     0.014 A 
ATOM     14  C   UNL A   1      47.586  19.189  40.182  1.00  0.00     0.011 A 
ATOM     15  C   UNL A   1      45.664  17.752  39.966  1.00  0.00     0.001 A 
ATOM     16  C   UNL A   1      46.628  18.365  40.765  1.00  0.00     0.001 A 
BRANCH   7  17
ATOM     17  C   UNL A   1      47.427  20.779  34.797  1.00  0.00     0.197 C 
ATOM     18  C   UNL A   1      47.824  19.738  33.749  1.00  0.00     0.044 C 
BRANCH  17  19
ATOM     19  C   UNL A   1      48.206  22.104  34.624  1.00  0.00     0.249 C 
ATOM     20  O   UNL A   1      49.412  22.109  34.344  1.00  0.00    -0.272 OA
ATOM     21  N   UNL A   1      47.561  23.317  34.592  1.00  0.00    -0.324 N 
ATOM     22  H   UNL A   1      48.118  24.061  34.266  1.00  0.00     0.170 HD
BRANCH  21  23
ATOM     23  C   UNL A   1      46.256  23.689  34.938  1.00  0.00     0.041 A 
ATOM     24  C   UNL A   1      45.366  24.008  33.912  1.00  0.00     0.027 A 
ATOM     25  C   UNL A   1      45.841  23.859  36.253  1.00  0.00     0.027 A 
ATOM     26  C   UNL A   1      44.042  24.362  34.202  1.00  0.00     0.015 A 
ATOM     27  C   UNL A   1      44.523  24.215  36.553  1.00  0.00     0.015 A 
ATOM     28  C   UNL A   1      43.596  24.437  35.528  1.00  0.00     0.056 A 
BRANCH  28  29
ATOM     29  C   UNL A   1      42.169  24.799  35.856  1.00  0.00     0.416 C 
ATOM     30  F   UNL A   1      41.287  23.836  35.476  1.00  0.00    -0.166 F 
ATOM     31  F   UNL A   1      41.954  25.012  37.183  1.00  0.00    -0.166 F 
ATOM     32  F   UNL A   1      41.761  25.943  35.231  1.00  0.00    -0.166 F 
ENDBRANCH  28  29
ENDBRANCH  21  23
ENDBRANCH  17  19
ENDBRANCH   7  17
ENDBRANCH   4   6
ENDBRANCH   3   4
ENDBRANCH   2   3
ENDBRANCH   1   2
BRANCH   1  33
ATOM     33  O   UNL A   1      49.347  23.933  40.633  1.00  0.00    -0.374 OA
BRANCH  33  34
ATOM     34  C   UNL A   1      49.371  24.977  39.669  1.00  0.00     0.202 C 
BRANCH  34  35
ATOM     35  C   UNL A   1      48.154  25.898  39.482  1.00  0.00     0.261 C 
BRANCH  35  36
ATOM     36  O   UNL A   1      48.105  26.595  38.228  1.00  0.00    -0.460 OA
BRANCH  36  37
ATOM     37  C   UNL A   1      47.538  27.825  38.303  1.00  0.00     0.338 C 
ATOM     38  O   UNL A   1      47.898  28.755  39.007  1.00  0.00    -0.246 OA
BRANCH  37  39
ATOM     39  C   UNL A   1      46.469  27.986  37.305  1.00  0.00     0.060 A 
ATOM     40  C   UNL A   1      46.698  28.862  36.237  1.00  0.00     0.016 A 
ATOM     41  C   UNL A   1      45.196  27.460  37.535  1.00  0.00     0.016 A 
ATOM     42  C   UNL A   1      45.639  29.263  35.427  1.00  0.00     0.010 A 
ATOM     43  C   UNL A   1      44.132  27.874  36.725  1.00  0.00     0.010 A 
ATOM     44  C   UNL A   1      44.342  28.813  35.699  1.00  0.00    -0.014 A 
BRANCH  44  45
ATOM     45  C   UNL A   1      43.195  29.468  35.025  1.00  0.00     0.031 A 
ATOM     46  C   UNL A   1      42.782  28.987  33.658  1.00  0.00     0.074 A 
ATOM     47  C   UNL A   1      42.499  30.438  35.642  1.00  0.00     0.049 A 
ATOM     48  N   UNL A   1      41.831  29.429  32.877  1.00  0.00    -0.248 NA
ATOM     49  C   UNL A   1      43.538  27.853  33.102  1.00  0.00     0.031 C 
ATOM     50  C   UNL A   1      42.773  30.947  36.986  1.00  0.00     0.029 A 
ATOM     51  N   UNL A   1      41.421  31.171  35.217  1.00  0.00    -0.354 N 
ATOM     52  C   UNL A   1      41.881  28.638  31.734  1.00  0.00     0.074 A 
ATOM     53  C   UNL A   1      42.969  27.702  31.914  1.00  0.00     0.031 C 
ATOM     54  C   UNL A   1      41.891  31.920  37.269  1.00  0.00     0.029 A 
ATOM     55  C   UNL A   1      41.014  32.124  36.117  1.00  0.00     0.049 A 
ATOM     56  H   UNL A   1      40.980  31.025  34.348  1.00  0.00     0.167 HD
ATOM     57  C   UNL A   1      41.085  28.684  30.638  1.00  0.00     0.037 A 
ATOM     58  C   UNL A   1      40.060  33.070  36.013  1.00  0.00     0.037 A 
ATOM     59  C   UNL A   1      40.000  29.614  30.468  1.00  0.00     0.049 A 
ATOM     60  C   UNL A   1      39.230  33.144  34.757  1.00  0.00     0.074 A 
ATOM     61  C   UNL A   1      39.129  29.735  29.399  1.00  0.00     0.029 A 
ATOM     62  N   UNL A   1      39.639  30.585  31.390  1.00  0.00    -0.354 N 
ATOM     63  N   UNL A   1      39.282  32.386  33.687  1.00  0.00    -0.248 NA
ATOM     64  C   UNL A   1      38.210  34.201  34.694  1.00  0.00     0.031 C 
ATOM     65  C   UNL A   1      38.269  30.808  29.656  1.00  0.00     0.029 A 
ATOM     66  C   UNL A   1      38.572  31.325  30.907  1.00  0.00     0.049 A 
ATOM     67  H   UNL A   1      40.076  30.728  32.261  1.00  0.00     0.167 HD
ATOM     68  C   UNL A   1      38.287  32.856  32.837  1.00  0.00     0.074 A 
ATOM     69  C   UNL A   1      37.642  33.959  33.521  1.00  0.00     0.031 C 
ATOM     70  C   UNL A   1      37.935  32.413  31.605  1.00  0.00     0.037 A 
BRANCH  57  71
ATOM     71  C   UNL A   1      41.378  27.719  29.523  1.00  0.00     0.058 A 
ATOM     72  C   UNL A   1      42.495  27.870  28.687  1.00  0.00     0.135 A 
ATOM     73  C   UNL A   1      40.548  26.605  29.311  1.00  0.00     0.135 A 
ATOM     74  F   UNL A   1      43.312  28.926  28.834  1.00  0.00    -0.206 F 
ATOM     75  C   UNL A   1      42.767  26.966  27.664  1.00  0.00     0.059 A 
ATOM     76  C   UNL A   1      40.814  25.675  28.311  1.00  0.00     0.059 A 
ATOM     77  F   UNL A   1      39.466  26.414  30.080  1.00  0.00    -0.206 F 
ATOM     78  C   UNL A   1      41.919  25.871  27.484  1.00  0.00     0.060 A 
BRANCH  78  79
ATOM     79  S   UNL A   1      42.286  24.703  26.157  1.00  0.00     0.124 S 
ATOM     80  O   UNL A   1      41.103  23.850  26.184  1.00  0.00    -0.237 OA
ATOM     81  O   UNL A   1      42.411  25.576  24.995  1.00  0.00    -0.237 OA
ATOM     82  O   UNL A   1      43.526  24.068  26.597  1.00  0.00    -0.744 OA
ENDBRANCH  78  79
ENDBRANCH  57  71
BRANCH  58  83
ATOM     83  C   UNL A   1      39.850  34.036  37.122  1.00  0.00     0.058 A 
ATOM     84  C   UNL A   1      39.072  33.705  38.241  1.00  0.00     0.135 A 
ATOM     85  C   UNL A   1      40.433  35.313  37.086  1.00  0.00     0.135 A 
ATOM     86  F   UNL A   1      38.486  32.500  38.316  1.00  0.00    -0.206 F 
ATOM     87  C   UNL A   1      38.868  34.607  39.279  1.00  0.00     0.059 A 
ATOM     88  C   UNL A   1      40.264  36.224  38.123  1.00  0.00     0.059 A 
ATOM     89  F   UNL A   1      41.196  35.675  36.043  1.00  0.00    -0.206 F 
ATOM     90  C   UNL A   1      39.471  35.865  39.212  1.00  0.00     0.060 A 
BRANCH  90  91
ATOM     91  S   UNL A   1      39.251  37.010  40.590  1.00  0.00     0.124 S 
ATOM     92  O   UNL A   1      40.630  37.257  40.990  1.00  0.00    -0.237 OA
ATOM     93  O   UNL A   1      38.559  38.126  39.954  1.00  0.00    -0.237 OA
ATOM     94  O   UNL A   1      38.444  36.243  41.535  1.00  0.00    -0.744 OA
ENDBRANCH  90  91
ENDBRANCH  58  83
BRANCH  70  95
ATOM     95  C   UNL A   1      36.778  33.093  30.926  1.00  0.00     0.058 A 
ATOM     96  C   UNL A   1      36.967  33.980  29.856  1.00  0.00     0.135 A 
ATOM     97  C   UNL A   1      35.459  32.808  31.318  1.00  0.00     0.135 A 
ATOM     98  F   UNL A   1      38.207  34.292  29.447  1.00  0.00    -0.206 F 
ATOM     99  C   UNL A   1      35.888  34.577  29.210  1.00  0.00     0.059 A 
ATOM    100  C   UNL A   1      34.366  33.372  30.669  1.00  0.00     0.059 A 
ATOM    101  F   UNL A   1      35.223  31.957  32.330  1.00  0.00    -0.206 F 
ATOM    102  C   UNL A   1      34.592  34.266  29.623  1.00  0.00     0.060 A 
BRANCH 102 103
ATOM    103  S   UNL A   1      33.201  35.018  28.752  1.00  0.00     0.124 S 
ATOM    104  O   UNL A   1      33.848  36.137  28.077  1.00  0.00    -0.237 OA
ATOM    105  O   UNL A   1      32.745  33.934  27.889  1.00  0.00    -0.237 OA
ATOM    106  O   UNL A   1      32.282  35.381  29.829  1.00  0.00    -0.744 OA
ENDBRANCH 102 103
ENDBRANCH  70  95
ENDBRANCH  44  45
ENDBRANCH  37  39
ENDBRANCH  36  37
ENDBRANCH  35  36
ENDBRANCH  34  35
ENDBRANCH  33  34
ENDBRANCH   1  33
TORSDOF 21
ENDMDL
MODEL 2
REMARK VINA RESULT:      -9.4      4.194     10.733
REMARK SMILES C[C@H](C(=O)Nc1ccc(C(F)(F)F)cc1)n1nc(C(=O)OCCOCCOC(=O)c2ccc(-c3c4nc(c(-c5c(F)cc(S(=O)(=O)[O-])cc5F)c5ccc([nH]5)c(-c5c(F)cc(S(=O)(=O)[O-])cc5F)c5nc(c(-c6c(F)cc(S(=O)(=O)[O-])cc6F)c6ccc3[nH]6)C=C5)C=C4)cc2)c2ccccc2c1=O
REMARK SMILES IDX 23 1 22 2 21 3 19 4 20 5 18 6 16 7 17 8 102 9 101 10 103 11
REMARK SMILES IDX 96 12 100 13 97 14 99 15 98 16 2 17 1 18 3 19 4 20 5 21 6 23
REMARK SMILES IDX 7 24 15 25 8 26 14 27 9 28 10 29 11 30 12 31 13 32 24 33
REMARK SMILES IDX 25 34 26 35 27 36 28 37 29 38 30 39 31 40 95 41 32 42 94 43
REMARK SMILES IDX 33 44 34 45 35 46 88 47 36 48 93 49 87 50 89 51 37 52 92 53
REMARK SMILES IDX 86 54 85 55 38 57 72 58 51 59 71 60 52 61 55 62 70 63 90 64
REMARK SMILES IDX 53 65 54 66 69 68 91 69 56 70 39 71 40 72 49 73 41 74 42 75
REMARK SMILES IDX 48 76 50 77 43 78 44 79 45 80 46 81 47 82 73 83 74 84 83 85
REMARK SMILES IDX 75 86 76 87 82 88 84 89 77 90 78 91 79 92 80 93 81 94 57 95
REMARK SMILES IDX 58 96 67 97 59 98 60 99 66 100 68 101 61 102 62 103 63 104
REMARK SMILES IDX 64 105 65 106
REMARK H PARENT 5 22 89 56 55 67
REMARK Flexibility Score: inf
ROOT
ATOM      1  C   UNL A   1      44.144  24.131  28.629  1.00  0.00     0.202 C 
ENDROOT
BRANCH   1   2
ATOM      2  C   UNL A   1      44.245  24.898  29.949  1.00  0.00     0.261 C 
BRANCH   2   3
ATOM      3  O   UNL A   1      44.342  26.314  29.765  1.00  0.00    -0.458 OA
BRANCH   3   4
ATOM      4  C   UNL A   1      45.586  26.803  29.884  1.00  0.00     0.359 C 
ATOM      5  O   UNL A   1      46.482  26.391  30.603  1.00  0.00    -0.244 OA
BRANCH   4   6
ATOM      6  C   UNL A   1      45.786  28.061  29.060  1.00  0.00     0.176 A 
ATOM      7  N   UNL A   1      46.112  28.852  26.929  1.00  0.00    -0.216 N 
ATOM      8  N   UNL A   1      46.358  27.916  27.909  1.00  0.00    -0.161 NA
ATOM      9  C   UNL A   1      45.199  29.898  27.080  1.00  0.00     0.275 A 
ATOM     10  C   UNL A   1      44.628  30.080  28.436  1.00  0.00     0.051 A 
ATOM     11  O   UNL A   1      44.846  30.658  26.184  1.00  0.00    -0.267 OA
ATOM     12  C   UNL A   1      45.087  29.277  29.470  1.00  0.00     0.022 A 
ATOM     13  C   UNL A   1      43.654  31.043  28.712  1.00  0.00     0.014 A 
ATOM     14  C   UNL A   1      44.757  29.554  30.800  1.00  0.00     0.011 A 
ATOM     15  C   UNL A   1      43.238  31.260  30.031  1.00  0.00     0.001 A 
ATOM     16  C   UNL A   1      43.832  30.556  31.079  1.00  0.00     0.001 A 
BRANCH   7  17
ATOM     17  C   UNL A   1      46.810  28.586  25.662  1.00  0.00     0.197 C 
ATOM     18  C   UNL A   1      45.997  27.647  24.771  1.00  0.00     0.044 C 
BRANCH  17  19
ATOM     19  C   UNL A   1      48.288  28.144  25.779  1.00  0.00     0.249 C 
ATOM     20  O   UNL A   1      49.194  28.968  25.957  1.00  0.00    -0.272 OA
ATOM     21  N   UNL A   1      48.635  26.817  25.874  1.00  0.00    -0.324 N 
ATOM     22  H   UNL A   1      49.565  26.663  26.157  1.00  0.00     0.170 HD
BRANCH  21  23
ATOM     23  C   UNL A   1      47.907  25.644  25.641  1.00  0.00     0.041 A 
ATOM     24  C   UNL A   1      47.797  25.184  24.328  1.00  0.00     0.027 A 
ATOM     25  C   UNL A   1      47.202  24.980  26.638  1.00  0.00     0.027 A 
ATOM     26  C   UNL A   1      47.102  24.002  24.043  1.00  0.00     0.015 A 
ATOM     27  C   UNL A   1      46.503  23.801  26.364  1.00  0.00     0.015 A 
ATOM     28  C   UNL A   1      46.473  23.278  25.066  1.00  0.00     0.056 A 
BRANCH  28  29
ATOM     29  C   UNL A   1      45.736  21.994  24.778  1.00  0.00     0.416 C 
ATOM     30  F   UNL A   1      44.992  21.572  25.837  1.00  0.00    -0.166 F 
ATOM     31  F   UNL A   1      44.881  22.084  23.723  1.00  0.00    -0.166 F 
ATOM     32  F   UNL A   1      46.577  20.960  24.482  1.00  0.00    -0.166 F 
ENDBRANCH  28  29
ENDBRANCH  21  23
ENDBRANCH  17  19
ENDBRANCH   7  17
ENDBRANCH   4   6
ENDBRANCH   3   4
ENDBRANCH   2   3
ENDBRANCH   1   2
BRANCH   1  33
ATOM     33  O   UNL A   1      43.813  22.749  28.668  1.00  0.00    -0.374 OA
BRANCH  33  34
ATOM     34  C   UNL A   1      42.619  22.293  28.046  1.00  0.00     0.202 C 
BRANCH  34  35
ATOM     35  C   UNL A   1      41.260  22.911  28.410  1.00  0.00     0.261 C 
BRANCH  35  36
ATOM     36  O   UNL A   1      40.565  23.540  27.322  1.00  0.00    -0.460 OA
BRANCH  36  37
ATOM     37  C   UNL A   1      41.150  24.681  26.881  1.00  0.00     0.338 C 
ATOM     38  O   UNL A   1      41.841  24.813  25.883  1.00  0.00    -0.246 OA
BRANCH  37  39
ATOM     39  C   UNL A   1      40.744  25.841  27.692  1.00  0.00     0.060 A 
ATOM     40  C   UNL A   1      41.624  26.927  27.766  1.00  0.00     0.016 A 
ATOM     41  C   UNL A   1      39.631  25.766  28.532  1.00  0.00     0.016 A 
ATOM     42  C   UNL A   1      41.426  27.918  28.723  1.00  0.00     0.010 A 
ATOM     43  C   UNL A   1      39.441  26.759  29.500  1.00  0.00     0.010 A 
ATOM     44  C   UNL A   1      40.365  27.812  29.630  1.00  0.00    -0.014 A 
BRANCH  44  45
ATOM     45  C   UNL A   1      40.337  28.703  30.815  1.00  0.00     0.031 A 
ATOM     46  C   UNL A   1      39.342  29.834  30.854  1.00  0.00     0.074 A 
ATOM     47  C   UNL A   1      41.148  28.476  31.863  1.00  0.00     0.049 A 
ATOM     48  N   UNL A   1      39.161  30.747  31.772  1.00  0.00    -0.248 NA
ATOM     49  C   UNL A   1      38.427  29.946  29.706  1.00  0.00     0.031 C 
ATOM     50  C   UNL A   1      42.112  27.381  31.961  1.00  0.00     0.029 A 
ATOM     51  N   UNL A   1      41.290  29.158  33.044  1.00  0.00    -0.354 N 
ATOM     52  C   UNL A   1      38.122  31.548  31.311  1.00  0.00     0.074 A 
ATOM     53  C   UNL A   1      37.726  31.026  30.021  1.00  0.00     0.031 C 
ATOM     54  C   UNL A   1      42.757  27.474  33.136  1.00  0.00     0.029 A 
ATOM     55  C   UNL A   1      42.274  28.651  33.857  1.00  0.00     0.049 A 
ATOM     56  H   UNL A   1      40.738  29.937  33.286  1.00  0.00     0.167 HD
ATOM     57  C   UNL A   1      37.545  32.616  31.913  1.00  0.00     0.037 A 
ATOM     58  C   UNL A   1      42.748  29.101  35.035  1.00  0.00     0.037 A 
ATOM     59  C   UNL A   1      37.940  33.126  33.200  1.00  0.00     0.049 A 
ATOM     60  C   UNL A   1      42.135  30.330  35.655  1.00  0.00     0.074 A 
ATOM     61  C   UNL A   1      37.412  34.197  33.901  1.00  0.00     0.029 A 
ATOM     62  N   UNL A   1      38.962  32.603  33.978  1.00  0.00    -0.354 N 
ATOM     63  N   UNL A   1      41.149  31.074  35.212  1.00  0.00    -0.248 NA
ATOM     64  C   UNL A   1      42.698  30.781  36.936  1.00  0.00     0.031 C 
ATOM     65  C   UNL A   1      38.144  34.348  35.083  1.00  0.00     0.029 A 
ATOM     66  C   UNL A   1      39.096  33.342  35.142  1.00  0.00     0.049 A 
ATOM     67  H   UNL A   1      39.511  31.821  33.739  1.00  0.00     0.167 HD
ATOM     68  C   UNL A   1      40.955  32.062  36.172  1.00  0.00     0.074 A 
ATOM     69  C   UNL A   1      41.922  31.817  37.223  1.00  0.00     0.031 C 
ATOM     70  C   UNL A   1      40.057  33.078  36.184  1.00  0.00     0.037 A 
BRANCH  57  71
ATOM     71  C   UNL A   1      36.444  33.324  31.172  1.00  0.00     0.058 A 
ATOM     72  C   UNL A   1      35.101  33.222  31.569  1.00  0.00     0.135 A 
ATOM     73  C   UNL A   1      36.742  34.145  30.072  1.00  0.00     0.135 A 
ATOM     74  F   UNL A   1      34.759  32.438  32.603  1.00  0.00    -0.206 F 
ATOM     75  C   UNL A   1      34.089  33.891  30.886  1.00  0.00     0.059 A 
ATOM     76  C   UNL A   1      35.749  34.841  29.390  1.00  0.00     0.059 A 
ATOM     77  F   UNL A   1      38.009  34.275  29.650  1.00  0.00    -0.206 F 
ATOM     78  C   UNL A   1      34.424  34.697  29.796  1.00  0.00     0.060 A 
BRANCH  78  79
ATOM     79  S   UNL A   1      33.101  35.562  28.923  1.00  0.00     0.124 S 
ATOM     80  O   UNL A   1      33.857  36.530  28.134  1.00  0.00    -0.237 OA
ATOM     81  O   UNL A   1      32.467  34.487  28.168  1.00  0.00    -0.237 OA
ATOM     82  O   UNL A   1      32.294  36.127  30.002  1.00  0.00    -0.744 OA
ENDBRANCH  78  79
ENDBRANCH  57  71
BRANCH  58  83
ATOM     83  C   UNL A   1      43.877  28.397  35.697  1.00  0.00     0.058 A 
ATOM     84  C   UNL A   1      45.210  28.712  35.395  1.00  0.00     0.135 A 
ATOM     85  C   UNL A   1      43.642  27.395  36.652  1.00  0.00     0.135 A 
ATOM     86  F   UNL A   1      45.485  29.654  34.481  1.00  0.00    -0.206 F 
ATOM     87  C   UNL A   1      46.271  28.052  36.007  1.00  0.00     0.059 A 
ATOM     88  C   UNL A   1      44.685  26.738  37.295  1.00  0.00     0.059 A 
ATOM     89  F   UNL A   1      42.385  27.064  36.985  1.00  0.00    -0.206 F 
ATOM     90  C   UNL A   1      45.998  27.068  36.959  1.00  0.00     0.060 A 
BRANCH  90  91
ATOM     91  S   UNL A   1      47.378  26.257  37.793  1.00  0.00     0.124 S 
ATOM     92  O   UNL A   1      46.764  25.846  39.048  1.00  0.00    -0.237 OA
ATOM     93  O   UNL A   1      47.711  25.183  36.861  1.00  0.00    -0.237 OA
ATOM     94  O   UNL A   1      48.377  27.317  37.892  1.00  0.00    -0.744 OA
ENDBRANCH  90  91
ENDBRANCH  58  83
BRANCH  70  95
ATOM     95  C   UNL A   1      40.047  33.981  37.386  1.00  0.00     0.058 A 
ATOM     96  C   UNL A   1      40.796  35.167  37.425  1.00  0.00     0.135 A 
ATOM     97  C   UNL A   1      39.231  33.683  38.490  1.00  0.00     0.135 A 
ATOM     98  F   UNL A   1      41.596  35.496  36.398  1.00  0.00    -0.206 F 
ATOM     99  C   UNL A   1      40.752  36.017  38.526  1.00  0.00     0.059 A 
ATOM    100  C   UNL A   1      39.152  34.531  39.590  1.00  0.00     0.059 A 
ATOM    101  F   UNL A   1      38.486  32.566  38.499  1.00  0.00    -0.206 F 
ATOM    102  C   UNL A   1      39.927  35.691  39.604  1.00  0.00     0.060 A 
BRANCH 102 103
ATOM    103  S   UNL A   1      39.851  36.819  41.011  1.00  0.00     0.124 S 
ATOM    104  O   UNL A   1      39.829  38.117  40.345  1.00  0.00    -0.237 OA
ATOM    105  O   UNL A   1      38.610  36.422  41.667  1.00  0.00    -0.237 OA
ATOM    106  O   UNL A   1      41.071  36.516  41.755  1.00  0.00    -0.744 OA
ENDBRANCH 102 103
ENDBRANCH  70  95
ENDBRANCH  44  45
ENDBRANCH  37  39
ENDBRANCH  36  37
ENDBRANCH  35  36
ENDBRANCH  34  35
ENDBRANCH  33  34
ENDBRANCH   1  33
TORSDOF 21
ENDMDL
MODEL 3
REMARK VINA RESULT:      -9.4      2.282      4.550
REMARK SMILES C[C@H](C(=O)Nc1ccc(C(F)(F)F)cc1)n1nc(C(=O)OCCOCCOC(=O)c2ccc(-c3c4nc(c(-c5c(F)cc(S(=O)(=O)[O-])cc5F)c5ccc([nH]5)c(-c5c(F)cc(S(=O)(=O)[O-])cc5F)c5nc(c(-c6c(F)cc(S(=O)(=O)[O-])cc6F)c6ccc3[nH]6)C=C5)C=C4)cc2)c2ccccc2c1=O
REMARK SMILES IDX 23 1 22 2 21 3 19 4 20 5 18 6 16 7 17 8 102 9 101 10 103 11
REMARK SMILES IDX 96 12 100 13 97 14 99 15 98 16 2 17 1 18 3 19 4 20 5 21 6 23
REMARK SMILES IDX 7 24 15 25 8 26 14 27 9 28 10 29 11 30 12 31 13 32 24 33
REMARK SMILES IDX 25 34 26 35 27 36 28 37 29 38 30 39 31 40 95 41 32 42 94 43
REMARK SMILES IDX 33 44 34 45 35 46 88 47 36 48 93 49 87 50 89 51 37 52 92 53
REMARK SMILES IDX 86 54 85 55 38 57 72 58 51 59 71 60 52 61 55 62 70 63 90 64
REMARK SMILES IDX 53 65 54 66 69 68 91 69 56 70 39 71 40 72 49 73 41 74 42 75
REMARK SMILES IDX 48 76 50 77 43 78 44 79 45 80 46 81 47 82 73 83 74 84 83 85
REMARK SMILES IDX 75 86 76 87 82 88 84 89 77 90 78 91 79 92 80 93 81 94 57 95
REMARK SMILES IDX 58 96 67 97 59 98 60 99 66 100 68 101 61 102 62 103 63 104
REMARK SMILES IDX 64 105 65 106
REMARK H PARENT 5 22 89 56 55 67
REMARK Flexibility Score: inf
ROOT
ATOM      1  C   UNL A   1      46.868  25.549  32.042  1.00  0.00     0.202 C 
ENDROOT
BRANCH   1   2
ATOM      2  C   UNL A   1      46.195  25.213  33.374  1.00  0.00     0.261 C 
BRANCH   2   3
ATOM      3  O   UNL A   1      44.790  24.975  33.243  1.00  0.00    -0.458 OA
BRANCH   3   4
ATOM      4  C   UNL A   1      44.412  23.721  33.538  1.00  0.00     0.359 C 
ATOM      5  O   UNL A   1      44.148  22.821  32.759  1.00  0.00    -0.244 OA
BRANCH   4   6
ATOM      6  C   UNL A   1      44.236  23.515  35.031  1.00  0.00     0.176 A 
ATOM      7  N   UNL A   1      45.325  22.918  36.963  1.00  0.00    -0.216 N 
ATOM      8  N   UNL A   1      45.098  22.746  35.616  1.00  0.00    -0.161 NA
ATOM      9  C   UNL A   1      44.747  23.945  37.713  1.00  0.00     0.275 A 
ATOM     10  C   UNL A   1      43.707  24.750  37.031  1.00  0.00     0.051 A 
ATOM     11  O   UNL A   1      45.039  24.217  38.873  1.00  0.00    -0.267 OA
ATOM     12  C   UNL A   1      43.316  24.393  35.749  1.00  0.00     0.022 A 
ATOM     13  C   UNL A   1      43.096  25.850  37.640  1.00  0.00     0.014 A 
ATOM     14  C   UNL A   1      42.189  24.967  35.151  1.00  0.00     0.011 A 
ATOM     15  C   UNL A   1      42.032  26.500  37.004  1.00  0.00     0.001 A 
ATOM     16  C   UNL A   1      41.544  26.023  35.788  1.00  0.00     0.001 A 
BRANCH   7  17
ATOM     17  C   UNL A   1      46.323  21.994  37.522  1.00  0.00     0.197 C 
ATOM     18  C   UNL A   1      47.302  22.728  38.440  1.00  0.00     0.044 C 
BRANCH  17  19
ATOM     19  C   UNL A   1      47.051  21.082  36.506  1.00  0.00     0.249 C 
ATOM     20  O   UNL A   1      47.830  21.550  35.665  1.00  0.00    -0.272 OA
ATOM     21  N   UNL A   1      47.008  19.712  36.611  1.00  0.00    -0.324 N 
ATOM     22  H   UNL A   1      47.670  19.245  36.052  1.00  0.00     0.170 HD
BRANCH  21  23
ATOM     23  C   UNL A   1      46.194  18.860  37.366  1.00  0.00     0.041 A 
ATOM     24  C   UNL A   1      46.532  18.635  38.701  1.00  0.00     0.027 A 
ATOM     25  C   UNL A   1      45.133  18.146  36.821  1.00  0.00     0.027 A 
ATOM     26  C   UNL A   1      45.738  17.810  39.508  1.00  0.00     0.015 A 
ATOM     27  C   UNL A   1      44.336  17.319  37.618  1.00  0.00     0.015 A 
ATOM     28  C   UNL A   1      44.609  17.169  38.981  1.00  0.00     0.056 A 
BRANCH  28  29
ATOM     29  C   UNL A   1      43.733  16.292  39.842  1.00  0.00     0.416 C 
ATOM     30  F   UNL A   1      43.474  15.088  39.264  1.00  0.00    -0.166 F 
ATOM     31  F   UNL A   1      44.268  16.022  41.063  1.00  0.00    -0.166 F 
ATOM     32  F   UNL A   1      42.513  16.853  40.091  1.00  0.00    -0.166 F 
ENDBRANCH  28  29
ENDBRANCH  21  23
ENDBRANCH  17  19
ENDBRANCH   7  17
ENDBRANCH   4   6
ENDBRANCH   3   4
ENDBRANCH   2   3
ENDBRANCH   1   2
BRANCH   1  33
ATOM     33  O   UNL A   1      48.182  26.093  32.062  1.00  0.00    -0.374 OA
BRANCH  33  34
ATOM     34  C   UNL A   1      48.543  27.030  33.068  1.00  0.00     0.202 C 
BRANCH  34  35
ATOM     35  C   UNL A   1      49.434  26.608  34.247  1.00  0.00     0.261 C 
BRANCH  35  36
ATOM     36  O   UNL A   1      49.545  27.574  35.304  1.00  0.00    -0.460 OA
BRANCH  36  37
ATOM     37  C   UNL A   1      48.707  27.348  36.347  1.00  0.00     0.338 C 
ATOM     38  O   UNL A   1      48.938  26.677  37.340  1.00  0.00    -0.246 OA
BRANCH  37  39
ATOM     39  C   UNL A   1      47.471  28.139  36.224  1.00  0.00     0.060 A 
ATOM     40  C   UNL A   1      46.250  27.466  36.351  1.00  0.00     0.016 A 
ATOM     41  C   UNL A   1      47.515  29.461  35.776  1.00  0.00     0.016 A 
ATOM     42  C   UNL A   1      45.067  28.095  35.974  1.00  0.00     0.010 A 
ATOM     43  C   UNL A   1      46.324  30.086  35.389  1.00  0.00     0.010 A 
ATOM     44  C   UNL A   1      45.103  29.389  35.441  1.00  0.00    -0.014 A 
BRANCH  44  45
ATOM     45  C   UNL A   1      43.892  29.930  34.778  1.00  0.00     0.031 A 
ATOM     46  C   UNL A   1      43.539  29.446  33.396  1.00  0.00     0.074 A 
ATOM     47  C   UNL A   1      43.089  30.797  35.419  1.00  0.00     0.049 A 
ATOM     48  N   UNL A   1      42.547  29.801  32.622  1.00  0.00    -0.248 NA
ATOM     49  C   UNL A   1      44.420  28.421  32.812  1.00  0.00     0.031 C 
ATOM     50  C   UNL A   1      43.300  31.294  36.778  1.00  0.00     0.029 A 
ATOM     51  N   UNL A   1      41.936  31.415  35.008  1.00  0.00    -0.354 N 
ATOM     52  C   UNL A   1      42.689  29.054  31.457  1.00  0.00     0.074 A 
ATOM     53  C   UNL A   1      43.875  28.242  31.617  1.00  0.00     0.031 C 
ATOM     54  C   UNL A   1      42.312  32.153  37.085  1.00  0.00     0.029 A 
ATOM     55  C   UNL A   1      41.422  32.290  35.934  1.00  0.00     0.049 A 
ATOM     56  H   UNL A   1      41.518  31.247  34.133  1.00  0.00     0.167 HD
ATOM     57  C   UNL A   1      41.897  29.042  30.358  1.00  0.00     0.037 A 
ATOM     58  C   UNL A   1      40.367  33.125  35.851  1.00  0.00     0.037 A 
ATOM     59  C   UNL A   1      40.714  29.849  30.208  1.00  0.00     0.049 A 
ATOM     60  C   UNL A   1      39.538  33.142  34.592  1.00  0.00     0.074 A 
ATOM     61  C   UNL A   1      39.837  29.902  29.138  1.00  0.00     0.029 A 
ATOM     62  N   UNL A   1      40.242  30.745  31.156  1.00  0.00    -0.354 N 
ATOM     63  N   UNL A   1      39.679  32.426  33.501  1.00  0.00    -0.248 NA
ATOM     64  C   UNL A   1      38.405  34.078  34.553  1.00  0.00     0.031 C 
ATOM     65  C   UNL A   1      38.862  30.863  29.420  1.00  0.00     0.029 A 
ATOM     66  C   UNL A   1      39.101  31.373  30.687  1.00  0.00     0.049 A 
ATOM     67  H   UNL A   1      40.658  30.911  32.033  1.00  0.00     0.167 HD
ATOM     68  C   UNL A   1      38.639  32.805  32.659  1.00  0.00     0.074 A 
ATOM     69  C   UNL A   1      37.872  33.809  33.370  1.00  0.00     0.031 C 
ATOM     70  C   UNL A   1      38.343  32.362  31.412  1.00  0.00     0.037 A 
BRANCH  57  71
ATOM     71  C   UNL A   1      42.300  28.149  29.217  1.00  0.00     0.058 A 
ATOM     72  C   UNL A   1      43.375  28.467  28.373  1.00  0.00     0.135 A 
ATOM     73  C   UNL A   1      41.623  26.939  28.989  1.00  0.00     0.135 A 
ATOM     74  F   UNL A   1      44.045  29.619  28.535  1.00  0.00    -0.206 F 
ATOM     75  C   UNL A   1      43.750  27.629  27.326  1.00  0.00     0.059 A 
ATOM     76  C   UNL A   1      41.997  26.075  27.965  1.00  0.00     0.059 A 
ATOM     77  F   UNL A   1      40.587  26.589  29.766  1.00  0.00    -0.206 F 
ATOM     78  C   UNL A   1      43.053  26.435  27.130  1.00  0.00     0.060 A 
BRANCH  78  79
ATOM     79  S   UNL A   1      43.555  25.355  25.772  1.00  0.00     0.124 S 
ATOM     80  O   UNL A   1      44.884  25.873  25.465  1.00  0.00    -0.237 OA
ATOM     81  O   UNL A   1      43.517  24.034  26.391  1.00  0.00    -0.237 OA
ATOM     82  O   UNL A   1      42.537  25.596  24.752  1.00  0.00    -0.744 OA
ENDBRANCH  78  79
ENDBRANCH  57  71
BRANCH  58  83
ATOM     83  C   UNL A   1      40.047  34.028  36.986  1.00  0.00     0.058 A 
ATOM     84  C   UNL A   1      40.557  35.333  37.045  1.00  0.00     0.135 A 
ATOM     85  C   UNL A   1      39.214  33.604  38.033  1.00  0.00     0.135 A 
ATOM     86  F   UNL A   1      41.366  35.781  36.073  1.00  0.00    -0.206 F 
ATOM     87  C   UNL A   1      40.266  36.181  38.108  1.00  0.00     0.059 A 
ATOM     88  C   UNL A   1      38.888  34.441  39.095  1.00  0.00     0.059 A 
ATOM     89  F   UNL A   1      38.690  32.368  38.018  1.00  0.00    -0.206 F 
ATOM     90  C   UNL A   1      39.427  35.727  39.127  1.00  0.00     0.060 A 
BRANCH  90  91
ATOM     91  S   UNL A   1      39.004  36.853  40.474  1.00  0.00     0.124 S 
ATOM     92  O   UNL A   1      38.437  37.981  39.747  1.00  0.00    -0.237 OA
ATOM     93  O   UNL A   1      38.063  36.057  41.256  1.00  0.00    -0.237 OA
ATOM     94  O   UNL A   1      40.290  37.096  41.121  1.00  0.00    -0.744 OA
ENDBRANCH  90  91
ENDBRANCH  58  83
BRANCH  70  95
ATOM     95  C   UNL A   1      37.118  32.927  30.747  1.00  0.00     0.058 A 
ATOM     96  C   UNL A   1      37.199  33.978  29.822  1.00  0.00     0.135 A 
ATOM     97  C   UNL A   1      35.854  32.368  30.997  1.00  0.00     0.135 A 
ATOM     98  F   UNL A   1      38.382  34.552  29.551  1.00  0.00    -0.206 F 
ATOM     99  C   UNL A   1      36.065  34.471  29.183  1.00  0.00     0.059 A 
ATOM    100  C   UNL A   1      34.711  32.827  30.350  1.00  0.00     0.059 A 
ATOM    101  F   UNL A   1      35.723  31.352  31.866  1.00  0.00    -0.206 F 
ATOM    102  C   UNL A   1      34.826  33.888  29.452  1.00  0.00     0.060 A 
BRANCH 102 103
ATOM    103  S   UNL A   1      33.368  34.511  28.589  1.00  0.00     0.124 S 
ATOM    104  O   UNL A   1      32.953  33.338  27.829  1.00  0.00    -0.237 OA
ATOM    105  O   UNL A   1      32.491  34.896  29.690  1.00  0.00    -0.237 OA
ATOM    106  O   UNL A   1      33.891  35.621  27.797  1.00  0.00    -0.744 OA
ENDBRANCH 102 103
ENDBRANCH  70  95
ENDBRANCH  44  45
ENDBRANCH  37  39
ENDBRANCH  36  37
ENDBRANCH  35  36
ENDBRANCH  34  35
ENDBRANCH  33  34
ENDBRANCH   1  33
TORSDOF 21
ENDMDL
