MODEL 1
REMARK VINA RESULT:      -9.6      0.000      0.000
REMARK SMILES CCC[NH2+][C@]1(C(=O)OCCOCCOC(=O)c2ccc(-c3c4nc(c(-c5c(F)cc(S(=O)(=O)[O-])cc5F)c5ccc([nH]5)c(-c5c(F)cc(S(=O)(=O)[O-])cc5F)c5nc(c(-c6c(F)cc(S(=O)(=O)[O-])cc6F)c6ccc3[nH]6)C=C5)C=C4)cc2)CCC[C@@H]([N@@H+](C)[C@@H](C)C2CC2)C1
REMARK SMILES IDX 11 1 10 2 9 3 8 4 6 5 7 6 5 7 83 8 94 9 84 10 86 11 85 12
REMARK SMILES IDX 4 13 3 16 2 17 1 18 87 19 88 20 89 22 90 23 91 24 92 25
REMARK SMILES IDX 93 26 12 27 13 28 14 29 15 30 16 31 17 32 18 33 82 34 19 35
REMARK SMILES IDX 81 36 20 37 21 38 22 39 75 40 23 41 80 42 74 43 76 44 24 45
REMARK SMILES IDX 79 46 73 47 72 48 25 50 59 51 38 52 58 53 39 54 42 55 57 56
REMARK SMILES IDX 77 57 40 58 41 59 56 61 78 62 43 63 26 64 27 65 36 66 28 67
REMARK SMILES IDX 29 68 35 69 37 70 30 71 31 72 32 73 33 74 34 75 60 76 61 77
REMARK SMILES IDX 70 78 62 79 63 80 69 81 71 82 64 83 65 84 66 85 67 86 68 87
REMARK SMILES IDX 44 88 45 89 54 90 46 91 47 92 53 93 55 94 48 95 49 96 50 97
REMARK SMILES IDX 51 98 52 99
REMARK H PARENT 4 14 4 15 87 21 76 49 42 60
REMARK Flexibility Score: inf
ROOT
ATOM      1  O   UNL A   1      32.408  30.025  24.760  1.00  0.00    -0.374 OA
ENDROOT
BRANCH   1   2
ATOM      2  C   UNL A   1      31.788  28.828  24.304  1.00  0.00     0.202 C 
BRANCH   2   3
ATOM      3  C   UNL A   1      32.098  27.529  25.052  1.00  0.00     0.261 C 
BRANCH   3   4
ATOM      4  O   UNL A   1      31.492  26.363  24.477  1.00  0.00    -0.459 OA
BRANCH   4   5
ATOM      5  C   UNL A   1      32.381  25.386  24.150  1.00  0.00     0.368 C 
ATOM      6  O   UNL A   1      32.944  25.325  23.057  1.00  0.00    -0.245 OA
BRANCH   5   7
ATOM      7  C   UNL A   1      32.608  24.308  25.265  1.00  0.00     0.200 C 
ATOM      8  C   UNL A   1      31.295  24.335  26.081  1.00  0.00     0.081 C 
ATOM      9  C   UNL A   1      32.769  22.985  24.480  1.00  0.00     0.146 C 
ATOM     10  C   UNL A   1      30.987  23.057  26.843  1.00  0.00     0.013 C 
ATOM     11  C   UNL A   1      32.364  21.681  25.168  1.00  0.00     0.190 C 
ATOM     12  C   UNL A   1      31.031  21.828  25.931  1.00  0.00     0.065 C 
BRANCH   7  13
ATOM     13  N   UNL A   1      33.781  24.658  26.123  1.00  0.00    -0.332 N 
ATOM     14  H   UNL A   1      34.140  25.553  25.794  1.00  0.00     0.347 HD
ATOM     15  H   UNL A   1      33.413  24.649  27.074  1.00  0.00     0.347 HD
BRANCH  13  16
ATOM     16  C   UNL A   1      34.904  23.728  26.161  1.00  0.00     0.261 C 
BRANCH  16  17
ATOM     17  C   UNL A   1      36.107  24.147  25.309  1.00  0.00     0.058 C 
ATOM     18  C   UNL A   1      37.380  23.395  25.673  1.00  0.00     0.010 C 
ENDBRANCH  16  17
ENDBRANCH  13  16
ENDBRANCH   7  13
BRANCH  11  19
ATOM     19  N   UNL A   1      32.545  20.499  24.273  1.00  0.00    -0.332 N 
ATOM     20  C   UNL A   1      32.180  20.861  22.892  1.00  0.00     0.333 C 
ATOM     21  H   UNL A   1      31.912  19.838  24.724  1.00  0.00     0.348 HD
BRANCH  19  22
ATOM     22  C   UNL A   1      33.787  19.692  24.277  1.00  0.00     0.184 C 
ATOM     23  C   UNL A   1      34.991  20.327  24.989  1.00  0.00     0.075 C 
BRANCH  22  24
ATOM     24  C   UNL A   1      33.717  18.216  24.644  1.00  0.00     0.047 C 
ATOM     25  C   UNL A   1      32.534  17.275  24.619  1.00  0.00     0.010 C 
ATOM     26  C   UNL A   1      33.558  17.182  23.542  1.00  0.00     0.010 C 
ENDBRANCH  22  24
ENDBRANCH  19  22
ENDBRANCH  11  19
ENDBRANCH   5   7
ENDBRANCH   4   5
ENDBRANCH   3   4
ENDBRANCH   2   3
ENDBRANCH   1   2
BRANCH   1  27
ATOM     27  C   UNL A   1      31.840  30.647  25.914  1.00  0.00     0.202 C 
BRANCH  27  28
ATOM     28  C   UNL A   1      32.562  30.436  27.251  1.00  0.00     0.261 C 
BRANCH  28  29
ATOM     29  O   UNL A   1      33.990  30.452  27.102  1.00  0.00    -0.460 OA
BRANCH  29  30
ATOM     30  C   UNL A   1      34.672  31.007  28.129  1.00  0.00     0.338 C 
ATOM     31  O   UNL A   1      34.256  31.829  28.939  1.00  0.00    -0.246 OA
BRANCH  30  32
ATOM     32  C   UNL A   1      35.958  30.310  28.285  1.00  0.00     0.060 A 
ATOM     33  C   UNL A   1      36.296  29.840  29.563  1.00  0.00     0.016 A 
ATOM     34  C   UNL A   1      36.834  30.153  27.211  1.00  0.00     0.016 A 
ATOM     35  C   UNL A   1      37.537  29.250  29.780  1.00  0.00     0.010 A 
ATOM     36  C   UNL A   1      38.084  29.575  27.434  1.00  0.00     0.010 A 
ATOM     37  C   UNL A   1      38.453  29.157  28.726  1.00  0.00    -0.014 A 
BRANCH  37  38
ATOM     38  C   UNL A   1      39.858  28.787  29.008  1.00  0.00     0.031 A 
ATOM     39  C   UNL A   1      40.761  29.824  29.618  1.00  0.00     0.074 A 
ATOM     40  C   UNL A   1      40.313  27.551  28.739  1.00  0.00     0.049 A 
ATOM     41  N   UNL A   1      42.038  29.757  29.887  1.00  0.00    -0.248 NA
ATOM     42  C   UNL A   1      40.138  31.112  29.967  1.00  0.00     0.031 C 
ATOM     43  C   UNL A   1      39.515  26.458  28.187  1.00  0.00     0.029 A 
ATOM     44  N   UNL A   1      41.568  27.014  28.884  1.00  0.00    -0.354 N 
ATOM     45  C   UNL A   1      42.375  30.994  30.424  1.00  0.00     0.074 A 
ATOM     46  C   UNL A   1      41.175  31.802  30.417  1.00  0.00     0.031 C 
ATOM     47  C   UNL A   1      40.304  25.382  28.024  1.00  0.00     0.029 A 
ATOM     48  C   UNL A   1      41.668  25.723  28.426  1.00  0.00     0.049 A 
ATOM     49  H   UNL A   1      42.323  27.507  29.277  1.00  0.00     0.167 HD
ATOM     50  C   UNL A   1      43.576  31.412  30.887  1.00  0.00     0.037 A 
ATOM     51  C   UNL A   1      42.746  24.921  28.320  1.00  0.00     0.037 A 
ATOM     52  C   UNL A   1      44.762  30.596  30.888  1.00  0.00     0.049 A 
ATOM     53  C   UNL A   1      44.087  25.430  28.783  1.00  0.00     0.074 A 
ATOM     54  C   UNL A   1      46.026  30.917  31.349  1.00  0.00     0.029 A 
ATOM     55  N   UNL A   1      44.830  29.299  30.401  1.00  0.00    -0.354 N 
ATOM     56  N   UNL A   1      44.392  26.597  29.304  1.00  0.00    -0.248 NA
ATOM     57  C   UNL A   1      45.229  24.517  28.648  1.00  0.00     0.031 C 
ATOM     58  C   UNL A   1      46.871  29.833  31.093  1.00  0.00     0.029 A 
ATOM     59  C   UNL A   1      46.120  28.813  30.528  1.00  0.00     0.049 A 
ATOM     60  H   UNL A   1      44.071  28.798  30.022  1.00  0.00     0.167 HD
ATOM     61  C   UNL A   1      45.753  26.544  29.587  1.00  0.00     0.074 A 
ATOM     62  C   UNL A   1      46.210  25.229  29.185  1.00  0.00     0.031 C 
ATOM     63  C   UNL A   1      46.552  27.495  30.132  1.00  0.00     0.037 A 
BRANCH  50  64
ATOM     64  C   UNL A   1      43.671  32.823  31.398  1.00  0.00     0.058 A 
ATOM     65  C   UNL A   1      43.996  33.898  30.555  1.00  0.00     0.135 A 
ATOM     66  C   UNL A   1      43.406  33.109  32.748  1.00  0.00     0.135 A 
ATOM     67  F   UNL A   1      44.279  33.680  29.260  1.00  0.00    -0.206 F 
ATOM     68  C   UNL A   1      44.079  35.201  31.035  1.00  0.00     0.059 A 
ATOM     69  C   UNL A   1      43.457  34.407  33.245  1.00  0.00     0.059 A 
ATOM     70  F   UNL A   1      43.097  32.119  33.600  1.00  0.00    -0.206 F 
ATOM     71  C   UNL A   1      43.807  35.445  32.383  1.00  0.00     0.060 A 
BRANCH  71  72
ATOM     72  S   UNL A   1      43.912  37.142  32.990  1.00  0.00     0.124 S 
ATOM     73  O   UNL A   1      45.209  37.133  33.660  1.00  0.00    -0.237 OA
ATOM     74  O   UNL A   1      43.841  37.920  31.757  1.00  0.00    -0.237 OA
ATOM     75  O   UNL A   1      42.754  37.262  33.869  1.00  0.00    -0.744 OA
ENDBRANCH  71  72
ENDBRANCH  50  64
BRANCH  51  76
ATOM     76  C   UNL A   1      42.604  23.559  27.741  1.00  0.00     0.058 A 
ATOM     77  C   UNL A   1      42.629  23.353  26.353  1.00  0.00     0.135 A 
ATOM     78  C   UNL A   1      42.444  22.433  28.565  1.00  0.00     0.135 A 
ATOM     79  F   UNL A   1      42.768  24.398  25.523  1.00  0.00    -0.206 F 
ATOM     80  C   UNL A   1      42.489  22.083  25.802  1.00  0.00     0.059 A 
ATOM     81  C   UNL A   1      42.329  21.150  28.038  1.00  0.00     0.059 A 
ATOM     82  F   UNL A   1      42.424  22.573  29.899  1.00  0.00    -0.206 F 
ATOM     83  C   UNL A   1      42.343  20.987  26.653  1.00  0.00     0.060 A 
BRANCH  83  84
ATOM     84  S   UNL A   1      42.214  19.338  25.929  1.00  0.00     0.124 S 
ATOM     85  O   UNL A   1      42.702  18.500  27.018  1.00  0.00    -0.237 OA
ATOM     86  O   UNL A   1      40.786  19.242  25.640  1.00  0.00    -0.237 OA
ATOM     87  O   UNL A   1      43.079  19.418  24.756  1.00  0.00    -0.744 OA
ENDBRANCH  83  84
ENDBRANCH  51  76
BRANCH  63  88
ATOM     88  C   UNL A   1      47.994  27.138  30.369  1.00  0.00     0.058 A 
ATOM     89  C   UNL A   1      48.966  27.268  29.366  1.00  0.00     0.135 A 
ATOM     90  C   UNL A   1      48.418  26.719  31.642  1.00  0.00     0.135 A 
ATOM     91  F   UNL A   1      48.613  27.660  28.131  1.00  0.00    -0.206 F 
ATOM     92  C   UNL A   1      50.304  26.972  29.606  1.00  0.00     0.059 A 
ATOM     93  C   UNL A   1      49.755  26.446  31.914  1.00  0.00     0.059 A 
ATOM     94  F   UNL A   1      47.532  26.590  32.642  1.00  0.00    -0.206 F 
ATOM     95  C   UNL A   1      50.689  26.565  30.886  1.00  0.00     0.060 A 
BRANCH  95  96
ATOM     96  S   UNL A   1      52.434  26.219  31.195  1.00  0.00     0.124 S 
ATOM     97  O   UNL A   1      52.372  24.873  31.755  1.00  0.00    -0.237 OA
ATOM     98  O   UNL A   1      53.015  26.326  29.861  1.00  0.00    -0.237 OA
ATOM     99  O   UNL A   1      52.827  27.270  32.129  1.00  0.00    -0.744 OA
ENDBRANCH  95  96
ENDBRANCH  63  88
ENDBRANCH  37  38
ENDBRANCH  30  32
ENDBRANCH  29  30
ENDBRANCH  28  29
ENDBRANCH  27  28
ENDBRANCH   1  27
TORSDOF 23
ENDMDL
MODEL 2
REMARK VINA RESULT:      -9.3      3.321      8.248
REMARK SMILES CCC[NH2+][C@]1(C(=O)OCCOCCOC(=O)c2ccc(-c3c4nc(c(-c5c(F)cc(S(=O)(=O)[O-])cc5F)c5ccc([nH]5)c(-c5c(F)cc(S(=O)(=O)[O-])cc5F)c5nc(c(-c6c(F)cc(S(=O)(=O)[O-])cc6F)c6ccc3[nH]6)C=C5)C=C4)cc2)CCC[C@@H]([N@@H+](C)[C@@H](C)C2CC2)C1
REMARK SMILES IDX 11 1 10 2 9 3 8 4 6 5 7 6 5 7 83 8 94 9 84 10 86 11 85 12
REMARK SMILES IDX 4 13 3 16 2 17 1 18 87 19 88 20 89 22 90 23 91 24 92 25
REMARK SMILES IDX 93 26 12 27 13 28 14 29 15 30 16 31 17 32 18 33 82 34 19 35
REMARK SMILES IDX 81 36 20 37 21 38 22 39 75 40 23 41 80 42 74 43 76 44 24 45
REMARK SMILES IDX 79 46 73 47 72 48 25 50 59 51 38 52 58 53 39 54 42 55 57 56
REMARK SMILES IDX 77 57 40 58 41 59 56 61 78 62 43 63 26 64 27 65 36 66 28 67
REMARK SMILES IDX 29 68 35 69 37 70 30 71 31 72 32 73 33 74 34 75 60 76 61 77
REMARK SMILES IDX 70 78 62 79 63 80 69 81 71 82 64 83 65 84 66 85 67 86 68 87
REMARK SMILES IDX 44 88 45 89 54 90 46 91 47 92 53 93 55 94 48 95 49 96 50 97
REMARK SMILES IDX 51 98 52 99
REMARK H PARENT 4 14 4 15 87 21 76 49 42 60
REMARK Flexibility Score: inf
ROOT
ATOM      1  O   UNL A   1      37.307  21.579  25.647  1.00  0.00    -0.374 OA
ENDROOT
BRANCH   1   2
ATOM      2  C   UNL A   1      37.187  22.821  24.963  1.00  0.00     0.202 C 
BRANCH   2   3
ATOM      3  C   UNL A   1      35.810  23.215  24.425  1.00  0.00     0.261 C 
BRANCH   3   4
ATOM      4  O   UNL A   1      35.104  24.151  25.252  1.00  0.00    -0.459 OA
BRANCH   4   5
ATOM      5  C   UNL A   1      34.122  23.586  26.006  1.00  0.00     0.368 C 
ATOM      6  O   UNL A   1      34.342  22.988  27.060  1.00  0.00    -0.245 OA
BRANCH   5   7
ATOM      7  C   UNL A   1      32.679  23.719  25.408  1.00  0.00     0.200 C 
ATOM      8  C   UNL A   1      31.750  23.496  26.624  1.00  0.00     0.081 C 
ATOM      9  C   UNL A   1      32.619  25.179  24.900  1.00  0.00     0.146 C 
ATOM     10  C   UNL A   1      30.365  24.108  26.493  1.00  0.00     0.013 C 
ATOM     11  C   UNL A   1      31.258  25.875  24.857  1.00  0.00     0.190 C 
ATOM     12  C   UNL A   1      30.433  25.594  26.130  1.00  0.00     0.065 C 
BRANCH   7  13
ATOM     13  N   UNL A   1      32.437  22.692  24.350  1.00  0.00    -0.332 N 
ATOM     14  H   UNL A   1      31.638  23.006  23.800  1.00  0.00     0.347 HD
ATOM     15  H   UNL A   1      33.323  22.628  23.849  1.00  0.00     0.347 HD
BRANCH  13  16
ATOM     16  C   UNL A   1      32.161  21.324  24.773  1.00  0.00     0.261 C 
BRANCH  16  17
ATOM     17  C   UNL A   1      32.952  20.252  24.016  1.00  0.00     0.058 C 
ATOM     18  C   UNL A   1      34.099  19.673  24.835  1.00  0.00     0.010 C 
ENDBRANCH  16  17
ENDBRANCH  13  16
ENDBRANCH   7  13
BRANCH  11  19
ATOM     19  N   UNL A   1      31.368  27.285  24.378  1.00  0.00    -0.332 N 
ATOM     20  C   UNL A   1      32.533  27.934  25.003  1.00  0.00     0.333 C 
ATOM     21  H   UNL A   1      30.463  27.646  24.681  1.00  0.00     0.348 HD
BRANCH  19  22
ATOM     22  C   UNL A   1      31.302  27.634  22.940  1.00  0.00     0.184 C 
ATOM     23  C   UNL A   1      31.466  26.461  21.961  1.00  0.00     0.075 C 
BRANCH  22  24
ATOM     24  C   UNL A   1      30.184  28.541  22.443  1.00  0.00     0.047 C 
ATOM     25  C   UNL A   1      28.786  28.728  22.984  1.00  0.00     0.010 C 
ATOM     26  C   UNL A   1      29.812  29.774  23.249  1.00  0.00     0.010 C 
ENDBRANCH  22  24
ENDBRANCH  19  22
ENDBRANCH  11  19
ENDBRANCH   5   7
ENDBRANCH   4   5
ENDBRANCH   3   4
ENDBRANCH   2   3
ENDBRANCH   1   2
BRANCH   1  27
ATOM     27  C   UNL A   1      37.744  20.458  24.877  1.00  0.00     0.202 C 
BRANCH  27  28
ATOM     28  C   UNL A   1      38.915  19.638  25.435  1.00  0.00     0.261 C 
BRANCH  28  29
ATOM     29  O   UNL A   1      39.821  20.444  26.203  1.00  0.00    -0.460 OA
BRANCH  29  30
ATOM     30  C   UNL A   1      41.098  20.001  26.243  1.00  0.00     0.338 C 
ATOM     31  O   UNL A   1      41.502  18.876  25.969  1.00  0.00    -0.246 OA
BRANCH  30  32
ATOM     32  C   UNL A   1      41.998  21.145  26.454  1.00  0.00     0.060 A 
ATOM     33  C   UNL A   1      42.318  21.491  27.775  1.00  0.00     0.016 A 
ATOM     34  C   UNL A   1      42.488  21.890  25.382  1.00  0.00     0.016 A 
ATOM     35  C   UNL A   1      43.095  22.615  28.031  1.00  0.00     0.010 A 
ATOM     36  C   UNL A   1      43.255  23.027  25.640  1.00  0.00     0.010 A 
ATOM     37  C   UNL A   1      43.529  23.414  26.965  1.00  0.00    -0.014 A 
BRANCH  37  38
ATOM     38  C   UNL A   1      44.115  24.745  27.240  1.00  0.00     0.031 A 
ATOM     39  C   UNL A   1      43.200  25.848  27.692  1.00  0.00     0.074 A 
ATOM     40  C   UNL A   1      45.435  24.958  27.101  1.00  0.00     0.049 A 
ATOM     41  N   UNL A   1      43.468  27.106  27.922  1.00  0.00    -0.248 NA
ATOM     42  C   UNL A   1      41.789  25.484  27.909  1.00  0.00     0.031 C 
ATOM     43  C   UNL A   1      46.418  23.950  26.710  1.00  0.00     0.029 A 
ATOM     44  N   UNL A   1      46.172  26.104  27.264  1.00  0.00    -0.354 N 
ATOM     45  C   UNL A   1      42.262  27.686  28.297  1.00  0.00     0.074 A 
ATOM     46  C   UNL A   1      41.255  26.650  28.238  1.00  0.00     0.031 C 
ATOM     47  C   UNL A   1      47.631  24.526  26.646  1.00  0.00     0.029 A 
ATOM     48  C   UNL A   1      47.502  25.950  26.958  1.00  0.00     0.049 A 
ATOM     49  H   UNL A   1      45.784  26.955  27.570  1.00  0.00     0.167 HD
ATOM     50  C   UNL A   1      42.021  28.966  28.666  1.00  0.00     0.037 A 
ATOM     51  C   UNL A   1      48.493  26.861  26.908  1.00  0.00     0.037 A 
ATOM     52  C   UNL A   1      43.033  29.987  28.721  1.00  0.00     0.049 A 
ATOM     53  C   UNL A   1      48.189  28.294  27.261  1.00  0.00     0.074 A 
ATOM     54  C   UNL A   1      42.899  31.312  29.096  1.00  0.00     0.029 A 
ATOM     55  N   UNL A   1      44.367  29.798  28.388  1.00  0.00    -0.354 N 
ATOM     56  N   UNL A   1      47.048  28.829  27.631  1.00  0.00    -0.248 NA
ATOM     57  C   UNL A   1      49.304  29.248  27.194  1.00  0.00     0.031 C 
ATOM     58  C   UNL A   1      44.141  31.936  28.940  1.00  0.00     0.029 A 
ATOM     59  C   UNL A   1      45.063  30.987  28.525  1.00  0.00     0.049 A 
ATOM     60  H   UNL A   1      44.760  28.943  28.097  1.00  0.00     0.167 HD
ATOM     61  C   UNL A   1      47.316  30.173  27.870  1.00  0.00     0.074 A 
ATOM     62  C   UNL A   1      48.728  30.367  27.610  1.00  0.00     0.031 C 
ATOM     63  C   UNL A   1      46.472  31.157  28.272  1.00  0.00     0.037 A 
BRANCH  50  64
ATOM     64  C   UNL A   1      40.604  29.338  29.005  1.00  0.00     0.058 A 
ATOM     65  C   UNL A   1      40.180  29.514  30.332  1.00  0.00     0.135 A 
ATOM     66  C   UNL A   1      39.661  29.548  27.985  1.00  0.00     0.135 A 
ATOM     67  F   UNL A   1      41.034  29.306  31.348  1.00  0.00    -0.206 F 
ATOM     68  C   UNL A   1      38.868  29.860  30.638  1.00  0.00     0.059 A 
ATOM     69  C   UNL A   1      38.350  29.921  28.265  1.00  0.00     0.059 A 
ATOM     70  F   UNL A   1      40.010  29.387  26.699  1.00  0.00    -0.206 F 
ATOM     71  C   UNL A   1      37.960  30.063  29.596  1.00  0.00     0.060 A 
BRANCH  71  72
ATOM     72  S   UNL A   1      36.262  30.519  30.008  1.00  0.00     0.124 S 
ATOM     73  O   UNL A   1      36.372  31.969  30.132  1.00  0.00    -0.237 OA
ATOM     74  O   UNL A   1      35.520  30.037  28.847  1.00  0.00    -0.237 OA
ATOM     75  O   UNL A   1      36.009  29.801  31.252  1.00  0.00    -0.744 OA
ENDBRANCH  71  72
ENDBRANCH  50  64
BRANCH  51  76
ATOM     76  C   UNL A   1      49.862  26.449  26.499  1.00  0.00     0.058 A 
ATOM     77  C   UNL A   1      50.802  26.011  27.443  1.00  0.00     0.135 A 
ATOM     78  C   UNL A   1      50.257  26.480  25.151  1.00  0.00     0.135 A 
ATOM     79  F   UNL A   1      50.477  25.973  28.744  1.00  0.00    -0.206 F 
ATOM     80  C   UNL A   1      52.088  25.631  27.070  1.00  0.00     0.059 A 
ATOM     81  C   UNL A   1      51.528  26.081  24.751  1.00  0.00     0.059 A 
ATOM     82  F   UNL A   1      49.392  26.881  24.206  1.00  0.00    -0.206 F 
ATOM     83  C   UNL A   1      52.440  25.667  25.720  1.00  0.00     0.060 A 
BRANCH  83  84
ATOM     84  S   UNL A   1      54.094  25.123  25.241  1.00  0.00     0.124 S 
ATOM     85  O   UNL A   1      54.369  25.989  24.100  1.00  0.00    -0.237 OA
ATOM     86  O   UNL A   1      54.867  25.393  26.449  1.00  0.00    -0.237 OA
ATOM     87  O   UNL A   1      53.906  23.709  24.931  1.00  0.00    -0.744 OA
ENDBRANCH  83  84
ENDBRANCH  51  76
BRANCH  63  88
ATOM     88  C   UNL A   1      47.057  32.524  28.498  1.00  0.00     0.058 A 
ATOM     89  C   UNL A   1      47.094  33.493  27.485  1.00  0.00     0.135 A 
ATOM     90  C   UNL A   1      47.532  32.887  29.771  1.00  0.00     0.135 A 
ATOM     91  F   UNL A   1      46.657  33.196  26.251  1.00  0.00    -0.206 F 
ATOM     92  C   UNL A   1      47.601  34.768  27.716  1.00  0.00     0.059 A 
ATOM     93  C   UNL A   1      48.017  34.165  30.032  1.00  0.00     0.059 A 
ATOM     94  F   UNL A   1      47.509  32.003  30.779  1.00  0.00    -0.206 F 
ATOM     95  C   UNL A   1      48.058  35.095  28.994  1.00  0.00     0.060 A 
BRANCH  95  96
ATOM     96  S   UNL A   1      48.681  36.764  29.291  1.00  0.00     0.124 S 
ATOM     97  O   UNL A   1      48.926  36.734  30.728  1.00  0.00    -0.237 OA
ATOM     98  O   UNL A   1      49.869  36.808  28.444  1.00  0.00    -0.237 OA
ATOM     99  O   UNL A   1      47.579  37.619  28.860  1.00  0.00    -0.744 OA
ENDBRANCH  95  96
ENDBRANCH  63  88
ENDBRANCH  37  38
ENDBRANCH  30  32
ENDBRANCH  29  30
ENDBRANCH  28  29
ENDBRANCH  27  28
ENDBRANCH   1  27
TORSDOF 23
ENDMDL
MODEL 3
REMARK VINA RESULT:      -9.3      2.738      8.646
REMARK SMILES CCC[NH2+][C@]1(C(=O)OCCOCCOC(=O)c2ccc(-c3c4nc(c(-c5c(F)cc(S(=O)(=O)[O-])cc5F)c5ccc([nH]5)c(-c5c(F)cc(S(=O)(=O)[O-])cc5F)c5nc(c(-c6c(F)cc(S(=O)(=O)[O-])cc6F)c6ccc3[nH]6)C=C5)C=C4)cc2)CCC[C@@H]([N@@H+](C)[C@@H](C)C2CC2)C1
REMARK SMILES IDX 11 1 10 2 9 3 8 4 6 5 7 6 5 7 83 8 94 9 84 10 86 11 85 12
REMARK SMILES IDX 4 13 3 16 2 17 1 18 87 19 88 20 89 22 90 23 91 24 92 25
REMARK SMILES IDX 93 26 12 27 13 28 14 29 15 30 16 31 17 32 18 33 82 34 19 35
REMARK SMILES IDX 81 36 20 37 21 38 22 39 75 40 23 41 80 42 74 43 76 44 24 45
REMARK SMILES IDX 79 46 73 47 72 48 25 50 59 51 38 52 58 53 39 54 42 55 57 56
REMARK SMILES IDX 77 57 40 58 41 59 56 61 78 62 43 63 26 64 27 65 36 66 28 67
REMARK SMILES IDX 29 68 35 69 37 70 30 71 31 72 32 73 33 74 34 75 60 76 61 77
REMARK SMILES IDX 70 78 62 79 63 80 69 81 71 82 64 83 65 84 66 85 67 86 68 87
REMARK SMILES IDX 44 88 45 89 54 90 46 91 47 92 53 93 55 94 48 95 49 96 50 97
REMARK SMILES IDX 51 98 52 99
REMARK H PARENT 4 14 4 15 87 21 76 49 42 60
REMARK Flexibility Score: inf
ROOT
ATOM      1  O   UNL A   1      31.573  27.866  25.054  1.00  0.00    -0.374 OA
ENDROOT
BRANCH   1   2
ATOM      2  C   UNL A   1      30.667  26.798  25.302  1.00  0.00     0.202 C 
BRANCH   2   3
ATOM      3  C   UNL A   1      31.158  25.621  26.147  1.00  0.00     0.261 C 
BRANCH   3   4
ATOM      4  O   UNL A   1      31.095  24.353  25.479  1.00  0.00    -0.459 OA
BRANCH   4   5
ATOM      5  C   UNL A   1      31.701  23.342  26.160  1.00  0.00     0.368 C 
ATOM      6  O   UNL A   1      31.601  23.195  27.378  1.00  0.00    -0.245 OA
BRANCH   5   7
ATOM      7  C   UNL A   1      32.577  22.391  25.274  1.00  0.00     0.200 C 
ATOM      8  C   UNL A   1      32.291  22.859  23.829  1.00  0.00     0.081 C 
ATOM      9  C   UNL A   1      34.028  22.711  25.705  1.00  0.00     0.146 C 
ATOM     10  C   UNL A   1      33.381  22.534  22.821  1.00  0.00     0.013 C 
ATOM     11  C   UNL A   1      35.149  22.506  24.685  1.00  0.00     0.190 C 
ATOM     12  C   UNL A   1      34.752  23.029  23.288  1.00  0.00     0.065 C 
BRANCH   7  13
ATOM     13  N   UNL A   1      32.184  20.962  25.464  1.00  0.00    -0.332 N 
ATOM     14  H   UNL A   1      31.814  20.872  26.410  1.00  0.00     0.347 HD
ATOM     15  H   UNL A   1      31.522  20.777  24.710  1.00  0.00     0.347 HD
BRANCH  13  16
ATOM     16  C   UNL A   1      33.211  19.940  25.302  1.00  0.00     0.261 C 
BRANCH  16  17
ATOM     17  C   UNL A   1      32.752  18.517  25.639  1.00  0.00     0.058 C 
ATOM     18  C   UNL A   1      33.463  17.454  24.811  1.00  0.00     0.010 C 
ENDBRANCH  16  17
ENDBRANCH  13  16
ENDBRANCH   7  13
BRANCH  11  19
ATOM     19  N   UNL A   1      36.482  22.889  25.236  1.00  0.00    -0.332 N 
ATOM     20  C   UNL A   1      36.306  23.848  26.340  1.00  0.00     0.333 C 
ATOM     21  H   UNL A   1      36.915  23.277  24.397  1.00  0.00     0.348 HD
BRANCH  19  22
ATOM     22  C   UNL A   1      37.504  21.879  25.596  1.00  0.00     0.184 C 
ATOM     23  C   UNL A   1      37.420  20.547  24.836  1.00  0.00     0.075 C 
BRANCH  22  24
ATOM     24  C   UNL A   1      38.964  22.299  25.701  1.00  0.00     0.047 C 
ATOM     25  C   UNL A   1      39.627  23.233  26.686  1.00  0.00     0.010 C 
ATOM     26  C   UNL A   1      39.812  21.765  26.842  1.00  0.00     0.010 C 
ENDBRANCH  22  24
ENDBRANCH  19  22
ENDBRANCH  11  19
ENDBRANCH   5   7
ENDBRANCH   4   5
ENDBRANCH   3   4
ENDBRANCH   2   3
ENDBRANCH   1   2
BRANCH   1  27
ATOM     27  C   UNL A   1      31.636  28.901  26.038  1.00  0.00     0.202 C 
BRANCH  27  28
ATOM     28  C   UNL A   1      32.764  29.932  25.901  1.00  0.00     0.261 C 
BRANCH  28  29
ATOM     29  O   UNL A   1      33.934  29.554  26.643  1.00  0.00    -0.460 OA
BRANCH  29  30
ATOM     30  C   UNL A   1      34.480  30.534  27.397  1.00  0.00     0.338 C 
ATOM     31  O   UNL A   1      33.952  31.584  27.748  1.00  0.00    -0.246 OA
BRANCH  30  32
ATOM     32  C   UNL A   1      35.761  30.062  27.945  1.00  0.00     0.060 A 
ATOM     33  C   UNL A   1      35.759  29.515  29.237  1.00  0.00     0.016 A 
ATOM     34  C   UNL A   1      36.949  30.187  27.225  1.00  0.00     0.016 A 
ATOM     35  C   UNL A   1      36.957  29.132  29.832  1.00  0.00     0.010 A 
ATOM     36  C   UNL A   1      38.152  29.818  27.828  1.00  0.00     0.010 A 
ATOM     37  C   UNL A   1      38.163  29.325  29.146  1.00  0.00    -0.014 A 
BRANCH  37  38
ATOM     38  C   UNL A   1      39.446  29.179  29.869  1.00  0.00     0.031 A 
ATOM     39  C   UNL A   1      40.409  28.121  29.408  1.00  0.00     0.074 A 
ATOM     40  C   UNL A   1      39.748  29.982  30.905  1.00  0.00     0.049 A 
ATOM     41  N   UNL A   1      41.554  27.761  29.924  1.00  0.00    -0.248 NA
ATOM     42  C   UNL A   1      40.026  27.365  28.204  1.00  0.00     0.031 C 
ATOM     43  C   UNL A   1      38.907  31.066  31.408  1.00  0.00     0.029 A 
ATOM     44  N   UNL A   1      40.846  29.996  31.727  1.00  0.00    -0.354 N 
ATOM     45  C   UNL A   1      42.022  26.729  29.119  1.00  0.00     0.074 A 
ATOM     46  C   UNL A   1      41.025  26.502  28.096  1.00  0.00     0.031 C 
ATOM     47  C   UNL A   1      39.513  31.632  32.466  1.00  0.00     0.029 A 
ATOM     48  C   UNL A   1      40.766  30.927  32.734  1.00  0.00     0.049 A 
ATOM     49  H   UNL A   1      41.618  29.397  31.607  1.00  0.00     0.167 HD
ATOM     50  C   UNL A   1      43.183  26.040  29.221  1.00  0.00     0.037 A 
ATOM     51  C   UNL A   1      41.596  31.161  33.769  1.00  0.00     0.037 A 
ATOM     52  C   UNL A   1      44.167  26.278  30.245  1.00  0.00     0.049 A 
ATOM     53  C   UNL A   1      42.853  30.339  33.900  1.00  0.00     0.074 A 
ATOM     54  C   UNL A   1      45.384  25.647  30.430  1.00  0.00     0.029 A 
ATOM     55  N   UNL A   1      44.043  27.217  31.258  1.00  0.00    -0.354 N 
ATOM     56  N   UNL A   1      43.295  29.376  33.123  1.00  0.00    -0.248 NA
ATOM     57  C   UNL A   1      43.726  30.634  35.043  1.00  0.00     0.031 C 
ATOM     58  C   UNL A   1      45.973  26.170  31.586  1.00  0.00     0.029 A 
ATOM     59  C   UNL A   1      45.151  27.168  32.087  1.00  0.00     0.049 A 
ATOM     60  H   UNL A   1      43.280  27.829  31.371  1.00  0.00     0.167 HD
ATOM     61  C   UNL A   1      44.510  28.974  33.666  1.00  0.00     0.074 A 
ATOM     62  C   UNL A   1      44.738  29.802  34.833  1.00  0.00     0.031 C 
ATOM     63  C   UNL A   1      45.364  28.010  33.239  1.00  0.00     0.037 A 
BRANCH  50  64
ATOM     64  C   UNL A   1      43.433  24.946  28.221  1.00  0.00     0.058 A 
ATOM     65  C   UNL A   1      43.040  23.620  28.458  1.00  0.00     0.135 A 
ATOM     66  C   UNL A   1      44.051  25.235  26.993  1.00  0.00     0.135 A 
ATOM     67  F   UNL A   1      42.463  23.283  29.623  1.00  0.00    -0.206 F 
ATOM     68  C   UNL A   1      43.273  22.613  27.525  1.00  0.00     0.059 A 
ATOM     69  C   UNL A   1      44.270  24.250  26.034  1.00  0.00     0.059 A 
ATOM     70  F   UNL A   1      44.453  26.485  26.716  1.00  0.00    -0.206 F 
ATOM     71  C   UNL A   1      43.888  22.940  26.315  1.00  0.00     0.060 A 
BRANCH  71  72
ATOM     72  S   UNL A   1      44.177  21.625  25.112  1.00  0.00     0.124 S 
ATOM     73  O   UNL A   1      44.088  22.357  23.852  1.00  0.00    -0.237 OA
ATOM     74  O   UNL A   1      45.510  21.155  25.479  1.00  0.00    -0.237 OA
ATOM     75  O   UNL A   1      43.092  20.684  25.368  1.00  0.00    -0.744 OA
ENDBRANCH  71  72
ENDBRANCH  50  64
BRANCH  51  76
ATOM     76  C   UNL A   1      41.262  32.210  34.768  1.00  0.00     0.058 A 
ATOM     77  C   UNL A   1      41.702  33.532  34.608  1.00  0.00     0.135 A 
ATOM     78  C   UNL A   1      40.491  31.912  35.903  1.00  0.00     0.135 A 
ATOM     79  F   UNL A   1      42.451  33.865  33.546  1.00  0.00    -0.206 F 
ATOM     80  C   UNL A   1      41.401  34.519  35.542  1.00  0.00     0.059 A 
ATOM     81  C   UNL A   1      40.155  32.887  36.837  1.00  0.00     0.059 A 
ATOM     82  F   UNL A   1      40.036  30.665  36.098  1.00  0.00    -0.206 F 
ATOM     83  C   UNL A   1      40.624  34.187  36.653  1.00  0.00     0.060 A 
BRANCH  83  84
ATOM     84  S   UNL A   1      40.196  35.485  37.832  1.00  0.00     0.124 S 
ATOM     85  O   UNL A   1      41.396  35.538  38.659  1.00  0.00    -0.237 OA
ATOM     86  O   UNL A   1      39.972  36.632  36.956  1.00  0.00    -0.237 OA
ATOM     87  O   UNL A   1      39.000  34.964  38.486  1.00  0.00    -0.744 OA
ENDBRANCH  83  84
ENDBRANCH  51  76
BRANCH  63  88
ATOM     88  C   UNL A   1      46.644  27.824  34.006  1.00  0.00     0.058 A 
ATOM     89  C   UNL A   1      46.749  26.909  35.064  1.00  0.00     0.135 A 
ATOM     90  C   UNL A   1      47.800  28.532  33.634  1.00  0.00     0.135 A 
ATOM     91  F   UNL A   1      45.673  26.211  35.462  1.00  0.00    -0.206 F 
ATOM     92  C   UNL A   1      47.948  26.716  35.742  1.00  0.00     0.059 A 
ATOM     93  C   UNL A   1      49.017  28.334  34.278  1.00  0.00     0.059 A 
ATOM     94  F   UNL A   1      47.759  29.411  32.621  1.00  0.00    -0.206 F 
ATOM     95  C   UNL A   1      49.078  27.432  35.340  1.00  0.00     0.060 A 
BRANCH  95  96
ATOM     96  S   UNL A   1      50.637  27.146  36.204  1.00  0.00     0.124 S 
ATOM     97  O   UNL A   1      51.541  28.034  35.480  1.00  0.00    -0.237 OA
ATOM     98  O   UNL A   1      50.314  27.546  37.570  1.00  0.00    -0.237 OA
ATOM     99  O   UNL A   1      50.874  25.718  36.014  1.00  0.00    -0.744 OA
ENDBRANCH  95  96
ENDBRANCH  63  88
ENDBRANCH  37  38
ENDBRANCH  30  32
ENDBRANCH  29  30
ENDBRANCH  28  29
ENDBRANCH  27  28
ENDBRANCH   1  27
TORSDOF 23
ENDMDL
