MODEL 1
REMARK VINA RESULT:     -13.1      0.000      0.000
REMARK SMILES Cc1ccc(S(=O)(=O)N2c3ccc(C(=O)OCCOCCOC(=O)c4ccc(-c5c6nc(c(-c7c(F)cc(S(=O)(=O)[O-])cc7F)c7ccc([nH]7)c(-c7c(F)cc(S(=O)(=O)[O-])cc7F)c7nc(c(-c8c(F)cc(S(=O)(=O)[O-])cc8F)c8ccc5[nH]8)C=C7)C=C6)cc4)cc3C[C@H]2C)cc1
REMARK SMILES IDX 20 1 19 2 18 3 17 4 16 5 14 6 15 7 13 8 9 9 10 10 94 11
REMARK SMILES IDX 11 12 92 13 93 14 95 15 12 16 91 17 6 18 7 19 8 20 5 21 1 22
REMARK SMILES IDX 2 23 3 24 97 25 4 26 96 27 21 28 22 29 23 30 24 31 25 32
REMARK SMILES IDX 26 33 90 34 27 35 89 36 28 37 29 38 30 39 83 40 31 41 88 42
REMARK SMILES IDX 82 43 84 44 32 45 87 46 81 47 80 48 33 50 67 51 46 52 66 53
REMARK SMILES IDX 47 54 50 55 65 56 85 57 48 58 49 59 64 61 86 62 51 63 34 64
REMARK SMILES IDX 35 65 44 66 36 67 37 68 43 69 45 70 38 71 39 72 40 73 41 74
REMARK SMILES IDX 42 75 68 76 69 77 78 78 70 79 71 80 77 81 79 82 72 83 73 84
REMARK SMILES IDX 74 85 75 86 76 87 52 88 53 89 62 90 54 91 55 92 61 93 63 94
REMARK SMILES IDX 56 95 57 96 58 97 59 98 60 99
REMARK H PARENT 84 49 50 60
REMARK Flexibility Score: inf
ROOT
ATOM      1  C   UNL A   1      31.857  29.395  26.852  1.00  0.00     0.202 C 
ENDROOT
BRANCH   1   2
ATOM      2  O   UNL A   1      31.383  28.719  25.710  1.00  0.00    -0.374 OA
BRANCH   2   3
ATOM      3  C   UNL A   1      31.384  29.507  24.523  1.00  0.00     0.202 C 
BRANCH   3   4
ATOM      4  C   UNL A   1      30.223  29.028  23.730  1.00  0.00     0.261 C 
BRANCH   4   5
ATOM      5  O   UNL A   1      30.362  27.651  23.398  1.00  0.00    -0.460 OA
BRANCH   5   6
ATOM      6  C   UNL A   1      29.430  26.765  23.818  1.00  0.00     0.338 C 
ATOM      7  O   UNL A   1      28.212  26.809  23.748  1.00  0.00    -0.246 OA
BRANCH   6   8
ATOM      8  C   UNL A   1      30.218  25.599  24.195  1.00  0.00     0.060 A 
ATOM      9  N   UNL A   1      33.301  22.966  24.979  1.00  0.00    -0.263 N 
ATOM     10  C   UNL A   1      32.241  23.924  24.845  1.00  0.00     0.055 A 
ATOM     11  C   UNL A   1      33.833  22.838  23.560  1.00  0.00     0.101 C 
ATOM     12  C   UNL A   1      31.592  24.552  25.885  1.00  0.00     0.028 A 
ATOM     13  C   UNL A   1      31.869  24.083  23.506  1.00  0.00    -0.021 A 
ATOM     14  C   UNL A   1      32.699  23.246  22.604  1.00  0.00     0.063 C 
ATOM     15  C   UNL A   1      35.022  23.810  23.444  1.00  0.00     0.032 C 
ATOM     16  C   UNL A   1      30.538  25.376  25.556  1.00  0.00     0.018 A 
ATOM     17  C   UNL A   1      30.837  24.911  23.155  1.00  0.00     0.021 A 
BRANCH   9  18
ATOM     18  S   UNL A   1      32.642  21.564  25.734  1.00  0.00     0.264 S 
ATOM     19  O   UNL A   1      31.198  21.641  25.651  1.00  0.00    -0.201 OA
ATOM     20  O   UNL A   1      33.312  21.376  27.009  1.00  0.00    -0.201 OA
BRANCH  18  21
ATOM     21  C   UNL A   1      33.103  20.152  24.783  1.00  0.00     0.088 A 
ATOM     22  C   UNL A   1      34.203  16.364  23.146  1.00  0.00     0.044 C 
ATOM     23  C   UNL A   1      33.842  17.716  23.673  1.00  0.00    -0.051 A 
ATOM     24  C   UNL A   1      34.732  18.397  24.509  1.00  0.00     0.005 A 
ATOM     25  C   UNL A   1      32.625  18.310  23.323  1.00  0.00     0.005 A 
ATOM     26  C   UNL A   1      34.358  19.608  25.075  1.00  0.00     0.022 A 
ATOM     27  C   UNL A   1      32.270  19.547  23.850  1.00  0.00     0.022 A 
ENDBRANCH  18  21
ENDBRANCH   9  18
ENDBRANCH   6   8
ENDBRANCH   5   6
ENDBRANCH   4   5
ENDBRANCH   3   4
ENDBRANCH   2   3
ENDBRANCH   1   2
BRANCH   1  28
ATOM     28  C   UNL A   1      33.343  29.133  27.143  1.00  0.00     0.261 C 
BRANCH  28  29
ATOM     29  O   UNL A   1      34.142  30.232  26.657  1.00  0.00    -0.460 OA
BRANCH  29  30
ATOM     30  C   UNL A   1      34.820  30.951  27.602  1.00  0.00     0.338 C 
ATOM     31  O   UNL A   1      34.631  32.128  27.843  1.00  0.00    -0.246 OA
BRANCH  30  32
ATOM     32  C   UNL A   1      35.885  30.100  28.209  1.00  0.00     0.060 A 
ATOM     33  C   UNL A   1      35.827  29.697  29.562  1.00  0.00     0.016 A 
ATOM     34  C   UNL A   1      37.060  29.931  27.483  1.00  0.00     0.016 A 
ATOM     35  C   UNL A   1      36.983  29.237  30.218  1.00  0.00     0.010 A 
ATOM     36  C   UNL A   1      38.207  29.597  28.157  1.00  0.00     0.010 A 
ATOM     37  C   UNL A   1      38.187  29.254  29.523  1.00  0.00    -0.014 A 
BRANCH  37  38
ATOM     38  C   UNL A   1      39.534  29.029  30.057  1.00  0.00     0.031 A 
ATOM     39  C   UNL A   1      40.200  27.793  29.596  1.00  0.00     0.074 A 
ATOM     40  C   UNL A   1      40.238  30.073  30.559  1.00  0.00     0.049 A 
ATOM     41  N   UNL A   1      41.380  27.434  29.932  1.00  0.00    -0.248 NA
ATOM     42  C   UNL A   1      39.579  26.858  28.658  1.00  0.00     0.031 C 
ATOM     43  C   UNL A   1      41.682  30.310  30.592  1.00  0.00     0.029 A 
ATOM     44  N   UNL A   1      39.736  31.203  31.196  1.00  0.00    -0.354 N 
ATOM     45  C   UNL A   1      41.801  26.475  29.037  1.00  0.00     0.074 A 
ATOM     46  C   UNL A   1      40.626  26.121  28.286  1.00  0.00     0.031 C 
ATOM     47  C   UNL A   1      41.958  31.316  31.447  1.00  0.00     0.029 A 
ATOM     48  C   UNL A   1      40.703  31.725  32.060  1.00  0.00     0.049 A 
ATOM     49  H   UNL A   1      38.837  31.578  31.060  1.00  0.00     0.167 HD
ATOM     50  C   UNL A   1      43.138  26.215  28.970  1.00  0.00     0.037 A 
ATOM     51  C   UNL A   1      40.372  31.787  33.375  1.00  0.00     0.037 A 
ATOM     52  C   UNL A   1      43.836  26.991  30.017  1.00  0.00     0.049 A 
ATOM     53  C   UNL A   1      41.140  30.656  34.015  1.00  0.00     0.074 A 
ATOM     54  C   UNL A   1      44.573  28.165  29.997  1.00  0.00     0.029 A 
ATOM     55  N   UNL A   1      43.441  26.824  31.353  1.00  0.00    -0.354 N 
ATOM     56  N   UNL A   1      41.523  29.584  33.359  1.00  0.00    -0.248 NA
ATOM     57  C   UNL A   1      41.776  30.770  35.324  1.00  0.00     0.031 C 
ATOM     58  C   UNL A   1      44.494  28.759  31.298  1.00  0.00     0.029 A 
ATOM     59  C   UNL A   1      43.707  27.955  32.116  1.00  0.00     0.049 A 
ATOM     60  H   UNL A   1      43.024  26.005  31.707  1.00  0.00     0.167 HD
ATOM     61  C   UNL A   1      42.552  28.993  34.029  1.00  0.00     0.074 A 
ATOM     62  C   UNL A   1      42.628  29.730  35.286  1.00  0.00     0.031 C 
ATOM     63  C   UNL A   1      43.358  28.001  33.539  1.00  0.00     0.037 A 
BRANCH  50  64
ATOM     64  C   UNL A   1      43.791  25.480  27.807  1.00  0.00     0.058 A 
ATOM     65  C   UNL A   1      44.150  24.120  27.914  1.00  0.00     0.135 A 
ATOM     66  C   UNL A   1      44.115  26.061  26.559  1.00  0.00     0.135 A 
ATOM     67  F   UNL A   1      43.867  23.411  29.015  1.00  0.00    -0.206 F 
ATOM     68  C   UNL A   1      44.808  23.416  26.894  1.00  0.00     0.059 A 
ATOM     69  C   UNL A   1      44.833  25.402  25.553  1.00  0.00     0.059 A 
ATOM     70  F   UNL A   1      43.677  27.278  26.215  1.00  0.00    -0.206 F 
ATOM     71  C   UNL A   1      45.159  24.067  25.720  1.00  0.00     0.060 A 
BRANCH  71  72
ATOM     72  S   UNL A   1      45.963  23.142  24.395  1.00  0.00     0.124 S 
ATOM     73  O   UNL A   1      46.464  21.964  25.094  1.00  0.00    -0.237 OA
ATOM     74  O   UNL A   1      44.854  22.913  23.475  1.00  0.00    -0.237 OA
ATOM     75  O   UNL A   1      46.994  24.059  23.913  1.00  0.00    -0.744 OA
ENDBRANCH  71  72
ENDBRANCH  50  64
BRANCH  51  76
ATOM     76  C   UNL A   1      38.970  32.336  33.531  1.00  0.00     0.058 A 
ATOM     77  C   UNL A   1      38.800  33.700  33.165  1.00  0.00     0.135 A 
ATOM     78  C   UNL A   1      37.800  31.554  33.499  1.00  0.00     0.135 A 
ATOM     79  F   UNL A   1      39.873  34.510  33.119  1.00  0.00    -0.206 F 
ATOM     80  C   UNL A   1      37.592  34.227  32.689  1.00  0.00     0.059 A 
ATOM     81  C   UNL A   1      36.572  32.063  33.017  1.00  0.00     0.059 A 
ATOM     82  F   UNL A   1      37.857  30.246  33.789  1.00  0.00    -0.206 F 
ATOM     83  C   UNL A   1      36.487  33.388  32.579  1.00  0.00     0.060 A 
BRANCH  83  84
ATOM     84  S   UNL A   1      35.045  33.990  31.637  1.00  0.00     0.124 S 
ATOM     85  O   UNL A   1      34.768  35.270  32.279  1.00  0.00    -0.237 OA
ATOM     86  O   UNL A   1      35.575  34.081  30.278  1.00  0.00    -0.237 OA
ATOM     87  O   UNL A   1      34.052  32.943  31.844  1.00  0.00    -0.744 OA
ENDBRANCH  83  84
ENDBRANCH  51  76
BRANCH  63  88
ATOM     88  C   UNL A   1      43.946  26.982  34.473  1.00  0.00     0.058 A 
ATOM     89  C   UNL A   1      43.177  25.939  35.022  1.00  0.00     0.135 A 
ATOM     90  C   UNL A   1      45.338  26.908  34.689  1.00  0.00     0.135 A 
ATOM     91  F   UNL A   1      41.864  25.816  34.771  1.00  0.00    -0.206 F 
ATOM     92  C   UNL A   1      43.730  24.957  35.825  1.00  0.00     0.059 A 
ATOM     93  C   UNL A   1      45.923  25.883  35.418  1.00  0.00     0.059 A 
ATOM     94  F   UNL A   1      46.184  27.818  34.184  1.00  0.00    -0.206 F 
ATOM     95  C   UNL A   1      45.105  24.939  36.020  1.00  0.00     0.060 A 
BRANCH  95  96
ATOM     96  S   UNL A   1      45.812  23.658  37.056  1.00  0.00     0.124 S 
ATOM     97  O   UNL A   1      45.234  23.996  38.353  1.00  0.00    -0.237 OA
ATOM     98  O   UNL A   1      45.309  22.435  36.439  1.00  0.00    -0.237 OA
ATOM     99  O   UNL A   1      47.248  23.875  36.926  1.00  0.00    -0.744 OA
ENDBRANCH  95  96
ENDBRANCH  63  88
ENDBRANCH  37  38
ENDBRANCH  30  32
ENDBRANCH  29  30
ENDBRANCH  28  29
ENDBRANCH   1  28
TORSDOF 19
ENDMDL
MODEL 2
REMARK VINA RESULT:     -12.8      1.310      2.104
REMARK SMILES Cc1ccc(S(=O)(=O)N2c3ccc(C(=O)OCCOCCOC(=O)c4ccc(-c5c6nc(c(-c7c(F)cc(S(=O)(=O)[O-])cc7F)c7ccc([nH]7)c(-c7c(F)cc(S(=O)(=O)[O-])cc7F)c7nc(c(-c8c(F)cc(S(=O)(=O)[O-])cc8F)c8ccc5[nH]8)C=C7)C=C6)cc4)cc3C[C@H]2C)cc1
REMARK SMILES IDX 20 1 19 2 18 3 17 4 16 5 14 6 15 7 13 8 9 9 10 10 94 11
REMARK SMILES IDX 11 12 92 13 93 14 95 15 12 16 91 17 6 18 7 19 8 20 5 21 1 22
REMARK SMILES IDX 2 23 3 24 97 25 4 26 96 27 21 28 22 29 23 30 24 31 25 32
REMARK SMILES IDX 26 33 90 34 27 35 89 36 28 37 29 38 30 39 83 40 31 41 88 42
REMARK SMILES IDX 82 43 84 44 32 45 87 46 81 47 80 48 33 50 67 51 46 52 66 53
REMARK SMILES IDX 47 54 50 55 65 56 85 57 48 58 49 59 64 61 86 62 51 63 34 64
REMARK SMILES IDX 35 65 44 66 36 67 37 68 43 69 45 70 38 71 39 72 40 73 41 74
REMARK SMILES IDX 42 75 68 76 69 77 78 78 70 79 71 80 77 81 79 82 72 83 73 84
REMARK SMILES IDX 74 85 75 86 76 87 52 88 53 89 62 90 54 91 55 92 61 93 63 94
REMARK SMILES IDX 56 95 57 96 58 97 59 98 60 99
REMARK H PARENT 84 49 50 60
REMARK Flexibility Score: inf
ROOT
ATOM      1  C   UNL A   1      33.003  29.677  24.979  1.00  0.00     0.202 C 
ENDROOT
BRANCH   1   2
ATOM      2  O   UNL A   1      31.612  29.716  25.204  1.00  0.00    -0.374 OA
BRANCH   2   3
ATOM      3  C   UNL A   1      30.867  28.801  24.406  1.00  0.00     0.202 C 
BRANCH   3   4
ATOM      4  C   UNL A   1      31.418  28.934  23.034  1.00  0.00     0.261 C 
BRANCH   4   5
ATOM      5  O   UNL A   1      31.641  27.657  22.445  1.00  0.00    -0.460 OA
BRANCH   5   6
ATOM      6  C   UNL A   1      32.901  27.171  22.360  1.00  0.00     0.338 C 
ATOM      7  O   UNL A   1      33.943  27.731  22.062  1.00  0.00    -0.246 OA
BRANCH   6   8
ATOM      8  C   UNL A   1      32.787  25.835  22.932  1.00  0.00     0.060 A 
ATOM      9  N   UNL A   1      31.510  22.471  24.957  1.00  0.00    -0.263 N 
ATOM     10  C   UNL A   1      31.883  23.589  24.138  1.00  0.00     0.055 A 
ATOM     11  C   UNL A   1      31.558  23.044  26.366  1.00  0.00     0.101 C 
ATOM     12  C   UNL A   1      31.769  23.649  22.767  1.00  0.00     0.028 A 
ATOM     13  C   UNL A   1      32.475  24.601  24.900  1.00  0.00    -0.021 A 
ATOM     14  C   UNL A   1      32.515  24.248  26.341  1.00  0.00     0.063 C 
ATOM     15  C   UNL A   1      30.125  23.493  26.709  1.00  0.00     0.032 C 
ATOM     16  C   UNL A   1      32.264  24.778  22.150  1.00  0.00     0.018 A 
ATOM     17  C   UNL A   1      32.956  25.738  24.310  1.00  0.00     0.021 A 
BRANCH   9  18
ATOM     18  S   UNL A   1      32.568  21.167  24.570  1.00  0.00     0.264 S 
ATOM     19  O   UNL A   1      32.522  20.957  23.138  1.00  0.00    -0.201 OA
ATOM     20  O   UNL A   1      32.309  20.080  25.498  1.00  0.00    -0.201 OA
BRANCH  18  21
ATOM     21  C   UNL A   1      34.221  21.667  24.929  1.00  0.00     0.088 A 
ATOM     22  C   UNL A   1      37.964  23.581  25.681  1.00  0.00     0.044 C 
ATOM     23  C   UNL A   1      36.682  22.862  25.405  1.00  0.00    -0.051 A 
ATOM     24  C   UNL A   1      36.149  22.860  24.112  1.00  0.00     0.005 A 
ATOM     25  C   UNL A   1      36.020  22.178  26.431  1.00  0.00     0.005 A 
ATOM     26  C   UNL A   1      34.913  22.274  23.876  1.00  0.00     0.022 A 
ATOM     27  C   UNL A   1      34.805  21.549  26.185  1.00  0.00     0.022 A 
ENDBRANCH  18  21
ENDBRANCH   9  18
ENDBRANCH   6   8
ENDBRANCH   5   6
ENDBRANCH   4   5
ENDBRANCH   3   4
ENDBRANCH   2   3
ENDBRANCH   1   2
BRANCH   1  28
ATOM     28  C   UNL A   1      33.808  29.241  26.212  1.00  0.00     0.261 C 
BRANCH  28  29
ATOM     29  O   UNL A   1      33.614  30.182  27.289  1.00  0.00    -0.460 OA
BRANCH  29  30
ATOM     30  C   UNL A   1      34.689  30.961  27.613  1.00  0.00     0.338 C 
ATOM     31  O   UNL A   1      34.767  32.157  27.404  1.00  0.00    -0.246 OA
BRANCH  30  32
ATOM     32  C   UNL A   1      35.780  30.104  28.164  1.00  0.00     0.060 A 
ATOM     33  C   UNL A   1      35.743  29.627  29.493  1.00  0.00     0.016 A 
ATOM     34  C   UNL A   1      36.950  30.002  27.420  1.00  0.00     0.016 A 
ATOM     35  C   UNL A   1      36.916  29.159  30.114  1.00  0.00     0.010 A 
ATOM     36  C   UNL A   1      38.112  29.660  28.065  1.00  0.00     0.010 A 
ATOM     37  C   UNL A   1      38.113  29.242  29.410  1.00  0.00    -0.014 A 
BRANCH  37  38
ATOM     38  C   UNL A   1      39.469  29.019  29.920  1.00  0.00     0.031 A 
ATOM     39  C   UNL A   1      40.105  27.753  29.500  1.00  0.00     0.074 A 
ATOM     40  C   UNL A   1      40.202  30.074  30.355  1.00  0.00     0.049 A 
ATOM     41  N   UNL A   1      41.288  27.390  29.822  1.00  0.00    -0.248 NA
ATOM     42  C   UNL A   1      39.445  26.786  28.623  1.00  0.00     0.031 C 
ATOM     43  C   UNL A   1      41.650  30.289  30.339  1.00  0.00     0.029 A 
ATOM     44  N   UNL A   1      39.735  31.240  30.951  1.00  0.00    -0.354 N 
ATOM     45  C   UNL A   1      41.670  26.385  28.962  1.00  0.00     0.074 A 
ATOM     46  C   UNL A   1      40.471  26.016  28.259  1.00  0.00     0.031 C 
ATOM     47  C   UNL A   1      41.963  31.329  31.140  1.00  0.00     0.029 A 
ATOM     48  C   UNL A   1      40.731  31.786  31.764  1.00  0.00     0.049 A 
ATOM     49  H   UNL A   1      38.838  31.623  30.820  1.00  0.00     0.167 HD
ATOM     50  C   UNL A   1      43.001  26.100  28.873  1.00  0.00     0.037 A 
ATOM     51  C   UNL A   1      40.436  31.914  33.083  1.00  0.00     0.037 A 
ATOM     52  C   UNL A   1      43.738  26.912  29.865  1.00  0.00     0.049 A 
ATOM     53  C   UNL A   1      41.204  30.801  33.756  1.00  0.00     0.074 A 
ATOM     54  C   UNL A   1      44.492  28.071  29.772  1.00  0.00     0.029 A 
ATOM     55  N   UNL A   1      43.375  26.813  31.218  1.00  0.00    -0.354 N 
ATOM     56  N   UNL A   1      41.553  29.694  33.141  1.00  0.00    -0.248 NA
ATOM     57  C   UNL A   1      41.875  30.965  35.041  1.00  0.00     0.031 C 
ATOM     58  C   UNL A   1      44.455  28.726  31.045  1.00  0.00     0.029 A 
ATOM     59  C   UNL A   1      43.679  27.974  31.920  1.00  0.00     0.049 A 
ATOM     60  H   UNL A   1      42.956  26.018  31.620  1.00  0.00     0.167 HD
ATOM     61  C   UNL A   1      42.590  29.118  33.811  1.00  0.00     0.074 A 
ATOM     62  C   UNL A   1      42.710  29.911  35.030  1.00  0.00     0.031 C 
ATOM     63  C   UNL A   1      43.367  28.091  33.347  1.00  0.00     0.037 A 
BRANCH  50  64
ATOM     64  C   UNL A   1      43.612  25.302  27.730  1.00  0.00     0.058 A 
ATOM     65  C   UNL A   1      44.029  23.966  27.914  1.00  0.00     0.135 A 
ATOM     66  C   UNL A   1      43.839  25.797  26.425  1.00  0.00     0.135 A 
ATOM     67  F   UNL A   1      43.838  23.334  29.080  1.00  0.00    -0.206 F 
ATOM     68  C   UNL A   1      44.652  23.210  26.911  1.00  0.00     0.059 A 
ATOM     69  C   UNL A   1      44.522  25.088  25.428  1.00  0.00     0.059 A 
ATOM     70  F   UNL A   1      43.336  26.969  26.020  1.00  0.00    -0.206 F 
ATOM     71  C   UNL A   1      44.908  23.782  25.673  1.00  0.00     0.060 A 
BRANCH  71  72
ATOM     72  S   UNL A   1      45.667  22.787  24.373  1.00  0.00     0.124 S 
ATOM     73  O   UNL A   1      46.598  23.729  23.760  1.00  0.00    -0.237 OA
ATOM     74  O   UNL A   1      46.271  21.703  25.139  1.00  0.00    -0.237 OA
ATOM     75  O   UNL A   1      44.537  22.401  23.531  1.00  0.00    -0.744 OA
ENDBRANCH  71  72
ENDBRANCH  50  64
BRANCH  51  76
ATOM     76  C   UNL A   1      39.047  32.492  33.249  1.00  0.00     0.058 A 
ATOM     77  C   UNL A   1      38.859  33.799  32.721  1.00  0.00     0.135 A 
ATOM     78  C   UNL A   1      37.876  31.724  33.388  1.00  0.00     0.135 A 
ATOM     79  F   UNL A   1      39.929  34.586  32.507  1.00  0.00    -0.206 F 
ATOM     80  C   UNL A   1      37.625  34.273  32.253  1.00  0.00     0.059 A 
ATOM     81  C   UNL A   1      36.622  32.179  32.917  1.00  0.00     0.059 A 
ATOM     82  F   UNL A   1      37.947  30.464  33.840  1.00  0.00    -0.206 F 
ATOM     83  C   UNL A   1      36.513  33.438  32.316  1.00  0.00     0.060 A 
BRANCH  83  84
ATOM     84  S   UNL A   1      35.020  33.927  31.392  1.00  0.00     0.124 S 
ATOM     85  O   UNL A   1      34.126  32.798  31.626  1.00  0.00    -0.237 OA
ATOM     86  O   UNL A   1      34.634  35.171  32.056  1.00  0.00    -0.237 OA
ATOM     87  O   UNL A   1      35.509  34.082  30.027  1.00  0.00    -0.744 OA
ENDBRANCH  83  84
ENDBRANCH  51  76
BRANCH  63  88
ATOM     88  C   UNL A   1      43.964  27.107  34.312  1.00  0.00     0.058 A 
ATOM     89  C   UNL A   1      43.190  26.117  34.945  1.00  0.00     0.135 A 
ATOM     90  C   UNL A   1      45.361  27.006  34.481  1.00  0.00     0.135 A 
ATOM     91  F   UNL A   1      41.865  26.018  34.750  1.00  0.00    -0.206 F 
ATOM     92  C   UNL A   1      43.748  25.163  35.779  1.00  0.00     0.059 A 
ATOM     93  C   UNL A   1      45.947  26.004  35.241  1.00  0.00     0.059 A 
ATOM     94  F   UNL A   1      46.211  27.864  33.896  1.00  0.00    -0.206 F 
ATOM     95  C   UNL A   1      45.128  25.117  35.923  1.00  0.00     0.060 A 
BRANCH  95  96
ATOM     96  S   UNL A   1      45.841  23.874  37.000  1.00  0.00     0.124 S 
ATOM     97  O   UNL A   1      45.183  24.187  38.265  1.00  0.00    -0.237 OA
ATOM     98  O   UNL A   1      45.428  22.627  36.365  1.00  0.00    -0.237 OA
ATOM     99  O   UNL A   1      47.270  24.158  36.942  1.00  0.00    -0.744 OA
ENDBRANCH  95  96
ENDBRANCH  63  88
ENDBRANCH  37  38
ENDBRANCH  30  32
ENDBRANCH  29  30
ENDBRANCH  28  29
ENDBRANCH   1  28
TORSDOF 19
ENDMDL
MODEL 3
REMARK VINA RESULT:     -12.8      1.052      1.712
REMARK SMILES Cc1ccc(S(=O)(=O)N2c3ccc(C(=O)OCCOCCOC(=O)c4ccc(-c5c6nc(c(-c7c(F)cc(S(=O)(=O)[O-])cc7F)c7ccc([nH]7)c(-c7c(F)cc(S(=O)(=O)[O-])cc7F)c7nc(c(-c8c(F)cc(S(=O)(=O)[O-])cc8F)c8ccc5[nH]8)C=C7)C=C6)cc4)cc3C[C@H]2C)cc1
REMARK SMILES IDX 20 1 19 2 18 3 17 4 16 5 14 6 15 7 13 8 9 9 10 10 94 11
REMARK SMILES IDX 11 12 92 13 93 14 95 15 12 16 91 17 6 18 7 19 8 20 5 21 1 22
REMARK SMILES IDX 2 23 3 24 97 25 4 26 96 27 21 28 22 29 23 30 24 31 25 32
REMARK SMILES IDX 26 33 90 34 27 35 89 36 28 37 29 38 30 39 83 40 31 41 88 42
REMARK SMILES IDX 82 43 84 44 32 45 87 46 81 47 80 48 33 50 67 51 46 52 66 53
REMARK SMILES IDX 47 54 50 55 65 56 85 57 48 58 49 59 64 61 86 62 51 63 34 64
REMARK SMILES IDX 35 65 44 66 36 67 37 68 43 69 45 70 38 71 39 72 40 73 41 74
REMARK SMILES IDX 42 75 68 76 69 77 78 78 70 79 71 80 77 81 79 82 72 83 73 84
REMARK SMILES IDX 74 85 75 86 76 87 52 88 53 89 62 90 54 91 55 92 61 93 63 94
REMARK SMILES IDX 56 95 57 96 58 97 59 98 60 99
REMARK H PARENT 84 49 50 60
REMARK Flexibility Score: inf
ROOT
ATOM      1  C   UNL A   1      33.051  29.465  25.280  1.00  0.00     0.202 C 
ENDROOT
BRANCH   1   2
ATOM      2  O   UNL A   1      31.651  29.619  25.320  1.00  0.00    -0.374 OA
BRANCH   2   3
ATOM      3  C   UNL A   1      30.950  28.835  24.360  1.00  0.00     0.202 C 
BRANCH   3   4
ATOM      4  C   UNL A   1      31.835  28.785  23.169  1.00  0.00     0.261 C 
BRANCH   4   5
ATOM      5  O   UNL A   1      31.968  27.453  22.684  1.00  0.00    -0.460 OA
BRANCH   5   6
ATOM      6  C   UNL A   1      33.178  27.009  22.274  1.00  0.00     0.338 C 
ATOM      7  O   UNL A   1      34.034  27.560  21.601  1.00  0.00    -0.246 OA
BRANCH   6   8
ATOM      8  C   UNL A   1      33.349  25.764  23.013  1.00  0.00     0.060 A 
ATOM      9  N   UNL A   1      32.726  22.342  25.237  1.00  0.00    -0.263 N 
ATOM     10  C   UNL A   1      32.922  23.449  24.346  1.00  0.00     0.055 A 
ATOM     11  C   UNL A   1      32.246  23.008  26.518  1.00  0.00     0.101 C 
ATOM     12  C   UNL A   1      33.135  23.357  22.989  1.00  0.00     0.028 A 
ATOM     13  C   UNL A   1      32.964  24.660  25.045  1.00  0.00    -0.021 A 
ATOM     14  C   UNL A   1      32.757  24.459  26.501  1.00  0.00     0.063 C 
ATOM     15  C   UNL A   1      30.707  22.971  26.485  1.00  0.00     0.032 C 
ATOM     16  C   UNL A   1      33.390  24.533  22.316  1.00  0.00     0.018 A 
ATOM     17  C   UNL A   1      33.196  25.842  24.394  1.00  0.00     0.021 A 
BRANCH   9  18
ATOM     18  S   UNL A   1      34.199  21.447  25.285  1.00  0.00     0.264 S 
ATOM     19  O   UNL A   1      34.741  21.539  26.625  1.00  0.00    -0.201 OA
ATOM     20  O   UNL A   1      34.992  21.814  24.126  1.00  0.00    -0.201 OA
BRANCH  18  21
ATOM     21  C   UNL A   1      33.821  19.742  25.036  1.00  0.00     0.088 A 
ATOM     22  C   UNL A   1      33.428  15.490  24.975  1.00  0.00     0.044 C 
ATOM     23  C   UNL A   1      33.544  16.981  24.942  1.00  0.00    -0.051 A 
ATOM     24  C   UNL A   1      34.722  17.577  24.481  1.00  0.00     0.005 A 
ATOM     25  C   UNL A   1      32.476  17.783  25.357  1.00  0.00     0.005 A 
ATOM     26  C   UNL A   1      34.867  18.956  24.540  1.00  0.00     0.022 A 
ATOM     27  C   UNL A   1      32.601  19.167  25.370  1.00  0.00     0.022 A 
ENDBRANCH  18  21
ENDBRANCH   9  18
ENDBRANCH   6   8
ENDBRANCH   5   6
ENDBRANCH   4   5
ENDBRANCH   3   4
ENDBRANCH   2   3
ENDBRANCH   1   2
BRANCH   1  28
ATOM     28  C   UNL A   1      33.659  29.055  26.630  1.00  0.00     0.261 C 
BRANCH  28  29
ATOM     29  O   UNL A   1      33.551  30.143  27.572  1.00  0.00    -0.460 OA
BRANCH  29  30
ATOM     30  C   UNL A   1      34.664  30.922  27.726  1.00  0.00     0.338 C 
ATOM     31  O   UNL A   1      34.747  32.086  27.383  1.00  0.00    -0.246 OA
BRANCH  30  32
ATOM     32  C   UNL A   1      35.778  30.098  28.280  1.00  0.00     0.060 A 
ATOM     33  C   UNL A   1      35.751  29.618  29.609  1.00  0.00     0.016 A 
ATOM     34  C   UNL A   1      36.954  30.034  27.541  1.00  0.00     0.016 A 
ATOM     35  C   UNL A   1      36.936  29.186  30.233  1.00  0.00     0.010 A 
ATOM     36  C   UNL A   1      38.124  29.727  28.190  1.00  0.00     0.010 A 
ATOM     37  C   UNL A   1      38.132  29.308  29.535  1.00  0.00    -0.014 A 
BRANCH  37  38
ATOM     38  C   UNL A   1      39.493  29.127  30.049  1.00  0.00     0.031 A 
ATOM     39  C   UNL A   1      40.181  27.897  29.604  1.00  0.00     0.074 A 
ATOM     40  C   UNL A   1      40.180  30.198  30.516  1.00  0.00     0.049 A 
ATOM     41  N   UNL A   1      41.375  27.574  29.926  1.00  0.00    -0.248 NA
ATOM     42  C   UNL A   1      39.567  26.927  28.697  1.00  0.00     0.031 C 
ATOM     43  C   UNL A   1      41.618  30.471  30.518  1.00  0.00     0.029 A 
ATOM     44  N   UNL A   1      39.661  31.330  31.138  1.00  0.00    -0.354 N 
ATOM     45  C   UNL A   1      41.804  26.607  29.045  1.00  0.00     0.074 A 
ATOM     46  C   UNL A   1      40.625  26.208  28.323  1.00  0.00     0.031 C 
ATOM     47  C   UNL A   1      41.884  31.502  31.347  1.00  0.00     0.029 A 
ATOM     48  C   UNL A   1      40.630  31.894  31.973  1.00  0.00     0.049 A 
ATOM     49  H   UNL A   1      38.751  31.680  31.009  1.00  0.00     0.167 HD
ATOM     50  C   UNL A   1      43.146  26.378  28.959  1.00  0.00     0.037 A 
ATOM     51  C   UNL A   1      40.320  31.977  33.292  1.00  0.00     0.037 A 
ATOM     52  C   UNL A   1      43.843  27.193  29.977  1.00  0.00     0.049 A 
ATOM     53  C   UNL A   1      41.127  30.879  33.943  1.00  0.00     0.074 A 
ATOM     54  C   UNL A   1      44.550  28.383  29.918  1.00  0.00     0.029 A 
ATOM     55  N   UNL A   1      43.475  27.046  31.323  1.00  0.00    -0.354 N 
ATOM     56  N   UNL A   1      41.524  29.802  33.303  1.00  0.00    -0.248 NA
ATOM     57  C   UNL A   1      41.782  31.037  35.237  1.00  0.00     0.031 C 
ATOM     58  C   UNL A   1      44.479  29.004  31.207  1.00  0.00     0.029 A 
ATOM     59  C   UNL A   1      43.726  28.200  32.057  1.00  0.00     0.049 A 
ATOM     60  H   UNL A   1      43.085  26.225  31.702  1.00  0.00     0.167 HD
ATOM     61  C   UNL A   1      42.579  29.251  33.967  1.00  0.00     0.074 A 
ATOM     62  C   UNL A   1      42.659  30.017  35.206  1.00  0.00     0.031 C 
ATOM     63  C   UNL A   1      43.400  28.268  33.484  1.00  0.00     0.037 A 
BRANCH  50  64
ATOM     64  C   UNL A   1      43.796  25.634  27.801  1.00  0.00     0.058 A 
ATOM     65  C   UNL A   1      43.688  24.231  27.683  1.00  0.00     0.135 A 
ATOM     66  C   UNL A   1      44.564  26.237  26.778  1.00  0.00     0.135 A 
ATOM     67  F   UNL A   1      42.953  23.517  28.545  1.00  0.00    -0.206 F 
ATOM     68  C   UNL A   1      44.320  23.494  26.670  1.00  0.00     0.059 A 
ATOM     69  C   UNL A   1      45.262  25.518  25.798  1.00  0.00     0.059 A 
ATOM     70  F   UNL A   1      44.612  27.565  26.624  1.00  0.00    -0.206 F 
ATOM     71  C   UNL A   1      45.116  24.143  25.738  1.00  0.00     0.060 A 
BRANCH  71  72
ATOM     72  S   UNL A   1      45.887  23.193  24.410  1.00  0.00     0.124 S 
ATOM     73  O   UNL A   1      46.885  24.124  23.897  1.00  0.00    -0.237 OA
ATOM     74  O   UNL A   1      46.406  22.037  25.133  1.00  0.00    -0.237 OA
ATOM     75  O   UNL A   1      44.778  22.913  23.500  1.00  0.00    -0.744 OA
ENDBRANCH  71  72
ENDBRANCH  50  64
BRANCH  51  76
ATOM     76  C   UNL A   1      38.908  32.495  33.461  1.00  0.00     0.058 A 
ATOM     77  C   UNL A   1      38.692  33.837  33.042  1.00  0.00     0.135 A 
ATOM     78  C   UNL A   1      37.760  31.682  33.493  1.00  0.00     0.135 A 
ATOM     79  F   UNL A   1      39.741  34.672  32.933  1.00  0.00    -0.206 F 
ATOM     80  C   UNL A   1      37.458  34.311  32.576  1.00  0.00     0.059 A 
ATOM     81  C   UNL A   1      36.506  32.137  33.022  1.00  0.00     0.059 A 
ATOM     82  F   UNL A   1      37.860  30.389  33.837  1.00  0.00    -0.206 F 
ATOM     83  C   UNL A   1      36.374  33.439  32.530  1.00  0.00     0.060 A 
BRANCH  83  84
ATOM     84  S   UNL A   1      34.893  33.961  31.602  1.00  0.00     0.124 S 
ATOM     85  O   UNL A   1      35.312  33.772  30.218  1.00  0.00    -0.237 OA
ATOM     86  O   UNL A   1      33.879  33.022  32.077  1.00  0.00    -0.237 OA
ATOM     87  O   UNL A   1      34.703  35.342  32.028  1.00  0.00    -0.744 OA
ENDBRANCH  83  84
ENDBRANCH  51  76
BRANCH  63  88
ATOM     88  C   UNL A   1      44.029  27.284  34.429  1.00  0.00     0.058 A 
ATOM     89  C   UNL A   1      43.296  26.236  35.014  1.00  0.00     0.135 A 
ATOM     90  C   UNL A   1      45.426  27.250  34.623  1.00  0.00     0.135 A 
ATOM     91  F   UNL A   1      41.982  26.076  34.789  1.00  0.00    -0.206 F 
ATOM     92  C   UNL A   1      43.887  25.285  35.829  1.00  0.00     0.059 A 
ATOM     93  C   UNL A   1      46.049  26.255  35.362  1.00  0.00     0.059 A 
ATOM     94  F   UNL A   1      46.241  28.168  34.083  1.00  0.00    -0.206 F 
ATOM     95  C   UNL A   1      45.265  25.305  35.999  1.00  0.00     0.060 A 
BRANCH  95  96
ATOM     96  S   UNL A   1      46.021  24.065  37.050  1.00  0.00     0.124 S 
ATOM     97  O   UNL A   1      47.286  24.712  37.383  1.00  0.00    -0.237 OA
ATOM     98  O   UNL A   1      45.063  23.947  38.145  1.00  0.00    -0.237 OA
ATOM     99  O   UNL A   1      46.116  22.899  36.179  1.00  0.00    -0.744 OA
ENDBRANCH  95  96
ENDBRANCH  63  88
ENDBRANCH  37  38
ENDBRANCH  30  32
ENDBRANCH  29  30
ENDBRANCH  28  29
ENDBRANCH   1  28
TORSDOF 19
ENDMDL
