MODEL 1
REMARK VINA RESULT:     -11.0      0.000      0.000
REMARK SMILES O=C(OCCOCCOC(=O)c1cccc(Oc2ncc([N+](=O)[O-])cc2Br)c1)c1ccc(-c2c3nc(c(-c4c(F)cc(S(=O)(=O)[O-])cc4F)c4ccc([nH]4)c(-c4c(F)cc(S(=O)(=O)[O-])cc4F)c4nc(c(-c5c(F)cc(S(=O)(=O)[O-])cc5F)c5ccc2[nH]5)C=C4)C=C3)cc1
REMARK SMILES IDX 6 1 5 2 4 3 3 4 2 5 1 6 29 7 30 8 94 9 31 10 93 11 32 12
REMARK SMILES IDX 33 13 34 14 87 15 35 16 92 17 86 18 88 19 36 20 91 21 85 22
REMARK SMILES IDX 84 23 37 25 71 26 50 27 70 28 51 29 54 30 69 31 89 32 52 33
REMARK SMILES IDX 53 34 68 36 90 37 55 38 38 39 39 40 48 41 40 42 41 43 47 44
REMARK SMILES IDX 49 45 42 46 43 47 44 48 45 49 46 50 72 51 73 52 82 53 74 54
REMARK SMILES IDX 75 55 81 56 83 57 76 58 77 59 78 60 79 61 80 62 56 63 57 64
REMARK SMILES IDX 66 65 58 66 59 67 65 68 67 69 60 70 61 71 62 72 63 73 64 74
REMARK SMILES IDX 7 75 8 76 9 77 10 78 11 79 12 80 13 81 28 82 14 83 16 84
REMARK SMILES IDX 15 85 17 86 18 87 19 88 26 89 20 90 25 91 27 92 21 93 22 94
REMARK SMILES IDX 23 95 24 96
REMARK H PARENT 88 24 54 35
REMARK Flexibility Score: inf
ROOT
ATOM      1  O   UNL A   1      32.888  30.031  25.696  1.00  0.00    -0.374 OA
ENDROOT
BRANCH   1   2
ATOM      2  C   UNL A   1      33.731  29.422  26.672  1.00  0.00     0.202 C 
BRANCH   2   3
ATOM      3  C   UNL A   1      34.560  30.414  27.489  1.00  0.00     0.261 C 
BRANCH   3   4
ATOM      4  O   UNL A   1      35.239  29.728  28.551  1.00  0.00    -0.460 OA
BRANCH   4   5
ATOM      5  C   UNL A   1      36.308  30.166  29.259  1.00  0.00     0.338 C 
ATOM      6  O   UNL A   1      36.116  30.918  30.214  1.00  0.00    -0.246 OA
BRANCH   5   7
ATOM      7  C   UNL A   1      37.714  29.776  28.944  1.00  0.00     0.060 A 
ATOM      8  C   UNL A   1      38.235  29.664  27.655  1.00  0.00     0.016 A 
ATOM      9  C   UNL A   1      38.592  29.609  30.025  1.00  0.00     0.016 A 
ATOM     10  C   UNL A   1      39.560  29.367  27.422  1.00  0.00     0.010 A 
ATOM     11  C   UNL A   1      39.946  29.337  29.805  1.00  0.00     0.010 A 
ATOM     12  C   UNL A   1      40.422  29.217  28.496  1.00  0.00    -0.014 A 
BRANCH  12  13
ATOM     13  C   UNL A   1      41.794  28.813  28.173  1.00  0.00     0.031 A 
ATOM     14  C   UNL A   1      42.871  29.836  28.321  1.00  0.00     0.074 A 
ATOM     15  C   UNL A   1      42.053  27.514  27.943  1.00  0.00     0.049 A 
ATOM     16  N   UNL A   1      44.142  29.737  28.058  1.00  0.00    -0.248 NA
ATOM     17  C   UNL A   1      42.462  31.148  28.854  1.00  0.00     0.031 C 
ATOM     18  C   UNL A   1      41.055  26.437  27.964  1.00  0.00     0.029 A 
ATOM     19  N   UNL A   1      43.230  26.867  27.690  1.00  0.00    -0.354 N 
ATOM     20  C   UNL A   1      44.680  30.981  28.359  1.00  0.00     0.074 A 
ATOM     21  C   UNL A   1      43.601  31.822  28.821  1.00  0.00     0.031 C 
ATOM     22  C   UNL A   1      41.668  25.264  27.749  1.00  0.00     0.029 A 
ATOM     23  C   UNL A   1      43.080  25.515  27.493  1.00  0.00     0.049 A 
ATOM     24  H   UNL A   1      44.101  27.326  27.652  1.00  0.00     0.167 HD
ATOM     25  C   UNL A   1      45.968  31.370  28.242  1.00  0.00     0.037 A 
ATOM     26  C   UNL A   1      43.988  24.602  27.102  1.00  0.00     0.037 A 
ATOM     27  C   UNL A   1      47.001  30.486  27.775  1.00  0.00     0.049 A 
ATOM     28  C   UNL A   1      45.389  25.091  26.855  1.00  0.00     0.074 A 
ATOM     29  C   UNL A   1      48.331  30.763  27.529  1.00  0.00     0.029 A 
ATOM     30  N   UNL A   1      46.806  29.139  27.484  1.00  0.00    -0.354 N 
ATOM     31  N   UNL A   1      45.883  26.296  27.039  1.00  0.00    -0.248 NA
ATOM     32  C   UNL A   1      46.351  24.117  26.331  1.00  0.00     0.031 C 
ATOM     33  C   UNL A   1      48.927  29.596  27.038  1.00  0.00     0.029 A 
ATOM     34  C   UNL A   1      47.985  28.574  27.041  1.00  0.00     0.049 A 
ATOM     35  H   UNL A   1      45.951  28.659  27.581  1.00  0.00     0.167 HD
ATOM     36  C   UNL A   1      47.220  26.220  26.675  1.00  0.00     0.074 A 
ATOM     37  C   UNL A   1      47.458  24.845  26.276  1.00  0.00     0.031 C 
ATOM     38  C   UNL A   1      48.168  27.191  26.667  1.00  0.00     0.037 A 
BRANCH  25  39
ATOM     39  C   UNL A   1      46.282  32.807  28.539  1.00  0.00     0.058 A 
ATOM     40  C   UNL A   1      46.702  33.236  29.808  1.00  0.00     0.135 A 
ATOM     41  C   UNL A   1      46.117  33.781  27.540  1.00  0.00     0.135 A 
ATOM     42  F   UNL A   1      46.836  32.355  30.811  1.00  0.00    -0.206 F 
ATOM     43  C   UNL A   1      46.926  34.583  30.083  1.00  0.00     0.059 A 
ATOM     44  C   UNL A   1      46.361  35.129  27.785  1.00  0.00     0.059 A 
ATOM     45  F   UNL A   1      45.694  33.429  26.316  1.00  0.00    -0.206 F 
ATOM     46  C   UNL A   1      46.751  35.522  29.064  1.00  0.00     0.060 A 
BRANCH  46  47
ATOM     47  S   UNL A   1      47.040  37.264  29.437  1.00  0.00     0.124 S 
ATOM     48  O   UNL A   1      47.476  37.772  28.140  1.00  0.00    -0.237 OA
ATOM     49  O   UNL A   1      45.723  37.708  29.880  1.00  0.00    -0.237 OA
ATOM     50  O   UNL A   1      48.067  37.225  30.473  1.00  0.00    -0.744 OA
ENDBRANCH  46  47
ENDBRANCH  25  39
BRANCH  26  51
ATOM     51  C   UNL A   1      43.589  23.188  26.865  1.00  0.00     0.058 A 
ATOM     52  C   UNL A   1      43.459  22.672  25.567  1.00  0.00     0.135 A 
ATOM     53  C   UNL A   1      43.326  22.316  27.936  1.00  0.00     0.135 A 
ATOM     54  F   UNL A   1      43.692  23.459  24.506  1.00  0.00    -0.206 F 
ATOM     55  C   UNL A   1      43.067  21.355  25.338  1.00  0.00     0.059 A 
ATOM     56  C   UNL A   1      42.963  20.988  27.734  1.00  0.00     0.059 A 
ATOM     57  F   UNL A   1      43.442  22.749  29.201  1.00  0.00    -0.206 F 
ATOM     58  C   UNL A   1      42.822  20.520  26.431  1.00  0.00     0.060 A 
BRANCH  58  59
ATOM     59  S   UNL A   1      42.334  18.808  26.123  1.00  0.00     0.124 S 
ATOM     60  O   UNL A   1      40.930  18.962  25.764  1.00  0.00    -0.237 OA
ATOM     61  O   UNL A   1      43.232  18.424  25.039  1.00  0.00    -0.237 OA
ATOM     62  O   UNL A   1      42.590  18.150  27.402  1.00  0.00    -0.744 OA
ENDBRANCH  58  59
ENDBRANCH  26  51
BRANCH  38  63
ATOM     63  C   UNL A   1      49.552  26.781  26.256  1.00  0.00     0.058 A 
ATOM     64  C   UNL A   1      50.466  26.246  27.176  1.00  0.00     0.135 A 
ATOM     65  C   UNL A   1      49.935  26.860  24.909  1.00  0.00     0.135 A 
ATOM     66  F   UNL A   1      50.146  26.160  28.477  1.00  0.00    -0.206 F 
ATOM     67  C   UNL A   1      51.725  25.819  26.773  1.00  0.00     0.059 A 
ATOM     68  C   UNL A   1      51.174  26.407  24.478  1.00  0.00     0.059 A 
ATOM     69  F   UNL A   1      49.088  27.354  23.991  1.00  0.00    -0.206 F 
ATOM     70  C   UNL A   1      52.067  25.898  25.421  1.00  0.00     0.060 A 
BRANCH  70  71
ATOM     71  S   UNL A   1      53.684  25.290  24.906  1.00  0.00     0.124 S 
ATOM     72  O   UNL A   1      53.805  25.872  23.574  1.00  0.00    -0.237 OA
ATOM     73  O   UNL A   1      54.565  25.849  25.926  1.00  0.00    -0.237 OA
ATOM     74  O   UNL A   1      53.530  23.838  24.946  1.00  0.00    -0.744 OA
ENDBRANCH  70  71
ENDBRANCH  38  63
ENDBRANCH  12  13
ENDBRANCH   5   7
ENDBRANCH   4   5
ENDBRANCH   3   4
ENDBRANCH   2   3
ENDBRANCH   1   2
BRANCH   1  75
ATOM     75  C   UNL A   1      32.008  29.185  24.955  1.00  0.00     0.202 C 
BRANCH  75  76
ATOM     76  C   UNL A   1      32.327  27.730  25.307  1.00  0.00     0.261 C 
BRANCH  76  77
ATOM     77  O   UNL A   1      32.630  27.050  24.084  1.00  0.00    -0.460 OA
BRANCH  77  78
ATOM     78  C   UNL A   1      31.697  26.145  23.688  1.00  0.00     0.338 C 
ATOM     79  O   UNL A   1      30.516  26.349  23.455  1.00  0.00    -0.246 OA
BRANCH  78  80
ATOM     80  C   UNL A   1      32.370  24.845  23.483  1.00  0.00     0.063 A 
ATOM     81  C   UNL A   1      32.547  24.318  22.203  1.00  0.00     0.016 A 
ATOM     82  C   UNL A   1      32.744  24.100  24.593  1.00  0.00     0.062 A 
ATOM     83  C   UNL A   1      33.032  23.017  22.057  1.00  0.00     0.005 A 
ATOM     84  C   UNL A   1      32.976  22.737  24.457  1.00  0.00     0.130 A 
ATOM     85  C   UNL A   1      33.195  22.207  23.187  1.00  0.00     0.047 A 
BRANCH  84  86
ATOM     86  O   UNL A   1      32.857  21.860  25.525  1.00  0.00    -0.438 OA
BRANCH  86  87
ATOM     87  C   UNL A   1      33.216  20.542  25.276  1.00  0.00     0.234 A 
ATOM     88  N   UNL A   1      32.153  19.717  25.099  1.00  0.00    -0.214 NA
ATOM     89  C   UNL A   1      34.543  20.136  25.035  1.00  0.00     0.087 A 
ATOM     90  C   UNL A   1      32.398  18.488  24.586  1.00  0.00     0.200 A 
ATOM     91  C   UNL A   1      34.762  18.886  24.448  1.00  0.00     0.108 A 
ATOM     92  Br  UNL A   1      36.059  21.227  25.374  1.00  0.00    -0.045 Br
ATOM     93  C   UNL A   1      33.663  18.056  24.216  1.00  0.00     0.288 A 
BRANCH  93  94
ATOM     94  N   UNL A   1      33.821  16.754  23.585  1.00  0.00     0.064 N 
ATOM     95  O   UNL A   1      33.681  15.751  24.298  1.00  0.00    -0.258 OA
ATOM     96  O   UNL A   1      34.089  16.731  22.377  1.00  0.00    -0.258 OA
ENDBRANCH  93  94
ENDBRANCH  86  87
ENDBRANCH  84  86
ENDBRANCH  78  80
ENDBRANCH  77  78
ENDBRANCH  76  77
ENDBRANCH  75  76
ENDBRANCH   1  75
TORSDOF 20
ENDMDL
MODEL 2
REMARK VINA RESULT:     -10.8      1.790      2.849
REMARK SMILES O=C(OCCOCCOC(=O)c1cccc(Oc2ncc([N+](=O)[O-])cc2Br)c1)c1ccc(-c2c3nc(c(-c4c(F)cc(S(=O)(=O)[O-])cc4F)c4ccc([nH]4)c(-c4c(F)cc(S(=O)(=O)[O-])cc4F)c4nc(c(-c5c(F)cc(S(=O)(=O)[O-])cc5F)c5ccc2[nH]5)C=C4)C=C3)cc1
REMARK SMILES IDX 6 1 5 2 4 3 3 4 2 5 1 6 29 7 30 8 94 9 31 10 93 11 32 12
REMARK SMILES IDX 33 13 34 14 87 15 35 16 92 17 86 18 88 19 36 20 91 21 85 22
REMARK SMILES IDX 84 23 37 25 71 26 50 27 70 28 51 29 54 30 69 31 89 32 52 33
REMARK SMILES IDX 53 34 68 36 90 37 55 38 38 39 39 40 48 41 40 42 41 43 47 44
REMARK SMILES IDX 49 45 42 46 43 47 44 48 45 49 46 50 72 51 73 52 82 53 74 54
REMARK SMILES IDX 75 55 81 56 83 57 76 58 77 59 78 60 79 61 80 62 56 63 57 64
REMARK SMILES IDX 66 65 58 66 59 67 65 68 67 69 60 70 61 71 62 72 63 73 64 74
REMARK SMILES IDX 7 75 8 76 9 77 10 78 11 79 12 80 13 81 28 82 14 83 16 84
REMARK SMILES IDX 15 85 17 86 18 87 19 88 26 89 20 90 25 91 27 92 21 93 22 94
REMARK SMILES IDX 23 95 24 96
REMARK H PARENT 88 24 54 35
REMARK Flexibility Score: inf
ROOT
ATOM      1  O   UNL A   1      34.990  32.109  27.943  1.00  0.00    -0.374 OA
ENDROOT
BRANCH   1   2
ATOM      2  C   UNL A   1      34.439  32.933  28.968  1.00  0.00     0.202 C 
BRANCH   2   3
ATOM      3  C   UNL A   1      34.834  32.517  30.386  1.00  0.00     0.261 C 
BRANCH   3   4
ATOM      4  O   UNL A   1      36.221  32.155  30.423  1.00  0.00    -0.460 OA
BRANCH   4   5
ATOM      5  C   UNL A   1      36.743  30.932  30.685  1.00  0.00     0.338 C 
ATOM      6  O   UNL A   1      36.082  30.140  31.356  1.00  0.00    -0.246 OA
BRANCH   5   7
ATOM      7  C   UNL A   1      38.080  30.489  30.193  1.00  0.00     0.060 A 
ATOM      8  C   UNL A   1      39.135  30.094  31.015  1.00  0.00     0.016 A 
ATOM      9  C   UNL A   1      38.247  30.369  28.805  1.00  0.00     0.016 A 
ATOM     10  C   UNL A   1      40.328  29.627  30.506  1.00  0.00     0.010 A 
ATOM     11  C   UNL A   1      39.440  29.870  28.274  1.00  0.00     0.010 A 
ATOM     12  C   UNL A   1      40.479  29.500  29.135  1.00  0.00    -0.014 A 
BRANCH  12  13
ATOM     13  C   UNL A   1      41.803  29.085  28.665  1.00  0.00     0.031 A 
ATOM     14  C   UNL A   1      42.912  30.081  28.747  1.00  0.00     0.074 A 
ATOM     15  C   UNL A   1      42.010  27.791  28.359  1.00  0.00     0.049 A 
ATOM     16  N   UNL A   1      44.148  29.970  28.358  1.00  0.00    -0.248 NA
ATOM     17  C   UNL A   1      42.585  31.377  29.369  1.00  0.00     0.031 C 
ATOM     18  C   UNL A   1      40.995  26.733  28.435  1.00  0.00     0.029 A 
ATOM     19  N   UNL A   1      43.142  27.135  27.967  1.00  0.00    -0.354 N 
ATOM     20  C   UNL A   1      44.741  31.190  28.654  1.00  0.00     0.074 A 
ATOM     21  C   UNL A   1      43.730  32.031  29.252  1.00  0.00     0.031 C 
ATOM     22  C   UNL A   1      41.559  25.559  28.115  1.00  0.00     0.029 A 
ATOM     23  C   UNL A   1      42.945  25.795  27.733  1.00  0.00     0.049 A 
ATOM     24  H   UNL A   1      44.015  27.579  27.862  1.00  0.00     0.167 HD
ATOM     25  C   UNL A   1      46.020  31.560  28.427  1.00  0.00     0.037 A 
ATOM     26  C   UNL A   1      43.790  24.883  27.219  1.00  0.00     0.037 A 
ATOM     27  C   UNL A   1      46.983  30.678  27.827  1.00  0.00     0.049 A 
ATOM     28  C   UNL A   1      45.171  25.356  26.856  1.00  0.00     0.074 A 
ATOM     29  C   UNL A   1      48.288  30.941  27.464  1.00  0.00     0.029 A 
ATOM     30  N   UNL A   1      46.731  29.348  27.503  1.00  0.00    -0.354 N 
ATOM     31  N   UNL A   1      45.707  26.543  27.039  1.00  0.00    -0.248 NA
ATOM     32  C   UNL A   1      46.056  24.387  26.203  1.00  0.00     0.031 C 
ATOM     33  C   UNL A   1      48.808  29.784  26.871  1.00  0.00     0.029 A 
ATOM     34  C   UNL A   1      47.849  28.781  26.925  1.00  0.00     0.049 A 
ATOM     35  H   UNL A   1      45.879  28.880  27.664  1.00  0.00     0.167 HD
ATOM     36  C   UNL A   1      47.001  26.458  26.544  1.00  0.00     0.074 A 
ATOM     37  C   UNL A   1      47.169  25.097  26.069  1.00  0.00     0.031 C 
ATOM     38  C   UNL A   1      47.965  27.412  26.481  1.00  0.00     0.037 A 
BRANCH  25  39
ATOM     39  C   UNL A   1      46.392  32.978  28.749  1.00  0.00     0.058 A 
ATOM     40  C   UNL A   1      46.154  34.037  27.858  1.00  0.00     0.135 A 
ATOM     41  C   UNL A   1      47.040  33.275  29.959  1.00  0.00     0.135 A 
ATOM     42  F   UNL A   1      45.576  33.805  26.669  1.00  0.00    -0.206 F 
ATOM     43  C   UNL A   1      46.566  35.336  28.145  1.00  0.00     0.059 A 
ATOM     44  C   UNL A   1      47.436  34.570  30.279  1.00  0.00     0.059 A 
ATOM     45  F   UNL A   1      47.314  32.297  30.836  1.00  0.00    -0.206 F 
ATOM     46  C   UNL A   1      47.208  35.591  29.359  1.00  0.00     0.060 A 
BRANCH  46  47
ATOM     47  S   UNL A   1      47.739  37.279  29.715  1.00  0.00     0.124 S 
ATOM     48  O   UNL A   1      46.704  37.721  30.644  1.00  0.00    -0.237 OA
ATOM     49  O   UNL A   1      49.062  37.071  30.295  1.00  0.00    -0.237 OA
ATOM     50  O   UNL A   1      47.726  37.924  28.407  1.00  0.00    -0.744 OA
ENDBRANCH  46  47
ENDBRANCH  25  39
BRANCH  26  51
ATOM     51  C   UNL A   1      43.339  23.487  26.966  1.00  0.00     0.058 A 
ATOM     52  C   UNL A   1      43.039  23.038  25.672  1.00  0.00     0.135 A 
ATOM     53  C   UNL A   1      43.195  22.566  28.019  1.00  0.00     0.135 A 
ATOM     54  F   UNL A   1      43.152  23.874  24.629  1.00  0.00    -0.206 F 
ATOM     55  C   UNL A   1      42.597  21.739  25.431  1.00  0.00     0.059 A 
ATOM     56  C   UNL A   1      42.786  21.255  27.801  1.00  0.00     0.059 A 
ATOM     57  F   UNL A   1      43.476  22.934  29.279  1.00  0.00    -0.206 F 
ATOM     58  C   UNL A   1      42.476  20.854  26.504  1.00  0.00     0.060 A 
BRANCH  58  59
ATOM     59  S   UNL A   1      41.922  19.165  26.179  1.00  0.00     0.124 S 
ATOM     60  O   UNL A   1      40.493  19.361  25.960  1.00  0.00    -0.237 OA
ATOM     61  O   UNL A   1      42.705  18.808  25.001  1.00  0.00    -0.237 OA
ATOM     62  O   UNL A   1      42.281  18.451  27.402  1.00  0.00    -0.744 OA
ENDBRANCH  58  59
ENDBRANCH  26  51
BRANCH  38  63
ATOM     63  C   UNL A   1      49.292  26.994  25.922  1.00  0.00     0.058 A 
ATOM     64  C   UNL A   1      49.572  27.071  24.549  1.00  0.00     0.135 A 
ATOM     65  C   UNL A   1      50.319  26.582  26.786  1.00  0.00     0.135 A 
ATOM     66  F   UNL A   1      48.618  27.451  23.684  1.00  0.00    -0.206 F 
ATOM     67  C   UNL A   1      50.823  26.733  24.050  1.00  0.00     0.059 A 
ATOM     68  C   UNL A   1      51.586  26.274  26.313  1.00  0.00     0.059 A 
ATOM     69  F   UNL A   1      50.100  26.505  28.109  1.00  0.00    -0.206 F 
ATOM     70  C   UNL A   1      51.826  26.342  24.941  1.00  0.00     0.060 A 
BRANCH  70  71
ATOM     71  S   UNL A   1      53.460  25.959  24.282  1.00  0.00     0.124 S 
ATOM     72  O   UNL A   1      54.295  26.917  24.998  1.00  0.00    -0.237 OA
ATOM     73  O   UNL A   1      53.627  24.560  24.662  1.00  0.00    -0.237 OA
ATOM     74  O   UNL A   1      53.314  26.200  22.849  1.00  0.00    -0.744 OA
ENDBRANCH  70  71
ENDBRANCH  38  63
ENDBRANCH  12  13
ENDBRANCH   5   7
ENDBRANCH   4   5
ENDBRANCH   3   4
ENDBRANCH   2   3
ENDBRANCH   1   2
BRANCH   1  75
ATOM     75  C   UNL A   1      34.273  30.928  27.581  1.00  0.00     0.202 C 
BRANCH  75  76
ATOM     76  C   UNL A   1      32.802  31.299  27.379  1.00  0.00     0.261 C 
BRANCH  76  77
ATOM     77  O   UNL A   1      32.298  30.486  26.313  1.00  0.00    -0.460 OA
BRANCH  77  78
ATOM     78  C   UNL A   1      32.135  29.174  26.625  1.00  0.00     0.338 C 
ATOM     79  O   UNL A   1      31.503  28.704  27.557  1.00  0.00    -0.246 OA
BRANCH  78  80
ATOM     80  C   UNL A   1      32.784  28.363  25.572  1.00  0.00     0.063 A 
ATOM     81  C   UNL A   1      33.004  28.881  24.295  1.00  0.00     0.016 A 
ATOM     82  C   UNL A   1      33.092  27.036  25.841  1.00  0.00     0.062 A 
ATOM     83  C   UNL A   1      33.463  28.038  23.282  1.00  0.00     0.005 A 
ATOM     84  C   UNL A   1      33.297  26.153  24.788  1.00  0.00     0.130 A 
ATOM     85  C   UNL A   1      33.557  26.660  23.516  1.00  0.00     0.047 A 
BRANCH  84  86
ATOM     86  O   UNL A   1      33.111  24.786  24.926  1.00  0.00    -0.438 OA
BRANCH  86  87
ATOM     87  C   UNL A   1      34.234  23.994  24.734  1.00  0.00     0.234 A 
ATOM     88  N   UNL A   1      35.283  24.345  25.521  1.00  0.00    -0.214 NA
ATOM     89  C   UNL A   1      34.230  22.826  23.947  1.00  0.00     0.087 A 
ATOM     90  C   UNL A   1      36.317  23.474  25.604  1.00  0.00     0.200 A 
ATOM     91  C   UNL A   1      35.281  21.916  24.100  1.00  0.00     0.108 A 
ATOM     92  Br  UNL A   1      32.828  22.361  22.755  1.00  0.00    -0.045 Br
ATOM     93  C   UNL A   1      36.335  22.250  24.951  1.00  0.00     0.288 A 
BRANCH  93  94
ATOM     94  N   UNL A   1      37.446  21.336  25.171  1.00  0.00     0.064 N 
ATOM     95  O   UNL A   1      37.236  20.127  25.001  1.00  0.00    -0.258 OA
ATOM     96  O   UNL A   1      38.529  21.822  25.519  1.00  0.00    -0.258 OA
ENDBRANCH  93  94
ENDBRANCH  86  87
ENDBRANCH  84  86
ENDBRANCH  78  80
ENDBRANCH  77  78
ENDBRANCH  76  77
ENDBRANCH  75  76
ENDBRANCH   1  75
TORSDOF 20
ENDMDL
MODEL 3
REMARK VINA RESULT:     -10.8      1.262      8.407
REMARK SMILES O=C(OCCOCCOC(=O)c1cccc(Oc2ncc([N+](=O)[O-])cc2Br)c1)c1ccc(-c2c3nc(c(-c4c(F)cc(S(=O)(=O)[O-])cc4F)c4ccc([nH]4)c(-c4c(F)cc(S(=O)(=O)[O-])cc4F)c4nc(c(-c5c(F)cc(S(=O)(=O)[O-])cc5F)c5ccc2[nH]5)C=C4)C=C3)cc1
REMARK SMILES IDX 6 1 5 2 4 3 3 4 2 5 1 6 29 7 30 8 94 9 31 10 93 11 32 12
REMARK SMILES IDX 33 13 34 14 87 15 35 16 92 17 86 18 88 19 36 20 91 21 85 22
REMARK SMILES IDX 84 23 37 25 71 26 50 27 70 28 51 29 54 30 69 31 89 32 52 33
REMARK SMILES IDX 53 34 68 36 90 37 55 38 38 39 39 40 48 41 40 42 41 43 47 44
REMARK SMILES IDX 49 45 42 46 43 47 44 48 45 49 46 50 72 51 73 52 82 53 74 54
REMARK SMILES IDX 75 55 81 56 83 57 76 58 77 59 78 60 79 61 80 62 56 63 57 64
REMARK SMILES IDX 66 65 58 66 59 67 65 68 67 69 60 70 61 71 62 72 63 73 64 74
REMARK SMILES IDX 7 75 8 76 9 77 10 78 11 79 12 80 13 81 28 82 14 83 16 84
REMARK SMILES IDX 15 85 17 86 18 87 19 88 26 89 20 90 25 91 27 92 21 93 22 94
REMARK SMILES IDX 23 95 24 96
REMARK H PARENT 88 24 54 35
REMARK Flexibility Score: inf
ROOT
ATOM      1  O   UNL A   1      33.557  31.553  27.983  1.00  0.00    -0.374 OA
ENDROOT
BRANCH   1   2
ATOM      2  C   UNL A   1      34.532  32.493  28.427  1.00  0.00     0.202 C 
BRANCH   2   3
ATOM      3  C   UNL A   1      35.002  32.277  29.866  1.00  0.00     0.261 C 
BRANCH   3   4
ATOM      4  O   UNL A   1      36.389  31.909  29.880  1.00  0.00    -0.460 OA
BRANCH   4   5
ATOM      5  C   UNL A   1      36.907  30.673  30.075  1.00  0.00     0.338 C 
ATOM      6  O   UNL A   1      36.190  29.803  30.568  1.00  0.00    -0.246 OA
BRANCH   5   7
ATOM      7  C   UNL A   1      38.307  30.305  29.711  1.00  0.00     0.060 A 
ATOM      8  C   UNL A   1      39.351  30.166  30.625  1.00  0.00     0.016 A 
ATOM      9  C   UNL A   1      38.560  29.981  28.370  1.00  0.00     0.016 A 
ATOM     10  C   UNL A   1      40.611  29.756  30.244  1.00  0.00     0.010 A 
ATOM     11  C   UNL A   1      39.824  29.536  27.973  1.00  0.00     0.010 A 
ATOM     12  C   UNL A   1      40.847  29.426  28.920  1.00  0.00    -0.014 A 
BRANCH  12  13
ATOM     13  C   UNL A   1      42.231  29.088  28.573  1.00  0.00     0.031 A 
ATOM     14  C   UNL A   1      42.508  27.696  28.110  1.00  0.00     0.074 A 
ATOM     15  C   UNL A   1      43.145  30.072  28.507  1.00  0.00     0.049 A 
ATOM     16  N   UNL A   1      43.644  27.147  27.791  1.00  0.00    -0.248 NA
ATOM     17  C   UNL A   1      41.343  26.805  27.971  1.00  0.00     0.031 C 
ATOM     18  C   UNL A   1      42.879  31.490  28.779  1.00  0.00     0.029 A 
ATOM     19  N   UNL A   1      44.464  30.045  28.151  1.00  0.00    -0.354 N 
ATOM     20  C   UNL A   1      43.338  25.837  27.448  1.00  0.00     0.074 A 
ATOM     21  C   UNL A   1      41.912  25.669  27.599  1.00  0.00     0.031 C 
ATOM     22  C   UNL A   1      44.000  32.197  28.562  1.00  0.00     0.029 A 
ATOM     23  C   UNL A   1      45.074  31.275  28.221  1.00  0.00     0.049 A 
ATOM     24  H   UNL A   1      44.931  29.225  27.871  1.00  0.00     0.167 HD
ATOM     25  C   UNL A   1      44.193  24.869  27.052  1.00  0.00     0.037 A 
ATOM     26  C   UNL A   1      46.372  31.594  28.070  1.00  0.00     0.037 A 
ATOM     27  C   UNL A   1      45.606  25.095  26.919  1.00  0.00     0.049 A 
ATOM     28  C   UNL A   1      47.323  30.471  27.755  1.00  0.00     0.074 A 
ATOM     29  C   UNL A   1      46.602  24.191  26.608  1.00  0.00     0.029 A 
ATOM     30  N   UNL A   1      46.220  26.332  27.095  1.00  0.00    -0.354 N 
ATOM     31  N   UNL A   1      47.052  29.204  27.530  1.00  0.00    -0.248 NA
ATOM     32  C   UNL A   1      48.749  30.804  27.693  1.00  0.00     0.031 C 
ATOM     33  C   UNL A   1      47.824  24.871  26.647  1.00  0.00     0.029 A 
ATOM     34  C   UNL A   1      47.585  26.212  26.918  1.00  0.00     0.049 A 
ATOM     35  H   UNL A   1      45.750  27.169  27.312  1.00  0.00     0.167 HD
ATOM     36  C   UNL A   1      48.271  28.592  27.277  1.00  0.00     0.074 A 
ATOM     37  C   UNL A   1      49.278  29.634  27.361  1.00  0.00     0.031 C 
ATOM     38  C   UNL A   1      48.542  27.291  27.002  1.00  0.00     0.037 A 
BRANCH  25  39
ATOM     39  C   UNL A   1      43.624  23.497  26.832  1.00  0.00     0.058 A 
ATOM     40  C   UNL A   1      43.225  22.671  27.895  1.00  0.00     0.135 A 
ATOM     41  C   UNL A   1      43.516  22.984  25.529  1.00  0.00     0.135 A 
ATOM     42  F   UNL A   1      43.345  23.094  29.164  1.00  0.00    -0.206 F 
ATOM     43  C   UNL A   1      42.761  21.377  27.676  1.00  0.00     0.059 A 
ATOM     44  C   UNL A   1      43.030  21.704  25.285  1.00  0.00     0.059 A 
ATOM     45  F   UNL A   1      43.906  23.723  24.478  1.00  0.00    -0.206 F 
ATOM     46  C   UNL A   1      42.668  20.902  26.365  1.00  0.00     0.060 A 
BRANCH  46  47
ATOM     47  S   UNL A   1      42.069  19.221  26.097  1.00  0.00     0.124 S 
ATOM     48  O   UNL A   1      42.487  18.562  27.331  1.00  0.00    -0.237 OA
ATOM     49  O   UNL A   1      40.633  19.425  25.944  1.00  0.00    -0.237 OA
ATOM     50  O   UNL A   1      42.772  18.797  24.891  1.00  0.00    -0.744 OA
ENDBRANCH  46  47
ENDBRANCH  25  39
BRANCH  26  51
ATOM     51  C   UNL A   1      46.839  32.993  28.276  1.00  0.00     0.058 A 
ATOM     52  C   UNL A   1      47.293  33.436  29.526  1.00  0.00     0.135 A 
ATOM     53  C   UNL A   1      46.840  33.922  27.221  1.00  0.00     0.135 A 
ATOM     54  F   UNL A   1      47.310  32.595  30.571  1.00  0.00    -0.206 F 
ATOM     55  C   UNL A   1      47.712  34.749  29.729  1.00  0.00     0.059 A 
ATOM     56  C   UNL A   1      47.283  35.230  27.391  1.00  0.00     0.059 A 
ATOM     57  F   UNL A   1      46.425  33.555  25.998  1.00  0.00    -0.206 F 
ATOM     58  C   UNL A   1      47.705  35.639  28.653  1.00  0.00     0.060 A 
BRANCH  58  59
ATOM     59  S   UNL A   1      48.270  37.334  28.922  1.00  0.00     0.124 S 
ATOM     60  O   UNL A   1      49.512  37.354  28.159  1.00  0.00    -0.237 OA
ATOM     61  O   UNL A   1      47.168  38.115  28.370  1.00  0.00    -0.237 OA
ATOM     62  O   UNL A   1      48.419  37.412  30.373  1.00  0.00    -0.744 OA
ENDBRANCH  58  59
ENDBRANCH  26  51
BRANCH  38  63
ATOM     63  C   UNL A   1      49.975  26.942  26.728  1.00  0.00     0.058 A 
ATOM     64  C   UNL A   1      50.830  26.486  27.743  1.00  0.00     0.135 A 
ATOM     65  C   UNL A   1      50.472  26.998  25.417  1.00  0.00     0.135 A 
ATOM     66  F   UNL A   1      50.401  26.425  29.014  1.00  0.00    -0.206 F 
ATOM     67  C   UNL A   1      52.140  26.115  27.468  1.00  0.00     0.059 A 
ATOM     68  C   UNL A   1      51.766  26.598  25.113  1.00  0.00     0.059 A 
ATOM     69  F   UNL A   1      49.686  27.416  24.412  1.00  0.00    -0.206 F 
ATOM     70  C   UNL A   1      52.596  26.168  26.148  1.00  0.00     0.060 A 
BRANCH  70  71
ATOM     71  S   UNL A   1      54.281  25.632  25.799  1.00  0.00     0.124 S 
ATOM     72  O   UNL A   1      54.748  25.250  27.127  1.00  0.00    -0.237 OA
ATOM     73  O   UNL A   1      54.070  24.536  24.860  1.00  0.00    -0.237 OA
ATOM     74  O   UNL A   1      54.907  26.824  25.232  1.00  0.00    -0.744 OA
ENDBRANCH  70  71
ENDBRANCH  38  63
ENDBRANCH  12  13
ENDBRANCH   5   7
ENDBRANCH   4   5
ENDBRANCH   3   4
ENDBRANCH   2   3
ENDBRANCH   1   2
BRANCH   1  75
ATOM     75  C   UNL A   1      34.009  30.433  27.221  1.00  0.00     0.202 C 
BRANCH  75  76
ATOM     76  C   UNL A   1      32.793  29.762  26.580  1.00  0.00     0.261 C 
BRANCH  76  77
ATOM     77  O   UNL A   1      33.264  28.998  25.464  1.00  0.00    -0.460 OA
BRANCH  77  78
ATOM     78  C   UNL A   1      33.039  27.661  25.554  1.00  0.00     0.338 C 
ATOM     79  O   UNL A   1      32.927  26.992  26.568  1.00  0.00    -0.246 OA
BRANCH  78  80
ATOM     80  C   UNL A   1      32.849  27.130  24.187  1.00  0.00     0.063 A 
ATOM     81  C   UNL A   1      31.679  27.385  23.470  1.00  0.00     0.016 A 
ATOM     82  C   UNL A   1      33.816  26.288  23.653  1.00  0.00     0.062 A 
ATOM     83  C   UNL A   1      31.463  26.732  22.255  1.00  0.00     0.005 A 
ATOM     84  C   UNL A   1      33.488  25.455  22.591  1.00  0.00     0.130 A 
ATOM     85  C   UNL A   1      32.343  25.724  21.842  1.00  0.00     0.047 A 
BRANCH  84  86
ATOM     86  O   UNL A   1      34.181  24.281  22.335  1.00  0.00    -0.438 OA
BRANCH  86  87
ATOM     87  C   UNL A   1      33.876  23.202  23.153  1.00  0.00     0.234 A 
ATOM     88  N   UNL A   1      32.745  22.549  22.785  1.00  0.00    -0.214 NA
ATOM     89  C   UNL A   1      34.750  22.712  24.143  1.00  0.00     0.087 A 
ATOM     90  C   UNL A   1      32.517  21.336  23.345  1.00  0.00     0.200 A 
ATOM     91  C   UNL A   1      34.525  21.432  24.658  1.00  0.00     0.108 A 
ATOM     92  Br  UNL A   1      36.282  23.652  24.756  1.00  0.00    -0.045 Br
ATOM     93  C   UNL A   1      33.390  20.736  24.241  1.00  0.00     0.288 A 
BRANCH  93  94
ATOM     94  N   UNL A   1      33.111  19.390  24.720  1.00  0.00     0.064 N 
ATOM     95  O   UNL A   1      32.006  19.183  25.239  1.00  0.00    -0.258 OA
ATOM     96  O   UNL A   1      33.998  18.538  24.583  1.00  0.00    -0.258 OA
ENDBRANCH  93  94
ENDBRANCH  86  87
ENDBRANCH  84  86
ENDBRANCH  78  80
ENDBRANCH  77  78
ENDBRANCH  76  77
ENDBRANCH  75  76
ENDBRANCH   1  75
TORSDOF 20
ENDMDL
