MODEL 1
REMARK VINA RESULT:     -10.4      0.000      0.000
REMARK SMILES O=C(OCCOCCOC(=O)[C@]1([NH2+]C2CC2)CCC[C@H](SC2CCCCC2)C1)c1ccc(-c2c3nc(c(-c4c(F)cc(S(=O)(=O)[O-])cc4F)c4ccc([nH]4)c(-c4c(F)cc(S(=O)(=O)[O-])cc4F)c4nc(c(-c5c(F)cc(S(=O)(=O)[O-])cc5F)c5ccc2[nH]5)C=C4)C=C3)cc1
REMARK SMILES IDX 5 1 4 2 3 3 2 4 1 5 29 6 30 7 94 8 31 9 93 10 32 11 33 12
REMARK SMILES IDX 34 13 87 14 35 15 92 16 86 17 88 18 36 19 91 20 85 21 84 22
REMARK SMILES IDX 37 24 71 25 50 26 70 27 51 28 54 29 69 30 89 31 52 32 53 33
REMARK SMILES IDX 68 35 90 36 55 37 38 38 39 39 48 40 40 41 41 42 47 43 49 44
REMARK SMILES IDX 42 45 43 46 44 47 45 48 46 49 72 50 73 51 82 52 74 53 75 54
REMARK SMILES IDX 81 55 83 56 76 57 77 58 78 59 79 60 80 61 56 62 57 63 66 64
REMARK SMILES IDX 58 65 59 66 65 67 67 68 60 69 61 70 62 71 63 72 64 73 6 74
REMARK SMILES IDX 7 75 8 76 9 77 10 78 11 79 12 80 17 81 28 82 18 83 20 84
REMARK SMILES IDX 19 85 13 86 14 89 15 90 16 91 21 92 22 93 23 94 27 95 24 96
REMARK SMILES IDX 26 97 25 98
REMARK H PARENT 88 23 54 34 13 87 13 88
REMARK Flexibility Score: inf
ROOT
ATOM      1  C   UNL A   1      38.535  20.371  25.370  1.00  0.00     0.202 C 
ENDROOT
BRANCH   1   2
ATOM      2  C   UNL A   1      39.572  19.225  25.533  1.00  0.00     0.261 C 
BRANCH   2   3
ATOM      3  O   UNL A   1      40.718  19.561  26.348  1.00  0.00    -0.460 OA
BRANCH   3   4
ATOM      4  C   UNL A   1      41.902  20.105  25.966  1.00  0.00     0.338 C 
ATOM      5  O   UNL A   1      42.666  19.460  25.254  1.00  0.00    -0.246 OA
BRANCH   4   6
ATOM      6  C   UNL A   1      42.304  21.469  26.402  1.00  0.00     0.060 A 
ATOM      7  C   UNL A   1      42.332  22.533  25.522  1.00  0.00     0.016 A 
ATOM      8  C   UNL A   1      42.646  21.730  27.733  1.00  0.00     0.016 A 
ATOM      9  C   UNL A   1      42.732  23.785  25.849  1.00  0.00     0.010 A 
ATOM     10  C   UNL A   1      43.030  23.025  28.115  1.00  0.00     0.010 A 
ATOM     11  C   UNL A   1      43.075  24.043  27.154  1.00  0.00    -0.014 A 
BRANCH  11  12
ATOM     12  C   UNL A   1      43.681  25.359  27.302  1.00  0.00     0.031 A 
ATOM     13  C   UNL A   1      42.866  26.380  28.022  1.00  0.00     0.074 A 
ATOM     14  C   UNL A   1      45.014  25.459  27.131  1.00  0.00     0.049 A 
ATOM     15  N   UNL A   1      43.149  27.620  28.283  1.00  0.00    -0.248 NA
ATOM     16  C   UNL A   1      41.557  25.937  28.548  1.00  0.00     0.031 C 
ATOM     17  C   UNL A   1      45.902  24.352  26.726  1.00  0.00     0.029 A 
ATOM     18  N   UNL A   1      45.868  26.492  27.360  1.00  0.00    -0.354 N 
ATOM     19  C   UNL A   1      42.025  28.129  28.917  1.00  0.00     0.074 A 
ATOM     20  C   UNL A   1      41.068  27.059  29.048  1.00  0.00     0.031 C 
ATOM     21  C   UNL A   1      47.175  24.772  26.760  1.00  0.00     0.029 A 
ATOM     22  C   UNL A   1      47.179  26.191  27.073  1.00  0.00     0.049 A 
ATOM     23  H   UNL A   1      45.577  27.370  27.699  1.00  0.00     0.167 HD
ATOM     24  C   UNL A   1      41.826  29.405  29.305  1.00  0.00     0.037 A 
ATOM     25  C   UNL A   1      48.238  27.013  27.010  1.00  0.00     0.037 A 
ATOM     26  C   UNL A   1      42.849  30.402  29.146  1.00  0.00     0.049 A 
ATOM     27  C   UNL A   1      47.961  28.458  27.316  1.00  0.00     0.074 A 
ATOM     28  C   UNL A   1      42.789  31.760  29.372  1.00  0.00     0.029 A 
ATOM     29  N   UNL A   1      44.144  30.117  28.713  1.00  0.00    -0.354 N 
ATOM     30  N   UNL A   1      46.844  29.006  27.745  1.00  0.00    -0.248 NA
ATOM     31  C   UNL A   1      49.057  29.404  27.100  1.00  0.00     0.031 C 
ATOM     32  C   UNL A   1      44.032  32.302  29.024  1.00  0.00     0.029 A 
ATOM     33  C   UNL A   1      44.889  31.275  28.644  1.00  0.00     0.049 A 
ATOM     34  H   UNL A   1      44.478  29.218  28.489  1.00  0.00     0.167 HD
ATOM     35  C   UNL A   1      47.102  30.360  27.870  1.00  0.00     0.074 A 
ATOM     36  C   UNL A   1      48.493  30.542  27.485  1.00  0.00     0.031 C 
ATOM     37  C   UNL A   1      46.279  31.367  28.259  1.00  0.00     0.037 A 
BRANCH  24  38
ATOM     38  C   UNL A   1      40.445  29.769  29.765  1.00  0.00     0.058 A 
ATOM     39  C   UNL A   1      39.366  29.937  28.881  1.00  0.00     0.135 A 
ATOM     40  C   UNL A   1      40.223  30.051  31.123  1.00  0.00     0.135 A 
ATOM     41  F   UNL A   1      39.532  29.732  27.564  1.00  0.00    -0.206 F 
ATOM     42  C   UNL A   1      38.129  30.401  29.322  1.00  0.00     0.059 A 
ATOM     43  C   UNL A   1      38.987  30.491  31.590  1.00  0.00     0.059 A 
ATOM     44  F   UNL A   1      41.224  29.938  32.009  1.00  0.00    -0.206 F 
ATOM     45  C   UNL A   1      37.951  30.680  30.679  1.00  0.00     0.060 A 
BRANCH  45  46
ATOM     46  S   UNL A   1      36.352  31.305  31.236  1.00  0.00     0.124 S 
ATOM     47  O   UNL A   1      36.708  32.635  31.720  1.00  0.00    -0.237 OA
ATOM     48  O   UNL A   1      35.560  31.269  30.010  1.00  0.00    -0.237 OA
ATOM     49  O   UNL A   1      35.952  30.350  32.264  1.00  0.00    -0.744 OA
ENDBRANCH  45  46
ENDBRANCH  24  38
BRANCH  25  50
ATOM     50  C   UNL A   1      49.568  26.519  26.559  1.00  0.00     0.058 A 
ATOM     51  C   UNL A   1      49.976  26.631  25.223  1.00  0.00     0.135 A 
ATOM     52  C   UNL A   1      50.472  25.926  27.461  1.00  0.00     0.135 A 
ATOM     53  F   UNL A   1      49.157  27.186  24.318  1.00  0.00    -0.206 F 
ATOM     54  C   UNL A   1      51.216  26.161  24.793  1.00  0.00     0.059 A 
ATOM     55  C   UNL A   1      51.728  25.476  27.063  1.00  0.00     0.059 A 
ATOM     56  F   UNL A   1      50.146  25.796  28.757  1.00  0.00    -0.206 F 
ATOM     57  C   UNL A   1      52.085  25.584  25.722  1.00  0.00     0.060 A 
BRANCH  57  58
ATOM     58  S   UNL A   1      53.694  24.990  25.157  1.00  0.00     0.124 S 
ATOM     59  O   UNL A   1      53.520  23.544  25.242  1.00  0.00    -0.237 OA
ATOM     60  O   UNL A   1      53.772  25.545  23.809  1.00  0.00    -0.237 OA
ATOM     61  O   UNL A   1      54.627  25.570  26.120  1.00  0.00    -0.744 OA
ENDBRANCH  57  58
ENDBRANCH  25  50
BRANCH  37  62
ATOM     62  C   UNL A   1      46.898  32.727  28.333  1.00  0.00     0.058 A 
ATOM     63  C   UNL A   1      46.815  33.633  27.267  1.00  0.00     0.135 A 
ATOM     64  C   UNL A   1      47.530  33.139  29.516  1.00  0.00     0.135 A 
ATOM     65  F   UNL A   1      46.227  33.273  26.115  1.00  0.00    -0.206 F 
ATOM     66  C   UNL A   1      47.368  34.901  27.362  1.00  0.00     0.059 A 
ATOM     67  C   UNL A   1      48.058  34.413  29.645  1.00  0.00     0.059 A 
ATOM     68  F   UNL A   1      47.616  32.304  30.565  1.00  0.00    -0.206 F 
ATOM     69  C   UNL A   1      47.983  35.282  28.557  1.00  0.00     0.060 A 
BRANCH  69  70
ATOM     70  S   UNL A   1      48.663  36.946  28.682  1.00  0.00     0.124 S 
ATOM     71  O   UNL A   1      48.130  37.383  29.968  1.00  0.00    -0.237 OA
ATOM     72  O   UNL A   1      50.101  36.699  28.641  1.00  0.00    -0.237 OA
ATOM     73  O   UNL A   1      48.115  37.624  27.511  1.00  0.00    -0.744 OA
ENDBRANCH  69  70
ENDBRANCH  37  62
ENDBRANCH  11  12
ENDBRANCH   4   6
ENDBRANCH   3   4
ENDBRANCH   2   3
ENDBRANCH   1   2
BRANCH   1  74
ATOM     74  O   UNL A   1      38.870  21.709  25.769  1.00  0.00    -0.374 OA
BRANCH  74  75
ATOM     75  C   UNL A   1      37.911  22.755  25.657  1.00  0.00     0.202 C 
BRANCH  75  76
ATOM     76  C   UNL A   1      36.949  22.631  24.461  1.00  0.00     0.261 C 
BRANCH  76  77
ATOM     77  O   UNL A   1      35.629  23.146  24.717  1.00  0.00    -0.459 OA
BRANCH  77  78
ATOM     78  C   UNL A   1      34.764  22.999  23.683  1.00  0.00     0.368 C 
ATOM     79  O   UNL A   1      35.073  23.322  22.539  1.00  0.00    -0.245 OA
BRANCH  78  80
ATOM     80  C   UNL A   1      33.384  22.354  24.077  1.00  0.00     0.195 C 
ATOM     81  C   UNL A   1      32.327  22.593  22.983  1.00  0.00     0.081 C 
ATOM     82  C   UNL A   1      32.758  22.822  25.453  1.00  0.00     0.095 C 
ATOM     83  C   UNL A   1      31.689  23.993  23.015  1.00  0.00     0.008 C 
ATOM     84  C   UNL A   1      32.106  24.247  25.528  1.00  0.00     0.053 C 
ATOM     85  C   UNL A   1      31.116  24.370  24.380  1.00  0.00     0.015 C 
BRANCH  80  86
ATOM     86  N   UNL A   1      33.671  20.882  24.263  1.00  0.00    -0.330 N 
ATOM     87  H   UNL A   1      34.190  20.785  25.136  1.00  0.00     0.347 HD
ATOM     88  H   UNL A   1      34.166  20.617  23.412  1.00  0.00     0.347 HD
BRANCH  86  89
ATOM     89  C   UNL A   1      32.537  19.941  24.325  1.00  0.00     0.183 C 
ATOM     90  C   UNL A   1      32.526  18.534  23.781  1.00  0.00     0.071 C 
ATOM     91  C   UNL A   1      32.704  18.751  25.246  1.00  0.00     0.071 C 
ENDBRANCH  86  89
ENDBRANCH  80  86
BRANCH  84  92
ATOM     92  S   UNL A   1      33.462  25.439  25.617  1.00  0.00    -0.155 SA
BRANCH  92  93
ATOM     93  C   UNL A   1      33.106  27.007  26.438  1.00  0.00     0.047 C 
ATOM     94  C   UNL A   1      33.846  28.213  25.876  1.00  0.00     0.014 C 
ATOM     95  C   UNL A   1      31.631  27.242  26.738  1.00  0.00     0.014 C 
ATOM     96  C   UNL A   1      33.648  29.430  26.780  1.00  0.00     0.001 C 
ATOM     97  C   UNL A   1      31.467  28.480  27.625  1.00  0.00     0.001 C 
ATOM     98  C   UNL A   1      32.164  29.698  27.024  1.00  0.00     0.000 C 
ENDBRANCH  92  93
ENDBRANCH  84  92
ENDBRANCH  78  80
ENDBRANCH  77  78
ENDBRANCH  76  77
ENDBRANCH  75  76
ENDBRANCH  74  75
ENDBRANCH   1  74
TORSDOF 21
ENDMDL
MODEL 2
REMARK VINA RESULT:     -10.4      1.210      3.496
REMARK SMILES O=C(OCCOCCOC(=O)[C@]1([NH2+]C2CC2)CCC[C@H](SC2CCCCC2)C1)c1ccc(-c2c3nc(c(-c4c(F)cc(S(=O)(=O)[O-])cc4F)c4ccc([nH]4)c(-c4c(F)cc(S(=O)(=O)[O-])cc4F)c4nc(c(-c5c(F)cc(S(=O)(=O)[O-])cc5F)c5ccc2[nH]5)C=C4)C=C3)cc1
REMARK SMILES IDX 5 1 4 2 3 3 2 4 1 5 29 6 30 7 94 8 31 9 93 10 32 11 33 12
REMARK SMILES IDX 34 13 87 14 35 15 92 16 86 17 88 18 36 19 91 20 85 21 84 22
REMARK SMILES IDX 37 24 71 25 50 26 70 27 51 28 54 29 69 30 89 31 52 32 53 33
REMARK SMILES IDX 68 35 90 36 55 37 38 38 39 39 48 40 40 41 41 42 47 43 49 44
REMARK SMILES IDX 42 45 43 46 44 47 45 48 46 49 72 50 73 51 82 52 74 53 75 54
REMARK SMILES IDX 81 55 83 56 76 57 77 58 78 59 79 60 80 61 56 62 57 63 66 64
REMARK SMILES IDX 58 65 59 66 65 67 67 68 60 69 61 70 62 71 63 72 64 73 6 74
REMARK SMILES IDX 7 75 8 76 9 77 10 78 11 79 12 80 17 81 28 82 18 83 20 84
REMARK SMILES IDX 19 85 13 86 14 89 15 90 16 91 21 92 22 93 23 94 27 95 24 96
REMARK SMILES IDX 26 97 25 98
REMARK H PARENT 88 23 54 34 13 87 13 88
REMARK Flexibility Score: inf
ROOT
ATOM      1  C   UNL A   1      38.310  19.858  25.315  1.00  0.00     0.202 C 
ENDROOT
BRANCH   1   2
ATOM      2  C   UNL A   1      39.511  20.424  26.124  1.00  0.00     0.261 C 
BRANCH   2   3
ATOM      3  O   UNL A   1      40.710  19.618  26.066  1.00  0.00    -0.460 OA
BRANCH   3   4
ATOM      4  C   UNL A   1      42.005  20.024  26.027  1.00  0.00     0.338 C 
ATOM      5  O   UNL A   1      42.875  19.245  25.647  1.00  0.00    -0.246 OA
BRANCH   4   6
ATOM      6  C   UNL A   1      42.401  21.395  26.447  1.00  0.00     0.060 A 
ATOM      7  C   UNL A   1      42.493  22.433  25.541  1.00  0.00     0.016 A 
ATOM      8  C   UNL A   1      42.671  21.689  27.788  1.00  0.00     0.016 A 
ATOM      9  C   UNL A   1      42.891  23.689  25.857  1.00  0.00     0.010 A 
ATOM     10  C   UNL A   1      43.050  22.990  28.156  1.00  0.00     0.010 A 
ATOM     11  C   UNL A   1      43.163  23.979  27.172  1.00  0.00    -0.014 A 
BRANCH  11  12
ATOM     12  C   UNL A   1      43.777  25.291  27.317  1.00  0.00     0.031 A 
ATOM     13  C   UNL A   1      42.965  26.322  28.027  1.00  0.00     0.074 A 
ATOM     14  C   UNL A   1      45.113  25.380  27.157  1.00  0.00     0.049 A 
ATOM     15  N   UNL A   1      43.256  27.561  28.283  1.00  0.00    -0.248 NA
ATOM     16  C   UNL A   1      41.648  25.891  28.544  1.00  0.00     0.031 C 
ATOM     17  C   UNL A   1      45.995  24.266  26.764  1.00  0.00     0.029 A 
ATOM     18  N   UNL A   1      45.973  26.408  27.388  1.00  0.00    -0.354 N 
ATOM     19  C   UNL A   1      42.130  28.082  28.906  1.00  0.00     0.074 A 
ATOM     20  C   UNL A   1      41.164  27.019  29.035  1.00  0.00     0.031 C 
ATOM     21  C   UNL A   1      47.271  24.676  26.805  1.00  0.00     0.029 A 
ATOM     22  C   UNL A   1      47.283  26.096  27.112  1.00  0.00     0.049 A 
ATOM     23  H   UNL A   1      45.686  27.290  27.719  1.00  0.00     0.167 HD
ATOM     24  C   UNL A   1      41.938  29.361  29.286  1.00  0.00     0.037 A 
ATOM     25  C   UNL A   1      48.349  26.910  27.053  1.00  0.00     0.037 A 
ATOM     26  C   UNL A   1      42.969  30.350  29.130  1.00  0.00     0.049 A 
ATOM     27  C   UNL A   1      48.081  28.359  27.349  1.00  0.00     0.074 A 
ATOM     28  C   UNL A   1      42.918  31.709  29.349  1.00  0.00     0.029 A 
ATOM     29  N   UNL A   1      44.266  30.053  28.709  1.00  0.00    -0.354 N 
ATOM     30  N   UNL A   1      46.964  28.917  27.767  1.00  0.00    -0.248 NA
ATOM     31  C   UNL A   1      49.185  29.295  27.138  1.00  0.00     0.031 C 
ATOM     32  C   UNL A   1      44.167  32.240  29.008  1.00  0.00     0.029 A 
ATOM     33  C   UNL A   1      45.019  31.205  28.640  1.00  0.00     0.049 A 
ATOM     34  H   UNL A   1      44.594  29.150  28.492  1.00  0.00     0.167 HD
ATOM     35  C   UNL A   1      47.231  30.269  27.887  1.00  0.00     0.074 A 
ATOM     36  C   UNL A   1      48.627  30.439  27.513  1.00  0.00     0.031 C 
ATOM     37  C   UNL A   1      46.413  31.285  28.265  1.00  0.00     0.037 A 
BRANCH  24  38
ATOM     38  C   UNL A   1      40.556  29.738  29.734  1.00  0.00     0.058 A 
ATOM     39  C   UNL A   1      39.476  29.870  28.845  1.00  0.00     0.135 A 
ATOM     40  C   UNL A   1      40.334  30.069  31.080  1.00  0.00     0.135 A 
ATOM     41  F   UNL A   1      39.641  29.617  27.537  1.00  0.00    -0.206 F 
ATOM     42  C   UNL A   1      38.238  30.346  29.269  1.00  0.00     0.059 A 
ATOM     43  C   UNL A   1      39.097  30.522  31.532  1.00  0.00     0.059 A 
ATOM     44  F   UNL A   1      41.336  29.992  31.969  1.00  0.00    -0.206 F 
ATOM     45  C   UNL A   1      38.060  30.675  30.616  1.00  0.00     0.060 A 
BRANCH  45  46
ATOM     46  S   UNL A   1      36.459  31.315  31.150  1.00  0.00     0.124 S 
ATOM     47  O   UNL A   1      36.851  32.520  31.875  1.00  0.00    -0.237 OA
ATOM     48  O   UNL A   1      35.773  31.535  29.881  1.00  0.00    -0.237 OA
ATOM     49  O   UNL A   1      35.918  30.237  31.972  1.00  0.00    -0.744 OA
ENDBRANCH  45  46
ENDBRANCH  24  38
BRANCH  25  50
ATOM     50  C   UNL A   1      49.679  26.404  26.615  1.00  0.00     0.058 A 
ATOM     51  C   UNL A   1      50.047  26.389  25.263  1.00  0.00     0.135 A 
ATOM     52  C   UNL A   1      50.622  25.927  27.545  1.00  0.00     0.135 A 
ATOM     53  F   UNL A   1      49.190  26.829  24.331  1.00  0.00    -0.206 F 
ATOM     54  C   UNL A   1      51.286  25.906  24.846  1.00  0.00     0.059 A 
ATOM     55  C   UNL A   1      51.878  25.468  27.157  1.00  0.00     0.059 A 
ATOM     56  F   UNL A   1      50.335  25.922  28.856  1.00  0.00    -0.206 F 
ATOM     57  C   UNL A   1      52.196  25.447  25.802  1.00  0.00     0.060 A 
BRANCH  57  58
ATOM     58  S   UNL A   1      53.804  24.837  25.252  1.00  0.00     0.124 S 
ATOM     59  O   UNL A   1      54.645  25.146  26.403  1.00  0.00    -0.237 OA
ATOM     60  O   UNL A   1      53.534  23.421  25.020  1.00  0.00    -0.237 OA
ATOM     61  O   UNL A   1      54.070  25.621  24.049  1.00  0.00    -0.744 OA
ENDBRANCH  57  58
ENDBRANCH  25  50
BRANCH  37  62
ATOM     62  C   UNL A   1      47.041  32.641  28.337  1.00  0.00     0.058 A 
ATOM     63  C   UNL A   1      46.993  33.533  27.258  1.00  0.00     0.135 A 
ATOM     64  C   UNL A   1      47.647  33.062  29.531  1.00  0.00     0.135 A 
ATOM     65  F   UNL A   1      46.430  33.163  26.096  1.00  0.00    -0.206 F 
ATOM     66  C   UNL A   1      47.555  34.798  27.351  1.00  0.00     0.059 A 
ATOM     67  C   UNL A   1      48.183  34.334  29.656  1.00  0.00     0.059 A 
ATOM     68  F   UNL A   1      47.700  32.240  30.591  1.00  0.00    -0.206 F 
ATOM     69  C   UNL A   1      48.143  35.189  28.556  1.00  0.00     0.060 A 
BRANCH  69  70
ATOM     70  S   UNL A   1      48.834  36.849  28.676  1.00  0.00     0.124 S 
ATOM     71  O   UNL A   1      50.253  36.590  28.460  1.00  0.00    -0.237 OA
ATOM     72  O   UNL A   1      48.145  37.553  27.599  1.00  0.00    -0.237 OA
ATOM     73  O   UNL A   1      48.470  37.270  30.026  1.00  0.00    -0.744 OA
ENDBRANCH  69  70
ENDBRANCH  37  62
ENDBRANCH  11  12
ENDBRANCH   4   6
ENDBRANCH   3   4
ENDBRANCH   2   3
ENDBRANCH   1   2
BRANCH   1  74
ATOM     74  O   UNL A   1      37.232  20.722  24.923  1.00  0.00    -0.374 OA
BRANCH  74  75
ATOM     75  C   UNL A   1      37.482  22.090  24.618  1.00  0.00     0.202 C 
BRANCH  75  76
ATOM     76  C   UNL A   1      36.544  22.704  23.562  1.00  0.00     0.261 C 
BRANCH  76  77
ATOM     77  O   UNL A   1      35.672  23.726  24.079  1.00  0.00    -0.459 OA
BRANCH  77  78
ATOM     78  C   UNL A   1      34.396  23.651  23.625  1.00  0.00     0.368 C 
ATOM     79  O   UNL A   1      34.150  23.385  22.451  1.00  0.00    -0.245 OA
BRANCH  78  80
ATOM     80  C   UNL A   1      33.299  23.890  24.726  1.00  0.00     0.195 C 
ATOM     81  C   UNL A   1      33.940  24.205  26.091  1.00  0.00     0.081 C 
ATOM     82  C   UNL A   1      32.261  22.716  24.948  1.00  0.00     0.095 C 
ATOM     83  C   UNL A   1      34.446  22.967  26.852  1.00  0.00     0.008 C 
ATOM     84  C   UNL A   1      32.742  21.433  25.714  1.00  0.00     0.053 C 
ATOM     85  C   UNL A   1      33.386  21.879  27.017  1.00  0.00     0.015 C 
BRANCH  80  86
ATOM     86  N   UNL A   1      32.471  25.048  24.219  1.00  0.00    -0.330 N 
ATOM     87  H   UNL A   1      31.503  24.865  24.488  1.00  0.00     0.347 HD
ATOM     88  H   UNL A   1      32.665  25.072  23.219  1.00  0.00     0.347 HD
BRANCH  86  89
ATOM     89  C   UNL A   1      32.799  26.410  24.680  1.00  0.00     0.183 C 
ATOM     90  C   UNL A   1      33.773  27.355  24.020  1.00  0.00     0.071 C 
ATOM     91  C   UNL A   1      32.308  27.548  23.811  1.00  0.00     0.071 C 
ENDBRANCH  86  89
ENDBRANCH  80  86
BRANCH  84  92
ATOM     92  S   UNL A   1      33.740  20.474  24.552  1.00  0.00    -0.155 SA
BRANCH  92  93
ATOM     93  C   UNL A   1      33.524  18.683  24.589  1.00  0.00     0.047 C 
ATOM     94  C   UNL A   1      34.767  17.874  24.243  1.00  0.00     0.014 C 
ATOM     95  C   UNL A   1      32.736  18.166  25.786  1.00  0.00     0.014 C 
ATOM     96  C   UNL A   1      34.415  16.395  24.084  1.00  0.00     0.001 C 
ATOM     97  C   UNL A   1      32.420  16.678  25.605  1.00  0.00     0.001 C 
ATOM     98  C   UNL A   1      33.682  15.868  25.315  1.00  0.00     0.000 C 
ENDBRANCH  92  93
ENDBRANCH  84  92
ENDBRANCH  78  80
ENDBRANCH  77  78
ENDBRANCH  76  77
ENDBRANCH  75  76
ENDBRANCH  74  75
ENDBRANCH   1  74
TORSDOF 21
ENDMDL
MODEL 3
REMARK VINA RESULT:     -10.3      6.313     10.642
REMARK SMILES O=C(OCCOCCOC(=O)[C@]1([NH2+]C2CC2)CCC[C@H](SC2CCCCC2)C1)c1ccc(-c2c3nc(c(-c4c(F)cc(S(=O)(=O)[O-])cc4F)c4ccc([nH]4)c(-c4c(F)cc(S(=O)(=O)[O-])cc4F)c4nc(c(-c5c(F)cc(S(=O)(=O)[O-])cc5F)c5ccc2[nH]5)C=C4)C=C3)cc1
REMARK SMILES IDX 5 1 4 2 3 3 2 4 1 5 29 6 30 7 94 8 31 9 93 10 32 11 33 12
REMARK SMILES IDX 34 13 87 14 35 15 92 16 86 17 88 18 36 19 91 20 85 21 84 22
REMARK SMILES IDX 37 24 71 25 50 26 70 27 51 28 54 29 69 30 89 31 52 32 53 33
REMARK SMILES IDX 68 35 90 36 55 37 38 38 39 39 48 40 40 41 41 42 47 43 49 44
REMARK SMILES IDX 42 45 43 46 44 47 45 48 46 49 72 50 73 51 82 52 74 53 75 54
REMARK SMILES IDX 81 55 83 56 76 57 77 58 78 59 79 60 80 61 56 62 57 63 66 64
REMARK SMILES IDX 58 65 59 66 65 67 67 68 60 69 61 70 62 71 63 72 64 73 6 74
REMARK SMILES IDX 7 75 8 76 9 77 10 78 11 79 12 80 17 81 28 82 18 83 20 84
REMARK SMILES IDX 19 85 13 86 14 89 15 90 16 91 21 92 22 93 23 94 27 95 24 96
REMARK SMILES IDX 26 97 25 98
REMARK H PARENT 88 23 54 34 13 87 13 88
REMARK Flexibility Score: inf
ROOT
ATOM      1  C   UNL A   1      38.555  21.759  25.790  1.00  0.00     0.202 C 
ENDROOT
BRANCH   1   2
ATOM      2  C   UNL A   1      39.713  22.440  26.572  1.00  0.00     0.261 C 
BRANCH   2   3
ATOM      3  O   UNL A   1      39.364  23.700  27.188  1.00  0.00    -0.460 OA
BRANCH   3   4
ATOM      4  C   UNL A   1      39.912  24.926  26.985  1.00  0.00     0.338 C 
ATOM      5  O   UNL A   1      40.245  25.263  25.852  1.00  0.00    -0.246 OA
BRANCH   4   6
ATOM      6  C   UNL A   1      40.131  25.874  28.110  1.00  0.00     0.060 A 
ATOM      7  C   UNL A   1      39.239  25.973  29.159  1.00  0.00     0.016 A 
ATOM      8  C   UNL A   1      41.270  26.685  28.159  1.00  0.00     0.016 A 
ATOM      9  C   UNL A   1      39.362  26.847  30.186  1.00  0.00     0.010 A 
ATOM     10  C   UNL A   1      41.448  27.576  29.229  1.00  0.00     0.010 A 
ATOM     11  C   UNL A   1      40.476  27.650  30.234  1.00  0.00    -0.014 A 
BRANCH  11  12
ATOM     12  C   UNL A   1      40.360  28.671  31.265  1.00  0.00     0.031 A 
ATOM     13  C   UNL A   1      41.476  28.737  32.253  1.00  0.00     0.074 A 
ATOM     14  C   UNL A   1      39.499  29.685  31.050  1.00  0.00     0.049 A 
ATOM     15  N   UNL A   1      41.625  29.530  33.271  1.00  0.00    -0.248 NA
ATOM     16  C   UNL A   1      42.597  27.793  32.053  1.00  0.00     0.031 C 
ATOM     17  C   UNL A   1      38.601  29.802  29.886  1.00  0.00     0.029 A 
ATOM     18  N   UNL A   1      39.297  30.845  31.732  1.00  0.00    -0.354 N 
ATOM     19  C   UNL A   1      42.802  29.124  33.884  1.00  0.00     0.074 A 
ATOM     20  C   UNL A   1      43.359  28.047  33.104  1.00  0.00     0.031 C 
ATOM     21  C   UNL A   1      37.965  30.982  29.934  1.00  0.00     0.029 A 
ATOM     22  C   UNL A   1      38.322  31.641  31.179  1.00  0.00     0.049 A 
ATOM     23  H   UNL A   1      39.798  31.089  32.543  1.00  0.00     0.167 HD
ATOM     24  C   UNL A   1      43.322  29.608  35.030  1.00  0.00     0.037 A 
ATOM     25  C   UNL A   1      37.749  32.746  31.682  1.00  0.00     0.037 A 
ATOM     26  C   UNL A   1      42.701  30.699  35.730  1.00  0.00     0.049 A 
ATOM     27  C   UNL A   1      38.255  33.188  33.027  1.00  0.00     0.074 A 
ATOM     28  C   UNL A   1      43.016  31.244  36.956  1.00  0.00     0.029 A 
ATOM     29  N   UNL A   1      41.615  31.419  35.231  1.00  0.00    -0.354 N 
ATOM     30  N   UNL A   1      39.260  32.701  33.725  1.00  0.00    -0.248 NA
ATOM     31  C   UNL A   1      37.544  34.290  33.675  1.00  0.00     0.031 C 
ATOM     32  C   UNL A   1      42.086  32.255  37.221  1.00  0.00     0.029 A 
ATOM     33  C   UNL A   1      41.231  32.388  36.132  1.00  0.00     0.049 A 
ATOM     34  H   UNL A   1      41.184  31.256  34.360  1.00  0.00     0.167 HD
ATOM     35  C   UNL A   1      39.317  33.448  34.889  1.00  0.00     0.074 A 
ATOM     36  C   UNL A   1      38.251  34.433  34.788  1.00  0.00     0.031 C 
ATOM     37  C   UNL A   1      40.159  33.340  35.948  1.00  0.00     0.037 A 
BRANCH  24  38
ATOM     38  C   UNL A   1      44.484  28.862  35.618  1.00  0.00     0.058 A 
ATOM     39  C   UNL A   1      44.327  27.785  36.506  1.00  0.00     0.135 A 
ATOM     40  C   UNL A   1      45.791  29.305  35.357  1.00  0.00     0.135 A 
ATOM     41  F   UNL A   1      43.099  27.350  36.833  1.00  0.00    -0.206 F 
ATOM     42  C   UNL A   1      45.421  27.196  37.136  1.00  0.00     0.059 A 
ATOM     43  C   UNL A   1      46.900  28.714  35.956  1.00  0.00     0.059 A 
ATOM     44  F   UNL A   1      46.000  30.350  34.542  1.00  0.00    -0.206 F 
ATOM     45  C   UNL A   1      46.704  27.672  36.858  1.00  0.00     0.060 A 
BRANCH  45  46
ATOM     46  S   UNL A   1      48.112  26.918  37.699  1.00  0.00     0.124 S 
ATOM     47  O   UNL A   1      49.042  28.041  37.779  1.00  0.00    -0.237 OA
ATOM     48  O   UNL A   1      47.525  26.491  38.966  1.00  0.00    -0.237 OA
ATOM     49  O   UNL A   1      48.509  25.839  36.801  1.00  0.00    -0.744 OA
ENDBRANCH  45  46
ENDBRANCH  24  38
BRANCH  25  50
ATOM     50  C   UNL A   1      36.615  33.410  30.983  1.00  0.00     0.058 A 
ATOM     51  C   UNL A   1      36.815  34.174  29.826  1.00  0.00     0.135 A 
ATOM     52  C   UNL A   1      35.294  33.288  31.455  1.00  0.00     0.135 A 
ATOM     53  F   UNL A   1      38.052  34.327  29.330  1.00  0.00    -0.206 F 
ATOM     54  C   UNL A   1      35.759  34.806  29.173  1.00  0.00     0.059 A 
ATOM     55  C   UNL A   1      34.218  33.885  30.804  1.00  0.00     0.059 A 
ATOM     56  F   UNL A   1      35.033  32.564  32.554  1.00  0.00    -0.206 F 
ATOM     57  C   UNL A   1      34.462  34.656  29.671  1.00  0.00     0.060 A 
BRANCH  57  58
ATOM     58  S   UNL A   1      33.099  35.469  28.809  1.00  0.00     0.124 S 
ATOM     59  O   UNL A   1      33.809  36.449  27.994  1.00  0.00    -0.237 OA
ATOM     60  O   UNL A   1      32.487  34.360  28.085  1.00  0.00    -0.237 OA
ATOM     61  O   UNL A   1      32.293  36.019  29.895  1.00  0.00    -0.744 OA
ENDBRANCH  57  58
ENDBRANCH  25  50
BRANCH  37  62
ATOM     62  C   UNL A   1      39.978  34.351  37.036  1.00  0.00     0.058 A 
ATOM     63  C   UNL A   1      40.572  35.619  36.968  1.00  0.00     0.135 A 
ATOM     64  C   UNL A   1      39.150  34.055  38.128  1.00  0.00     0.135 A 
ATOM     65  F   UNL A   1      41.379  35.936  35.942  1.00  0.00    -0.206 F 
ATOM     66  C   UNL A   1      40.371  36.557  37.970  1.00  0.00     0.059 A 
ATOM     67  C   UNL A   1      38.907  34.989  39.122  1.00  0.00     0.059 A 
ATOM     68  F   UNL A   1      38.552  32.856  38.221  1.00  0.00    -0.206 F 
ATOM     69  C   UNL A   1      39.533  36.233  39.040  1.00  0.00     0.060 A 
BRANCH  69  70
ATOM     70  S   UNL A   1      39.249  37.474  40.315  1.00  0.00     0.124 S 
ATOM     71  O   UNL A   1      40.596  37.999  40.516  1.00  0.00    -0.237 OA
ATOM     72  O   UNL A   1      38.304  38.377  39.667  1.00  0.00    -0.237 OA
ATOM     73  O   UNL A   1      38.705  36.698  41.426  1.00  0.00    -0.744 OA
ENDBRANCH  69  70
ENDBRANCH  37  62
ENDBRANCH  11  12
ENDBRANCH   4   6
ENDBRANCH   3   4
ENDBRANCH   2   3
ENDBRANCH   1   2
BRANCH   1  74
ATOM     74  O   UNL A   1      37.596  22.559  25.081  1.00  0.00    -0.374 OA
BRANCH  74  75
ATOM     75  C   UNL A   1      36.901  22.023  23.960  1.00  0.00     0.202 C 
BRANCH  75  76
ATOM     76  C   UNL A   1      35.981  23.017  23.227  1.00  0.00     0.261 C 
BRANCH  76  77
ATOM     77  O   UNL A   1      34.776  23.339  23.947  1.00  0.00    -0.459 OA
BRANCH  77  78
ATOM     78  C   UNL A   1      33.678  23.471  23.163  1.00  0.00     0.368 C 
ATOM     79  O   UNL A   1      33.739  24.019  22.065  1.00  0.00    -0.245 OA
BRANCH  78  80
ATOM     80  C   UNL A   1      32.370  22.836  23.763  1.00  0.00     0.195 C 
ATOM     81  C   UNL A   1      31.112  23.406  23.082  1.00  0.00     0.081 C 
ATOM     82  C   UNL A   1      32.172  22.983  25.326  1.00  0.00     0.095 C 
ATOM     83  C   UNL A   1      30.686  24.791  23.600  1.00  0.00     0.008 C 
ATOM     84  C   UNL A   1      31.744  24.382  25.894  1.00  0.00     0.053 C 
ATOM     85  C   UNL A   1      30.524  24.850  25.118  1.00  0.00     0.015 C 
BRANCH  80  86
ATOM     86  N   UNL A   1      32.505  21.349  23.528  1.00  0.00    -0.330 N 
ATOM     87  H   UNL A   1      33.326  21.212  22.938  1.00  0.00     0.347 HD
ATOM     88  H   UNL A   1      31.609  21.080  23.124  1.00  0.00     0.347 HD
BRANCH  86  89
ATOM     89  C   UNL A   1      32.656  20.458  24.694  1.00  0.00     0.183 C 
ATOM     90  C   UNL A   1      32.721  18.951  24.651  1.00  0.00     0.071 C 
ATOM     91  C   UNL A   1      33.980  19.735  24.818  1.00  0.00     0.071 C 
ENDBRANCH  86  89
ENDBRANCH  80  86
BRANCH  84  92
ATOM     92  S   UNL A   1      33.220  25.427  25.875  1.00  0.00    -0.155 SA
BRANCH  92  93
ATOM     93  C   UNL A   1      32.998  27.146  26.378  1.00  0.00     0.047 C 
ATOM     94  C   UNL A   1      33.510  28.181  25.386  1.00  0.00     0.014 C 
ATOM     95  C   UNL A   1      31.634  27.456  26.982  1.00  0.00     0.014 C 
ATOM     96  C   UNL A   1      33.479  29.577  26.007  1.00  0.00     0.001 C 
ATOM     97  C   UNL A   1      31.631  28.869  27.575  1.00  0.00     0.001 C 
ATOM     98  C   UNL A   1      32.092  29.906  26.553  1.00  0.00     0.000 C 
ENDBRANCH  92  93
ENDBRANCH  84  92
ENDBRANCH  78  80
ENDBRANCH  77  78
ENDBRANCH  76  77
ENDBRANCH  75  76
ENDBRANCH  74  75
ENDBRANCH   1  74
TORSDOF 21
ENDMDL
