MODEL 1
REMARK VINA RESULT:     -10.4      0.000      0.000
REMARK SMILES Nc1cc([N+](=O)[O-])ccc1[C@H]([NH3+])C(=O)OCCOCCOC(=O)c1ccc(-c2c3nc(c(-c4c(F)cc(S(=O)(=O)[O-])cc4F)c4ccc([nH]4)c(-c4c(F)cc(S(=O)(=O)[O-])cc4F)c4nc(c(-c5c(F)cc(S(=O)(=O)[O-])cc5F)c5ccc2[nH]5)C=C4)C=C3)cc1
REMARK SMILES IDX 19 1 18 2 17 3 16 4 15 5 13 6 14 7 11 8 10 9 2 10 3 11 4 12
REMARK SMILES IDX 9 13 8 14 1 15 5 18 6 19 7 20 12 21 20 25 21 26 22 27 23 28
REMARK SMILES IDX 24 29 25 30 89 31 26 32 88 33 27 34 28 35 29 36 82 37 30 38
REMARK SMILES IDX 87 39 81 40 83 41 31 42 86 43 80 44 79 45 32 47 66 48 45 49
REMARK SMILES IDX 65 50 46 51 49 52 64 53 84 54 47 55 48 56 63 58 85 59 50 60
REMARK SMILES IDX 33 61 34 62 43 63 35 64 36 65 42 66 44 67 37 68 38 69 39 70
REMARK SMILES IDX 40 71 41 72 67 73 68 74 77 75 69 76 70 77 76 78 78 79 71 80
REMARK SMILES IDX 72 81 73 82 74 83 75 84 51 85 52 86 61 87 53 88 54 89 60 90
REMARK SMILES IDX 62 91 55 92 56 93 57 94 58 95 59 96
REMARK H PARENT 1 16 1 17 12 22 12 23 12 24 83 46 49 57
REMARK Flexibility Score: inf
ROOT
ATOM      1  C   UNL A   1      43.294  22.149  26.248  1.00  0.00     0.202 C 
ENDROOT
BRANCH   1   2
ATOM      2  O   UNL A   1      42.460  21.280  25.482  1.00  0.00    -0.374 OA
BRANCH   2   3
ATOM      3  C   UNL A   1      42.025  20.073  26.110  1.00  0.00     0.202 C 
BRANCH   3   4
ATOM      4  C   UNL A   1      40.514  19.906  26.294  1.00  0.00     0.261 C 
BRANCH   4   5
ATOM      5  O   UNL A   1      39.838  21.173  26.302  1.00  0.00    -0.459 OA
BRANCH   5   6
ATOM      6  C   UNL A   1      38.618  21.209  25.691  1.00  0.00     0.369 C 
ATOM      7  O   UNL A   1      38.158  20.312  24.989  1.00  0.00    -0.245 OA
BRANCH   6   8
ATOM      8  C   UNL A   1      37.878  22.548  25.951  1.00  0.00     0.325 C 
BRANCH   8   9
ATOM      9  C   UNL A   1      36.573  22.683  25.156  1.00  0.00     0.044 A 
ATOM     10  C   UNL A   1      35.320  22.196  25.596  1.00  0.00     0.048 A 
ATOM     11  C   UNL A   1      34.212  22.243  24.730  1.00  0.00     0.111 A 
ATOM     12  C   UNL A   1      34.316  22.809  23.455  1.00  0.00     0.271 A 
ATOM     13  C   UNL A   1      36.641  23.234  23.849  1.00  0.00     0.020 A 
ATOM     14  C   UNL A   1      35.531  23.313  23.010  1.00  0.00     0.086 A 
BRANCH  10  15
ATOM     15  N   UNL A   1      35.142  21.514  26.798  1.00  0.00    -0.398 N 
ATOM     16  H   UNL A   1      35.653  21.780  27.596  1.00  0.00     0.156 HD
ATOM     17  H   UNL A   1      34.505  20.765  26.848  1.00  0.00     0.156 HD
ENDBRANCH  10  15
BRANCH  12  18
ATOM     18  N   UNL A   1      33.150  22.827  22.567  1.00  0.00     0.062 N 
ATOM     19  O   UNL A   1      33.312  23.244  21.411  1.00  0.00    -0.258 OA
ATOM     20  O   UNL A   1      32.064  22.451  23.032  1.00  0.00    -0.258 OA
ENDBRANCH  12  18
ENDBRANCH   8   9
BRANCH   8  21
ATOM     21  N   UNL A   1      38.845  23.659  25.789  1.00  0.00    -0.342 N 
ATOM     22  H   UNL A   1      39.346  23.548  24.908  1.00  0.00     0.345 HD
ATOM     23  H   UNL A   1      39.510  23.646  26.563  1.00  0.00     0.345 HD
ATOM     24  H   UNL A   1      38.345  24.547  25.786  1.00  0.00     0.345 HD
ENDBRANCH   8  21
ENDBRANCH   6   8
ENDBRANCH   5   6
ENDBRANCH   4   5
ENDBRANCH   3   4
ENDBRANCH   2   3
ENDBRANCH   1   2
BRANCH   1  25
ATOM     25  C   UNL A   1      43.087  23.656  26.062  1.00  0.00     0.261 C 
BRANCH  25  26
ATOM     26  O   UNL A   1      41.762  24.083  26.421  1.00  0.00    -0.460 OA
BRANCH  26  27
ATOM     27  C   UNL A   1      41.516  25.396  26.206  1.00  0.00     0.338 C 
ATOM     28  O   UNL A   1      41.175  25.919  25.152  1.00  0.00    -0.246 OA
BRANCH  27  29
ATOM     29  C   UNL A   1      41.540  26.136  27.480  1.00  0.00     0.060 A 
ATOM     30  C   UNL A   1      40.429  26.000  28.322  1.00  0.00     0.016 A 
ATOM     31  C   UNL A   1      42.582  27.004  27.814  1.00  0.00     0.016 A 
ATOM     32  C   UNL A   1      40.324  26.780  29.470  1.00  0.00     0.010 A 
ATOM     33  C   UNL A   1      42.472  27.792  28.965  1.00  0.00     0.010 A 
ATOM     34  C   UNL A   1      41.324  27.713  29.773  1.00  0.00    -0.014 A 
BRANCH  34  35
ATOM     35  C   UNL A   1      41.080  28.712  30.841  1.00  0.00     0.031 A 
ATOM     36  C   UNL A   1      41.938  28.679  32.076  1.00  0.00     0.074 A 
ATOM     37  C   UNL A   1      40.136  29.657  30.697  1.00  0.00     0.049 A 
ATOM     38  N   UNL A   1      41.895  29.443  33.137  1.00  0.00    -0.248 NA
ATOM     39  C   UNL A   1      42.982  27.644  32.120  1.00  0.00     0.031 C 
ATOM     40  C   UNL A   1      39.264  29.807  29.534  1.00  0.00     0.029 A 
ATOM     41  N   UNL A   1      39.749  30.664  31.543  1.00  0.00    -0.354 N 
ATOM     42  C   UNL A   1      42.904  28.981  33.975  1.00  0.00     0.074 A 
ATOM     43  C   UNL A   1      43.515  27.847  33.315  1.00  0.00     0.031 C 
ATOM     44  C   UNL A   1      38.427  30.836  29.749  1.00  0.00     0.029 A 
ATOM     45  C   UNL A   1      38.688  31.400  31.072  1.00  0.00     0.049 A 
ATOM     46  H   UNL A   1      40.188  30.844  32.406  1.00  0.00     0.167 HD
ATOM     47  C   UNL A   1      43.293  29.465  35.179  1.00  0.00     0.037 A 
ATOM     48  C   UNL A   1      37.993  32.398  31.653  1.00  0.00     0.037 A 
ATOM     49  C   UNL A   1      42.674  30.587  35.835  1.00  0.00     0.049 A 
ATOM     50  C   UNL A   1      38.404  32.889  33.015  1.00  0.00     0.074 A 
ATOM     51  C   UNL A   1      42.997  31.162  37.051  1.00  0.00     0.029 A 
ATOM     52  N   UNL A   1      41.591  31.297  35.333  1.00  0.00    -0.354 N 
ATOM     53  N   UNL A   1      39.375  32.461  33.787  1.00  0.00    -0.248 NA
ATOM     54  C   UNL A   1      37.632  34.003  33.582  1.00  0.00     0.031 C 
ATOM     55  C   UNL A   1      42.083  32.190  37.305  1.00  0.00     0.029 A 
ATOM     56  C   UNL A   1      41.220  32.290  36.225  1.00  0.00     0.049 A 
ATOM     57  H   UNL A   1      41.152  31.121  34.470  1.00  0.00     0.167 HD
ATOM     58  C   UNL A   1      39.342  33.263  34.923  1.00  0.00     0.074 A 
ATOM     59  C   UNL A   1      38.262  34.210  34.731  1.00  0.00     0.031 C 
ATOM     60  C   UNL A   1      40.136  33.221  36.023  1.00  0.00     0.037 A 
BRANCH  47  61
ATOM     61  C   UNL A   1      44.424  28.752  35.870  1.00  0.00     0.058 A 
ATOM     62  C   UNL A   1      45.765  29.108  35.653  1.00  0.00     0.135 A 
ATOM     63  C   UNL A   1      44.164  27.686  36.746  1.00  0.00     0.135 A 
ATOM     64  F   UNL A   1      46.071  30.110  34.813  1.00  0.00    -0.206 F 
ATOM     65  C   UNL A   1      46.809  28.403  36.243  1.00  0.00     0.059 A 
ATOM     66  C   UNL A   1      45.192  26.985  37.369  1.00  0.00     0.059 A 
ATOM     67  F   UNL A   1      42.900  27.303  36.990  1.00  0.00    -0.206 F 
ATOM     68  C   UNL A   1      46.513  27.336  37.091  1.00  0.00     0.060 A 
BRANCH  68  69
ATOM     69  S   UNL A   1      47.876  26.402  37.817  1.00  0.00     0.124 S 
ATOM     70  O   UNL A   1      48.839  27.463  38.094  1.00  0.00    -0.237 OA
ATOM     71  O   UNL A   1      47.252  25.792  38.987  1.00  0.00    -0.237 OA
ATOM     72  O   UNL A   1      48.254  25.472  36.757  1.00  0.00    -0.744 OA
ENDBRANCH  68  69
ENDBRANCH  47  61
BRANCH  48  73
ATOM     73  C   UNL A   1      36.829  32.983  30.938  1.00  0.00     0.058 A 
ATOM     74  C   UNL A   1      35.514  32.679  31.313  1.00  0.00     0.135 A 
ATOM     75  C   UNL A   1      37.018  33.904  29.894  1.00  0.00     0.135 A 
ATOM     76  F   UNL A   1      35.284  31.796  32.297  1.00  0.00    -0.206 F 
ATOM     77  C   UNL A   1      34.423  33.274  30.685  1.00  0.00     0.059 A 
ATOM     78  C   UNL A   1      35.946  34.527  29.267  1.00  0.00     0.059 A 
ATOM     79  F   UNL A   1      38.260  34.234  29.506  1.00  0.00    -0.206 F 
ATOM     80  C   UNL A   1      34.651  34.205  29.670  1.00  0.00     0.060 A 
BRANCH  80  81
ATOM     81  S   UNL A   1      33.232  35.042  28.928  1.00  0.00     0.124 S 
ATOM     82  O   UNL A   1      32.404  35.310  30.098  1.00  0.00    -0.237 OA
ATOM     83  O   UNL A   1      33.856  36.206  28.306  1.00  0.00    -0.237 OA
ATOM     84  O   UNL A   1      32.708  34.049  27.995  1.00  0.00    -0.744 OA
ENDBRANCH  80  81
ENDBRANCH  48  73
BRANCH  60  85
ATOM     85  C   UNL A   1      39.882  34.240  37.101  1.00  0.00     0.058 A 
ATOM     86  C   UNL A   1      38.991  33.990  38.156  1.00  0.00     0.135 A 
ATOM     87  C   UNL A   1      40.582  35.457  37.109  1.00  0.00     0.135 A 
ATOM     88  F   UNL A   1      38.292  32.844  38.193  1.00  0.00    -0.206 F 
ATOM     89  C   UNL A   1      38.787  34.921  39.170  1.00  0.00     0.059 A 
ATOM     90  C   UNL A   1      40.413  36.392  38.126  1.00  0.00     0.059 A 
ATOM     91  F   UNL A   1      41.455  35.742  36.128  1.00  0.00    -0.206 F 
ATOM     92  C   UNL A   1      39.504  36.118  39.147  1.00  0.00     0.060 A 
BRANCH  92  93
ATOM     93  S   UNL A   1      39.256  37.302  40.488  1.00  0.00     0.124 S 
ATOM     94  O   UNL A   1      38.205  38.151  39.939  1.00  0.00    -0.237 OA
ATOM     95  O   UNL A   1      38.862  36.441  41.599  1.00  0.00    -0.237 OA
ATOM     96  O   UNL A   1      40.566  37.934  40.628  1.00  0.00    -0.744 OA
ENDBRANCH  92  93
ENDBRANCH  60  85
ENDBRANCH  34  35
ENDBRANCH  27  29
ENDBRANCH  26  27
ENDBRANCH  25  26
ENDBRANCH   1  25
TORSDOF 21
ENDMDL
MODEL 2
REMARK VINA RESULT:     -10.3      5.063     12.371
REMARK SMILES Nc1cc([N+](=O)[O-])ccc1[C@H]([NH3+])C(=O)OCCOCCOC(=O)c1ccc(-c2c3nc(c(-c4c(F)cc(S(=O)(=O)[O-])cc4F)c4ccc([nH]4)c(-c4c(F)cc(S(=O)(=O)[O-])cc4F)c4nc(c(-c5c(F)cc(S(=O)(=O)[O-])cc5F)c5ccc2[nH]5)C=C4)C=C3)cc1
REMARK SMILES IDX 19 1 18 2 17 3 16 4 15 5 13 6 14 7 11 8 10 9 2 10 3 11 4 12
REMARK SMILES IDX 9 13 8 14 1 15 5 18 6 19 7 20 12 21 20 25 21 26 22 27 23 28
REMARK SMILES IDX 24 29 25 30 89 31 26 32 88 33 27 34 28 35 29 36 82 37 30 38
REMARK SMILES IDX 87 39 81 40 83 41 31 42 86 43 80 44 79 45 32 47 66 48 45 49
REMARK SMILES IDX 65 50 46 51 49 52 64 53 84 54 47 55 48 56 63 58 85 59 50 60
REMARK SMILES IDX 33 61 34 62 43 63 35 64 36 65 42 66 44 67 37 68 38 69 39 70
REMARK SMILES IDX 40 71 41 72 67 73 68 74 77 75 69 76 70 77 76 78 78 79 71 80
REMARK SMILES IDX 72 81 73 82 74 83 75 84 51 85 52 86 61 87 53 88 54 89 60 90
REMARK SMILES IDX 62 91 55 92 56 93 57 94 58 95 59 96
REMARK H PARENT 1 16 1 17 12 22 12 23 12 24 83 46 49 57
REMARK Flexibility Score: inf
ROOT
ATOM      1  C   UNL A   1      33.689  34.199  28.279  1.00  0.00     0.202 C 
ENDROOT
BRANCH   1   2
ATOM      2  O   UNL A   1      34.161  35.480  28.696  1.00  0.00    -0.374 OA
BRANCH   2   3
ATOM      3  C   UNL A   1      33.266  36.285  29.464  1.00  0.00     0.202 C 
BRANCH   3   4
ATOM      4  C   UNL A   1      32.840  35.724  30.824  1.00  0.00     0.261 C 
BRANCH   4   5
ATOM      5  O   UNL A   1      33.879  34.933  31.420  1.00  0.00    -0.459 OA
BRANCH   5   6
ATOM      6  C   UNL A   1      34.327  35.348  32.642  1.00  0.00     0.369 C 
ATOM      7  O   UNL A   1      34.741  36.476  32.891  1.00  0.00    -0.245 OA
BRANCH   6   8
ATOM      8  C   UNL A   1      34.296  34.203  33.690  1.00  0.00     0.325 C 
BRANCH   8   9
ATOM      9  C   UNL A   1      35.563  33.337  33.678  1.00  0.00     0.044 A 
ATOM     10  C   UNL A   1      35.836  32.342  32.712  1.00  0.00     0.048 A 
ATOM     11  C   UNL A   1      36.957  31.506  32.872  1.00  0.00     0.111 A 
ATOM     12  C   UNL A   1      37.835  31.675  33.947  1.00  0.00     0.271 A 
ATOM     13  C   UNL A   1      36.469  33.467  34.763  1.00  0.00     0.020 A 
ATOM     14  C   UNL A   1      37.599  32.662  34.896  1.00  0.00     0.086 A 
BRANCH  10  15
ATOM     15  N   UNL A   1      34.964  32.020  31.674  1.00  0.00    -0.398 N 
ATOM     16  H   UNL A   1      35.160  32.318  30.756  1.00  0.00     0.156 HD
ATOM     17  H   UNL A   1      34.151  31.496  31.859  1.00  0.00     0.156 HD
ENDBRANCH  10  15
BRANCH  12  18
ATOM     18  N   UNL A   1      38.984  30.778  34.099  1.00  0.00     0.062 N 
ATOM     19  O   UNL A   1      40.054  31.114  33.569  1.00  0.00    -0.258 OA
ATOM     20  O   UNL A   1      38.813  29.721  34.724  1.00  0.00    -0.258 OA
ENDBRANCH  12  18
ENDBRANCH   8   9
BRANCH   8  21
ATOM     21  N   UNL A   1      33.016  33.470  33.548  1.00  0.00    -0.342 N 
ATOM     22  H   UNL A   1      32.681  33.555  32.589  1.00  0.00     0.345 HD
ATOM     23  H   UNL A   1      32.326  33.864  34.187  1.00  0.00     0.345 HD
ATOM     24  H   UNL A   1      33.163  32.486  33.771  1.00  0.00     0.345 HD
ENDBRANCH   8  21
ENDBRANCH   6   8
ENDBRANCH   5   6
ENDBRANCH   4   5
ENDBRANCH   3   4
ENDBRANCH   2   3
ENDBRANCH   1   2
BRANCH   1  25
ATOM     25  C   UNL A   1      34.745  33.121  28.008  1.00  0.00     0.261 C 
BRANCH  25  26
ATOM     26  O   UNL A   1      34.629  31.996  28.895  1.00  0.00    -0.460 OA
BRANCH  26  27
ATOM     27  C   UNL A   1      34.574  30.794  28.275  1.00  0.00     0.338 C 
ATOM     28  O   UNL A   1      33.648  30.350  27.608  1.00  0.00    -0.246 OA
BRANCH  27  29
ATOM     29  C   UNL A   1      35.881  30.118  28.355  1.00  0.00     0.060 A 
ATOM     30  C   UNL A   1      36.276  29.631  29.608  1.00  0.00     0.016 A 
ATOM     31  C   UNL A   1      36.740  30.030  27.257  1.00  0.00     0.016 A 
ATOM     32  C   UNL A   1      37.556  29.113  29.783  1.00  0.00     0.010 A 
ATOM     33  C   UNL A   1      38.027  29.514  27.436  1.00  0.00     0.010 A 
ATOM     34  C   UNL A   1      38.453  29.093  28.709  1.00  0.00    -0.014 A 
BRANCH  34  35
ATOM     35  C   UNL A   1      39.882  28.787  28.965  1.00  0.00     0.031 A 
ATOM     36  C   UNL A   1      40.761  29.859  29.548  1.00  0.00     0.074 A 
ATOM     37  C   UNL A   1      40.378  27.563  28.718  1.00  0.00     0.049 A 
ATOM     38  N   UNL A   1      42.035  29.819  29.841  1.00  0.00    -0.248 NA
ATOM     39  C   UNL A   1      40.115  31.149  29.837  1.00  0.00     0.031 C 
ATOM     40  C   UNL A   1      39.617  26.437  28.182  1.00  0.00     0.029 A 
ATOM     41  N   UNL A   1      41.647  27.069  28.879  1.00  0.00    -0.354 N 
ATOM     42  C   UNL A   1      42.345  31.076  30.347  1.00  0.00     0.074 A 
ATOM     43  C   UNL A   1      41.135  31.867  30.285  1.00  0.00     0.031 C 
ATOM     44  C   UNL A   1      40.441  25.385  28.039  1.00  0.00     0.029 A 
ATOM     45  C   UNL A   1      41.790  25.772  28.449  1.00  0.00     0.049 A 
ATOM     46  H   UNL A   1      42.386  27.592  29.266  1.00  0.00     0.167 HD
ATOM     47  C   UNL A   1      43.528  31.527  30.831  1.00  0.00     0.037 A 
ATOM     48  C   UNL A   1      42.888  24.994  28.374  1.00  0.00     0.037 A 
ATOM     49  C   UNL A   1      44.731  30.739  30.879  1.00  0.00     0.049 A 
ATOM     50  C   UNL A   1      44.206  25.528  28.865  1.00  0.00     0.074 A 
ATOM     51  C   UNL A   1      45.979  31.097  31.358  1.00  0.00     0.029 A 
ATOM     52  N   UNL A   1      44.840  29.432  30.420  1.00  0.00    -0.354 N 
ATOM     53  N   UNL A   1      44.482  26.710  29.364  1.00  0.00    -0.248 NA
ATOM     54  C   UNL A   1      45.361  24.622  28.791  1.00  0.00     0.031 C 
ATOM     55  C   UNL A   1      46.852  30.024  31.146  1.00  0.00     0.029 A 
ATOM     56  C   UNL A   1      46.139  28.979  30.583  1.00  0.00     0.049 A 
ATOM     57  H   UNL A   1      44.102  28.907  30.035  1.00  0.00     0.167 HD
ATOM     58  C   UNL A   1      45.836  26.684  29.680  1.00  0.00     0.074 A 
ATOM     59  C   UNL A   1      46.321  25.366  29.326  1.00  0.00     0.031 C 
ATOM     60  C   UNL A   1      46.608  27.664  30.217  1.00  0.00     0.037 A 
BRANCH  47  61
ATOM     61  C   UNL A   1      43.572  32.952  31.312  1.00  0.00     0.058 A 
ATOM     62  C   UNL A   1      43.927  34.010  30.459  1.00  0.00     0.135 A 
ATOM     63  C   UNL A   1      43.272  33.261  32.648  1.00  0.00     0.135 A 
ATOM     64  F   UNL A   1      44.239  33.768  29.176  1.00  0.00    -0.206 F 
ATOM     65  C   UNL A   1      44.030  35.316  30.925  1.00  0.00     0.059 A 
ATOM     66  C   UNL A   1      43.342  34.566  33.129  1.00  0.00     0.059 A 
ATOM     67  F   UNL A   1      42.925  32.289  33.507  1.00  0.00    -0.206 F 
ATOM     68  C   UNL A   1      43.746  35.583  32.265  1.00  0.00     0.060 A 
BRANCH  68  69
ATOM     69  S   UNL A   1      43.924  37.275  32.869  1.00  0.00     0.124 S 
ATOM     70  O   UNL A   1      42.799  37.373  33.793  1.00  0.00    -0.237 OA
ATOM     71  O   UNL A   1      45.248  37.251  33.483  1.00  0.00    -0.237 OA
ATOM     72  O   UNL A   1      43.814  38.081  31.657  1.00  0.00    -0.744 OA
ENDBRANCH  68  69
ENDBRANCH  47  61
BRANCH  48  73
ATOM     73  C   UNL A   1      42.772  23.629  27.796  1.00  0.00     0.058 A 
ATOM     74  C   UNL A   1      42.591  22.504  28.612  1.00  0.00     0.135 A 
ATOM     75  C   UNL A   1      42.789  23.436  26.406  1.00  0.00     0.135 A 
ATOM     76  F   UNL A   1      42.581  22.638  29.947  1.00  0.00    -0.206 F 
ATOM     77  C   UNL A   1      42.421  21.234  28.071  1.00  0.00     0.059 A 
ATOM     78  C   UNL A   1      42.599  22.180  25.840  1.00  0.00     0.059 A 
ATOM     79  F   UNL A   1      42.949  24.485  25.583  1.00  0.00    -0.206 F 
ATOM     80  C   UNL A   1      42.416  21.084  26.682  1.00  0.00     0.060 A 
BRANCH  80  81
ATOM     81  S   UNL A   1      42.098  19.447  25.988  1.00  0.00     0.124 S 
ATOM     82  O   UNL A   1      42.961  19.452  24.814  1.00  0.00    -0.237 OA
ATOM     83  O   UNL A   1      42.507  18.569  27.080  1.00  0.00    -0.237 OA
ATOM     84  O   UNL A   1      40.663  19.472  25.720  1.00  0.00    -0.744 OA
ENDBRANCH  80  81
ENDBRANCH  48  73
BRANCH  60  85
ATOM     85  C   UNL A   1      48.055  27.343  30.475  1.00  0.00     0.058 A 
ATOM     86  C   UNL A   1      49.048  27.593  29.514  1.00  0.00     0.135 A 
ATOM     87  C   UNL A   1      48.461  26.834  31.719  1.00  0.00     0.135 A 
ATOM     88  F   UNL A   1      48.713  28.075  28.306  1.00  0.00    -0.206 F 
ATOM     89  C   UNL A   1      50.389  27.329  29.771  1.00  0.00     0.059 A 
ATOM     90  C   UNL A   1      49.800  26.587  32.007  1.00  0.00     0.059 A 
ATOM     91  F   UNL A   1      47.553  26.587  32.677  1.00  0.00    -0.206 F 
ATOM     92  C   UNL A   1      50.756  26.828  31.021  1.00  0.00     0.060 A 
BRANCH  92  93
ATOM     93  S   UNL A   1      52.505  26.523  31.353  1.00  0.00     0.124 S 
ATOM     94  O   UNL A   1      53.084  26.654  30.021  1.00  0.00    -0.237 OA
ATOM     95  O   UNL A   1      52.836  27.586  32.297  1.00  0.00    -0.237 OA
ATOM     96  O   UNL A   1      52.513  25.173  31.912  1.00  0.00    -0.744 OA
ENDBRANCH  92  93
ENDBRANCH  60  85
ENDBRANCH  34  35
ENDBRANCH  27  29
ENDBRANCH  26  27
ENDBRANCH  25  26
ENDBRANCH   1  25
TORSDOF 21
ENDMDL
MODEL 3
REMARK VINA RESULT:     -10.3      1.677      2.784
REMARK SMILES Nc1cc([N+](=O)[O-])ccc1[C@H]([NH3+])C(=O)OCCOCCOC(=O)c1ccc(-c2c3nc(c(-c4c(F)cc(S(=O)(=O)[O-])cc4F)c4ccc([nH]4)c(-c4c(F)cc(S(=O)(=O)[O-])cc4F)c4nc(c(-c5c(F)cc(S(=O)(=O)[O-])cc5F)c5ccc2[nH]5)C=C4)C=C3)cc1
REMARK SMILES IDX 19 1 18 2 17 3 16 4 15 5 13 6 14 7 11 8 10 9 2 10 3 11 4 12
REMARK SMILES IDX 9 13 8 14 1 15 5 18 6 19 7 20 12 21 20 25 21 26 22 27 23 28
REMARK SMILES IDX 24 29 25 30 89 31 26 32 88 33 27 34 28 35 29 36 82 37 30 38
REMARK SMILES IDX 87 39 81 40 83 41 31 42 86 43 80 44 79 45 32 47 66 48 45 49
REMARK SMILES IDX 65 50 46 51 49 52 64 53 84 54 47 55 48 56 63 58 85 59 50 60
REMARK SMILES IDX 33 61 34 62 43 63 35 64 36 65 42 66 44 67 37 68 38 69 39 70
REMARK SMILES IDX 40 71 41 72 67 73 68 74 77 75 69 76 70 77 76 78 78 79 71 80
REMARK SMILES IDX 72 81 73 82 74 83 75 84 51 85 52 86 61 87 53 88 54 89 60 90
REMARK SMILES IDX 62 91 55 92 56 93 57 94 58 95 59 96
REMARK H PARENT 1 16 1 17 12 22 12 23 12 24 83 46 49 57
REMARK Flexibility Score: inf
ROOT
ATOM      1  C   UNL A   1      38.667  21.872  25.763  1.00  0.00     0.202 C 
ENDROOT
BRANCH   1   2
ATOM      2  O   UNL A   1      37.409  22.547  25.810  1.00  0.00    -0.374 OA
BRANCH   2   3
ATOM      3  C   UNL A   1      37.141  23.494  24.775  1.00  0.00     0.202 C 
BRANCH   3   4
ATOM      4  C   UNL A   1      35.668  23.721  24.423  1.00  0.00     0.261 C 
BRANCH   4   5
ATOM      5  O   UNL A   1      35.202  22.766  23.458  1.00  0.00    -0.459 OA
BRANCH   5   6
ATOM      6  C   UNL A   1      33.937  22.960  22.981  1.00  0.00     0.369 C 
ATOM      7  O   UNL A   1      33.661  23.578  21.956  1.00  0.00    -0.245 OA
BRANCH   6   8
ATOM      8  C   UNL A   1      32.863  22.339  23.914  1.00  0.00     0.325 C 
BRANCH   8   9
ATOM      9  C   UNL A   1      33.024  20.824  24.097  1.00  0.00     0.044 A 
ATOM     10  C   UNL A   1      33.842  20.225  25.083  1.00  0.00     0.048 A 
ATOM     11  C   UNL A   1      34.032  18.830  25.075  1.00  0.00     0.111 A 
ATOM     12  C   UNL A   1      33.386  18.019  24.137  1.00  0.00     0.271 A 
ATOM     13  C   UNL A   1      32.399  19.968  23.152  1.00  0.00     0.020 A 
ATOM     14  C   UNL A   1      32.561  18.584  23.173  1.00  0.00     0.086 A 
BRANCH  10  15
ATOM     15  N   UNL A   1      34.615  20.953  25.985  1.00  0.00    -0.398 N 
ATOM     16  H   UNL A   1      34.222  21.264  26.832  1.00  0.00     0.156 HD
ATOM     17  H   UNL A   1      35.555  21.157  25.773  1.00  0.00     0.156 HD
ENDBRANCH  10  15
BRANCH  12  18
ATOM     18  N   UNL A   1      33.617  16.572  24.141  1.00  0.00     0.062 N 
ATOM     19  O   UNL A   1      33.727  16.007  25.239  1.00  0.00    -0.258 OA
ATOM     20  O   UNL A   1      33.719  16.000  23.045  1.00  0.00    -0.258 OA
ENDBRANCH  12  18
ENDBRANCH   8   9
BRANCH   8  21
ATOM     21  N   UNL A   1      31.527  22.793  23.463  1.00  0.00    -0.342 N 
ATOM     22  H   UNL A   1      30.808  22.207  23.887  1.00  0.00     0.345 HD
ATOM     23  H   UNL A   1      31.469  22.721  22.447  1.00  0.00     0.345 HD
ATOM     24  H   UNL A   1      31.385  23.762  23.744  1.00  0.00     0.345 HD
ENDBRANCH   8  21
ENDBRANCH   6   8
ENDBRANCH   5   6
ENDBRANCH   4   5
ENDBRANCH   3   4
ENDBRANCH   2   3
ENDBRANCH   1   2
BRANCH   1  25
ATOM     25  C   UNL A   1      39.752  22.353  26.734  1.00  0.00     0.261 C 
BRANCH  25  26
ATOM     26  O   UNL A   1      40.070  23.745  26.564  1.00  0.00    -0.460 OA
BRANCH  26  27
ATOM     27  C   UNL A   1      41.138  24.170  27.279  1.00  0.00     0.338 C 
ATOM     28  O   UNL A   1      42.278  23.726  27.234  1.00  0.00    -0.246 OA
BRANCH  27  29
ATOM     29  C   UNL A   1      40.797  25.393  28.027  1.00  0.00     0.060 A 
ATOM     30  C   UNL A   1      41.809  26.349  28.187  1.00  0.00     0.016 A 
ATOM     31  C   UNL A   1      39.549  25.572  28.627  1.00  0.00     0.016 A 
ATOM     32  C   UNL A   1      41.598  27.457  29.002  1.00  0.00     0.010 A 
ATOM     33  C   UNL A   1      39.341  26.684  29.451  1.00  0.00     0.010 A 
ATOM     34  C   UNL A   1      40.379  27.607  29.674  1.00  0.00    -0.014 A 
BRANCH  34  35
ATOM     35  C   UNL A   1      40.259  28.638  30.734  1.00  0.00     0.031 A 
ATOM     36  C   UNL A   1      41.143  28.540  31.946  1.00  0.00     0.074 A 
ATOM     37  C   UNL A   1      39.403  29.665  30.600  1.00  0.00     0.049 A 
ATOM     38  N   UNL A   1      41.201  29.317  32.996  1.00  0.00    -0.248 NA
ATOM     39  C   UNL A   1      42.087  27.412  31.977  1.00  0.00     0.031 C 
ATOM     40  C   UNL A   1      38.517  29.882  29.458  1.00  0.00     0.029 A 
ATOM     41  N   UNL A   1      39.134  30.714  31.441  1.00  0.00    -0.354 N 
ATOM     42  C   UNL A   1      42.185  28.774  33.814  1.00  0.00     0.074 A 
ATOM     43  C   UNL A   1      42.669  27.580  33.156  1.00  0.00     0.031 C 
ATOM     44  C   UNL A   1      37.786  30.987  29.680  1.00  0.00     0.029 A 
ATOM     45  C   UNL A   1      38.135  31.540  30.987  1.00  0.00     0.049 A 
ATOM     46  H   UNL A   1      39.612  30.863  32.289  1.00  0.00     0.167 HD
ATOM     47  C   UNL A   1      42.650  29.234  35.000  1.00  0.00     0.037 A 
ATOM     48  C   UNL A   1      37.552  32.605  31.571  1.00  0.00     0.037 A 
ATOM     49  C   UNL A   1      42.156  30.416  35.656  1.00  0.00     0.049 A 
ATOM     50  C   UNL A   1      38.043  33.072  32.914  1.00  0.00     0.074 A 
ATOM     51  C   UNL A   1      42.565  30.974  36.854  1.00  0.00     0.029 A 
ATOM     52  N   UNL A   1      41.130  31.219  35.172  1.00  0.00    -0.354 N 
ATOM     53  N   UNL A   1      38.991  32.565  33.667  1.00  0.00    -0.248 NA
ATOM     54  C   UNL A   1      37.394  34.261  33.485  1.00  0.00     0.031 C 
ATOM     55  C   UNL A   1      41.757  32.086  37.117  1.00  0.00     0.029 A 
ATOM     56  C   UNL A   1      40.878  32.253  36.058  1.00  0.00     0.049 A 
ATOM     57  H   UNL A   1      40.654  31.073  34.323  1.00  0.00     0.167 HD
ATOM     58  C   UNL A   1      39.064  33.381  34.791  1.00  0.00     0.074 A 
ATOM     59  C   UNL A   1      38.073  34.422  34.614  1.00  0.00     0.031 C 
ATOM     60  C   UNL A   1      39.880  33.278  35.871  1.00  0.00     0.037 A 
BRANCH  47  61
ATOM     61  C   UNL A   1      43.728  28.427  35.672  1.00  0.00     0.058 A 
ATOM     62  C   UNL A   1      45.089  28.632  35.391  1.00  0.00     0.135 A 
ATOM     63  C   UNL A   1      43.395  27.422  36.594  1.00  0.00     0.135 A 
ATOM     64  F   UNL A   1      45.462  29.568  34.505  1.00  0.00    -0.206 F 
ATOM     65  C   UNL A   1      46.078  27.839  35.964  1.00  0.00     0.059 A 
ATOM     66  C   UNL A   1      44.369  26.635  37.202  1.00  0.00     0.059 A 
ATOM     67  F   UNL A   1      42.110  27.183  36.901  1.00  0.00    -0.206 F 
ATOM     68  C   UNL A   1      45.707  26.836  36.861  1.00  0.00     0.060 A 
BRANCH  68  69
ATOM     69  S   UNL A   1      46.994  25.785  37.566  1.00  0.00     0.124 S 
ATOM     70  O   UNL A   1      46.937  26.163  38.975  1.00  0.00    -0.237 OA
ATOM     71  O   UNL A   1      46.514  24.444  37.251  1.00  0.00    -0.237 OA
ATOM     72  O   UNL A   1      48.199  26.199  36.854  1.00  0.00    -0.744 OA
ENDBRANCH  68  69
ENDBRANCH  47  61
BRANCH  48  73
ATOM     73  C   UNL A   1      36.428  33.288  30.878  1.00  0.00     0.058 A 
ATOM     74  C   UNL A   1      35.117  33.218  31.369  1.00  0.00     0.135 A 
ATOM     75  C   UNL A   1      36.660  34.070  29.735  1.00  0.00     0.135 A 
ATOM     76  F   UNL A   1      34.845  32.474  32.451  1.00  0.00    -0.206 F 
ATOM     77  C   UNL A   1      34.074  33.907  30.757  1.00  0.00     0.059 A 
ATOM     78  C   UNL A   1      35.639  34.785  29.119  1.00  0.00     0.059 A 
ATOM     79  F   UNL A   1      37.901  34.176  29.234  1.00  0.00    -0.206 F 
ATOM     80  C   UNL A   1      34.348  34.697  29.638  1.00  0.00     0.060 A 
BRANCH  80  81
ATOM     81  S   UNL A   1      33.007  35.663  28.910  1.00  0.00     0.124 S 
ATOM     82  O   UNL A   1      32.257  36.064  30.094  1.00  0.00    -0.237 OA
ATOM     83  O   UNL A   1      33.735  36.725  28.223  1.00  0.00    -0.237 OA
ATOM     84  O   UNL A   1      32.342  34.703  28.033  1.00  0.00    -0.744 OA
ENDBRANCH  80  81
ENDBRANCH  48  73
BRANCH  60  85
ATOM     85  C   UNL A   1      39.752  34.330  36.940  1.00  0.00     0.058 A 
ATOM     86  C   UNL A   1      38.971  34.122  38.088  1.00  0.00     0.135 A 
ATOM     87  C   UNL A   1      40.465  35.536  36.841  1.00  0.00     0.135 A 
ATOM     88  F   UNL A   1      38.265  32.989  38.229  1.00  0.00    -0.206 F 
ATOM     89  C   UNL A   1      38.885  35.083  39.090  1.00  0.00     0.059 A 
ATOM     90  C   UNL A   1      40.414  36.499  37.844  1.00  0.00     0.059 A 
ATOM     91  F   UNL A   1      41.236  35.780  35.769  1.00  0.00    -0.206 F 
ATOM     92  C   UNL A   1      39.612  36.268  38.960  1.00  0.00     0.060 A 
BRANCH  92  93
ATOM     93  S   UNL A   1      39.519  37.491  40.285  1.00  0.00     0.124 S 
ATOM     94  O   UNL A   1      38.730  38.545  39.657  1.00  0.00    -0.237 OA
ATOM     95  O   UNL A   1      38.852  36.750  41.351  1.00  0.00    -0.237 OA
ATOM     96  O   UNL A   1      40.919  37.821  40.541  1.00  0.00    -0.744 OA
ENDBRANCH  92  93
ENDBRANCH  60  85
ENDBRANCH  34  35
ENDBRANCH  27  29
ENDBRANCH  26  27
ENDBRANCH  25  26
ENDBRANCH   1  25
TORSDOF 21
ENDMDL
