MODEL 1
REMARK VINA RESULT:     -10.1      0.000      0.000
REMARK SMILES C[C@@H]1[C@@H](C)CC[C@H]1[NH2+][C@@H](C)[C@@H](C)C(=O)OCCOCCOC(=O)c1ccc(-c2c3nc(c(-c4c(F)cc(S(=O)(=O)[O-])cc4F)c4ccc([nH]4)c(-c4c(F)cc(S(=O)(=O)[O-])cc4F)c4nc(c(-c5c(F)cc(S(=O)(=O)[O-])cc5F)c5ccc2[nH]5)C=C4)C=C3)cc1
REMARK SMILES IDX 18 1 17 2 16 3 15 4 13 5 14 6 11 7 12 8 9 9 10 10 8 11 7 14
REMARK SMILES IDX 1 15 2 16 3 17 5 18 4 19 6 20 19 21 20 22 21 23 22 24 23 25
REMARK SMILES IDX 24 26 25 27 89 28 26 29 88 30 27 31 28 32 29 33 82 34 30 35
REMARK SMILES IDX 87 36 81 37 83 38 31 39 86 40 80 41 79 42 32 44 66 45 45 46
REMARK SMILES IDX 65 47 46 48 49 49 64 50 84 51 47 52 48 53 63 55 85 56 50 57
REMARK SMILES IDX 33 58 34 59 43 60 35 61 36 62 42 63 44 64 37 65 38 66 39 67
REMARK SMILES IDX 40 68 41 69 67 70 68 71 77 72 69 73 70 74 76 75 78 76 71 77
REMARK SMILES IDX 72 78 73 79 74 80 75 81 51 82 52 83 61 84 53 85 54 86 60 87
REMARK SMILES IDX 62 88 55 89 56 90 57 91 58 92 59 93
REMARK H PARENT 8 12 8 13 83 43 49 54
REMARK Flexibility Score: inf
ROOT
ATOM      1  O   UNL A   1      38.943  22.530  26.355  1.00  0.00    -0.374 OA
ENDROOT
BRANCH   1   2
ATOM      2  C   UNL A   1      38.159  21.950  25.310  1.00  0.00     0.202 C 
BRANCH   2   3
ATOM      3  C   UNL A   1      36.738  21.507  25.681  1.00  0.00     0.261 C 
BRANCH   3   4
ATOM      4  O   UNL A   1      35.748  21.913  24.707  1.00  0.00    -0.463 OA
BRANCH   4   5
ATOM      5  C   UNL A   1      34.453  21.863  25.109  1.00  0.00     0.314 C 
ATOM      6  O   UNL A   1      34.090  21.507  26.227  1.00  0.00    -0.252 OA
BRANCH   5   7
ATOM      7  C   UNL A   1      33.442  22.233  24.026  1.00  0.00     0.154 C 
ATOM      8  C   UNL A   1      34.163  23.104  22.993  1.00  0.00     0.026 C 
BRANCH   7   9
ATOM      9  C   UNL A   1      32.079  22.856  24.457  1.00  0.00     0.193 C 
ATOM     10  C   UNL A   1      31.407  23.602  23.317  1.00  0.00     0.076 C 
BRANCH   9  11
ATOM     11  N   UNL A   1      32.329  23.756  25.605  1.00  0.00    -0.341 N 
ATOM     12  H   UNL A   1      31.579  23.606  26.281  1.00  0.00     0.346 HD
ATOM     13  H   UNL A   1      33.264  23.510  25.929  1.00  0.00     0.346 HD
BRANCH  11  14
ATOM     14  C   UNL A   1      32.396  25.195  25.338  1.00  0.00     0.185 C 
ATOM     15  C   UNL A   1      29.939  25.792  25.783  1.00  0.00     0.014 C 
ATOM     16  C   UNL A   1      31.385  25.938  26.243  1.00  0.00     0.047 C 
ATOM     17  C   UNL A   1      31.858  27.408  26.245  1.00  0.00    -0.005 C 
ATOM     18  C   UNL A   1      33.333  27.368  25.835  1.00  0.00     0.010 C 
ATOM     19  C   UNL A   1      31.680  28.069  27.608  1.00  0.00     0.008 C 
ATOM     20  C   UNL A   1      33.699  25.894  25.748  1.00  0.00     0.065 C 
ENDBRANCH  11  14
ENDBRANCH   9  11
ENDBRANCH   7   9
ENDBRANCH   5   7
ENDBRANCH   4   5
ENDBRANCH   3   4
ENDBRANCH   2   3
ENDBRANCH   1   2
BRANCH   1  21
ATOM     21  C   UNL A   1      40.310  22.133  26.439  1.00  0.00     0.202 C 
BRANCH  21  22
ATOM     22  C   UNL A   1      41.233  23.076  27.235  1.00  0.00     0.261 C 
BRANCH  22  23
ATOM     23  O   UNL A   1      41.907  24.037  26.399  1.00  0.00    -0.460 OA
BRANCH  23  24
ATOM     24  C   UNL A   1      41.309  25.249  26.322  1.00  0.00     0.338 C 
ATOM     25  O   UNL A   1      40.704  25.708  25.360  1.00  0.00    -0.246 OA
BRANCH  24  26
ATOM     26  C   UNL A   1      41.310  25.921  27.636  1.00  0.00     0.060 A 
ATOM     27  C   UNL A   1      40.115  25.888  28.365  1.00  0.00     0.016 A 
ATOM     28  C   UNL A   1      42.402  26.653  28.107  1.00  0.00     0.016 A 
ATOM     29  C   UNL A   1      39.983  26.643  29.530  1.00  0.00     0.010 A 
ATOM     30  C   UNL A   1      42.266  27.416  29.279  1.00  0.00     0.010 A 
ATOM     31  C   UNL A   1      41.041  27.449  29.972  1.00  0.00    -0.014 A 
BRANCH  31  32
ATOM     32  C   UNL A   1      40.784  28.438  31.055  1.00  0.00     0.031 A 
ATOM     33  C   UNL A   1      41.639  28.408  32.296  1.00  0.00     0.074 A 
ATOM     34  C   UNL A   1      39.864  29.410  30.907  1.00  0.00     0.049 A 
ATOM     35  N   UNL A   1      41.619  29.198  33.339  1.00  0.00    -0.248 NA
ATOM     36  C   UNL A   1      42.658  27.348  32.366  1.00  0.00     0.031 C 
ATOM     37  C   UNL A   1      38.999  29.583  29.741  1.00  0.00     0.029 A 
ATOM     38  N   UNL A   1      39.510  30.442  31.743  1.00  0.00    -0.354 N 
ATOM     39  C   UNL A   1      42.623  28.738  34.185  1.00  0.00     0.074 A 
ATOM     40  C   UNL A   1      43.206  27.575  33.552  1.00  0.00     0.031 C 
ATOM     41  C   UNL A   1      38.212  30.656  29.937  1.00  0.00     0.029 A 
ATOM     42  C   UNL A   1      38.499  31.233  31.250  1.00  0.00     0.049 A 
ATOM     43  H   UNL A   1      39.940  30.601  32.614  1.00  0.00     0.167 HD
ATOM     44  C   UNL A   1      43.035  29.246  35.373  1.00  0.00     0.037 A 
ATOM     45  C   UNL A   1      37.869  32.291  31.797  1.00  0.00     0.037 A 
ATOM     46  C   UNL A   1      42.458  30.402  36.007  1.00  0.00     0.049 A 
ATOM     47  C   UNL A   1      38.296  32.798  33.150  1.00  0.00     0.074 A 
ATOM     48  C   UNL A   1      42.810  30.988  37.212  1.00  0.00     0.029 A 
ATOM     49  N   UNL A   1      41.408  31.148  35.494  1.00  0.00    -0.354 N 
ATOM     50  N   UNL A   1      39.253  32.358  33.932  1.00  0.00    -0.248 NA
ATOM     51  C   UNL A   1      37.562  33.950  33.695  1.00  0.00     0.031 C 
ATOM     52  C   UNL A   1      41.945  32.062  37.447  1.00  0.00     0.029 A 
ATOM     53  C   UNL A   1      41.085  32.176  36.366  1.00  0.00     0.049 A 
ATOM     54  H   UNL A   1      40.957  30.974  34.636  1.00  0.00     0.167 HD
ATOM     55  C   UNL A   1      39.251  33.190  35.046  1.00  0.00     0.074 A 
ATOM     56  C   UNL A   1      38.204  34.169  34.834  1.00  0.00     0.031 C 
ATOM     57  C   UNL A   1      40.045  33.150  36.145  1.00  0.00     0.037 A 
BRANCH  44  58
ATOM     58  C   UNL A   1      44.160  28.538  36.075  1.00  0.00     0.058 A 
ATOM     59  C   UNL A   1      45.495  28.949  35.927  1.00  0.00     0.135 A 
ATOM     60  C   UNL A   1      43.899  27.457  36.932  1.00  0.00     0.135 A 
ATOM     61  F   UNL A   1      45.801  29.966  35.106  1.00  0.00    -0.206 F 
ATOM     62  C   UNL A   1      46.533  28.297  36.584  1.00  0.00     0.059 A 
ATOM     63  C   UNL A   1      44.919  26.806  37.619  1.00  0.00     0.059 A 
ATOM     64  F   UNL A   1      42.641  27.024  37.108  1.00  0.00    -0.206 F 
ATOM     65  C   UNL A   1      46.236  27.225  37.427  1.00  0.00     0.060 A 
BRANCH  65  66
ATOM     66  S   UNL A   1      47.594  26.388  38.273  1.00  0.00     0.124 S 
ATOM     67  O   UNL A   1      46.943  25.164  38.726  1.00  0.00    -0.237 OA
ATOM     68  O   UNL A   1      48.576  26.227  37.205  1.00  0.00    -0.237 OA
ATOM     69  O   UNL A   1      47.968  27.327  39.327  1.00  0.00    -0.744 OA
ENDBRANCH  65  66
ENDBRANCH  44  58
BRANCH  45  70
ATOM     70  C   UNL A   1      36.747  32.942  31.067  1.00  0.00     0.058 A 
ATOM     71  C   UNL A   1      36.980  33.818  29.997  1.00  0.00     0.135 A 
ATOM     72  C   UNL A   1      35.413  32.695  31.431  1.00  0.00     0.135 A 
ATOM     73  F   UNL A   1      38.238  34.097  29.621  1.00  0.00    -0.206 F 
ATOM     74  C   UNL A   1      35.933  34.434  29.320  1.00  0.00     0.059 A 
ATOM     75  C   UNL A   1      34.349  33.280  30.753  1.00  0.00     0.059 A 
ATOM     76  F   UNL A   1      35.136  31.858  32.443  1.00  0.00    -0.206 F 
ATOM     77  C   UNL A   1      34.619  34.156  29.703  1.00  0.00     0.060 A 
BRANCH  77  78
ATOM     78  S   UNL A   1      33.265  34.915  28.781  1.00  0.00     0.124 S 
ATOM     79  O   UNL A   1      32.329  35.243  29.849  1.00  0.00    -0.237 OA
ATOM     80  O   UNL A   1      33.926  36.046  28.139  1.00  0.00    -0.237 OA
ATOM     81  O   UNL A   1      32.841  33.852  27.874  1.00  0.00    -0.744 OA
ENDBRANCH  77  78
ENDBRANCH  45  70
BRANCH  57  82
ATOM     82  C   UNL A   1      39.840  34.207  37.197  1.00  0.00     0.058 A 
ATOM     83  C   UNL A   1      39.085  33.960  38.354  1.00  0.00     0.135 A 
ATOM     84  C   UNL A   1      40.454  35.464  37.072  1.00  0.00     0.135 A 
ATOM     85  F   UNL A   1      38.473  32.777  38.523  1.00  0.00    -0.206 F 
ATOM     86  C   UNL A   1      38.928  34.930  39.340  1.00  0.00     0.059 A 
ATOM     87  C   UNL A   1      40.331  36.439  38.056  1.00  0.00     0.059 A 
ATOM     88  F   UNL A   1      41.196  35.748  35.990  1.00  0.00    -0.206 F 
ATOM     89  C   UNL A   1      39.556  36.167  39.182  1.00  0.00     0.060 A 
BRANCH  89  90
ATOM     90  S   UNL A   1      39.371  37.406  40.484  1.00  0.00     0.124 S 
ATOM     91  O   UNL A   1      40.722  37.949  40.566  1.00  0.00    -0.237 OA
ATOM     92  O   UNL A   1      38.361  38.300  39.925  1.00  0.00    -0.237 OA
ATOM     93  O   UNL A   1      38.936  36.625  41.638  1.00  0.00    -0.744 OA
ENDBRANCH  89  90
ENDBRANCH  57  82
ENDBRANCH  31  32
ENDBRANCH  24  26
ENDBRANCH  23  24
ENDBRANCH  22  23
ENDBRANCH  21  22
ENDBRANCH   1  21
TORSDOF 20
ENDMDL
MODEL 2
REMARK VINA RESULT:     -10.0      1.023      2.041
REMARK SMILES C[C@@H]1[C@@H](C)CC[C@H]1[NH2+][C@@H](C)[C@@H](C)C(=O)OCCOCCOC(=O)c1ccc(-c2c3nc(c(-c4c(F)cc(S(=O)(=O)[O-])cc4F)c4ccc([nH]4)c(-c4c(F)cc(S(=O)(=O)[O-])cc4F)c4nc(c(-c5c(F)cc(S(=O)(=O)[O-])cc5F)c5ccc2[nH]5)C=C4)C=C3)cc1
REMARK SMILES IDX 18 1 17 2 16 3 15 4 13 5 14 6 11 7 12 8 9 9 10 10 8 11 7 14
REMARK SMILES IDX 1 15 2 16 3 17 5 18 4 19 6 20 19 21 20 22 21 23 22 24 23 25
REMARK SMILES IDX 24 26 25 27 89 28 26 29 88 30 27 31 28 32 29 33 82 34 30 35
REMARK SMILES IDX 87 36 81 37 83 38 31 39 86 40 80 41 79 42 32 44 66 45 45 46
REMARK SMILES IDX 65 47 46 48 49 49 64 50 84 51 47 52 48 53 63 55 85 56 50 57
REMARK SMILES IDX 33 58 34 59 43 60 35 61 36 62 42 63 44 64 37 65 38 66 39 67
REMARK SMILES IDX 40 68 41 69 67 70 68 71 77 72 69 73 70 74 76 75 78 76 71 77
REMARK SMILES IDX 72 78 73 79 74 80 75 81 51 82 52 83 61 84 53 85 54 86 60 87
REMARK SMILES IDX 62 88 55 89 56 90 57 91 58 92 59 93
REMARK H PARENT 8 12 8 13 83 43 49 54
REMARK Flexibility Score: inf
ROOT
ATOM      1  O   UNL A   1      40.555  21.365  26.415  1.00  0.00    -0.374 OA
ENDROOT
BRANCH   1   2
ATOM      2  C   UNL A   1      39.331  22.101  26.349  1.00  0.00     0.202 C 
BRANCH   2   3
ATOM      3  C   UNL A   1      38.212  21.498  25.491  1.00  0.00     0.261 C 
BRANCH   3   4
ATOM      4  O   UNL A   1      36.908  22.046  25.798  1.00  0.00    -0.463 OA
BRANCH   4   5
ATOM      5  C   UNL A   1      35.851  21.212  25.632  1.00  0.00     0.314 C 
ATOM      6  O   UNL A   1      35.834  20.264  24.852  1.00  0.00    -0.252 OA
BRANCH   5   7
ATOM      7  C   UNL A   1      34.623  21.578  26.464  1.00  0.00     0.154 C 
ATOM      8  C   UNL A   1      33.419  20.846  25.866  1.00  0.00     0.026 C 
BRANCH   7   9
ATOM      9  C   UNL A   1      34.316  23.085  26.720  1.00  0.00     0.193 C 
ATOM     10  C   UNL A   1      32.861  23.315  27.092  1.00  0.00     0.076 C 
BRANCH   9  11
ATOM     11  N   UNL A   1      34.677  23.840  25.500  1.00  0.00    -0.341 N 
ATOM     12  H   UNL A   1      35.267  24.622  25.787  1.00  0.00     0.346 HD
ATOM     13  H   UNL A   1      35.126  23.154  24.893  1.00  0.00     0.346 HD
BRANCH  11  14
ATOM     14  C   UNL A   1      33.584  24.389  24.693  1.00  0.00     0.185 C 
ATOM     15  C   UNL A   1      33.578  26.784  25.618  1.00  0.00     0.014 C 
ATOM     16  C   UNL A   1      33.848  25.888  24.415  1.00  0.00     0.047 C 
ATOM     17  C   UNL A   1      32.947  26.233  23.208  1.00  0.00    -0.005 C 
ATOM     18  C   UNL A   1      32.643  24.897  22.524  1.00  0.00     0.010 C 
ATOM     19  C   UNL A   1      33.621  27.207  22.247  1.00  0.00     0.008 C 
ATOM     20  C   UNL A   1      33.476  23.856  23.258  1.00  0.00     0.065 C 
ENDBRANCH  11  14
ENDBRANCH   9  11
ENDBRANCH   7   9
ENDBRANCH   5   7
ENDBRANCH   4   5
ENDBRANCH   3   4
ENDBRANCH   2   3
ENDBRANCH   1   2
BRANCH   1  21
ATOM     21  C   UNL A   1      41.693  21.937  25.774  1.00  0.00     0.202 C 
BRANCH  21  22
ATOM     22  C   UNL A   1      42.192  23.271  26.361  1.00  0.00     0.261 C 
BRANCH  22  23
ATOM     23  O   UNL A   1      41.279  24.362  26.125  1.00  0.00    -0.460 OA
BRANCH  23  24
ATOM     24  C   UNL A   1      41.861  25.578  26.002  1.00  0.00     0.338 C 
ATOM     25  O   UNL A   1      42.188  26.132  24.959  1.00  0.00    -0.246 OA
BRANCH  24  26
ATOM     26  C   UNL A   1      41.903  26.276  27.303  1.00  0.00     0.060 A 
ATOM     27  C   UNL A   1      40.936  25.913  28.248  1.00  0.00     0.016 A 
ATOM     28  C   UNL A   1      42.786  27.326  27.566  1.00  0.00     0.016 A 
ATOM     29  C   UNL A   1      40.801  26.642  29.429  1.00  0.00     0.010 A 
ATOM     30  C   UNL A   1      42.646  28.061  28.755  1.00  0.00     0.010 A 
ATOM     31  C   UNL A   1      41.623  27.751  29.671  1.00  0.00    -0.014 A 
BRANCH  31  32
ATOM     32  C   UNL A   1      41.284  28.661  30.799  1.00  0.00     0.031 A 
ATOM     33  C   UNL A   1      42.114  28.613  32.057  1.00  0.00     0.074 A 
ATOM     34  C   UNL A   1      40.310  29.583  30.682  1.00  0.00     0.049 A 
ATOM     35  N   UNL A   1      42.024  29.343  33.141  1.00  0.00    -0.248 NA
ATOM     36  C   UNL A   1      43.194  27.614  32.095  1.00  0.00     0.031 C 
ATOM     37  C   UNL A   1      39.460  29.768  29.507  1.00  0.00     0.029 A 
ATOM     38  N   UNL A   1      39.877  30.544  31.564  1.00  0.00    -0.354 N 
ATOM     39  C   UNL A   1      43.037  28.897  33.984  1.00  0.00     0.074 A 
ATOM     40  C   UNL A   1      43.703  27.808  33.304  1.00  0.00     0.031 C 
ATOM     41  C   UNL A   1      38.605  30.779  29.742  1.00  0.00     0.029 A 
ATOM     42  C   UNL A   1      38.830  31.299  31.091  1.00  0.00     0.049 A 
ATOM     43  H   UNL A   1      40.279  30.680  32.453  1.00  0.00     0.167 HD
ATOM     44  C   UNL A   1      43.393  29.362  35.207  1.00  0.00     0.037 A 
ATOM     45  C   UNL A   1      38.124  32.286  31.679  1.00  0.00     0.037 A 
ATOM     46  C   UNL A   1      42.733  30.446  35.889  1.00  0.00     0.049 A 
ATOM     47  C   UNL A   1      38.492  32.742  33.067  1.00  0.00     0.074 A 
ATOM     48  C   UNL A   1      43.024  30.984  37.131  1.00  0.00     0.029 A 
ATOM     49  N   UNL A   1      41.650  31.154  35.392  1.00  0.00    -0.354 N 
ATOM     50  N   UNL A   1      39.458  32.317  33.846  1.00  0.00    -0.248 NA
ATOM     51  C   UNL A   1      37.678  33.816  33.656  1.00  0.00     0.031 C 
ATOM     52  C   UNL A   1      42.090  31.990  37.403  1.00  0.00     0.029 A 
ATOM     53  C   UNL A   1      41.248  32.112  36.310  1.00  0.00     0.049 A 
ATOM     54  H   UNL A   1      41.229  31.001  34.516  1.00  0.00     0.167 HD
ATOM     55  C   UNL A   1      39.383  33.086  35.004  1.00  0.00     0.074 A 
ATOM     56  C   UNL A   1      38.283  34.010  34.820  1.00  0.00     0.031 C 
ATOM     57  C   UNL A   1      40.155  33.032  36.118  1.00  0.00     0.037 A 
BRANCH  44  58
ATOM     58  C   UNL A   1      44.545  28.686  35.897  1.00  0.00     0.058 A 
ATOM     59  C   UNL A   1      44.350  27.594  36.757  1.00  0.00     0.135 A 
ATOM     60  C   UNL A   1      45.863  29.115  35.670  1.00  0.00     0.135 A 
ATOM     61  F   UNL A   1      43.109  27.156  37.021  1.00  0.00    -0.206 F 
ATOM     62  C   UNL A   1      45.419  26.966  37.388  1.00  0.00     0.059 A 
ATOM     63  C   UNL A   1      46.949  28.485  36.270  1.00  0.00     0.059 A 
ATOM     64  F   UNL A   1      46.105  30.155  34.857  1.00  0.00    -0.206 F 
ATOM     65  C   UNL A   1      46.716  27.420  37.139  1.00  0.00     0.060 A 
BRANCH  65  66
ATOM     66  S   UNL A   1      48.093  26.596  37.966  1.00  0.00     0.124 S 
ATOM     67  O   UNL A   1      47.398  25.831  38.995  1.00  0.00    -0.237 OA
ATOM     68  O   UNL A   1      48.684  25.813  36.885  1.00  0.00    -0.237 OA
ATOM     69  O   UNL A   1      48.911  27.704  38.452  1.00  0.00    -0.744 OA
ENDBRANCH  65  66
ENDBRANCH  44  58
BRANCH  45  70
ATOM     70  C   UNL A   1      36.980  32.908  30.959  1.00  0.00     0.058 A 
ATOM     71  C   UNL A   1      35.653  32.585  31.277  1.00  0.00     0.135 A 
ATOM     72  C   UNL A   1      37.198  33.842  29.934  1.00  0.00     0.135 A 
ATOM     73  F   UNL A   1      35.393  31.687  32.240  1.00  0.00    -0.206 F 
ATOM     74  C   UNL A   1      34.582  33.159  30.599  1.00  0.00     0.059 A 
ATOM     75  C   UNL A   1      36.143  34.447  29.258  1.00  0.00     0.059 A 
ATOM     76  F   UNL A   1      38.449  34.191  29.596  1.00  0.00    -0.206 F 
ATOM     77  C   UNL A   1      34.837  34.092  29.592  1.00  0.00     0.060 A 
BRANCH  77  78
ATOM     78  S   UNL A   1      33.441  34.875  28.757  1.00  0.00     0.124 S 
ATOM     79  O   UNL A   1      34.057  36.084  28.224  1.00  0.00    -0.237 OA
ATOM     80  O   UNL A   1      33.063  33.863  27.776  1.00  0.00    -0.237 OA
ATOM     81  O   UNL A   1      32.478  35.078  29.835  1.00  0.00    -0.744 OA
ENDBRANCH  77  78
ENDBRANCH  45  70
BRANCH  57  82
ATOM     82  C   UNL A   1      39.865  34.015  37.220  1.00  0.00     0.058 A 
ATOM     83  C   UNL A   1      39.088  33.666  38.335  1.00  0.00     0.135 A 
ATOM     84  C   UNL A   1      40.417  35.306  37.185  1.00  0.00     0.135 A 
ATOM     85  F   UNL A   1      38.533  32.446  38.417  1.00  0.00    -0.206 F 
ATOM     86  C   UNL A   1      38.851  34.568  39.368  1.00  0.00     0.059 A 
ATOM     87  C   UNL A   1      40.214  36.216  38.218  1.00  0.00     0.059 A 
ATOM     88  F   UNL A   1      41.176  35.689  36.146  1.00  0.00    -0.206 F 
ATOM     89  C   UNL A   1      39.420  35.841  39.301  1.00  0.00     0.060 A 
BRANCH  89  90
ATOM     90  S   UNL A   1      39.133  36.993  40.663  1.00  0.00     0.124 S 
ATOM     91  O   UNL A   1      38.526  36.120  41.662  1.00  0.00    -0.237 OA
ATOM     92  O   UNL A   1      40.482  37.461  40.966  1.00  0.00    -0.237 OA
ATOM     93  O   UNL A   1      38.246  37.995  40.080  1.00  0.00    -0.744 OA
ENDBRANCH  89  90
ENDBRANCH  57  82
ENDBRANCH  31  32
ENDBRANCH  24  26
ENDBRANCH  23  24
ENDBRANCH  22  23
ENDBRANCH  21  22
ENDBRANCH   1  21
TORSDOF 20
ENDMDL
MODEL 3
REMARK VINA RESULT:      -9.9      6.634     12.432
REMARK SMILES C[C@@H]1[C@@H](C)CC[C@H]1[NH2+][C@@H](C)[C@@H](C)C(=O)OCCOCCOC(=O)c1ccc(-c2c3nc(c(-c4c(F)cc(S(=O)(=O)[O-])cc4F)c4ccc([nH]4)c(-c4c(F)cc(S(=O)(=O)[O-])cc4F)c4nc(c(-c5c(F)cc(S(=O)(=O)[O-])cc5F)c5ccc2[nH]5)C=C4)C=C3)cc1
REMARK SMILES IDX 18 1 17 2 16 3 15 4 13 5 14 6 11 7 12 8 9 9 10 10 8 11 7 14
REMARK SMILES IDX 1 15 2 16 3 17 5 18 4 19 6 20 19 21 20 22 21 23 22 24 23 25
REMARK SMILES IDX 24 26 25 27 89 28 26 29 88 30 27 31 28 32 29 33 82 34 30 35
REMARK SMILES IDX 87 36 81 37 83 38 31 39 86 40 80 41 79 42 32 44 66 45 45 46
REMARK SMILES IDX 65 47 46 48 49 49 64 50 84 51 47 52 48 53 63 55 85 56 50 57
REMARK SMILES IDX 33 58 34 59 43 60 35 61 36 62 42 63 44 64 37 65 38 66 39 67
REMARK SMILES IDX 40 68 41 69 67 70 68 71 77 72 69 73 70 74 76 75 78 76 71 77
REMARK SMILES IDX 72 78 73 79 74 80 75 81 51 82 52 83 61 84 53 85 54 86 60 87
REMARK SMILES IDX 62 88 55 89 56 90 57 91 58 92 59 93
REMARK H PARENT 8 12 8 13 83 43 49 54
REMARK Flexibility Score: inf
ROOT
ATOM      1  O   UNL A   1      35.099  33.324  27.668  1.00  0.00    -0.374 OA
ENDROOT
BRANCH   1   2
ATOM      2  C   UNL A   1      33.929  32.555  27.955  1.00  0.00     0.202 C 
BRANCH   2   3
ATOM      3  C   UNL A   1      33.992  31.058  27.626  1.00  0.00     0.261 C 
BRANCH   3   4
ATOM      4  O   UNL A   1      32.982  30.646  26.676  1.00  0.00    -0.463 OA
BRANCH   4   5
ATOM      5  C   UNL A   1      33.251  29.525  25.960  1.00  0.00     0.314 C 
ATOM      6  O   UNL A   1      34.377  29.059  25.802  1.00  0.00    -0.252 OA
BRANCH   5   7
ATOM      7  C   UNL A   1      32.030  28.895  25.293  1.00  0.00     0.154 C 
ATOM      8  C   UNL A   1      31.150  30.029  24.763  1.00  0.00     0.026 C 
BRANCH   7   9
ATOM      9  C   UNL A   1      31.201  27.844  26.093  1.00  0.00     0.193 C 
ATOM     10  C   UNL A   1      31.783  27.589  27.473  1.00  0.00     0.076 C 
BRANCH   9  11
ATOM     11  N   UNL A   1      31.154  26.596  25.298  1.00  0.00    -0.341 N 
ATOM     12  H   UNL A   1      31.369  25.823  25.929  1.00  0.00     0.346 HD
ATOM     13  H   UNL A   1      30.218  26.582  24.893  1.00  0.00     0.346 HD
BRANCH  11  14
ATOM     14  C   UNL A   1      32.057  26.488  24.150  1.00  0.00     0.185 C 
ATOM     15  C   UNL A   1      34.128  25.579  25.364  1.00  0.00     0.014 C 
ATOM     16  C   UNL A   1      33.019  25.295  24.359  1.00  0.00     0.047 C 
ATOM     17  C   UNL A   1      33.567  24.975  22.950  1.00  0.00    -0.005 C 
ATOM     18  C   UNL A   1      32.558  25.575  21.968  1.00  0.00     0.010 C 
ATOM     19  C   UNL A   1      33.737  23.476  22.724  1.00  0.00     0.008 C 
ATOM     20  C   UNL A   1      31.406  26.089  22.819  1.00  0.00     0.065 C 
ENDBRANCH  11  14
ENDBRANCH   9  11
ENDBRANCH   7   9
ENDBRANCH   5   7
ENDBRANCH   4   5
ENDBRANCH   3   4
ENDBRANCH   2   3
ENDBRANCH   1   2
BRANCH   1  21
ATOM     21  C   UNL A   1      35.700  34.023  28.755  1.00  0.00     0.202 C 
BRANCH  21  22
ATOM     22  C   UNL A   1      35.714  33.279  30.104  1.00  0.00     0.261 C 
BRANCH  22  23
ATOM     23  O   UNL A   1      36.979  32.644  30.380  1.00  0.00    -0.460 OA
BRANCH  23  24
ATOM     24  C   UNL A   1      36.896  31.354  30.780  1.00  0.00     0.338 C 
ATOM     25  O   UNL A   1      35.984  30.842  31.421  1.00  0.00    -0.246 OA
BRANCH  24  26
ATOM     26  C   UNL A   1      37.982  30.548  30.190  1.00  0.00     0.060 A 
ATOM     27  C   UNL A   1      38.992  30.113  31.056  1.00  0.00     0.016 A 
ATOM     28  C   UNL A   1      38.080  30.306  28.817  1.00  0.00     0.016 A 
ATOM     29  C   UNL A   1      40.136  29.499  30.549  1.00  0.00     0.010 A 
ATOM     30  C   UNL A   1      39.235  29.690  28.308  1.00  0.00     0.010 A 
ATOM     31  C   UNL A   1      40.289  29.324  29.167  1.00  0.00    -0.014 A 
BRANCH  31  32
ATOM     32  C   UNL A   1      41.619  28.915  28.639  1.00  0.00     0.031 A 
ATOM     33  C   UNL A   1      42.727  29.935  28.562  1.00  0.00     0.074 A 
ATOM     34  C   UNL A   1      41.875  27.633  28.312  1.00  0.00     0.049 A 
ATOM     35  N   UNL A   1      43.969  29.786  28.178  1.00  0.00    -0.248 NA
ATOM     36  C   UNL A   1      42.388  31.305  28.982  1.00  0.00     0.031 C 
ATOM     37  C   UNL A   1      40.910  26.536  28.380  1.00  0.00     0.029 A 
ATOM     38  N   UNL A   1      43.029  27.036  27.866  1.00  0.00    -0.354 N 
ATOM     39  C   UNL A   1      44.562  31.037  28.316  1.00  0.00     0.074 A 
ATOM     40  C   UNL A   1      43.534  31.942  28.781  1.00  0.00     0.031 C 
ATOM     41  C   UNL A   1      41.512  25.401  27.986  1.00  0.00     0.029 A 
ATOM     42  C   UNL A   1      42.897  25.691  27.616  1.00  0.00     0.049 A 
ATOM     43  H   UNL A   1      43.873  27.527  27.736  1.00  0.00     0.167 HD
ATOM     44  C   UNL A   1      45.850  31.398  28.093  1.00  0.00     0.037 A 
ATOM     45  C   UNL A   1      43.784  24.798  27.134  1.00  0.00     0.037 A 
ATOM     46  C   UNL A   1      46.878  30.502  27.630  1.00  0.00     0.049 A 
ATOM     47  C   UNL A   1      45.193  25.235  26.827  1.00  0.00     0.074 A 
ATOM     48  C   UNL A   1      48.210  30.780  27.375  1.00  0.00     0.029 A 
ATOM     49  N   UNL A   1      46.691  29.157  27.349  1.00  0.00    -0.354 N 
ATOM     50  N   UNL A   1      45.740  26.418  26.973  1.00  0.00    -0.248 NA
ATOM     51  C   UNL A   1      46.109  24.214  26.295  1.00  0.00     0.031 C 
ATOM     52  C   UNL A   1      48.818  29.613  26.900  1.00  0.00     0.029 A 
ATOM     53  C   UNL A   1      47.877  28.596  26.904  1.00  0.00     0.049 A 
ATOM     54  H   UNL A   1      45.841  28.671  27.451  1.00  0.00     0.167 HD
ATOM     55  C   UNL A   1      47.065  26.279  26.573  1.00  0.00     0.074 A 
ATOM     56  C   UNL A   1      47.243  24.894  26.190  1.00  0.00     0.031 C 
ATOM     57  C   UNL A   1      48.048  27.214  26.530  1.00  0.00     0.037 A 
BRANCH  44  58
ATOM     58  C   UNL A   1      46.217  32.836  28.333  1.00  0.00     0.058 A 
ATOM     59  C   UNL A   1      46.694  33.276  29.578  1.00  0.00     0.135 A 
ATOM     60  C   UNL A   1      46.123  33.779  27.297  1.00  0.00     0.135 A 
ATOM     61  F   UNL A   1      46.787  32.419  30.607  1.00  0.00    -0.206 F 
ATOM     62  C   UNL A   1      47.040  34.606  29.795  1.00  0.00     0.059 A 
ATOM     63  C   UNL A   1      46.488  35.109  27.484  1.00  0.00     0.059 A 
ATOM     64  F   UNL A   1      45.673  33.411  26.088  1.00  0.00    -0.206 F 
ATOM     65  C   UNL A   1      46.932  35.516  28.742  1.00  0.00     0.060 A 
BRANCH  65  66
ATOM     66  S   UNL A   1      47.384  37.238  29.039  1.00  0.00     0.124 S 
ATOM     67  O   UNL A   1      46.391  37.942  28.235  1.00  0.00    -0.237 OA
ATOM     68  O   UNL A   1      47.230  37.358  30.485  1.00  0.00    -0.237 OA
ATOM     69  O   UNL A   1      48.758  37.318  28.550  1.00  0.00    -0.744 OA
ENDBRANCH  65  66
ENDBRANCH  44  58
BRANCH  45  70
ATOM     70  C   UNL A   1      43.362  23.391  26.896  1.00  0.00     0.058 A 
ATOM     71  C   UNL A   1      43.110  22.911  25.602  1.00  0.00     0.135 A 
ATOM     72  C   UNL A   1      43.203  22.497  27.967  1.00  0.00     0.135 A 
ATOM     73  F   UNL A   1      43.234  23.732  24.547  1.00  0.00    -0.206 F 
ATOM     74  C   UNL A   1      42.706  21.599  25.378  1.00  0.00     0.059 A 
ATOM     75  C   UNL A   1      42.824  21.173  27.766  1.00  0.00     0.059 A 
ATOM     76  F   UNL A   1      43.439  22.904  29.223  1.00  0.00    -0.206 F 
ATOM     77  C   UNL A   1      42.570  20.736  26.467  1.00  0.00     0.060 A 
BRANCH  77  78
ATOM     78  S   UNL A   1      42.102  19.018  26.162  1.00  0.00     0.124 S 
ATOM     79  O   UNL A   1      40.708  19.160  25.761  1.00  0.00    -0.237 OA
ATOM     80  O   UNL A   1      43.034  18.628  25.109  1.00  0.00    -0.237 OA
ATOM     81  O   UNL A   1      42.326  18.377  27.453  1.00  0.00    -0.744 OA
ENDBRANCH  77  78
ENDBRANCH  45  70
BRANCH  57  82
ATOM     82  C   UNL A   1      49.414  26.774  26.079  1.00  0.00     0.058 A 
ATOM     83  C   UNL A   1      49.836  26.920  24.749  1.00  0.00     0.135 A 
ATOM     84  C   UNL A   1      50.333  26.249  27.003  1.00  0.00     0.135 A 
ATOM     85  F   UNL A   1      48.997  27.413  23.824  1.00  0.00    -0.206 F 
ATOM     86  C   UNL A   1      51.114  26.543  24.345  1.00  0.00     0.059 A 
ATOM     87  C   UNL A   1      51.623  25.888  26.627  1.00  0.00     0.059 A 
ATOM     88  F   UNL A   1      49.985  26.096  28.290  1.00  0.00    -0.206 F 
ATOM     89  C   UNL A   1      52.001  26.029  25.292  1.00  0.00     0.060 A 
BRANCH  89  90
ATOM     90  S   UNL A   1      53.667  25.573  24.763  1.00  0.00     0.124 S 
ATOM     91  O   UNL A   1      53.672  24.137  25.012  1.00  0.00    -0.237 OA
ATOM     92  O   UNL A   1      53.670  25.974  23.359  1.00  0.00    -0.237 OA
ATOM     93  O   UNL A   1      54.529  26.366  25.634  1.00  0.00    -0.744 OA
ENDBRANCH  89  90
ENDBRANCH  57  82
ENDBRANCH  31  32
ENDBRANCH  24  26
ENDBRANCH  23  24
ENDBRANCH  22  23
ENDBRANCH  21  22
ENDBRANCH   1  21
TORSDOF 20
ENDMDL
