MODEL 1
REMARK VINA RESULT:      -7.6      0.000      0.000
REMARK SMILES CC/C=C/C/C=C/C/C=C/C/C=C/CC/C=C/COCC(=O)OCCOCCOC(=O)c1ccc(-c2c3nc(c(-c4c(F)cc(S(=O)(=O)[O-])cc4F)c4ccc([nH]4)c(-c4c(F)cc(S(=O)(=O)[O-])cc4F)c4nc(c(-c5c(F)cc(S(=O)(=O)[O-])cc5F)c5ccc2[nH]5)C=C4)C=C3)cc1
REMARK SMILES IDX 20 1 19 2 18 3 17 4 16 5 15 6 14 7 13 8 12 9 11 10 10 11
REMARK SMILES IDX 9 12 8 13 7 14 6 15 5 16 4 17 3 18 2 19 1 20 21 21 22 22
REMARK SMILES IDX 23 23 24 24 25 25 26 26 27 27 28 28 29 29 30 30 31 31 32 32
REMARK SMILES IDX 33 33 97 34 34 35 96 36 35 37 36 38 37 39 90 40 38 41 95 42
REMARK SMILES IDX 89 43 91 44 39 45 94 46 88 47 87 48 40 50 74 51 53 52 73 53
REMARK SMILES IDX 54 54 57 55 72 56 92 57 55 58 56 59 71 61 93 62 58 63 41 64
REMARK SMILES IDX 42 65 51 66 43 67 44 68 50 69 52 70 45 71 46 72 47 73 48 74
REMARK SMILES IDX 49 75 75 76 76 77 85 78 77 79 78 80 84 81 86 82 79 83 80 84
REMARK SMILES IDX 81 85 82 86 83 87 59 88 60 89 69 90 61 91 62 92 68 93 70 94
REMARK SMILES IDX 63 95 64 96 65 97 66 98 67 99
REMARK H PARENT 91 49 57 60
REMARK Flexibility Score: inf
ROOT
ATOM      1  C   UNL A   1      32.492  36.450  31.128  1.00  0.00     0.283 C 
ENDROOT
BRANCH   1   2
ATOM      2  O   UNL A   1      32.620  35.089  30.768  1.00  0.00    -0.366 OA
BRANCH   2   3
ATOM      3  C   UNL A   1      33.000  34.792  29.427  1.00  0.00     0.188 C 
BRANCH   3   4
ATOM      4  C   UNL A   1      34.133  33.809  29.326  1.00  0.00    -0.003 C 
ATOM      5  C   UNL A   1      34.377  33.039  28.252  1.00  0.00    -0.029 C 
BRANCH   5   6
ATOM      6  C   UNL A   1      35.475  32.015  28.145  1.00  0.00     0.031 C 
BRANCH   6   7
ATOM      7  C   UNL A   1      36.865  32.622  27.885  1.00  0.00     0.031 C 
BRANCH   7   8
ATOM      8  C   UNL A   1      37.336  33.599  28.929  1.00  0.00    -0.031 C 
ATOM      9  C   UNL A   1      38.235  33.324  29.889  1.00  0.00    -0.027 C 
BRANCH   9  10
ATOM     10  C   UNL A   1      38.736  34.330  30.890  1.00  0.00     0.054 C 
BRANCH  10  11
ATOM     11  C   UNL A   1      40.095  33.948  31.406  1.00  0.00    -0.027 C 
ATOM     12  C   UNL A   1      40.334  33.512  32.655  1.00  0.00    -0.027 C 
BRANCH  12  13
ATOM     13  C   UNL A   1      41.695  33.148  33.177  1.00  0.00     0.054 C 
BRANCH  13  14
ATOM     14  C   UNL A   1      42.661  34.282  32.974  1.00  0.00    -0.027 C 
ATOM     15  C   UNL A   1      43.952  34.126  32.636  1.00  0.00    -0.027 C 
BRANCH  15  16
ATOM     16  C   UNL A   1      44.919  35.260  32.455  1.00  0.00     0.054 C 
BRANCH  16  17
ATOM     17  C   UNL A   1      44.359  36.297  31.524  1.00  0.00    -0.027 C 
ATOM     18  C   UNL A   1      44.153  36.101  30.211  1.00  0.00    -0.031 C 
BRANCH  18  19
ATOM     19  C   UNL A   1      43.606  37.147  29.285  1.00  0.00     0.023 C 
ATOM     20  C   UNL A   1      42.395  36.632  28.523  1.00  0.00     0.008 C 
ENDBRANCH  18  19
ENDBRANCH  16  17
ENDBRANCH  15  16
ENDBRANCH  13  14
ENDBRANCH  12  13
ENDBRANCH  10  11
ENDBRANCH   9  10
ENDBRANCH   7   8
ENDBRANCH   6   7
ENDBRANCH   5   6
ENDBRANCH   3   4
ENDBRANCH   2   3
ENDBRANCH   1   2
BRANCH   1  21
ATOM     21  C   UNL A   1      33.446  37.196  32.068  1.00  0.00     0.332 C 
ATOM     22  O   UNL A   1      33.222  38.333  32.467  1.00  0.00    -0.250 OA
BRANCH  21  23
ATOM     23  O   UNL A   1      34.504  36.430  32.451  1.00  0.00    -0.462 OA
BRANCH  23  24
ATOM     24  C   UNL A   1      34.355  35.738  33.709  1.00  0.00     0.261 C 
BRANCH  24  25
ATOM     25  C   UNL A   1      34.872  34.300  33.650  1.00  0.00     0.202 C 
BRANCH  25  26
ATOM     26  O   UNL A   1      35.591  33.828  34.789  1.00  0.00    -0.374 OA
BRANCH  26  27
ATOM     27  C   UNL A   1      36.951  33.474  34.574  1.00  0.00     0.202 C 
BRANCH  27  28
ATOM     28  C   UNL A   1      37.259  31.990  34.344  1.00  0.00     0.261 C 
BRANCH  28  29
ATOM     29  O   UNL A   1      37.862  31.758  33.064  1.00  0.00    -0.460 OA
BRANCH  29  30
ATOM     30  C   UNL A   1      37.433  30.626  32.452  1.00  0.00     0.338 C 
ATOM     31  O   UNL A   1      36.297  30.187  32.427  1.00  0.00    -0.246 OA
BRANCH  30  32
ATOM     32  C   UNL A   1      38.516  30.080  31.615  1.00  0.00     0.060 A 
ATOM     33  C   UNL A   1      39.613  29.524  32.284  1.00  0.00     0.016 A 
ATOM     34  C   UNL A   1      38.485  30.148  30.221  1.00  0.00     0.016 A 
ATOM     35  C   UNL A   1      40.719  29.089  31.565  1.00  0.00     0.010 A 
ATOM     36  C   UNL A   1      39.602  29.719  29.500  1.00  0.00     0.010 A 
ATOM     37  C   UNL A   1      40.737  29.229  30.172  1.00  0.00    -0.014 A 
BRANCH  37  38
ATOM     38  C   UNL A   1      42.008  29.038  29.436  1.00  0.00     0.031 A 
ATOM     39  C   UNL A   1      42.290  27.689  28.837  1.00  0.00     0.074 A 
ATOM     40  C   UNL A   1      42.877  30.053  29.286  1.00  0.00     0.049 A 
ATOM     41  N   UNL A   1      43.366  27.259  28.232  1.00  0.00    -0.248 NA
ATOM     42  C   UNL A   1      41.215  26.688  28.938  1.00  0.00     0.031 C 
ATOM     43  C   UNL A   1      42.676  31.417  29.773  1.00  0.00     0.029 A 
ATOM     44  N   UNL A   1      44.111  30.086  28.688  1.00  0.00    -0.354 N 
ATOM     45  C   UNL A   1      43.104  25.935  27.897  1.00  0.00     0.074 A 
ATOM     46  C   UNL A   1      41.780  25.624  28.387  1.00  0.00     0.031 C 
ATOM     47  C   UNL A   1      43.761  32.151  29.471  1.00  0.00     0.029 A 
ATOM     48  C   UNL A   1      44.747  31.298  28.811  1.00  0.00     0.049 A 
ATOM     49  H   UNL A   1      44.502  29.316  28.217  1.00  0.00     0.167 HD
ATOM     50  C   UNL A   1      43.899  25.063  27.235  1.00  0.00     0.037 A 
ATOM     51  C   UNL A   1      45.997  31.662  28.460  1.00  0.00     0.037 A 
ATOM     52  C   UNL A   1      45.213  25.390  26.749  1.00  0.00     0.049 A 
ATOM     53  C   UNL A   1      46.895  30.650  27.796  1.00  0.00     0.074 A 
ATOM     54  C   UNL A   1      46.098  24.586  26.054  1.00  0.00     0.029 A 
ATOM     55  N   UNL A   1      45.834  26.620  26.914  1.00  0.00    -0.354 N 
ATOM     56  N   UNL A   1      46.637  29.403  27.476  1.00  0.00    -0.248 NA
ATOM     57  C   UNL A   1      48.253  31.090  27.446  1.00  0.00     0.031 C 
ATOM     58  C   UNL A   1      47.276  25.310  25.849  1.00  0.00     0.029 A 
ATOM     59  C   UNL A   1      47.101  26.587  26.359  1.00  0.00     0.049 A 
ATOM     60  H   UNL A   1      45.433  27.400  27.360  1.00  0.00     0.167 HD
ATOM     61  C   UNL A   1      47.787  28.922  26.857  1.00  0.00     0.074 A 
ATOM     62  C   UNL A   1      48.741  30.012  26.846  1.00  0.00     0.031 C 
ATOM     63  C   UNL A   1      48.030  27.692  26.340  1.00  0.00     0.037 A 
BRANCH  50  64
ATOM     64  C   UNL A   1      43.386  23.663  27.031  1.00  0.00     0.058 A 
ATOM     65  C   UNL A   1      43.458  22.689  28.039  1.00  0.00     0.135 A 
ATOM     66  C   UNL A   1      42.781  23.301  25.815  1.00  0.00     0.135 A 
ATOM     67  F   UNL A   1      44.044  22.972  29.213  1.00  0.00    -0.206 F 
ATOM     68  C   UNL A   1      42.972  21.400  27.841  1.00  0.00     0.059 A 
ATOM     69  C   UNL A   1      42.261  22.028  25.606  1.00  0.00     0.059 A 
ATOM     70  F   UNL A   1      42.689  24.192  24.815  1.00  0.00    -0.206 F 
ATOM     71  C   UNL A   1      42.373  21.080  26.621  1.00  0.00     0.060 A 
BRANCH  71  72
ATOM     72  S   UNL A   1      41.740  19.406  26.384  1.00  0.00     0.124 S 
ATOM     73  O   UNL A   1      42.069  18.786  27.665  1.00  0.00    -0.237 OA
ATOM     74  O   UNL A   1      40.320  19.642  26.140  1.00  0.00    -0.237 OA
ATOM     75  O   UNL A   1      42.498  18.915  25.238  1.00  0.00    -0.744 OA
ENDBRANCH  71  72
ENDBRANCH  50  64
BRANCH  51  76
ATOM     76  C   UNL A   1      46.479  33.038  28.753  1.00  0.00     0.058 A 
ATOM     77  C   UNL A   1      47.163  33.331  29.942  1.00  0.00     0.135 A 
ATOM     78  C   UNL A   1      46.269  34.090  27.846  1.00  0.00     0.135 A 
ATOM     79  F   UNL A   1      47.380  32.363  30.846  1.00  0.00    -0.206 F 
ATOM     80  C   UNL A   1      47.612  34.616  30.228  1.00  0.00     0.059 A 
ATOM     81  C   UNL A   1      46.733  35.377  28.096  1.00  0.00     0.059 A 
ATOM     82  F   UNL A   1      45.629  33.862  26.688  1.00  0.00    -0.206 F 
ATOM     83  C   UNL A   1      47.395  35.633  29.295  1.00  0.00     0.060 A 
BRANCH  83  84
ATOM     84  S   UNL A   1      48.024  37.286  29.656  1.00  0.00     0.124 S 
ATOM     85  O   UNL A   1      47.358  38.085  28.636  1.00  0.00    -0.237 OA
ATOM     86  O   UNL A   1      47.570  37.492  31.028  1.00  0.00    -0.237 OA
ATOM     87  O   UNL A   1      49.469  37.138  29.499  1.00  0.00    -0.744 OA
ENDBRANCH  83  84
ENDBRANCH  51  76
BRANCH  63  88
ATOM     88  C   UNL A   1      49.356  27.461  25.669  1.00  0.00     0.058 A 
ATOM     89  C   UNL A   1      50.503  27.104  26.393  1.00  0.00     0.135 A 
ATOM     90  C   UNL A   1      49.453  27.509  24.267  1.00  0.00     0.135 A 
ATOM     91  F   UNL A   1      50.466  27.051  27.734  1.00  0.00    -0.206 F 
ATOM     92  C   UNL A   1      51.703  26.810  25.753  1.00  0.00     0.059 A 
ATOM     93  C   UNL A   1      50.634  27.190  23.606  1.00  0.00     0.059 A 
ATOM     94  F   UNL A   1      48.383  27.837  23.526  1.00  0.00    -0.206 F 
ATOM     95  C   UNL A   1      51.755  26.844  24.358  1.00  0.00     0.060 A 
BRANCH  95  96
ATOM     96  S   UNL A   1      53.300  26.394  23.539  1.00  0.00     0.124 S 
ATOM     97  O   UNL A   1      52.839  26.084  22.189  1.00  0.00    -0.237 OA
ATOM     98  O   UNL A   1      54.091  27.613  23.675  1.00  0.00    -0.237 OA
ATOM     99  O   UNL A   1      53.778  25.254  24.315  1.00  0.00    -0.744 OA
ENDBRANCH  95  96
ENDBRANCH  63  88
ENDBRANCH  37  38
ENDBRANCH  30  32
ENDBRANCH  29  30
ENDBRANCH  28  29
ENDBRANCH  27  28
ENDBRANCH  26  27
ENDBRANCH  25  26
ENDBRANCH  24  25
ENDBRANCH  23  24
ENDBRANCH  21  23
ENDBRANCH   1  21
TORSDOF 30
ENDMDL
MODEL 2
REMARK VINA RESULT:      -7.4      2.944      6.070
REMARK SMILES CC/C=C/C/C=C/C/C=C/C/C=C/CC/C=C/COCC(=O)OCCOCCOC(=O)c1ccc(-c2c3nc(c(-c4c(F)cc(S(=O)(=O)[O-])cc4F)c4ccc([nH]4)c(-c4c(F)cc(S(=O)(=O)[O-])cc4F)c4nc(c(-c5c(F)cc(S(=O)(=O)[O-])cc5F)c5ccc2[nH]5)C=C4)C=C3)cc1
REMARK SMILES IDX 20 1 19 2 18 3 17 4 16 5 15 6 14 7 13 8 12 9 11 10 10 11
REMARK SMILES IDX 9 12 8 13 7 14 6 15 5 16 4 17 3 18 2 19 1 20 21 21 22 22
REMARK SMILES IDX 23 23 24 24 25 25 26 26 27 27 28 28 29 29 30 30 31 31 32 32
REMARK SMILES IDX 33 33 97 34 34 35 96 36 35 37 36 38 37 39 90 40 38 41 95 42
REMARK SMILES IDX 89 43 91 44 39 45 94 46 88 47 87 48 40 50 74 51 53 52 73 53
REMARK SMILES IDX 54 54 57 55 72 56 92 57 55 58 56 59 71 61 93 62 58 63 41 64
REMARK SMILES IDX 42 65 51 66 43 67 44 68 50 69 52 70 45 71 46 72 47 73 48 74
REMARK SMILES IDX 49 75 75 76 76 77 85 78 77 79 78 80 84 81 86 82 79 83 80 84
REMARK SMILES IDX 81 85 82 86 83 87 59 88 60 89 69 90 61 91 62 92 68 93 70 94
REMARK SMILES IDX 63 95 64 96 65 97 66 98 67 99
REMARK H PARENT 91 49 57 60
REMARK Flexibility Score: inf
ROOT
ATOM      1  C   UNL A   1      32.543  36.260  30.931  1.00  0.00     0.283 C 
ENDROOT
BRANCH   1   2
ATOM      2  O   UNL A   1      32.839  34.908  30.640  1.00  0.00    -0.366 OA
BRANCH   2   3
ATOM      3  C   UNL A   1      33.243  34.591  29.311  1.00  0.00     0.188 C 
BRANCH   3   4
ATOM      4  C   UNL A   1      34.419  33.657  29.247  1.00  0.00    -0.003 C 
ATOM      5  C   UNL A   1      34.783  32.968  28.151  1.00  0.00    -0.029 C 
BRANCH   5   6
ATOM      6  C   UNL A   1      35.927  31.993  28.075  1.00  0.00     0.031 C 
BRANCH   6   7
ATOM      7  C   UNL A   1      35.611  30.618  28.688  1.00  0.00     0.031 C 
BRANCH   7   8
ATOM      8  C   UNL A   1      34.395  29.934  28.122  1.00  0.00    -0.031 C 
ATOM      9  C   UNL A   1      34.403  29.105  27.065  1.00  0.00    -0.027 C 
BRANCH   9  10
ATOM     10  C   UNL A   1      33.186  28.387  26.546  1.00  0.00     0.054 C 
BRANCH  10  11
ATOM     11  C   UNL A   1      33.568  27.117  25.838  1.00  0.00    -0.027 C 
ATOM     12  C   UNL A   1      33.649  26.992  24.502  1.00  0.00    -0.027 C 
BRANCH  12  13
ATOM     13  C   UNL A   1      34.013  25.719  23.793  1.00  0.00     0.054 C 
BRANCH  13  14
ATOM     14  C   UNL A   1      33.065  24.613  24.168  1.00  0.00    -0.027 C 
ATOM     15  C   UNL A   1      33.436  23.343  24.399  1.00  0.00    -0.027 C 
BRANCH  15  16
ATOM     16  C   UNL A   1      32.483  22.237  24.752  1.00  0.00     0.054 C 
BRANCH  16  17
ATOM     17  C   UNL A   1      33.137  20.895  24.590  1.00  0.00    -0.027 C 
ATOM     18  C   UNL A   1      32.496  19.788  24.180  1.00  0.00    -0.031 C 
BRANCH  18  19
ATOM     19  C   UNL A   1      33.154  18.446  24.035  1.00  0.00     0.023 C 
ATOM     20  C   UNL A   1      32.936  17.873  22.643  1.00  0.00     0.008 C 
ENDBRANCH  18  19
ENDBRANCH  16  17
ENDBRANCH  15  16
ENDBRANCH  13  14
ENDBRANCH  12  13
ENDBRANCH  10  11
ENDBRANCH   9  10
ENDBRANCH   7   8
ENDBRANCH   6   7
ENDBRANCH   5   6
ENDBRANCH   3   4
ENDBRANCH   2   3
ENDBRANCH   1   2
BRANCH   1  21
ATOM     21  C   UNL A   1      33.345  37.138  31.899  1.00  0.00     0.332 C 
ATOM     22  O   UNL A   1      32.956  38.243  32.261  1.00  0.00    -0.250 OA
BRANCH  21  23
ATOM     23  O   UNL A   1      34.472  36.523  32.349  1.00  0.00    -0.462 OA
BRANCH  23  24
ATOM     24  C   UNL A   1      34.346  35.824  33.605  1.00  0.00     0.261 C 
BRANCH  24  25
ATOM     25  C   UNL A   1      34.975  34.430  33.564  1.00  0.00     0.202 C 
BRANCH  25  26
ATOM     26  O   UNL A   1      35.695  34.016  34.724  1.00  0.00    -0.374 OA
BRANCH  26  27
ATOM     27  C   UNL A   1      37.053  33.644  34.525  1.00  0.00     0.202 C 
BRANCH  27  28
ATOM     28  C   UNL A   1      37.346  32.155  34.310  1.00  0.00     0.261 C 
BRANCH  28  29
ATOM     29  O   UNL A   1      37.958  31.906  33.036  1.00  0.00    -0.460 OA
BRANCH  29  30
ATOM     30  C   UNL A   1      37.479  30.807  32.403  1.00  0.00     0.338 C 
ATOM     31  O   UNL A   1      36.332  30.400  32.399  1.00  0.00    -0.246 OA
BRANCH  30  32
ATOM     32  C   UNL A   1      38.521  30.260  31.516  1.00  0.00     0.060 A 
ATOM     33  C   UNL A   1      39.528  29.496  32.119  1.00  0.00     0.016 A 
ATOM     34  C   UNL A   1      38.542  30.518  30.145  1.00  0.00     0.016 A 
ATOM     35  C   UNL A   1      40.602  29.040  31.364  1.00  0.00     0.010 A 
ATOM     36  C   UNL A   1      39.625  30.066  29.388  1.00  0.00     0.010 A 
ATOM     37  C   UNL A   1      40.678  29.364  30.004  1.00  0.00    -0.014 A 
BRANCH  37  38
ATOM     38  C   UNL A   1      41.943  29.131  29.270  1.00  0.00     0.031 A 
ATOM     39  C   UNL A   1      42.196  27.763  28.700  1.00  0.00     0.074 A 
ATOM     40  C   UNL A   1      42.831  30.124  29.094  1.00  0.00     0.049 A 
ATOM     41  N   UNL A   1      43.260  27.298  28.102  1.00  0.00    -0.248 NA
ATOM     42  C   UNL A   1      41.100  26.787  28.827  1.00  0.00     0.031 C 
ATOM     43  C   UNL A   1      42.660  31.502  29.552  1.00  0.00     0.029 A 
ATOM     44  N   UNL A   1      44.065  30.118  28.493  1.00  0.00    -0.354 N 
ATOM     45  C   UNL A   1      42.970  25.973  27.797  1.00  0.00     0.074 A 
ATOM     46  C   UNL A   1      41.641  25.700  28.298  1.00  0.00     0.031 C 
ATOM     47  C   UNL A   1      43.759  32.207  29.230  1.00  0.00     0.029 A 
ATOM     48  C   UNL A   1      44.725  31.320  28.586  1.00  0.00     0.049 A 
ATOM     49  H   UNL A   1      44.438  29.330  28.037  1.00  0.00     0.167 HD
ATOM     50  C   UNL A   1      43.745  25.069  27.153  1.00  0.00     0.037 A 
ATOM     51  C   UNL A   1      45.981  31.650  28.224  1.00  0.00     0.037 A 
ATOM     52  C   UNL A   1      45.064  25.359  26.655  1.00  0.00     0.049 A 
ATOM     53  C   UNL A   1      46.856  30.606  27.580  1.00  0.00     0.074 A 
ATOM     54  C   UNL A   1      45.929  24.521  25.976  1.00  0.00     0.029 A 
ATOM     55  N   UNL A   1      45.711  26.579  26.791  1.00  0.00    -0.354 N 
ATOM     56  N   UNL A   1      46.572  29.357  27.289  1.00  0.00    -0.248 NA
ATOM     57  C   UNL A   1      48.222  31.010  27.217  1.00  0.00     0.031 C 
ATOM     58  C   UNL A   1      47.122  25.217  25.752  1.00  0.00     0.029 A 
ATOM     59  C   UNL A   1      46.975  26.508  26.233  1.00  0.00     0.049 A 
ATOM     60  H   UNL A   1      45.326  27.378  27.220  1.00  0.00     0.167 HD
ATOM     61  C   UNL A   1      47.710  28.839  26.678  1.00  0.00     0.074 A 
ATOM     62  C   UNL A   1      48.685  29.909  26.639  1.00  0.00     0.031 C 
ATOM     63  C   UNL A   1      47.926  27.593  26.187  1.00  0.00     0.037 A 
BRANCH  50  64
ATOM     64  C   UNL A   1      43.203  23.677  26.981  1.00  0.00     0.058 A 
ATOM     65  C   UNL A   1      42.945  23.129  25.713  1.00  0.00     0.135 A 
ATOM     66  C   UNL A   1      42.971  22.863  28.103  1.00  0.00     0.135 A 
ATOM     67  F   UNL A   1      43.129  23.867  24.607  1.00  0.00    -0.206 F 
ATOM     68  C   UNL A   1      42.453  21.836  25.566  1.00  0.00     0.059 A 
ATOM     69  C   UNL A   1      42.507  21.558  27.978  1.00  0.00     0.059 A 
ATOM     70  F   UNL A   1      43.196  23.336  29.338  1.00  0.00    -0.206 F 
ATOM     71  C   UNL A   1      42.239  21.057  26.705  1.00  0.00     0.060 A 
BRANCH  71  72
ATOM     72  S   UNL A   1      41.607  19.379  26.496  1.00  0.00     0.124 S 
ATOM     73  O   UNL A   1      42.521  18.847  25.489  1.00  0.00    -0.237 OA
ATOM     74  O   UNL A   1      41.751  18.824  27.839  1.00  0.00    -0.237 OA
ATOM     75  O   UNL A   1      40.234  19.585  26.049  1.00  0.00    -0.744 OA
ENDBRANCH  71  72
ENDBRANCH  50  64
BRANCH  51  76
ATOM     76  C   UNL A   1      46.491  33.023  28.485  1.00  0.00     0.058 A 
ATOM     77  C   UNL A   1      47.234  33.315  29.639  1.00  0.00     0.135 A 
ATOM     78  C   UNL A   1      46.252  34.070  27.581  1.00  0.00     0.135 A 
ATOM     79  F   UNL A   1      47.480  32.351  30.538  1.00  0.00    -0.206 F 
ATOM     80  C   UNL A   1      47.710  34.596  29.894  1.00  0.00     0.059 A 
ATOM     81  C   UNL A   1      46.742  35.354  27.800  1.00  0.00     0.059 A 
ATOM     82  F   UNL A   1      45.557  33.843  26.455  1.00  0.00    -0.206 F 
ATOM     83  C   UNL A   1      47.462  35.609  28.965  1.00  0.00     0.060 A 
BRANCH  83  84
ATOM     84  S   UNL A   1      48.126  37.258  29.286  1.00  0.00     0.124 S 
ATOM     85  O   UNL A   1      48.455  37.173  30.703  1.00  0.00    -0.237 OA
ATOM     86  O   UNL A   1      49.260  37.313  28.368  1.00  0.00    -0.237 OA
ATOM     87  O   UNL A   1      47.012  38.140  28.947  1.00  0.00    -0.744 OA
ENDBRANCH  83  84
ENDBRANCH  51  76
BRANCH  63  88
ATOM     88  C   UNL A   1      49.245  27.321  25.517  1.00  0.00     0.058 A 
ATOM     89  C   UNL A   1      49.407  27.421  24.128  1.00  0.00     0.135 A 
ATOM     90  C   UNL A   1      50.384  27.047  26.293  1.00  0.00     0.135 A 
ATOM     91  F   UNL A   1      48.349  27.674  23.340  1.00  0.00    -0.206 F 
ATOM     92  C   UNL A   1      50.651  27.251  23.528  1.00  0.00     0.059 A 
ATOM     93  C   UNL A   1      51.642  26.902  25.718  1.00  0.00     0.059 A 
ATOM     94  F   UNL A   1      50.286  26.949  27.628  1.00  0.00    -0.206 F 
ATOM     95  C   UNL A   1      51.765  27.002  24.333  1.00  0.00     0.060 A 
BRANCH  95  96
ATOM     96  S   UNL A   1      53.383  26.852  23.548  1.00  0.00     0.124 S 
ATOM     97  O   UNL A   1      53.444  28.078  22.759  1.00  0.00    -0.237 OA
ATOM     98  O   UNL A   1      54.281  26.792  24.696  1.00  0.00    -0.237 OA
ATOM     99  O   UNL A   1      53.276  25.616  22.778  1.00  0.00    -0.744 OA
ENDBRANCH  95  96
ENDBRANCH  63  88
ENDBRANCH  37  38
ENDBRANCH  30  32
ENDBRANCH  29  30
ENDBRANCH  28  29
ENDBRANCH  27  28
ENDBRANCH  26  27
ENDBRANCH  25  26
ENDBRANCH  24  25
ENDBRANCH  23  24
ENDBRANCH  21  23
ENDBRANCH   1  21
TORSDOF 30
ENDMDL
MODEL 3
REMARK VINA RESULT:      -7.4      6.568     11.113
REMARK SMILES CC/C=C/C/C=C/C/C=C/C/C=C/CC/C=C/COCC(=O)OCCOCCOC(=O)c1ccc(-c2c3nc(c(-c4c(F)cc(S(=O)(=O)[O-])cc4F)c4ccc([nH]4)c(-c4c(F)cc(S(=O)(=O)[O-])cc4F)c4nc(c(-c5c(F)cc(S(=O)(=O)[O-])cc5F)c5ccc2[nH]5)C=C4)C=C3)cc1
REMARK SMILES IDX 20 1 19 2 18 3 17 4 16 5 15 6 14 7 13 8 12 9 11 10 10 11
REMARK SMILES IDX 9 12 8 13 7 14 6 15 5 16 4 17 3 18 2 19 1 20 21 21 22 22
REMARK SMILES IDX 23 23 24 24 25 25 26 26 27 27 28 28 29 29 30 30 31 31 32 32
REMARK SMILES IDX 33 33 97 34 34 35 96 36 35 37 36 38 37 39 90 40 38 41 95 42
REMARK SMILES IDX 89 43 91 44 39 45 94 46 88 47 87 48 40 50 74 51 53 52 73 53
REMARK SMILES IDX 54 54 57 55 72 56 92 57 55 58 56 59 71 61 93 62 58 63 41 64
REMARK SMILES IDX 42 65 51 66 43 67 44 68 50 69 52 70 45 71 46 72 47 73 48 74
REMARK SMILES IDX 49 75 75 76 76 77 85 78 77 79 78 80 84 81 86 82 79 83 80 84
REMARK SMILES IDX 81 85 82 86 83 87 59 88 60 89 69 90 61 91 62 92 68 93 70 94
REMARK SMILES IDX 63 95 64 96 65 97 66 98 67 99
REMARK H PARENT 91 49 57 60
REMARK Flexibility Score: inf
ROOT
ATOM      1  C   UNL A   1      31.736  29.420  24.985  1.00  0.00     0.283 C 
ENDROOT
BRANCH   1   2
ATOM      2  O   UNL A   1      30.530  29.368  24.249  1.00  0.00    -0.366 OA
BRANCH   2   3
ATOM      3  C   UNL A   1      30.593  28.881  22.911  1.00  0.00     0.188 C 
BRANCH   3   4
ATOM      4  C   UNL A   1      30.564  27.381  22.814  1.00  0.00    -0.003 C 
ATOM      5  C   UNL A   1      31.650  26.611  22.629  1.00  0.00    -0.029 C 
BRANCH   5   6
ATOM      6  C   UNL A   1      31.641  25.113  22.482  1.00  0.00     0.031 C 
BRANCH   6   7
ATOM      7  C   UNL A   1      30.513  24.420  23.264  1.00  0.00     0.031 C 
BRANCH   7   8
ATOM      8  C   UNL A   1      30.965  23.629  24.463  1.00  0.00    -0.031 C 
ATOM      9  C   UNL A   1      31.228  24.151  25.673  1.00  0.00    -0.027 C 
BRANCH   9  10
ATOM     10  C   UNL A   1      31.625  23.336  26.875  1.00  0.00     0.054 C 
BRANCH  10  11
ATOM     11  C   UNL A   1      33.068  22.924  26.795  1.00  0.00    -0.027 C 
ATOM     12  C   UNL A   1      34.033  23.657  26.213  1.00  0.00    -0.027 C 
BRANCH  12  13
ATOM     13  C   UNL A   1      35.472  23.237  26.116  1.00  0.00     0.054 C 
BRANCH  13  14
ATOM     14  C   UNL A   1      35.583  21.740  26.027  1.00  0.00    -0.027 C 
ATOM     15  C   UNL A   1      36.071  21.077  24.965  1.00  0.00    -0.027 C 
BRANCH  15  16
ATOM     16  C   UNL A   1      36.159  19.581  24.873  1.00  0.00     0.054 C 
BRANCH  16  17
ATOM     17  C   UNL A   1      34.800  18.977  24.659  1.00  0.00    -0.027 C 
ATOM     18  C   UNL A   1      34.591  17.703  24.290  1.00  0.00    -0.031 C 
BRANCH  18  19
ATOM     19  C   UNL A   1      33.230  17.111  24.064  1.00  0.00     0.023 C 
ATOM     20  C   UNL A   1      32.841  16.172  25.195  1.00  0.00     0.008 C 
ENDBRANCH  18  19
ENDBRANCH  16  17
ENDBRANCH  15  16
ENDBRANCH  13  14
ENDBRANCH  12  13
ENDBRANCH  10  11
ENDBRANCH   9  10
ENDBRANCH   7   8
ENDBRANCH   6   7
ENDBRANCH   5   6
ENDBRANCH   3   4
ENDBRANCH   2   3
ENDBRANCH   1   2
BRANCH   1  21
ATOM     21  C   UNL A   1      31.829  29.312  26.511  1.00  0.00     0.332 C 
ATOM     22  O   UNL A   1      31.608  28.266  27.112  1.00  0.00    -0.250 OA
BRANCH  21  23
ATOM     23  O   UNL A   1      32.248  30.470  27.091  1.00  0.00    -0.462 OA
BRANCH  23  24
ATOM     24  C   UNL A   1      33.675  30.686  27.099  1.00  0.00     0.261 C 
BRANCH  24  25
ATOM     25  C   UNL A   1      34.128  31.561  28.270  1.00  0.00     0.202 C 
BRANCH  25  26
ATOM     26  O   UNL A   1      34.340  32.944  27.993  1.00  0.00    -0.374 OA
BRANCH  26  27
ATOM     27  C   UNL A   1      33.174  33.735  27.799  1.00  0.00     0.202 C 
BRANCH  27  28
ATOM     28  C   UNL A   1      33.068  35.036  28.603  1.00  0.00     0.261 C 
BRANCH  28  29
ATOM     29  O   UNL A   1      32.514  34.817  29.908  1.00  0.00    -0.460 OA
BRANCH  29  30
ATOM     30  C   UNL A   1      33.223  35.395  30.909  1.00  0.00     0.338 C 
ATOM     31  O   UNL A   1      32.878  36.328  31.612  1.00  0.00    -0.246 OA
BRANCH  30  32
ATOM     32  C   UNL A   1      34.425  34.590  31.187  1.00  0.00     0.060 A 
ATOM     33  C   UNL A   1      34.290  33.553  32.119  1.00  0.00     0.016 A 
ATOM     34  C   UNL A   1      35.657  34.864  30.593  1.00  0.00     0.016 A 
ATOM     35  C   UNL A   1      35.405  32.822  32.512  1.00  0.00     0.010 A 
ATOM     36  C   UNL A   1      36.779  34.134  30.995  1.00  0.00     0.010 A 
ATOM     37  C   UNL A   1      36.662  33.143  31.987  1.00  0.00    -0.014 A 
BRANCH  37  38
ATOM     38  C   UNL A   1      37.878  32.569  32.607  1.00  0.00     0.031 A 
ATOM     39  C   UNL A   1      38.588  31.455  31.891  1.00  0.00     0.074 A 
ATOM     40  C   UNL A   1      38.351  33.050  33.770  1.00  0.00     0.049 A 
ATOM     41  N   UNL A   1      39.611  30.740  32.277  1.00  0.00    -0.248 NA
ATOM     42  C   UNL A   1      38.071  31.096  30.559  1.00  0.00     0.031 C 
ATOM     43  C   UNL A   1      37.777  34.167  34.519  1.00  0.00     0.029 A 
ATOM     44  N   UNL A   1      39.420  32.647  34.531  1.00  0.00    -0.354 N 
ATOM     45  C   UNL A   1      39.849  29.837  31.247  1.00  0.00     0.074 A 
ATOM     46  C   UNL A   1      38.849  30.076  30.230  1.00  0.00     0.031 C 
ATOM     47  C   UNL A   1      38.489  34.348  35.645  1.00  0.00     0.029 A 
ATOM     48  C   UNL A   1      39.539  33.334  35.715  1.00  0.00     0.049 A 
ATOM     49  H   UNL A   1      40.040  31.936  34.254  1.00  0.00     0.167 HD
ATOM     50  C   UNL A   1      40.818  28.897  31.159  1.00  0.00     0.037 A 
ATOM     51  C   UNL A   1      40.379  33.138  36.752  1.00  0.00     0.037 A 
ATOM     52  C   UNL A   1      41.810  28.675  32.178  1.00  0.00     0.049 A 
ATOM     53  C   UNL A   1      41.400  32.032  36.668  1.00  0.00     0.074 A 
ATOM     54  C   UNL A   1      42.845  27.758  32.185  1.00  0.00     0.029 A 
ATOM     55  N   UNL A   1      41.884  29.372  33.375  1.00  0.00    -0.354 N 
ATOM     56  N   UNL A   1      41.622  31.189  35.687  1.00  0.00    -0.248 NA
ATOM     57  C   UNL A   1      42.283  31.849  37.828  1.00  0.00     0.031 C 
ATOM     58  C   UNL A   1      43.510  27.862  33.411  1.00  0.00     0.029 A 
ATOM     59  C   UNL A   1      42.930  28.888  34.141  1.00  0.00     0.049 A 
ATOM     60  H   UNL A   1      41.281  30.104  33.641  1.00  0.00     0.167 HD
ATOM     61  C   UNL A   1      42.692  30.398  36.098  1.00  0.00     0.074 A 
ATOM     62  C   UNL A   1      43.073  30.867  37.415  1.00  0.00     0.031 C 
ATOM     63  C   UNL A   1      43.307  29.382  35.443  1.00  0.00     0.037 A 
BRANCH  50  64
ATOM     64  C   UNL A   1      40.832  28.015  29.940  1.00  0.00     0.058 A 
ATOM     65  C   UNL A   1      41.785  28.171  28.920  1.00  0.00     0.135 A 
ATOM     66  C   UNL A   1      39.898  26.974  29.808  1.00  0.00     0.135 A 
ATOM     67  F   UNL A   1      42.689  29.162  28.983  1.00  0.00    -0.206 F 
ATOM     68  C   UNL A   1      41.794  27.344  27.801  1.00  0.00     0.059 A 
ATOM     69  C   UNL A   1      39.908  26.116  28.713  1.00  0.00     0.059 A 
ATOM     70  F   UNL A   1      38.963  26.782  30.751  1.00  0.00    -0.206 F 
ATOM     71  C   UNL A   1      40.852  26.317  27.708  1.00  0.00     0.060 A 
BRANCH  71  72
ATOM     72  S   UNL A   1      40.883  25.248  26.254  1.00  0.00     0.124 S 
ATOM     73  O   UNL A   1      39.496  24.795  26.196  1.00  0.00    -0.237 OA
ATOM     74  O   UNL A   1      41.293  26.170  25.199  1.00  0.00    -0.237 OA
ATOM     75  O   UNL A   1      41.862  24.224  26.605  1.00  0.00    -0.744 OA
ENDBRANCH  71  72
ENDBRANCH  50  64
BRANCH  51  76
ATOM     76  C   UNL A   1      40.272  33.992  37.964  1.00  0.00     0.058 A 
ATOM     77  C   UNL A   1      39.376  33.680  38.997  1.00  0.00     0.135 A 
ATOM     78  C   UNL A   1      41.071  35.137  38.119  1.00  0.00     0.135 A 
ATOM     79  F   UNL A   1      38.584  32.602  38.892  1.00  0.00    -0.206 F 
ATOM     80  C   UNL A   1      39.265  34.476  40.132  1.00  0.00     0.059 A 
ATOM     81  C   UNL A   1      40.998  35.933  39.258  1.00  0.00     0.059 A 
ATOM     82  F   UNL A   1      41.954  35.476  37.166  1.00  0.00    -0.206 F 
ATOM     83  C   UNL A   1      40.085  35.599  40.255  1.00  0.00     0.060 A 
BRANCH  83  84
ATOM     84  S   UNL A   1      39.964  36.598  41.755  1.00  0.00     0.124 S 
ATOM     85  O   UNL A   1      39.125  37.701  41.307  1.00  0.00    -0.237 OA
ATOM     86  O   UNL A   1      39.348  35.664  42.693  1.00  0.00    -0.237 OA
ATOM     87  O   UNL A   1      41.355  36.938  42.044  1.00  0.00    -0.744 OA
ENDBRANCH  83  84
ENDBRANCH  51  76
BRANCH  63  88
ATOM     88  C   UNL A   1      44.490  28.733  36.107  1.00  0.00     0.058 A 
ATOM     89  C   UNL A   1      44.366  27.557  36.862  1.00  0.00     0.135 A 
ATOM     90  C   UNL A   1      45.782  29.248  35.903  1.00  0.00     0.135 A 
ATOM     91  F   UNL A   1      43.154  27.028  37.094  1.00  0.00    -0.206 F 
ATOM     92  C   UNL A   1      45.479  26.919  37.400  1.00  0.00     0.059 A 
ATOM     93  C   UNL A   1      46.910  28.610  36.405  1.00  0.00     0.059 A 
ATOM     94  F   UNL A   1      45.958  30.366  35.180  1.00  0.00    -0.206 F 
ATOM     95  C   UNL A   1      46.748  27.447  37.156  1.00  0.00     0.060 A 
BRANCH  95  96
ATOM     96  S   UNL A   1      48.188  26.570  37.802  1.00  0.00     0.124 S 
ATOM     97  O   UNL A   1      47.731  26.194  39.136  1.00  0.00    -0.237 OA
ATOM     98  O   UNL A   1      48.337  25.474  36.850  1.00  0.00    -0.237 OA
ATOM     99  O   UNL A   1      49.246  27.575  37.762  1.00  0.00    -0.744 OA
ENDBRANCH  95  96
ENDBRANCH  63  88
ENDBRANCH  37  38
ENDBRANCH  30  32
ENDBRANCH  29  30
ENDBRANCH  28  29
ENDBRANCH  27  28
ENDBRANCH  26  27
ENDBRANCH  25  26
ENDBRANCH  24  25
ENDBRANCH  23  24
ENDBRANCH  21  23
ENDBRANCH   1  21
TORSDOF 30
ENDMDL
