MODEL 1
REMARK VINA RESULT:     -11.8      0.000      0.000
REMARK SMILES CCn1c(N2CCC(C(=O)OCCOCCOC(=O)c3ccc(-c4c5nc(c(-c6c(F)cc(S(=O)(=O)[O-])cc6F)c6ccc([nH]6)c(-c6c(F)cc(S(=O)(=O)[O-])cc6F)c6nc(c(-c7c(F)cc(S(=O)(=O)[O-])cc7F)c7ccc4[nH]7)C=C6)C=C5)cc3)CC2)nc2cc(C)ccc21
REMARK SMILES IDX 15 1 14 2 13 3 12 4 11 5 9 6 10 7 8 8 5 9 6 10 87 11 7 12
REMARK SMILES IDX 86 13 4 14 3 15 95 16 88 17 89 18 94 19 90 20 93 21 91 22
REMARK SMILES IDX 92 23 2 24 1 25 16 26 17 27 18 28 19 29 20 30 21 31 85 32
REMARK SMILES IDX 22 33 84 34 23 35 24 36 25 37 78 38 26 39 83 40 77 41 79 42
REMARK SMILES IDX 27 43 82 44 76 45 75 46 28 48 62 49 41 50 61 51 42 52 45 53
REMARK SMILES IDX 60 54 80 55 43 56 44 57 59 59 81 60 46 61 29 62 30 63 39 64
REMARK SMILES IDX 31 65 32 66 38 67 40 68 33 69 34 70 35 71 36 72 37 73 63 74
REMARK SMILES IDX 64 75 73 76 65 77 66 78 72 79 74 80 67 81 68 82 69 83 70 84
REMARK SMILES IDX 71 85 47 86 48 87 57 88 49 89 50 90 56 91 58 92 51 93 52 94
REMARK SMILES IDX 53 95 54 96 55 97
REMARK H PARENT 79 47 45 58
REMARK Flexibility Score: inf
ROOT
ATOM      1  C   UNL A   1      41.722  19.319  26.124  1.00  0.00     0.202 C 
ENDROOT
BRANCH   1   2
ATOM      2  O   UNL A   1      41.333  19.934  27.353  1.00  0.00    -0.374 OA
BRANCH   2   3
ATOM      3  C   UNL A   1      40.768  21.239  27.305  1.00  0.00     0.202 C 
BRANCH   3   4
ATOM      4  C   UNL A   1      40.016  21.710  26.053  1.00  0.00     0.261 C 
BRANCH   4   5
ATOM      5  O   UNL A   1      38.591  21.677  26.178  1.00  0.00    -0.463 OA
BRANCH   5   6
ATOM      6  C   UNL A   1      37.990  20.829  25.308  1.00  0.00     0.309 C 
ATOM      7  O   UNL A   1      38.429  19.738  24.959  1.00  0.00    -0.252 OA
BRANCH   6   8
ATOM      8  C   UNL A   1      36.686  21.356  24.773  1.00  0.00     0.103 C 
ATOM      9  N   UNL A   1      34.476  23.069  24.236  1.00  0.00    -0.342 N 
ATOM     10  C   UNL A   1      34.243  21.829  24.971  1.00  0.00     0.120 C 
ATOM     11  C   UNL A   1      35.682  23.168  23.418  1.00  0.00     0.120 C 
ATOM     12  C   UNL A   1      35.491  21.383  25.728  1.00  0.00     0.037 C 
ATOM     13  C   UNL A   1      36.911  22.750  24.207  1.00  0.00     0.037 C 
BRANCH   9  14
ATOM     14  C   UNL A   1      33.812  24.186  24.621  1.00  0.00     0.206 A 
ATOM     15  N   UNL A   1      32.836  24.771  23.837  1.00  0.00    -0.310 N 
ATOM     16  C   UNL A   1      32.330  25.853  24.524  1.00  0.00     0.070 A 
ATOM     17  N   UNL A   1      33.911  24.802  25.778  1.00  0.00    -0.213 NA
ATOM     18  C   UNL A   1      33.046  25.864  25.714  1.00  0.00     0.091 A 
ATOM     19  C   UNL A   1      31.338  26.793  24.226  1.00  0.00     0.029 A 
ATOM     20  C   UNL A   1      32.803  26.882  26.651  1.00  0.00     0.034 A 
ATOM     21  C   UNL A   1      31.107  27.798  25.171  1.00  0.00     0.006 A 
ATOM     22  C   UNL A   1      31.831  27.859  26.370  1.00  0.00    -0.049 A 
ATOM     23  C   UNL A   1      31.590  28.970  27.350  1.00  0.00     0.044 C 
BRANCH  15  24
ATOM     24  C   UNL A   1      32.299  24.269  22.587  1.00  0.00     0.122 C 
ATOM     25  C   UNL A   1      32.950  24.887  21.359  1.00  0.00     0.028 C 
ENDBRANCH  15  24
ENDBRANCH   9  14
ENDBRANCH   6   8
ENDBRANCH   5   6
ENDBRANCH   4   5
ENDBRANCH   3   4
ENDBRANCH   2   3
ENDBRANCH   1   2
BRANCH   1  26
ATOM     26  C   UNL A   1      43.214  19.232  25.749  1.00  0.00     0.261 C 
BRANCH  26  27
ATOM     27  O   UNL A   1      43.572  20.177  24.732  1.00  0.00    -0.460 OA
BRANCH  27  28
ATOM     28  C   UNL A   1      44.824  20.696  24.850  1.00  0.00     0.338 C 
ATOM     29  O   UNL A   1      45.845  20.295  24.312  1.00  0.00    -0.246 OA
BRANCH  28  30
ATOM     30  C   UNL A   1      44.634  22.054  25.393  1.00  0.00     0.060 A 
ATOM     31  C   UNL A   1      45.287  22.456  26.559  1.00  0.00     0.016 A 
ATOM     32  C   UNL A   1      43.546  22.782  24.881  1.00  0.00     0.016 A 
ATOM     33  C   UNL A   1      44.798  23.560  27.248  1.00  0.00     0.010 A 
ATOM     34  C   UNL A   1      43.027  23.852  25.606  1.00  0.00     0.010 A 
ATOM     35  C   UNL A   1      43.639  24.229  26.803  1.00  0.00    -0.014 A 
BRANCH  35  36
ATOM     36  C   UNL A   1      43.302  25.504  27.444  1.00  0.00     0.031 A 
ATOM     37  C   UNL A   1      44.353  26.521  27.170  1.00  0.00     0.074 A 
ATOM     38  C   UNL A   1      42.162  25.859  28.078  1.00  0.00     0.049 A 
ATOM     39  N   UNL A   1      45.190  27.040  28.006  1.00  0.00    -0.248 NA
ATOM     40  C   UNL A   1      44.631  26.845  25.759  1.00  0.00     0.031 C 
ATOM     41  C   UNL A   1      40.914  25.105  28.193  1.00  0.00     0.029 A 
ATOM     42  N   UNL A   1      41.854  27.046  28.691  1.00  0.00    -0.354 N 
ATOM     43  C   UNL A   1      45.951  27.931  27.258  1.00  0.00     0.074 A 
ATOM     44  C   UNL A   1      45.708  27.619  25.875  1.00  0.00     0.031 C 
ATOM     45  C   UNL A   1      39.932  25.926  28.640  1.00  0.00     0.029 A 
ATOM     46  C   UNL A   1      40.497  27.227  28.962  1.00  0.00     0.049 A 
ATOM     47  H   UNL A   1      42.536  27.717  28.924  1.00  0.00     0.167 HD
ATOM     48  C   UNL A   1      46.508  29.032  27.828  1.00  0.00     0.037 A 
ATOM     49  C   UNL A   1      39.885  28.375  29.373  1.00  0.00     0.037 A 
ATOM     50  C   UNL A   1      46.594  28.899  29.258  1.00  0.00     0.049 A 
ATOM     51  C   UNL A   1      40.932  29.233  29.982  1.00  0.00     0.074 A 
ATOM     52  C   UNL A   1      47.185  27.998  30.122  1.00  0.00     0.029 A 
ATOM     53  N   UNL A   1      45.697  29.613  30.011  1.00  0.00    -0.354 N 
ATOM     54  N   UNL A   1      41.549  28.966  31.099  1.00  0.00    -0.248 NA
ATOM     55  C   UNL A   1      41.571  30.230  29.136  1.00  0.00     0.031 C 
ATOM     56  C   UNL A   1      46.294  27.904  31.229  1.00  0.00     0.029 A 
ATOM     57  C   UNL A   1      45.239  28.791  31.005  1.00  0.00     0.049 A 
ATOM     58  H   UNL A   1      45.429  30.549  29.864  1.00  0.00     0.167 HD
ATOM     59  C   UNL A   1      42.842  29.420  30.899  1.00  0.00     0.074 A 
ATOM     60  C   UNL A   1      42.768  30.279  29.722  1.00  0.00     0.031 C 
ATOM     61  C   UNL A   1      43.896  28.841  31.540  1.00  0.00     0.037 A 
BRANCH  48  62
ATOM     62  C   UNL A   1      46.580  30.372  27.134  1.00  0.00     0.058 A 
ATOM     63  C   UNL A   1      47.802  31.077  27.131  1.00  0.00     0.135 A 
ATOM     64  C   UNL A   1      45.446  31.119  26.741  1.00  0.00     0.135 A 
ATOM     65  F   UNL A   1      48.940  30.472  27.505  1.00  0.00    -0.206 F 
ATOM     66  C   UNL A   1      47.875  32.438  26.836  1.00  0.00     0.059 A 
ATOM     67  C   UNL A   1      45.508  32.459  26.384  1.00  0.00     0.059 A 
ATOM     68  F   UNL A   1      44.204  30.621  26.781  1.00  0.00    -0.206 F 
ATOM     69  C   UNL A   1      46.718  33.121  26.475  1.00  0.00     0.060 A 
BRANCH  69  70
ATOM     70  S   UNL A   1      46.791  34.895  26.187  1.00  0.00     0.124 S 
ATOM     71  O   UNL A   1      47.930  34.994  25.282  1.00  0.00    -0.237 OA
ATOM     72  O   UNL A   1      45.481  35.158  25.601  1.00  0.00    -0.237 OA
ATOM     73  O   UNL A   1      46.995  35.443  27.525  1.00  0.00    -0.744 OA
ENDBRANCH  69  70
ENDBRANCH  48  62
BRANCH  49  74
ATOM     74  C   UNL A   1      38.541  28.934  29.028  1.00  0.00     0.058 A 
ATOM     75  C   UNL A   1      37.582  29.203  30.029  1.00  0.00     0.135 A 
ATOM     76  C   UNL A   1      38.284  29.510  27.769  1.00  0.00     0.135 A 
ATOM     77  F   UNL A   1      37.736  28.706  31.266  1.00  0.00    -0.206 F 
ATOM     78  C   UNL A   1      36.484  30.048  29.817  1.00  0.00     0.059 A 
ATOM     79  C   UNL A   1      37.190  30.348  27.532  1.00  0.00     0.059 A 
ATOM     80  F   UNL A   1      39.141  29.354  26.751  1.00  0.00    -0.206 F 
ATOM     81  C   UNL A   1      36.313  30.641  28.568  1.00  0.00     0.060 A 
BRANCH  81  82
ATOM     82  S   UNL A   1      35.016  31.885  28.341  1.00  0.00     0.124 S 
ATOM     83  O   UNL A   1      34.054  31.173  27.506  1.00  0.00    -0.237 OA
ATOM     84  O   UNL A   1      34.596  32.147  29.714  1.00  0.00    -0.237 OA
ATOM     85  O   UNL A   1      35.714  32.986  27.685  1.00  0.00    -0.744 OA
ENDBRANCH  81  82
ENDBRANCH  49  74
BRANCH  61  86
ATOM     86  C   UNL A   1      43.639  27.996  32.756  1.00  0.00     0.058 A 
ATOM     87  C   UNL A   1      43.615  26.591  32.770  1.00  0.00     0.135 A 
ATOM     88  C   UNL A   1      43.628  28.656  33.996  1.00  0.00     0.135 A 
ATOM     89  F   UNL A   1      43.701  25.886  31.633  1.00  0.00    -0.206 F 
ATOM     90  C   UNL A   1      43.588  25.876  33.971  1.00  0.00     0.059 A 
ATOM     91  C   UNL A   1      43.633  27.964  35.202  1.00  0.00     0.059 A 
ATOM     92  F   UNL A   1      43.690  29.998  34.044  1.00  0.00    -0.206 F 
ATOM     93  C   UNL A   1      43.617  26.572  35.182  1.00  0.00     0.060 A 
BRANCH  93  94
ATOM     94  S   UNL A   1      43.744  25.648  36.729  1.00  0.00     0.124 S 
ATOM     95  O   UNL A   1      44.590  24.523  36.349  1.00  0.00    -0.237 OA
ATOM     96  O   UNL A   1      44.351  26.623  37.630  1.00  0.00    -0.237 OA
ATOM     97  O   UNL A   1      42.357  25.308  37.040  1.00  0.00    -0.744 OA
ENDBRANCH  93  94
ENDBRANCH  61  86
ENDBRANCH  35  36
ENDBRANCH  28  30
ENDBRANCH  27  28
ENDBRANCH  26  27
ENDBRANCH   1  26
TORSDOF 19
ENDMDL
MODEL 2
REMARK VINA RESULT:     -11.4      2.229      3.760
REMARK SMILES CCn1c(N2CCC(C(=O)OCCOCCOC(=O)c3ccc(-c4c5nc(c(-c6c(F)cc(S(=O)(=O)[O-])cc6F)c6ccc([nH]6)c(-c6c(F)cc(S(=O)(=O)[O-])cc6F)c6nc(c(-c7c(F)cc(S(=O)(=O)[O-])cc7F)c7ccc4[nH]7)C=C6)C=C5)cc3)CC2)nc2cc(C)ccc21
REMARK SMILES IDX 15 1 14 2 13 3 12 4 11 5 9 6 10 7 8 8 5 9 6 10 87 11 7 12
REMARK SMILES IDX 86 13 4 14 3 15 95 16 88 17 89 18 94 19 90 20 93 21 91 22
REMARK SMILES IDX 92 23 2 24 1 25 16 26 17 27 18 28 19 29 20 30 21 31 85 32
REMARK SMILES IDX 22 33 84 34 23 35 24 36 25 37 78 38 26 39 83 40 77 41 79 42
REMARK SMILES IDX 27 43 82 44 76 45 75 46 28 48 62 49 41 50 61 51 42 52 45 53
REMARK SMILES IDX 60 54 80 55 43 56 44 57 59 59 81 60 46 61 29 62 30 63 39 64
REMARK SMILES IDX 31 65 32 66 38 67 40 68 33 69 34 70 35 71 36 72 37 73 63 74
REMARK SMILES IDX 64 75 73 76 65 77 66 78 72 79 74 80 67 81 68 82 69 83 70 84
REMARK SMILES IDX 71 85 47 86 48 87 57 88 49 89 50 90 56 91 58 92 51 93 52 94
REMARK SMILES IDX 53 95 54 96 55 97
REMARK H PARENT 79 47 45 58
REMARK Flexibility Score: inf
ROOT
ATOM      1  C   UNL A   1      36.005  21.526  25.776  1.00  0.00     0.202 C 
ENDROOT
BRANCH   1   2
ATOM      2  O   UNL A   1      34.788  21.214  25.097  1.00  0.00    -0.374 OA
BRANCH   2   3
ATOM      3  C   UNL A   1      34.505  19.849  24.810  1.00  0.00     0.202 C 
BRANCH   3   4
ATOM      4  C   UNL A   1      33.073  19.411  24.475  1.00  0.00     0.261 C 
BRANCH   4   5
ATOM      5  O   UNL A   1      32.164  20.494  24.257  1.00  0.00    -0.463 OA
BRANCH   5   6
ATOM      6  C   UNL A   1      32.046  20.848  22.954  1.00  0.00     0.309 C 
ATOM      7  O   UNL A   1      32.138  20.086  21.998  1.00  0.00    -0.252 OA
BRANCH   6   8
ATOM      8  C   UNL A   1      31.789  22.319  22.761  1.00  0.00     0.103 C 
ATOM      9  N   UNL A   1      31.935  25.149  23.031  1.00  0.00    -0.342 N 
ATOM     10  C   UNL A   1      30.690  24.472  23.382  1.00  0.00     0.120 C 
ATOM     11  C   UNL A   1      32.867  24.459  22.143  1.00  0.00     0.120 C 
ATOM     12  C   UNL A   1      30.938  23.030  23.816  1.00  0.00     0.037 C 
ATOM     13  C   UNL A   1      33.121  23.038  22.617  1.00  0.00     0.037 C 
BRANCH   9  14
ATOM     14  C   UNL A   1      32.357  26.175  23.811  1.00  0.00     0.206 A 
ATOM     15  N   UNL A   1      31.906  27.469  23.635  1.00  0.00    -0.310 N 
ATOM     16  C   UNL A   1      32.488  28.257  24.604  1.00  0.00     0.070 A 
ATOM     17  N   UNL A   1      33.142  26.094  24.861  1.00  0.00    -0.213 NA
ATOM     18  C   UNL A   1      33.279  27.375  25.329  1.00  0.00     0.091 A 
ATOM     19  C   UNL A   1      32.394  29.619  24.908  1.00  0.00     0.029 A 
ATOM     20  C   UNL A   1      34.056  27.866  26.391  1.00  0.00     0.034 A 
ATOM     21  C   UNL A   1      33.173  30.090  25.970  1.00  0.00     0.006 A 
ATOM     22  C   UNL A   1      34.006  29.237  26.705  1.00  0.00    -0.049 A 
ATOM     23  C   UNL A   1      34.860  29.775  27.816  1.00  0.00     0.044 C 
BRANCH  15  24
ATOM     24  C   UNL A   1      30.881  27.922  22.715  1.00  0.00     0.122 C 
ATOM     25  C   UNL A   1      29.492  27.963  23.333  1.00  0.00     0.028 C 
ENDBRANCH  15  24
ENDBRANCH   9  14
ENDBRANCH   6   8
ENDBRANCH   5   6
ENDBRANCH   4   5
ENDBRANCH   3   4
ENDBRANCH   2   3
ENDBRANCH   1   2
BRANCH   1  26
ATOM     26  C   UNL A   1      37.357  21.269  25.084  1.00  0.00     0.261 C 
BRANCH  26  27
ATOM     27  O   UNL A   1      38.300  22.320  25.331  1.00  0.00    -0.460 OA
BRANCH  27  28
ATOM     28  C   UNL A   1      39.332  21.979  26.150  1.00  0.00     0.338 C 
ATOM     29  O   UNL A   1      39.921  20.910  26.192  1.00  0.00    -0.246 OA
BRANCH  28  30
ATOM     30  C   UNL A   1      39.867  23.257  26.657  1.00  0.00     0.060 A 
ATOM     31  C   UNL A   1      40.979  23.281  27.500  1.00  0.00     0.016 A 
ATOM     32  C   UNL A   1      39.032  24.379  26.522  1.00  0.00     0.016 A 
ATOM     33  C   UNL A   1      41.210  24.421  28.262  1.00  0.00     0.010 A 
ATOM     34  C   UNL A   1      39.237  25.495  27.328  1.00  0.00     0.010 A 
ATOM     35  C   UNL A   1      40.314  25.510  28.216  1.00  0.00    -0.014 A 
BRANCH  35  36
ATOM     36  C   UNL A   1      40.725  26.756  28.871  1.00  0.00     0.031 A 
ATOM     37  C   UNL A   1      41.933  27.320  28.209  1.00  0.00     0.074 A 
ATOM     38  C   UNL A   1      40.087  27.458  29.834  1.00  0.00     0.049 A 
ATOM     39  N   UNL A   1      43.129  27.409  28.688  1.00  0.00    -0.248 NA
ATOM     40  C   UNL A   1      41.833  27.638  26.774  1.00  0.00     0.031 C 
ATOM     41  C   UNL A   1      38.759  27.224  30.400  1.00  0.00     0.029 A 
ATOM     42  N   UNL A   1      40.480  28.614  30.457  1.00  0.00    -0.354 N 
ATOM     43  C   UNL A   1      43.882  28.009  27.685  1.00  0.00     0.074 A 
ATOM     44  C   UNL A   1      43.097  27.934  26.482  1.00  0.00     0.031 C 
ATOM     45  C   UNL A   1      38.375  28.313  31.112  1.00  0.00     0.029 A 
ATOM     46  C   UNL A   1      39.469  29.270  31.161  1.00  0.00     0.049 A 
ATOM     47  H   UNL A   1      41.403  28.955  30.413  1.00  0.00     0.167 HD
ATOM     48  C   UNL A   1      44.974  28.763  27.979  1.00  0.00     0.037 A 
ATOM     49  C   UNL A   1      39.518  30.523  31.697  1.00  0.00     0.037 A 
ATOM     50  C   UNL A   1      45.468  28.482  29.301  1.00  0.00     0.049 A 
ATOM     51  C   UNL A   1      40.952  30.865  31.875  1.00  0.00     0.074 A 
ATOM     52  C   UNL A   1      45.915  27.353  29.958  1.00  0.00     0.029 A 
ATOM     53  N   UNL A   1      45.217  29.413  30.278  1.00  0.00    -0.354 N 
ATOM     54  N   UNL A   1      41.748  30.288  32.730  1.00  0.00    -0.248 NA
ATOM     55  C   UNL A   1      41.608  31.617  30.816  1.00  0.00     0.031 C 
ATOM     56  C   UNL A   1      45.474  27.505  31.304  1.00  0.00     0.029 A 
ATOM     57  C   UNL A   1      44.833  28.740  31.406  1.00  0.00     0.049 A 
ATOM     58  H   UNL A   1      45.297  30.390  30.184  1.00  0.00     0.167 HD
ATOM     59  C   UNL A   1      42.973  30.236  32.085  1.00  0.00     0.074 A 
ATOM     60  C   UNL A   1      42.852  31.159  30.961  1.00  0.00     0.031 C 
ATOM     61  C   UNL A   1      43.869  29.247  32.359  1.00  0.00     0.037 A 
BRANCH  48  62
ATOM     62  C   UNL A   1      45.323  30.032  27.238  1.00  0.00     0.058 A 
ATOM     63  C   UNL A   1      46.665  30.263  26.871  1.00  0.00     0.135 A 
ATOM     64  C   UNL A   1      44.465  31.151  27.141  1.00  0.00     0.135 A 
ATOM     65  F   UNL A   1      47.573  29.277  26.943  1.00  0.00    -0.206 F 
ATOM     66  C   UNL A   1      47.131  31.527  26.511  1.00  0.00     0.059 A 
ATOM     67  C   UNL A   1      44.896  32.403  26.726  1.00  0.00     0.059 A 
ATOM     68  F   UNL A   1      43.188  31.118  27.541  1.00  0.00    -0.206 F 
ATOM     69  C   UNL A   1      46.238  32.593  26.453  1.00  0.00     0.060 A 
BRANCH  69  70
ATOM     70  S   UNL A   1      46.851  34.243  26.083  1.00  0.00     0.124 S 
ATOM     71  O   UNL A   1      45.994  34.626  24.968  1.00  0.00    -0.237 OA
ATOM     72  O   UNL A   1      46.615  34.939  27.343  1.00  0.00    -0.237 OA
ATOM     73  O   UNL A   1      48.255  34.012  25.754  1.00  0.00    -0.744 OA
ENDBRANCH  69  70
ENDBRANCH  48  62
BRANCH  49  74
ATOM     74  C   UNL A   1      38.461  31.576  31.799  1.00  0.00     0.058 A 
ATOM     75  C   UNL A   1      37.995  32.259  30.654  1.00  0.00     0.135 A 
ATOM     76  C   UNL A   1      37.665  31.711  32.953  1.00  0.00     0.135 A 
ATOM     77  F   UNL A   1      38.677  32.190  29.500  1.00  0.00    -0.206 F 
ATOM     78  C   UNL A   1      36.784  32.964  30.633  1.00  0.00     0.059 A 
ATOM     79  C   UNL A   1      36.458  32.417  32.959  1.00  0.00     0.059 A 
ATOM     80  F   UNL A   1      37.986  31.080  34.090  1.00  0.00    -0.206 F 
ATOM     81  C   UNL A   1      36.005  33.012  31.788  1.00  0.00     0.060 A 
BRANCH  81  82
ATOM     82  S   UNL A   1      34.352  33.749  31.719  1.00  0.00     0.124 S 
ATOM     83  O   UNL A   1      33.614  32.931  32.675  1.00  0.00    -0.237 OA
ATOM     84  O   UNL A   1      34.611  35.126  32.126  1.00  0.00    -0.237 OA
ATOM     85  O   UNL A   1      33.963  33.577  30.322  1.00  0.00    -0.744 OA
ENDBRANCH  81  82
ENDBRANCH  49  74
BRANCH  61  86
ATOM     86  C   UNL A   1      43.724  28.458  33.631  1.00  0.00     0.058 A 
ATOM     87  C   UNL A   1      44.069  28.925  34.911  1.00  0.00     0.135 A 
ATOM     88  C   UNL A   1      43.004  27.255  33.552  1.00  0.00     0.135 A 
ATOM     89  F   UNL A   1      44.688  30.103  35.075  1.00  0.00    -0.206 F 
ATOM     90  C   UNL A   1      43.703  28.222  36.063  1.00  0.00     0.059 A 
ATOM     91  C   UNL A   1      42.604  26.558  34.686  1.00  0.00     0.059 A 
ATOM     92  F   UNL A   1      42.613  26.782  32.356  1.00  0.00    -0.206 F 
ATOM     93  C   UNL A   1      42.954  27.050  35.941  1.00  0.00     0.060 A 
BRANCH  93  94
ATOM     94  S   UNL A   1      42.347  26.230  37.431  1.00  0.00     0.124 S 
ATOM     95  O   UNL A   1      43.323  26.644  38.432  1.00  0.00    -0.237 OA
ATOM     96  O   UNL A   1      41.008  26.794  37.579  1.00  0.00    -0.237 OA
ATOM     97  O   UNL A   1      42.378  24.811  37.079  1.00  0.00    -0.744 OA
ENDBRANCH  93  94
ENDBRANCH  61  86
ENDBRANCH  35  36
ENDBRANCH  28  30
ENDBRANCH  27  28
ENDBRANCH  26  27
ENDBRANCH   1  26
TORSDOF 19
ENDMDL
MODEL 3
REMARK VINA RESULT:     -11.0      1.447      2.225
REMARK SMILES CCn1c(N2CCC(C(=O)OCCOCCOC(=O)c3ccc(-c4c5nc(c(-c6c(F)cc(S(=O)(=O)[O-])cc6F)c6ccc([nH]6)c(-c6c(F)cc(S(=O)(=O)[O-])cc6F)c6nc(c(-c7c(F)cc(S(=O)(=O)[O-])cc7F)c7ccc4[nH]7)C=C6)C=C5)cc3)CC2)nc2cc(C)ccc21
REMARK SMILES IDX 15 1 14 2 13 3 12 4 11 5 9 6 10 7 8 8 5 9 6 10 87 11 7 12
REMARK SMILES IDX 86 13 4 14 3 15 95 16 88 17 89 18 94 19 90 20 93 21 91 22
REMARK SMILES IDX 92 23 2 24 1 25 16 26 17 27 18 28 19 29 20 30 21 31 85 32
REMARK SMILES IDX 22 33 84 34 23 35 24 36 25 37 78 38 26 39 83 40 77 41 79 42
REMARK SMILES IDX 27 43 82 44 76 45 75 46 28 48 62 49 41 50 61 51 42 52 45 53
REMARK SMILES IDX 60 54 80 55 43 56 44 57 59 59 81 60 46 61 29 62 30 63 39 64
REMARK SMILES IDX 31 65 32 66 38 67 40 68 33 69 34 70 35 71 36 72 37 73 63 74
REMARK SMILES IDX 64 75 73 76 65 77 66 78 72 79 74 80 67 81 68 82 69 83 70 84
REMARK SMILES IDX 71 85 47 86 48 87 57 88 49 89 50 90 56 91 58 92 51 93 52 94
REMARK SMILES IDX 53 95 54 96 55 97
REMARK H PARENT 79 47 45 58
REMARK Flexibility Score: inf
ROOT
ATOM      1  C   UNL A   1      40.085  20.300  26.429  1.00  0.00     0.202 C 
ENDROOT
BRANCH   1   2
ATOM      2  O   UNL A   1      39.651  21.632  26.709  1.00  0.00    -0.374 OA
BRANCH   2   3
ATOM      3  C   UNL A   1      38.681  22.220  25.849  1.00  0.00     0.202 C 
BRANCH   3   4
ATOM      4  C   UNL A   1      37.537  21.370  25.280  1.00  0.00     0.261 C 
BRANCH   4   5
ATOM      5  O   UNL A   1      36.309  21.476  26.008  1.00  0.00    -0.463 OA
BRANCH   5   6
ATOM      6  C   UNL A   1      35.209  21.480  25.217  1.00  0.00     0.309 C 
ATOM      7  O   UNL A   1      34.464  20.524  25.028  1.00  0.00    -0.252 OA
BRANCH   6   8
ATOM      8  C   UNL A   1      34.963  22.807  24.551  1.00  0.00     0.103 C 
ATOM      9  N   UNL A   1      33.711  25.223  23.715  1.00  0.00    -0.342 N 
ATOM     10  C   UNL A   1      34.048  24.221  22.709  1.00  0.00     0.120 C 
ATOM     11  C   UNL A   1      34.418  25.180  24.993  1.00  0.00     0.120 C 
ATOM     12  C   UNL A   1      34.075  22.816  23.304  1.00  0.00     0.037 C 
ATOM     13  C   UNL A   1      34.400  23.779  25.578  1.00  0.00     0.037 C 
BRANCH   9  14
ATOM     14  C   UNL A   1      32.536  25.889  23.600  1.00  0.00     0.206 A 
ATOM     15  N   UNL A   1      32.437  27.106  22.954  1.00  0.00    -0.310 N 
ATOM     16  C   UNL A   1      31.115  27.492  22.973  1.00  0.00     0.070 A 
ATOM     17  N   UNL A   1      31.350  25.463  23.975  1.00  0.00    -0.213 NA
ATOM     18  C   UNL A   1      30.470  26.463  23.647  1.00  0.00     0.091 A 
ATOM     19  C   UNL A   1      30.440  28.611  22.473  1.00  0.00     0.029 A 
ATOM     20  C   UNL A   1      29.089  26.556  23.880  1.00  0.00     0.034 A 
ATOM     21  C   UNL A   1      29.064  28.686  22.712  1.00  0.00     0.006 A 
ATOM     22  C   UNL A   1      28.385  27.682  23.415  1.00  0.00    -0.049 A 
ATOM     23  C   UNL A   1      26.915  27.805  23.691  1.00  0.00     0.044 C 
BRANCH  15  24
ATOM     24  C   UNL A   1      33.484  27.801  22.230  1.00  0.00     0.122 C 
ATOM     25  C   UNL A   1      34.306  28.735  23.105  1.00  0.00     0.028 C 
ENDBRANCH  15  24
ENDBRANCH   9  14
ENDBRANCH   6   8
ENDBRANCH   5   6
ENDBRANCH   4   5
ENDBRANCH   3   4
ENDBRANCH   2   3
ENDBRANCH   1   2
BRANCH   1  26
ATOM     26  C   UNL A   1      41.589  19.964  26.445  1.00  0.00     0.261 C 
BRANCH  26  27
ATOM     27  O   UNL A   1      42.299  20.618  25.385  1.00  0.00    -0.460 OA
BRANCH  27  28
ATOM     28  C   UNL A   1      43.599  20.909  25.664  1.00  0.00     0.338 C 
ATOM     29  O   UNL A   1      44.591  20.321  25.262  1.00  0.00    -0.246 OA
BRANCH  28  30
ATOM     30  C   UNL A   1      43.588  22.292  26.177  1.00  0.00     0.060 A 
ATOM     31  C   UNL A   1      44.186  22.606  27.398  1.00  0.00     0.016 A 
ATOM     32  C   UNL A   1      42.689  23.178  25.559  1.00  0.00     0.016 A 
ATOM     33  C   UNL A   1      43.824  23.790  28.030  1.00  0.00     0.010 A 
ATOM     34  C   UNL A   1      42.289  24.334  26.223  1.00  0.00     0.010 A 
ATOM     35  C   UNL A   1      42.840  24.631  27.471  1.00  0.00    -0.014 A 
BRANCH  35  36
ATOM     36  C   UNL A   1      42.661  25.959  28.069  1.00  0.00     0.031 A 
ATOM     37  C   UNL A   1      43.781  26.860  27.684  1.00  0.00     0.074 A 
ATOM     38  C   UNL A   1      41.601  26.445  28.751  1.00  0.00     0.049 A 
ATOM     39  N   UNL A   1      44.712  27.334  28.444  1.00  0.00    -0.248 NA
ATOM     40  C   UNL A   1      43.997  27.097  26.246  1.00  0.00     0.031 C 
ATOM     41  C   UNL A   1      40.300  25.816  28.976  1.00  0.00     0.029 A 
ATOM     42  N   UNL A   1      41.441  27.681  29.324  1.00  0.00    -0.354 N 
ATOM     43  C   UNL A   1      45.502  28.117  27.610  1.00  0.00     0.074 A 
ATOM     44  C   UNL A   1      45.145  27.771  26.261  1.00  0.00     0.031 C 
ATOM     45  C   UNL A   1      39.426  26.744  29.441  1.00  0.00     0.029 A 
ATOM     46  C   UNL A   1      40.126  28.000  29.666  1.00  0.00     0.049 A 
ATOM     47  H   UNL A   1      42.194  28.295  29.483  1.00  0.00     0.167 HD
ATOM     48  C   UNL A   1      46.192  29.185  28.092  1.00  0.00     0.037 A 
ATOM     49  C   UNL A   1      39.648  29.215  30.056  1.00  0.00     0.037 A 
ATOM     50  C   UNL A   1      46.356  29.105  29.519  1.00  0.00     0.049 A 
ATOM     51  C   UNL A   1      40.805  29.998  30.560  1.00  0.00     0.074 A 
ATOM     52  C   UNL A   1      46.916  28.191  30.390  1.00  0.00     0.029 A 
ATOM     53  N   UNL A   1      45.576  29.932  30.289  1.00  0.00    -0.354 N 
ATOM     54  N   UNL A   1      41.464  29.721  31.650  1.00  0.00    -0.248 NA
ATOM     55  C   UNL A   1      41.477  30.893  29.631  1.00  0.00     0.031 C 
ATOM     56  C   UNL A   1      46.092  28.228  31.550  1.00  0.00     0.029 A 
ATOM     57  C   UNL A   1      45.110  29.198  31.347  1.00  0.00     0.049 A 
ATOM     58  H   UNL A   1      45.386  30.881  30.113  1.00  0.00     0.167 HD
ATOM     59  C   UNL A   1      42.778  30.044  31.353  1.00  0.00     0.074 A 
ATOM     60  C   UNL A   1      42.707  30.855  30.142  1.00  0.00     0.031 C 
ATOM     61  C   UNL A   1      43.813  29.396  31.957  1.00  0.00     0.037 A 
BRANCH  48  62
ATOM     62  C   UNL A   1      46.341  30.482  27.331  1.00  0.00     0.058 A 
ATOM     63  C   UNL A   1      47.613  31.087  27.252  1.00  0.00     0.135 A 
ATOM     64  C   UNL A   1      45.254  31.298  26.943  1.00  0.00     0.135 A 
ATOM     65  F   UNL A   1      48.714  30.411  27.615  1.00  0.00    -0.206 F 
ATOM     66  C   UNL A   1      47.780  32.422  26.888  1.00  0.00     0.059 A 
ATOM     67  C   UNL A   1      45.406  32.610  26.519  1.00  0.00     0.059 A 
ATOM     68  F   UNL A   1      43.980  30.902  27.050  1.00  0.00    -0.206 F 
ATOM     69  C   UNL A   1      46.667  33.178  26.534  1.00  0.00     0.060 A 
BRANCH  69  70
ATOM     70  S   UNL A   1      46.866  34.925  26.158  1.00  0.00     0.124 S 
ATOM     71  O   UNL A   1      47.542  35.404  27.358  1.00  0.00    -0.237 OA
ATOM     72  O   UNL A   1      47.672  34.880  24.942  1.00  0.00    -0.237 OA
ATOM     73  O   UNL A   1      45.493  35.387  25.976  1.00  0.00    -0.744 OA
ENDBRANCH  69  70
ENDBRANCH  48  62
BRANCH  49  74
ATOM     74  C   UNL A   1      38.341  29.882  29.765  1.00  0.00     0.058 A 
ATOM     75  C   UNL A   1      37.592  30.503  30.788  1.00  0.00     0.135 A 
ATOM     76  C   UNL A   1      37.955  30.204  28.449  1.00  0.00     0.135 A 
ATOM     77  F   UNL A   1      37.883  30.269  32.077  1.00  0.00    -0.206 F 
ATOM     78  C   UNL A   1      36.581  31.438  30.526  1.00  0.00     0.059 A 
ATOM     79  C   UNL A   1      36.944  31.125  28.163  1.00  0.00     0.059 A 
ATOM     80  F   UNL A   1      38.615  29.704  27.395  1.00  0.00    -0.206 F 
ATOM     81  C   UNL A   1      36.283  31.766  29.205  1.00  0.00     0.060 A 
BRANCH  81  82
ATOM     82  S   UNL A   1      35.122  33.111  28.859  1.00  0.00     0.124 S 
ATOM     83  O   UNL A   1      35.943  34.293  29.099  1.00  0.00    -0.237 OA
ATOM     84  O   UNL A   1      34.762  32.858  27.467  1.00  0.00    -0.237 OA
ATOM     85  O   UNL A   1      34.050  32.891  29.826  1.00  0.00    -0.744 OA
ENDBRANCH  81  82
ENDBRANCH  49  74
BRANCH  61  86
ATOM     86  C   UNL A   1      43.559  28.632  33.226  1.00  0.00     0.058 A 
ATOM     87  C   UNL A   1      43.464  29.205  34.505  1.00  0.00     0.135 A 
ATOM     88  C   UNL A   1      43.189  27.284  33.092  1.00  0.00     0.135 A 
ATOM     89  F   UNL A   1      43.725  30.506  34.703  1.00  0.00    -0.206 F 
ATOM     90  C   UNL A   1      43.011  28.465  35.601  1.00  0.00     0.059 A 
ATOM     91  C   UNL A   1      42.707  26.540  34.162  1.00  0.00     0.059 A 
ATOM     92  F   UNL A   1      43.222  26.695  31.884  1.00  0.00    -0.206 F 
ATOM     93  C   UNL A   1      42.616  27.139  35.415  1.00  0.00     0.060 A 
BRANCH  93  94
ATOM     94  S   UNL A   1      41.882  26.233  36.794  1.00  0.00     0.124 S 
ATOM     95  O   UNL A   1      42.996  26.142  37.732  1.00  0.00    -0.237 OA
ATOM     96  O   UNL A   1      40.784  27.106  37.198  1.00  0.00    -0.237 OA
ATOM     97  O   UNL A   1      41.469  24.966  36.193  1.00  0.00    -0.744 OA
ENDBRANCH  93  94
ENDBRANCH  61  86
ENDBRANCH  35  36
ENDBRANCH  28  30
ENDBRANCH  27  28
ENDBRANCH  26  27
ENDBRANCH   1  26
TORSDOF 19
ENDMDL
