MODEL 1
REMARK VINA RESULT:     -11.4      0.000      0.000
REMARK SMILES O=C(C[NH+]1CCC(C(=O)OCCOCCOC(=O)c2ccc(-c3c4nc(c(-c5c(F)cc(S(=O)(=O)[O-])cc5F)c5ccc([nH]5)c(-c5c(F)cc(S(=O)(=O)[O-])cc5F)c5nc(c(-c6c(F)cc(S(=O)(=O)[O-])cc6F)c6ccc3[nH]6)C=C5)C=C4)cc2)CC1)Nc1ccccc1Oc1ccccc1
REMARK SMILES IDX 12 1 11 2 10 3 8 4 9 5 7 6 4 7 5 8 86 9 6 11 85 12 3 13 2 14
REMARK SMILES IDX 1 15 87 16 88 18 89 19 93 20 90 21 92 22 91 23 94 24 95 25
REMARK SMILES IDX 96 26 100 27 97 28 99 29 98 30 13 31 14 32 15 33 16 34 17 35
REMARK SMILES IDX 18 36 19 37 20 38 84 39 21 40 83 41 22 42 23 43 24 44 77 45
REMARK SMILES IDX 25 46 82 47 76 48 78 49 26 50 81 51 75 52 74 53 27 55 61 56
REMARK SMILES IDX 40 57 60 58 41 59 44 60 59 61 79 62 42 63 43 64 58 66 80 67
REMARK SMILES IDX 45 68 28 69 29 70 38 71 30 72 31 73 37 74 39 75 32 76 33 77
REMARK SMILES IDX 34 78 35 79 36 80 62 81 63 82 72 83 64 84 65 85 71 86 73 87
REMARK SMILES IDX 66 88 67 89 68 90 69 91 70 92 46 93 47 94 56 95 48 96 49 97
REMARK SMILES IDX 55 98 57 99 50 100 51 101 52 102 53 103 54 104
REMARK H PARENT 4 10 87 17 78 54 44 65
REMARK Flexibility Score: inf
ROOT
ATOM      1  C   UNL A   1      38.699  21.954  25.744  1.00  0.00     0.202 C 
ENDROOT
BRANCH   1   2
ATOM      2  C   UNL A   1      37.696  20.903  25.260  1.00  0.00     0.261 C 
BRANCH   2   3
ATOM      3  O   UNL A   1      36.443  21.074  25.945  1.00  0.00    -0.463 OA
BRANCH   3   4
ATOM      4  C   UNL A   1      35.348  20.507  25.383  1.00  0.00     0.309 C 
ATOM      5  O   UNL A   1      35.315  19.413  24.835  1.00  0.00    -0.252 OA
BRANCH   4   6
ATOM      6  C   UNL A   1      34.126  21.388  25.522  1.00  0.00     0.110 C 
ATOM      7  N   UNL A   1      31.481  22.063  26.572  1.00  0.00    -0.327 N 
ATOM      8  C   UNL A   1      31.659  21.686  25.175  1.00  0.00     0.263 C 
ATOM      9  C   UNL A   1      32.702  22.691  27.118  1.00  0.00     0.263 C 
ATOM     10  H   UNL A   1      31.274  21.182  27.043  1.00  0.00     0.348 HD
ATOM     11  C   UNL A   1      32.842  20.752  24.989  1.00  0.00     0.077 C 
ATOM     12  C   UNL A   1      33.938  21.810  26.972  1.00  0.00     0.077 C 
BRANCH   7  13
ATOM     13  C   UNL A   1      30.350  22.992  26.815  1.00  0.00     0.363 C 
BRANCH  13  14
ATOM     14  C   UNL A   1      30.476  24.403  26.229  1.00  0.00     0.279 C 
ATOM     15  O   UNL A   1      30.975  25.343  26.842  1.00  0.00    -0.268 OA
ATOM     16  N   UNL A   1      30.018  24.469  24.919  1.00  0.00    -0.318 N 
ATOM     17  H   UNL A   1      29.440  23.740  24.601  1.00  0.00     0.170 HD
BRANCH  16  18
ATOM     18  C   UNL A   1      30.320  25.498  24.018  1.00  0.00     0.084 A 
ATOM     19  C   UNL A   1      29.511  26.641  24.105  1.00  0.00     0.030 A 
ATOM     20  C   UNL A   1      31.315  25.419  23.030  1.00  0.00     0.150 A 
ATOM     21  C   UNL A   1      29.753  27.746  23.289  1.00  0.00     0.002 A 
ATOM     22  C   UNL A   1      31.542  26.538  22.214  1.00  0.00     0.049 A 
ATOM     23  C   UNL A   1      30.775  27.697  22.348  1.00  0.00     0.004 A 
BRANCH  20  24
ATOM     24  O   UNL A   1      32.138  24.352  22.737  1.00  0.00    -0.455 OA
BRANCH  24  25
ATOM     25  C   UNL A   1      33.405  24.260  23.263  1.00  0.00     0.127 A 
ATOM     26  C   UNL A   1      33.634  25.016  24.417  1.00  0.00     0.047 A 
ATOM     27  C   UNL A   1      34.441  23.504  22.712  1.00  0.00     0.047 A 
ATOM     28  C   UNL A   1      34.865  24.954  25.069  1.00  0.00     0.004 A 
ATOM     29  C   UNL A   1      35.677  23.442  23.367  1.00  0.00     0.004 A 
ATOM     30  C   UNL A   1      35.884  24.158  24.550  1.00  0.00     0.000 A 
ENDBRANCH  24  25
ENDBRANCH  20  24
ENDBRANCH  16  18
ENDBRANCH  13  14
ENDBRANCH   7  13
ENDBRANCH   4   6
ENDBRANCH   3   4
ENDBRANCH   2   3
ENDBRANCH   1   2
BRANCH   1  31
ATOM     31  O   UNL A   1      39.631  21.519  26.740  1.00  0.00    -0.374 OA
BRANCH  31  32
ATOM     32  C   UNL A   1      40.907  21.086  26.277  1.00  0.00     0.202 C 
BRANCH  32  33
ATOM     33  C   UNL A   1      42.063  22.090  26.410  1.00  0.00     0.261 C 
BRANCH  33  34
ATOM     34  O   UNL A   1      41.734  23.214  27.243  1.00  0.00    -0.460 OA
BRANCH  34  35
ATOM     35  C   UNL A   1      41.936  24.418  26.656  1.00  0.00     0.338 C 
ATOM     36  O   UNL A   1      42.328  24.620  25.512  1.00  0.00    -0.246 OA
BRANCH  35  37
ATOM     37  C   UNL A   1      41.447  25.507  27.518  1.00  0.00     0.060 A 
ATOM     38  C   UNL A   1      42.253  26.647  27.623  1.00  0.00     0.016 A 
ATOM     39  C   UNL A   1      40.281  25.388  28.280  1.00  0.00     0.016 A 
ATOM     40  C   UNL A   1      41.926  27.651  28.530  1.00  0.00     0.010 A 
ATOM     41  C   UNL A   1      39.960  26.396  29.197  1.00  0.00     0.010 A 
ATOM     42  C   UNL A   1      40.802  27.513  29.354  1.00  0.00    -0.014 A 
BRANCH  42  43
ATOM     43  C   UNL A   1      40.616  28.465  30.478  1.00  0.00     0.031 A 
ATOM     44  C   UNL A   1      41.511  28.355  31.684  1.00  0.00     0.074 A 
ATOM     45  C   UNL A   1      39.711  29.458  30.396  1.00  0.00     0.049 A 
ATOM     46  N   UNL A   1      41.541  29.092  32.765  1.00  0.00    -0.248 NA
ATOM     47  C   UNL A   1      42.507  27.272  31.668  1.00  0.00     0.031 C 
ATOM     48  C   UNL A   1      38.819  29.695  29.262  1.00  0.00     0.029 A 
ATOM     49  N   UNL A   1      39.399  30.456  31.284  1.00  0.00    -0.354 N 
ATOM     50  C   UNL A   1      42.556  28.564  33.554  1.00  0.00     0.074 A 
ATOM     51  C   UNL A   1      43.096  27.425  32.845  1.00  0.00     0.031 C 
ATOM     52  C   UNL A   1      38.057  30.771  29.523  1.00  0.00     0.029 A 
ATOM     53  C   UNL A   1      38.387  31.282  30.853  1.00  0.00     0.049 A 
ATOM     54  H   UNL A   1      39.856  30.571  32.148  1.00  0.00     0.167 HD
ATOM     55  C   UNL A   1      43.006  28.996  34.757  1.00  0.00     0.037 A 
ATOM     56  C   UNL A   1      37.790  32.322  31.467  1.00  0.00     0.037 A 
ATOM     57  C   UNL A   1      42.466  30.131  35.461  1.00  0.00     0.049 A 
ATOM     58  C   UNL A   1      38.261  32.742  32.835  1.00  0.00     0.074 A 
ATOM     59  C   UNL A   1      42.858  30.654  36.681  1.00  0.00     0.029 A 
ATOM     60  N   UNL A   1      41.414  30.916  35.011  1.00  0.00    -0.354 N 
ATOM     61  N   UNL A   1      39.232  32.244  33.563  1.00  0.00    -0.248 NA
ATOM     62  C   UNL A   1      37.559  33.870  33.463  1.00  0.00     0.031 C 
ATOM     63  C   UNL A   1      42.015  31.726  36.990  1.00  0.00     0.029 A 
ATOM     64  C   UNL A   1      41.129  31.904  35.938  1.00  0.00     0.049 A 
ATOM     65  H   UNL A   1      40.939  30.788  34.157  1.00  0.00     0.167 HD
ATOM     66  C   UNL A   1      39.274  33.014  34.722  1.00  0.00     0.074 A 
ATOM     67  C   UNL A   1      38.238  34.017  34.593  1.00  0.00     0.031 C 
ATOM     68  C   UNL A   1      40.097  32.901  35.794  1.00  0.00     0.037 A 
BRANCH  55  69
ATOM     69  C   UNL A   1      44.125  28.225  35.399  1.00  0.00     0.058 A 
ATOM     70  C   UNL A   1      45.473  28.527  35.142  1.00  0.00     0.135 A 
ATOM     71  C   UNL A   1      43.848  27.190  36.307  1.00  0.00     0.135 A 
ATOM     72  F   UNL A   1      45.794  29.494  34.269  1.00  0.00    -0.206 F 
ATOM     73  C   UNL A   1      46.505  27.815  35.745  1.00  0.00     0.059 A 
ATOM     74  C   UNL A   1      44.864  26.482  36.941  1.00  0.00     0.059 A 
ATOM     75  F   UNL A   1      42.578  26.860  36.587  1.00  0.00    -0.206 F 
ATOM     76  C   UNL A   1      46.191  26.792  36.643  1.00  0.00     0.060 A 
BRANCH  76  77
ATOM     77  S   UNL A   1      47.541  25.880  37.421  1.00  0.00     0.124 S 
ATOM     78  O   UNL A   1      48.559  25.920  36.375  1.00  0.00    -0.237 OA
ATOM     79  O   UNL A   1      47.819  26.685  38.606  1.00  0.00    -0.237 OA
ATOM     80  O   UNL A   1      46.959  24.567  37.680  1.00  0.00    -0.744 OA
ENDBRANCH  76  77
ENDBRANCH  55  69
BRANCH  56  81
ATOM     81  C   UNL A   1      36.671  33.037  30.796  1.00  0.00     0.058 A 
ATOM     82  C   UNL A   1      36.912  33.975  29.783  1.00  0.00     0.135 A 
ATOM     83  C   UNL A   1      35.337  32.795  31.159  1.00  0.00     0.135 A 
ATOM     84  F   UNL A   1      38.171  34.250  29.409  1.00  0.00    -0.206 F 
ATOM     85  C   UNL A   1      35.872  34.658  29.159  1.00  0.00     0.059 A 
ATOM     86  C   UNL A   1      34.278  33.445  30.533  1.00  0.00     0.059 A 
ATOM     87  F   UNL A   1      35.052  31.900  32.118  1.00  0.00    -0.206 F 
ATOM     88  C   UNL A   1      34.557  34.383  29.539  1.00  0.00     0.060 A 
BRANCH  88  89
ATOM     89  S   UNL A   1      33.211  35.235  28.688  1.00  0.00     0.124 S 
ATOM     90  O   UNL A   1      32.451  35.777  29.808  1.00  0.00    -0.237 OA
ATOM     91  O   UNL A   1      33.931  36.209  27.873  1.00  0.00    -0.237 OA
ATOM     92  O   UNL A   1      32.557  34.165  27.939  1.00  0.00    -0.744 OA
ENDBRANCH  88  89
ENDBRANCH  56  81
BRANCH  68  93
ATOM     93  C   UNL A   1      39.938  33.908  36.900  1.00  0.00     0.058 A 
ATOM     94  C   UNL A   1      40.664  35.109  36.916  1.00  0.00     0.135 A 
ATOM     95  C   UNL A   1      39.012  33.689  37.934  1.00  0.00     0.135 A 
ATOM     96  F   UNL A   1      41.566  35.367  35.955  1.00  0.00    -0.206 F 
ATOM     97  C   UNL A   1      40.497  36.047  37.931  1.00  0.00     0.059 A 
ATOM     98  C   UNL A   1      38.809  34.624  38.944  1.00  0.00     0.059 A 
ATOM     99  F   UNL A   1      38.283  32.562  37.959  1.00  0.00    -0.206 F 
ATOM    100  C   UNL A   1      39.566  35.795  38.941  1.00  0.00     0.060 A 
BRANCH 100 101
ATOM    101  S   UNL A   1      39.339  37.030  40.238  1.00  0.00     0.124 S 
ATOM    102  O   UNL A   1      38.713  38.121  39.499  1.00  0.00    -0.237 OA
ATOM    103  O   UNL A   1      38.480  36.333  41.189  1.00  0.00    -0.237 OA
ATOM    104  O   UNL A   1      40.699  37.286  40.705  1.00  0.00    -0.744 OA
ENDBRANCH 100 101
ENDBRANCH  68  93
ENDBRANCH  42  43
ENDBRANCH  35  37
ENDBRANCH  34  35
ENDBRANCH  33  34
ENDBRANCH  32  33
ENDBRANCH  31  32
ENDBRANCH   1  31
TORSDOF 22
ENDMDL
MODEL 2
REMARK VINA RESULT:     -10.8      1.504      8.100
REMARK SMILES O=C(C[NH+]1CCC(C(=O)OCCOCCOC(=O)c2ccc(-c3c4nc(c(-c5c(F)cc(S(=O)(=O)[O-])cc5F)c5ccc([nH]5)c(-c5c(F)cc(S(=O)(=O)[O-])cc5F)c5nc(c(-c6c(F)cc(S(=O)(=O)[O-])cc6F)c6ccc3[nH]6)C=C5)C=C4)cc2)CC1)Nc1ccccc1Oc1ccccc1
REMARK SMILES IDX 12 1 11 2 10 3 8 4 9 5 7 6 4 7 5 8 86 9 6 11 85 12 3 13 2 14
REMARK SMILES IDX 1 15 87 16 88 18 89 19 93 20 90 21 92 22 91 23 94 24 95 25
REMARK SMILES IDX 96 26 100 27 97 28 99 29 98 30 13 31 14 32 15 33 16 34 17 35
REMARK SMILES IDX 18 36 19 37 20 38 84 39 21 40 83 41 22 42 23 43 24 44 77 45
REMARK SMILES IDX 25 46 82 47 76 48 78 49 26 50 81 51 75 52 74 53 27 55 61 56
REMARK SMILES IDX 40 57 60 58 41 59 44 60 59 61 79 62 42 63 43 64 58 66 80 67
REMARK SMILES IDX 45 68 28 69 29 70 38 71 30 72 31 73 37 74 39 75 32 76 33 77
REMARK SMILES IDX 34 78 35 79 36 80 62 81 63 82 72 83 64 84 65 85 71 86 73 87
REMARK SMILES IDX 66 88 67 89 68 90 69 91 70 92 46 93 47 94 56 95 48 96 49 97
REMARK SMILES IDX 55 98 57 99 50 100 51 101 52 102 53 103 54 104
REMARK H PARENT 4 10 87 17 78 54 44 65
REMARK Flexibility Score: inf
ROOT
ATOM      1  C   UNL A   1      39.616  21.122  26.151  1.00  0.00     0.202 C 
ENDROOT
BRANCH   1   2
ATOM      2  C   UNL A   1      38.609  22.252  25.918  1.00  0.00     0.261 C 
BRANCH   2   3
ATOM      3  O   UNL A   1      37.354  21.702  25.480  1.00  0.00    -0.463 OA
BRANCH   3   4
ATOM      4  C   UNL A   1      36.592  22.472  24.666  1.00  0.00     0.309 C 
ATOM      5  O   UNL A   1      36.948  22.947  23.597  1.00  0.00    -0.252 OA
BRANCH   4   6
ATOM      6  C   UNL A   1      35.201  22.675  25.228  1.00  0.00     0.110 C 
ATOM      7  N   UNL A   1      32.493  23.777  25.198  1.00  0.00    -0.327 N 
ATOM      8  C   UNL A   1      33.483  24.250  26.157  1.00  0.00     0.263 C 
ATOM      9  C   UNL A   1      32.750  22.376  24.806  1.00  0.00     0.263 C 
ATOM     10  H   UNL A   1      32.593  24.409  24.404  1.00  0.00     0.348 HD
ATOM     11  C   UNL A   1      34.897  24.121  25.617  1.00  0.00     0.077 C 
ATOM     12  C   UNL A   1      34.154  22.165  24.247  1.00  0.00     0.077 C 
BRANCH   7  13
ATOM     13  C   UNL A   1      31.090  23.859  25.677  1.00  0.00     0.363 C 
BRANCH  13  14
ATOM     14  C   UNL A   1      30.425  25.239  25.636  1.00  0.00     0.279 C 
ATOM     15  O   UNL A   1      30.443  26.022  26.582  1.00  0.00    -0.268 OA
ATOM     16  N   UNL A   1      29.860  25.511  24.397  1.00  0.00    -0.318 N 
ATOM     17  H   UNL A   1      29.699  24.752  23.792  1.00  0.00     0.170 HD
BRANCH  16  18
ATOM     18  C   UNL A   1      29.504  26.788  23.944  1.00  0.00     0.084 A 
ATOM     19  C   UNL A   1      28.137  26.988  23.696  1.00  0.00     0.030 A 
ATOM     20  C   UNL A   1      30.420  27.819  23.679  1.00  0.00     0.150 A 
ATOM     21  C   UNL A   1      27.664  28.235  23.289  1.00  0.00     0.002 A 
ATOM     22  C   UNL A   1      29.928  29.066  23.265  1.00  0.00     0.049 A 
ATOM     23  C   UNL A   1      28.560  29.278  23.081  1.00  0.00     0.004 A 
BRANCH  20  24
ATOM     24  O   UNL A   1      31.796  27.778  23.774  1.00  0.00    -0.455 OA
BRANCH  24  25
ATOM     25  C   UNL A   1      32.452  28.273  24.876  1.00  0.00     0.127 A 
ATOM     26  C   UNL A   1      31.850  29.377  25.489  1.00  0.00     0.047 A 
ATOM     27  C   UNL A   1      33.654  27.771  25.377  1.00  0.00     0.047 A 
ATOM     28  C   UNL A   1      32.397  29.926  26.648  1.00  0.00     0.004 A 
ATOM     29  C   UNL A   1      34.203  28.322  26.542  1.00  0.00     0.004 A 
ATOM     30  C   UNL A   1      33.569  29.392  27.181  1.00  0.00     0.000 A 
ENDBRANCH  24  25
ENDBRANCH  20  24
ENDBRANCH  16  18
ENDBRANCH  13  14
ENDBRANCH   7  13
ENDBRANCH   4   6
ENDBRANCH   3   4
ENDBRANCH   2   3
ENDBRANCH   1   2
BRANCH   1  31
ATOM     31  O   UNL A   1      40.977  21.417  25.818  1.00  0.00    -0.374 OA
BRANCH  31  32
ATOM     32  C   UNL A   1      41.560  22.553  26.452  1.00  0.00     0.202 C 
BRANCH  32  33
ATOM     33  C   UNL A   1      42.523  23.396  25.602  1.00  0.00     0.261 C 
BRANCH  33  34
ATOM     34  O   UNL A   1      42.288  24.808  25.727  1.00  0.00    -0.460 OA
BRANCH  34  35
ATOM     35  C   UNL A   1      43.240  25.469  26.428  1.00  0.00     0.338 C 
ATOM     36  O   UNL A   1      44.446  25.471  26.208  1.00  0.00    -0.246 OA
BRANCH  35  37
ATOM     37  C   UNL A   1      42.626  26.366  27.422  1.00  0.00     0.060 A 
ATOM     38  C   UNL A   1      43.158  27.656  27.529  1.00  0.00     0.016 A 
ATOM     39  C   UNL A   1      41.622  25.937  28.295  1.00  0.00     0.016 A 
ATOM     40  C   UNL A   1      42.727  28.507  28.542  1.00  0.00     0.010 A 
ATOM     41  C   UNL A   1      41.197  26.792  29.319  1.00  0.00     0.010 A 
ATOM     42  C   UNL A   1      41.775  28.066  29.471  1.00  0.00    -0.014 A 
BRANCH  42  43
ATOM     43  C   UNL A   1      41.518  28.888  30.680  1.00  0.00     0.031 A 
ATOM     44  C   UNL A   1      40.356  29.846  30.676  1.00  0.00     0.074 A 
ATOM     45  C   UNL A   1      42.262  28.731  31.790  1.00  0.00     0.049 A 
ATOM     46  N   UNL A   1      39.933  30.641  31.627  1.00  0.00    -0.248 NA
ATOM     47  C   UNL A   1      39.564  29.916  29.438  1.00  0.00     0.031 C 
ATOM     48  C   UNL A   1      43.383  27.804  31.930  1.00  0.00     0.029 A 
ATOM     49  N   UNL A   1      42.180  29.348  33.013  1.00  0.00    -0.354 N 
ATOM     50  C   UNL A   1      38.829  31.302  31.103  1.00  0.00     0.074 A 
ATOM     51  C   UNL A   1      38.665  30.841  29.741  1.00  0.00     0.031 C 
ATOM     52  C   UNL A   1      43.888  27.913  33.171  1.00  0.00     0.029 A 
ATOM     53  C   UNL A   1      43.144  28.937  33.904  1.00  0.00     0.049 A 
ATOM     54  H   UNL A   1      41.496  30.021  33.233  1.00  0.00     0.167 HD
ATOM     55  C   UNL A   1      38.016  32.203  31.706  1.00  0.00     0.037 A 
ATOM     56  C   UNL A   1      43.402  29.349  35.161  1.00  0.00     0.037 A 
ATOM     57  C   UNL A   1      38.182  32.660  33.061  1.00  0.00     0.049 A 
ATOM     58  C   UNL A   1      42.526  30.403  35.787  1.00  0.00     0.074 A 
ATOM     59  C   UNL A   1      37.406  33.564  33.766  1.00  0.00     0.029 A 
ATOM     60  N   UNL A   1      39.194  32.252  33.917  1.00  0.00    -0.354 N 
ATOM     61  N   UNL A   1      41.475  31.009  35.286  1.00  0.00    -0.248 NA
ATOM     62  C   UNL A   1      42.868  30.827  37.152  1.00  0.00     0.031 C 
ATOM     63  C   UNL A   1      37.976  33.737  35.032  1.00  0.00     0.029 A 
ATOM     64  C   UNL A   1      39.077  32.902  35.134  1.00  0.00     0.049 A 
ATOM     65  H   UNL A   1      39.894  31.595  33.692  1.00  0.00     0.167 HD
ATOM     66  C   UNL A   1      41.016  31.864  36.283  1.00  0.00     0.074 A 
ATOM     67  C   UNL A   1      41.896  31.689  37.419  1.00  0.00     0.031 C 
ATOM     68  C   UNL A   1      39.959  32.714  36.261  1.00  0.00     0.037 A 
BRANCH  55  69
ATOM     69  C   UNL A   1      36.885  32.772  30.894  1.00  0.00     0.058 A 
ATOM     70  C   UNL A   1      37.085  33.827  29.988  1.00  0.00     0.135 A 
ATOM     71  C   UNL A   1      35.593  32.236  30.999  1.00  0.00     0.135 A 
ATOM     72  F   UNL A   1      38.297  34.390  29.861  1.00  0.00    -0.206 F 
ATOM     73  C   UNL A   1      36.037  34.345  29.233  1.00  0.00     0.059 A 
ATOM     74  C   UNL A   1      34.535  32.720  30.234  1.00  0.00     0.059 A 
ATOM     75  F   UNL A   1      35.347  31.227  31.850  1.00  0.00    -0.206 F 
ATOM     76  C   UNL A   1      34.764  33.785  29.365  1.00  0.00     0.060 A 
BRANCH  76  77
ATOM     77  S   UNL A   1      33.415  34.465  28.374  1.00  0.00     0.124 S 
ATOM     78  O   UNL A   1      32.530  34.988  29.410  1.00  0.00    -0.237 OA
ATOM     79  O   UNL A   1      34.098  35.464  27.560  1.00  0.00    -0.237 OA
ATOM     80  O   UNL A   1      32.911  33.305  27.646  1.00  0.00    -0.744 OA
ENDBRANCH  76  77
ENDBRANCH  55  69
BRANCH  56  81
ATOM     81  C   UNL A   1      44.548  28.770  35.912  1.00  0.00     0.058 A 
ATOM     82  C   UNL A   1      44.376  27.670  36.763  1.00  0.00     0.135 A 
ATOM     83  C   UNL A   1      45.838  29.308  35.791  1.00  0.00     0.135 A 
ATOM     84  F   UNL A   1      43.158  27.127  36.922  1.00  0.00    -0.206 F 
ATOM     85  C   UNL A   1      45.440  27.128  37.480  1.00  0.00     0.059 A 
ATOM     86  C   UNL A   1      46.923  28.769  36.477  1.00  0.00     0.059 A 
ATOM     87  F   UNL A   1      46.058  30.356  34.983  1.00  0.00    -0.206 F 
ATOM     88  C   UNL A   1      46.711  27.684  37.327  1.00  0.00     0.060 A 
BRANCH  88  89
ATOM     89  S   UNL A   1      48.095  26.943  38.219  1.00  0.00     0.124 S 
ATOM     90  O   UNL A   1      49.205  27.788  37.795  1.00  0.00    -0.237 OA
ATOM     91  O   UNL A   1      47.676  27.088  39.610  1.00  0.00    -0.237 OA
ATOM     92  O   UNL A   1      48.120  25.571  37.722  1.00  0.00    -0.744 OA
ENDBRANCH  88  89
ENDBRANCH  56  81
BRANCH  68  93
ATOM     93  C   UNL A   1      39.672  33.498  37.511  1.00  0.00     0.058 A 
ATOM     94  C   UNL A   1      40.324  34.708  37.792  1.00  0.00     0.135 A 
ATOM     95  C   UNL A   1      38.695  33.055  38.420  1.00  0.00     0.135 A 
ATOM     96  F   UNL A   1      41.270  35.175  36.961  1.00  0.00    -0.206 F 
ATOM     97  C   UNL A   1      40.038  35.440  38.941  1.00  0.00     0.059 A 
ATOM     98  C   UNL A   1      38.373  33.783  39.561  1.00  0.00     0.059 A 
ATOM     99  F   UNL A   1      38.032  31.909  38.193  1.00  0.00    -0.206 F 
ATOM    100  C   UNL A   1      39.060  34.968  39.820  1.00  0.00     0.060 A 
BRANCH 100 101
ATOM    101  S   UNL A   1      38.679  35.939  41.294  1.00  0.00     0.124 S 
ATOM    102  O   UNL A   1      38.555  37.282  40.737  1.00  0.00    -0.237 OA
ATOM    103  O   UNL A   1      37.439  35.329  41.760  1.00  0.00    -0.237 OA
ATOM    104  O   UNL A   1      39.840  35.720  42.154  1.00  0.00    -0.744 OA
ENDBRANCH 100 101
ENDBRANCH  68  93
ENDBRANCH  42  43
ENDBRANCH  35  37
ENDBRANCH  34  35
ENDBRANCH  33  34
ENDBRANCH  32  33
ENDBRANCH  31  32
ENDBRANCH   1  31
TORSDOF 22
ENDMDL
MODEL 3
REMARK VINA RESULT:     -10.7      6.105     11.265
REMARK SMILES O=C(C[NH+]1CCC(C(=O)OCCOCCOC(=O)c2ccc(-c3c4nc(c(-c5c(F)cc(S(=O)(=O)[O-])cc5F)c5ccc([nH]5)c(-c5c(F)cc(S(=O)(=O)[O-])cc5F)c5nc(c(-c6c(F)cc(S(=O)(=O)[O-])cc6F)c6ccc3[nH]6)C=C5)C=C4)cc2)CC1)Nc1ccccc1Oc1ccccc1
REMARK SMILES IDX 12 1 11 2 10 3 8 4 9 5 7 6 4 7 5 8 86 9 6 11 85 12 3 13 2 14
REMARK SMILES IDX 1 15 87 16 88 18 89 19 93 20 90 21 92 22 91 23 94 24 95 25
REMARK SMILES IDX 96 26 100 27 97 28 99 29 98 30 13 31 14 32 15 33 16 34 17 35
REMARK SMILES IDX 18 36 19 37 20 38 84 39 21 40 83 41 22 42 23 43 24 44 77 45
REMARK SMILES IDX 25 46 82 47 76 48 78 49 26 50 81 51 75 52 74 53 27 55 61 56
REMARK SMILES IDX 40 57 60 58 41 59 44 60 59 61 79 62 42 63 43 64 58 66 80 67
REMARK SMILES IDX 45 68 28 69 29 70 38 71 30 72 31 73 37 74 39 75 32 76 33 77
REMARK SMILES IDX 34 78 35 79 36 80 62 81 63 82 72 83 64 84 65 85 71 86 73 87
REMARK SMILES IDX 66 88 67 89 68 90 69 91 70 92 46 93 47 94 56 95 48 96 49 97
REMARK SMILES IDX 55 98 57 99 50 100 51 101 52 102 53 103 54 104
REMARK H PARENT 4 10 87 17 78 54 44 65
REMARK Flexibility Score: inf
ROOT
ATOM      1  C   UNL A   1      34.167  30.085  26.948  1.00  0.00     0.202 C 
ENDROOT
BRANCH   1   2
ATOM      2  C   UNL A   1      32.918  30.134  26.063  1.00  0.00     0.261 C 
BRANCH   2   3
ATOM      3  O   UNL A   1      32.713  28.853  25.440  1.00  0.00    -0.463 OA
BRANCH   3   4
ATOM      4  C   UNL A   1      31.540  28.663  24.788  1.00  0.00     0.309 C 
ATOM      5  O   UNL A   1      30.881  29.536  24.240  1.00  0.00    -0.252 OA
BRANCH   4   6
ATOM      6  C   UNL A   1      31.126  27.208  24.793  1.00  0.00     0.110 C 
ATOM      7  N   UNL A   1      31.596  24.343  24.443  1.00  0.00    -0.327 N 
ATOM      8  C   UNL A   1      30.768  25.087  23.501  1.00  0.00     0.263 C 
ATOM      9  C   UNL A   1      31.557  24.951  25.789  1.00  0.00     0.263 C 
ATOM     10  H   UNL A   1      32.532  24.389  24.042  1.00  0.00     0.348 HD
ATOM     11  C   UNL A   1      31.182  26.545  23.417  1.00  0.00     0.077 C 
ATOM     12  C   UNL A   1      31.966  26.420  25.788  1.00  0.00     0.077 C 
BRANCH   7  13
ATOM     13  C   UNL A   1      31.225  22.913  24.585  1.00  0.00     0.363 C 
BRANCH  13  14
ATOM     14  C   UNL A   1      32.123  21.892  23.876  1.00  0.00     0.279 C 
ATOM     15  O   UNL A   1      32.955  22.204  23.030  1.00  0.00    -0.268 OA
ATOM     16  N   UNL A   1      31.920  20.601  24.347  1.00  0.00    -0.318 N 
ATOM     17  H   UNL A   1      31.092  20.422  24.847  1.00  0.00     0.170 HD
BRANCH  16  18
ATOM     18  C   UNL A   1      32.809  19.535  24.162  1.00  0.00     0.084 A 
ATOM     19  C   UNL A   1      32.379  18.528  23.284  1.00  0.00     0.030 A 
ATOM     20  C   UNL A   1      34.036  19.400  24.832  1.00  0.00     0.150 A 
ATOM     21  C   UNL A   1      33.204  17.443  22.987  1.00  0.00     0.002 A 
ATOM     22  C   UNL A   1      34.852  18.300  24.526  1.00  0.00     0.049 A 
ATOM     23  C   UNL A   1      34.446  17.334  23.604  1.00  0.00     0.004 A 
BRANCH  20  24
ATOM     24  O   UNL A   1      34.576  20.233  25.789  1.00  0.00    -0.455 OA
BRANCH  24  25
ATOM     25  C   UNL A   1      35.253  21.377  25.442  1.00  0.00     0.127 A 
ATOM     26  C   UNL A   1      34.893  22.528  26.149  1.00  0.00     0.047 A 
ATOM     27  C   UNL A   1      36.223  21.453  24.440  1.00  0.00     0.047 A 
ATOM     28  C   UNL A   1      35.554  23.734  25.920  1.00  0.00     0.004 A 
ATOM     29  C   UNL A   1      36.887  22.665  24.210  1.00  0.00     0.004 A 
ATOM     30  C   UNL A   1      36.560  23.801  24.957  1.00  0.00     0.000 A 
ENDBRANCH  24  25
ENDBRANCH  20  24
ENDBRANCH  16  18
ENDBRANCH  13  14
ENDBRANCH   7  13
ENDBRANCH   4   6
ENDBRANCH   3   4
ENDBRANCH   2   3
ENDBRANCH   1   2
BRANCH   1  31
ATOM     31  O   UNL A   1      34.072  30.767  28.204  1.00  0.00    -0.374 OA
BRANCH  31  32
ATOM     32  C   UNL A   1      34.729  32.027  28.301  1.00  0.00     0.202 C 
BRANCH  32  33
ATOM     33  C   UNL A   1      35.006  32.551  29.718  1.00  0.00     0.261 C 
BRANCH  33  34
ATOM     34  O   UNL A   1      36.384  32.418  30.104  1.00  0.00    -0.460 OA
BRANCH  34  35
ATOM     35  C   UNL A   1      36.654  31.300  30.819  1.00  0.00     0.338 C 
ATOM     36  O   UNL A   1      35.951  30.796  31.687  1.00  0.00    -0.246 OA
BRANCH  35  37
ATOM     37  C   UNL A   1      37.855  30.625  30.297  1.00  0.00     0.060 A 
ATOM     38  C   UNL A   1      38.797  30.187  31.235  1.00  0.00     0.016 A 
ATOM     39  C   UNL A   1      38.106  30.503  28.928  1.00  0.00     0.016 A 
ATOM     40  C   UNL A   1      40.019  29.673  30.809  1.00  0.00     0.010 A 
ATOM     41  C   UNL A   1      39.339  29.995  28.502  1.00  0.00     0.010 A 
ATOM     42  C   UNL A   1      40.316  29.614  29.442  1.00  0.00    -0.014 A 
BRANCH  42  43
ATOM     43  C   UNL A   1      41.706  29.303  29.023  1.00  0.00     0.031 A 
ATOM     44  C   UNL A   1      42.035  27.905  28.569  1.00  0.00     0.074 A 
ATOM     45  C   UNL A   1      42.643  30.267  28.977  1.00  0.00     0.049 A 
ATOM     46  N   UNL A   1      43.171  27.419  28.138  1.00  0.00    -0.248 NA
ATOM     47  C   UNL A   1      40.937  26.926  28.602  1.00  0.00     0.031 C 
ATOM     48  C   UNL A   1      42.434  31.666  29.347  1.00  0.00     0.029 A 
ATOM     49  N   UNL A   1      43.960  30.214  28.594  1.00  0.00    -0.354 N 
ATOM     50  C   UNL A   1      42.925  26.082  27.849  1.00  0.00     0.074 A 
ATOM     51  C   UNL A   1      41.542  25.824  28.184  1.00  0.00     0.031 C 
ATOM     52  C   UNL A   1      43.584  32.341  29.175  1.00  0.00     0.029 A 
ATOM     53  C   UNL A   1      44.617  31.417  28.708  1.00  0.00     0.049 A 
ATOM     54  H   UNL A   1      44.394  29.393  28.267  1.00  0.00     0.167 HD
ATOM     55  C   UNL A   1      43.772  25.155  27.340  1.00  0.00     0.037 A 
ATOM     56  C   UNL A   1      45.906  31.732  28.475  1.00  0.00     0.037 A 
ATOM     57  C   UNL A   1      45.149  25.415  27.009  1.00  0.00     0.049 A 
ATOM     58  C   UNL A   1      46.847  30.667  27.973  1.00  0.00     0.074 A 
ATOM     59  C   UNL A   1      46.087  24.545  26.479  1.00  0.00     0.029 A 
ATOM     60  N   UNL A   1      45.789  26.634  27.179  1.00  0.00    -0.354 N 
ATOM     61  N   UNL A   1      46.597  29.411  27.690  1.00  0.00    -0.248 NA
ATOM     62  C   UNL A   1      48.246  31.064  27.756  1.00  0.00     0.031 C 
ATOM     63  C   UNL A   1      47.304  25.225  26.372  1.00  0.00     0.029 A 
ATOM     64  C   UNL A   1      47.113  26.534  26.786  1.00  0.00     0.049 A 
ATOM     65  H   UNL A   1      45.363  27.452  27.527  1.00  0.00     0.167 HD
ATOM     66  C   UNL A   1      47.799  28.875  27.236  1.00  0.00     0.074 A 
ATOM     67  C   UNL A   1      48.772  29.947  27.272  1.00  0.00     0.031 C 
ATOM     68  C   UNL A   1      48.071  27.612  26.823  1.00  0.00     0.037 A 
BRANCH  55  69
ATOM     69  C   UNL A   1      43.238  23.765  27.131  1.00  0.00     0.058 A 
ATOM     70  C   UNL A   1      43.242  22.810  28.160  1.00  0.00     0.135 A 
ATOM     71  C   UNL A   1      42.685  23.393  25.895  1.00  0.00     0.135 A 
ATOM     72  F   UNL A   1      43.775  23.106  29.356  1.00  0.00    -0.206 F 
ATOM     73  C   UNL A   1      42.739  21.527  27.964  1.00  0.00     0.059 A 
ATOM     74  C   UNL A   1      42.152  22.125  25.684  1.00  0.00     0.059 A 
ATOM     75  F   UNL A   1      42.657  24.268  24.877  1.00  0.00    -0.206 F 
ATOM     76  C   UNL A   1      42.197  21.194  26.721  1.00  0.00     0.060 A 
BRANCH  76  77
ATOM     77  S   UNL A   1      41.543  19.527  26.482  1.00  0.00     0.124 S 
ATOM     78  O   UNL A   1      40.255  19.807  25.855  1.00  0.00    -0.237 OA
ATOM     79  O   UNL A   1      42.549  18.917  25.619  1.00  0.00    -0.237 OA
ATOM     80  O   UNL A   1      41.477  18.991  27.838  1.00  0.00    -0.744 OA
ENDBRANCH  76  77
ENDBRANCH  55  69
BRANCH  56  81
ATOM     81  C   UNL A   1      46.389  33.117  28.721  1.00  0.00     0.058 A 
ATOM     82  C   UNL A   1      46.861  33.509  29.981  1.00  0.00     0.135 A 
ATOM     83  C   UNL A   1      46.385  34.077  27.696  1.00  0.00     0.135 A 
ATOM     84  F   UNL A   1      46.873  32.631  30.996  1.00  0.00    -0.206 F 
ATOM     85  C   UNL A   1      47.303  34.807  30.223  1.00  0.00     0.059 A 
ATOM     86  C   UNL A   1      46.846  35.373  27.906  1.00  0.00     0.059 A 
ATOM     87  F   UNL A   1      45.951  33.750  26.469  1.00  0.00    -0.206 F 
ATOM     88  C   UNL A   1      47.294  35.731  29.177  1.00  0.00     0.060 A 
BRANCH  88  89
ATOM     89  S   UNL A   1      47.918  37.397  29.485  1.00  0.00     0.124 S 
ATOM     90  O   UNL A   1      48.070  37.911  28.129  1.00  0.00    -0.237 OA
ATOM     91  O   UNL A   1      46.841  37.987  30.275  1.00  0.00    -0.237 OA
ATOM     92  O   UNL A   1      49.161  37.161  30.215  1.00  0.00    -0.744 OA
ENDBRANCH  88  89
ENDBRANCH  56  81
BRANCH  68  93
ATOM     93  C   UNL A   1      49.467  27.323  26.344  1.00  0.00     0.058 A 
ATOM     94  C   UNL A   1      50.499  26.987  27.233  1.00  0.00     0.135 A 
ATOM     95  C   UNL A   1      49.765  27.338  24.971  1.00  0.00     0.135 A 
ATOM     96  F   UNL A   1      50.270  26.963  28.556  1.00  0.00    -0.206 F 
ATOM     97  C   UNL A   1      51.784  26.700  26.782  1.00  0.00     0.059 A 
ATOM     98  C   UNL A   1      51.035  27.028  24.495  1.00  0.00     0.059 A 
ATOM     99  F   UNL A   1      48.811  27.641  24.076  1.00  0.00    -0.206 F 
ATOM    100  C   UNL A   1      52.042  26.723  25.410  1.00  0.00     0.060 A 
BRANCH 100 101
ATOM    101  S   UNL A   1      53.706  26.324  24.834  1.00  0.00     0.124 S 
ATOM    102  O   UNL A   1      54.486  26.486  26.056  1.00  0.00    -0.237 OA
ATOM    103  O   UNL A   1      53.553  24.954  24.356  1.00  0.00    -0.237 OA
ATOM    104  O   UNL A   1      53.953  27.319  23.794  1.00  0.00    -0.744 OA
ENDBRANCH 100 101
ENDBRANCH  68  93
ENDBRANCH  42  43
ENDBRANCH  35  37
ENDBRANCH  34  35
ENDBRANCH  33  34
ENDBRANCH  32  33
ENDBRANCH  31  32
ENDBRANCH   1  31
TORSDOF 22
ENDMDL
