MODEL 1
REMARK VINA RESULT:     -10.4      0.000      0.000
REMARK SMILES CC[C@H](C)c1ccccc1Oc1cccc(F)c1C(=O)OCCOCCOC(=O)c1ccc(-c2c3nc(c(-c4c(F)cc(S(=O)(=O)[O-])cc4F)c4ccc([nH]4)c(-c4c(F)cc(S(=O)(=O)[O-])cc4F)c4nc(c(-c5c(F)cc(S(=O)(=O)[O-])cc5F)c5ccc2[nH]5)C=C4)C=C3)cc1
REMARK SMILES IDX 23 1 22 2 21 3 19 4 20 5 18 6 12 7 13 8 14 9 16 10 15 11
REMARK SMILES IDX 17 12 11 13 10 14 5 15 6 16 7 17 9 18 8 19 3 20 4 21 2 22
REMARK SMILES IDX 1 23 24 24 25 25 26 26 27 27 28 28 29 29 30 30 31 31 95 32
REMARK SMILES IDX 32 33 94 34 33 35 34 36 35 37 88 38 36 39 93 40 87 41 89 42
REMARK SMILES IDX 37 43 92 44 86 45 85 46 38 48 72 49 51 50 71 51 52 52 55 53
REMARK SMILES IDX 70 54 90 55 53 56 54 57 69 59 91 60 56 61 39 62 40 63 49 64
REMARK SMILES IDX 41 65 42 66 48 67 50 68 43 69 44 70 45 71 46 72 47 73 73 74
REMARK SMILES IDX 74 75 83 76 75 77 76 78 82 79 84 80 77 81 78 82 79 83 80 84
REMARK SMILES IDX 81 85 57 86 58 87 67 88 59 89 60 90 66 91 68 92 61 93 62 94
REMARK SMILES IDX 63 95 64 96 65 97
REMARK H PARENT 89 47 55 58
REMARK Flexibility Score: inf
ROOT
ATOM      1  C   UNL A   1      33.545  28.780  24.156  1.00  0.00     0.202 C 
ENDROOT
BRANCH   1   2
ATOM      2  C   UNL A   1      33.397  27.618  23.172  1.00  0.00     0.261 C 
BRANCH   2   3
ATOM      3  O   UNL A   1      32.207  27.712  22.372  1.00  0.00    -0.459 OA
BRANCH   3   4
ATOM      4  C   UNL A   1      31.642  26.519  22.068  1.00  0.00     0.345 C 
ATOM      5  O   UNL A   1      31.549  26.019  20.958  1.00  0.00    -0.246 OA
BRANCH   4   6
ATOM      6  C   UNL A   1      31.241  25.796  23.285  1.00  0.00     0.138 A 
ATOM      7  C   UNL A   1      31.739  24.559  23.690  1.00  0.00     0.144 A 
ATOM      8  C   UNL A   1      31.270  23.997  24.896  1.00  0.00     0.048 A 
ATOM      9  C   UNL A   1      30.388  24.681  25.730  1.00  0.00     0.007 A 
ATOM     10  C   UNL A   1      30.349  26.472  24.129  1.00  0.00     0.141 A 
ATOM     11  C   UNL A   1      29.932  25.932  25.346  1.00  0.00     0.040 A 
ATOM     12  F   UNL A   1      29.847  27.668  23.784  1.00  0.00    -0.206 F 
BRANCH   7  13
ATOM     13  O   UNL A   1      32.630  23.729  23.073  1.00  0.00    -0.456 OA
BRANCH  13  14
ATOM     14  C   UNL A   1      33.010  22.485  23.517  1.00  0.00     0.130 A 
ATOM     15  C   UNL A   1      33.932  22.149  24.535  1.00  0.00    -0.002 A 
ATOM     16  C   UNL A   1      34.032  20.771  24.844  1.00  0.00     0.008 A 
ATOM     17  C   UNL A   1      33.242  19.793  24.225  1.00  0.00     0.001 A 
ATOM     18  C   UNL A   1      32.202  21.494  22.919  1.00  0.00     0.047 A 
ATOM     19  C   UNL A   1      32.316  20.154  23.265  1.00  0.00     0.004 A 
BRANCH  15  20
ATOM     20  C   UNL A   1      34.839  23.156  25.260  1.00  0.00     0.019 C 
ATOM     21  C   UNL A   1      34.861  23.024  26.791  1.00  0.00     0.013 C 
BRANCH  20  22
ATOM     22  C   UNL A   1      36.273  23.374  24.699  1.00  0.00     0.005 C 
ATOM     23  C   UNL A   1      37.324  23.773  25.728  1.00  0.00     0.004 C 
ENDBRANCH  20  22
ENDBRANCH  15  20
ENDBRANCH  13  14
ENDBRANCH   7  13
ENDBRANCH   4   6
ENDBRANCH   3   4
ENDBRANCH   2   3
ENDBRANCH   1   2
BRANCH   1  24
ATOM     24  O   UNL A   1      32.791  28.760  25.365  1.00  0.00    -0.374 OA
BRANCH  24  25
ATOM     25  C   UNL A   1      32.074  29.927  25.747  1.00  0.00     0.202 C 
BRANCH  25  26
ATOM     26  C   UNL A   1      32.597  30.790  26.907  1.00  0.00     0.261 C 
BRANCH  26  27
ATOM     27  O   UNL A   1      33.460  30.116  27.837  1.00  0.00    -0.460 OA
BRANCH  27  28
ATOM     28  C   UNL A   1      34.492  30.882  28.273  1.00  0.00     0.338 C 
ATOM     29  O   UNL A   1      34.433  32.033  28.671  1.00  0.00    -0.246 OA
BRANCH  28  30
ATOM     30  C   UNL A   1      35.745  30.107  28.348  1.00  0.00     0.060 A 
ATOM     31  C   UNL A   1      36.125  29.633  29.610  1.00  0.00     0.016 A 
ATOM     32  C   UNL A   1      36.618  30.013  27.261  1.00  0.00     0.016 A 
ATOM     33  C   UNL A   1      37.411  29.143  29.810  1.00  0.00     0.010 A 
ATOM     34  C   UNL A   1      37.916  29.529  27.468  1.00  0.00     0.010 A 
ATOM     35  C   UNL A   1      38.334  29.149  28.757  1.00  0.00    -0.014 A 
BRANCH  35  36
ATOM     36  C   UNL A   1      39.770  28.968  29.087  1.00  0.00     0.031 A 
ATOM     37  C   UNL A   1      40.430  27.655  28.750  1.00  0.00     0.074 A 
ATOM     38  C   UNL A   1      40.501  29.990  29.568  1.00  0.00     0.049 A 
ATOM     39  N   UNL A   1      41.689  27.309  28.849  1.00  0.00    -0.248 NA
ATOM     40  C   UNL A   1      39.556  26.593  28.223  1.00  0.00     0.031 C 
ATOM     41  C   UNL A   1      39.984  31.318  29.892  1.00  0.00     0.029 A 
ATOM     42  N   UNL A   1      41.842  30.071  29.846  1.00  0.00    -0.354 N 
ATOM     43  C   UNL A   1      41.759  25.999  28.387  1.00  0.00     0.074 A 
ATOM     44  C   UNL A   1      40.412  25.597  28.048  1.00  0.00     0.031 C 
ATOM     45  C   UNL A   1      41.000  32.088  30.319  1.00  0.00     0.029 A 
ATOM     46  C   UNL A   1      42.235  31.304  30.308  1.00  0.00     0.049 A 
ATOM     47  H   UNL A   1      42.463  29.317  29.727  1.00  0.00     0.167 HD
ATOM     48  C   UNL A   1      42.848  25.207  28.240  1.00  0.00     0.037 A 
ATOM     49  C   UNL A   1      43.453  31.747  30.675  1.00  0.00     0.037 A 
ATOM     50  C   UNL A   1      44.188  25.606  28.577  1.00  0.00     0.049 A 
ATOM     51  C   UNL A   1      44.642  30.829  30.556  1.00  0.00     0.074 A 
ATOM     52  C   UNL A   1      45.359  24.876  28.467  1.00  0.00     0.029 A 
ATOM     53  N   UNL A   1      44.537  26.846  29.090  1.00  0.00    -0.354 N 
ATOM     54  N   UNL A   1      44.692  29.598  30.105  1.00  0.00    -0.248 NA
ATOM     55  C   UNL A   1      45.940  31.365  30.988  1.00  0.00     0.031 C 
ATOM     56  C   UNL A   1      46.412  25.664  28.947  1.00  0.00     0.029 A 
ATOM     57  C   UNL A   1      45.902  26.898  29.319  1.00  0.00     0.049 A 
ATOM     58  H   UNL A   1      43.908  27.582  29.266  1.00  0.00     0.167 HD
ATOM     59  C   UNL A   1      46.030  29.221  30.179  1.00  0.00     0.074 A 
ATOM     60  C   UNL A   1      46.756  30.359  30.704  1.00  0.00     0.031 C 
ATOM     61  C   UNL A   1      46.607  28.040  29.844  1.00  0.00     0.037 A 
BRANCH  48  62
ATOM     62  C   UNL A   1      42.626  23.821  27.703  1.00  0.00     0.058 A 
ATOM     63  C   UNL A   1      42.565  23.570  26.322  1.00  0.00     0.135 A 
ATOM     64  C   UNL A   1      42.492  22.729  28.574  1.00  0.00     0.135 A 
ATOM     65  F   UNL A   1      42.670  24.581  25.446  1.00  0.00    -0.206 F 
ATOM     66  C   UNL A   1      42.354  22.287  25.825  1.00  0.00     0.059 A 
ATOM     67  C   UNL A   1      42.301  21.435  28.100  1.00  0.00     0.059 A 
ATOM     68  F   UNL A   1      42.540  22.916  29.902  1.00  0.00    -0.206 F 
ATOM     69  C   UNL A   1      42.219  21.226  26.723  1.00  0.00     0.060 A 
BRANCH  69  70
ATOM     70  S   UNL A   1      41.943  19.566  26.067  1.00  0.00     0.124 S 
ATOM     71  O   UNL A   1      42.792  19.578  24.880  1.00  0.00    -0.237 OA
ATOM     72  O   UNL A   1      42.395  18.715  27.163  1.00  0.00    -0.237 OA
ATOM     73  O   UNL A   1      40.506  19.539  25.810  1.00  0.00    -0.744 OA
ENDBRANCH  69  70
ENDBRANCH  48  62
BRANCH  49  74
ATOM     74  C   UNL A   1      43.616  33.133  31.189  1.00  0.00     0.058 A 
ATOM     75  C   UNL A   1      43.949  34.192  30.332  1.00  0.00     0.135 A 
ATOM     76  C   UNL A   1      43.454  33.419  32.553  1.00  0.00     0.135 A 
ATOM     77  F   UNL A   1      44.125  33.963  29.021  1.00  0.00    -0.206 F 
ATOM     78  C   UNL A   1      44.131  35.486  30.810  1.00  0.00     0.059 A 
ATOM     79  C   UNL A   1      43.609  34.709  33.052  1.00  0.00     0.059 A 
ATOM     80  F   UNL A   1      43.126  32.442  33.412  1.00  0.00    -0.206 F 
ATOM     81  C   UNL A   1      43.958  35.733  32.173  1.00  0.00     0.060 A 
BRANCH  81  82
ATOM     82  S   UNL A   1      44.152  37.423  32.783  1.00  0.00     0.124 S 
ATOM     83  O   UNL A   1      43.157  37.467  33.847  1.00  0.00    -0.237 OA
ATOM     84  O   UNL A   1      45.548  37.439  33.210  1.00  0.00    -0.237 OA
ATOM     85  O   UNL A   1      43.858  38.236  31.606  1.00  0.00    -0.744 OA
ENDBRANCH  81  82
ENDBRANCH  49  74
BRANCH  61  86
ATOM     86  C   UNL A   1      48.095  27.929  30.018  1.00  0.00     0.058 A 
ATOM     87  C   UNL A   1      48.983  28.277  28.989  1.00  0.00     0.135 A 
ATOM     88  C   UNL A   1      48.640  27.494  31.237  1.00  0.00     0.135 A 
ATOM     89  F   UNL A   1      48.512  28.695  27.804  1.00  0.00    -0.206 F 
ATOM     90  C   UNL A   1      50.360  28.166  29.150  1.00  0.00     0.059 A 
ATOM     91  C   UNL A   1      50.016  27.399  31.429  1.00  0.00     0.059 A 
ATOM     92  F   UNL A   1      47.835  27.162  32.258  1.00  0.00    -0.206 F 
ATOM     93  C   UNL A   1      50.867  27.721  30.372  1.00  0.00     0.060 A 
BRANCH  93  94
ATOM     94  S   UNL A   1      52.656  27.588  30.576  1.00  0.00     0.124 S 
ATOM     95  O   UNL A   1      52.973  26.490  29.669  1.00  0.00    -0.237 OA
ATOM     96  O   UNL A   1      53.121  28.908  30.161  1.00  0.00    -0.237 OA
ATOM     97  O   UNL A   1      52.813  27.295  31.997  1.00  0.00    -0.744 OA
ENDBRANCH  93  94
ENDBRANCH  61  86
ENDBRANCH  35  36
ENDBRANCH  28  30
ENDBRANCH  27  28
ENDBRANCH  26  27
ENDBRANCH  25  26
ENDBRANCH  24  25
ENDBRANCH   1  24
TORSDOF 21
ENDMDL
MODEL 2
REMARK VINA RESULT:     -10.4      3.049      8.640
REMARK SMILES CC[C@H](C)c1ccccc1Oc1cccc(F)c1C(=O)OCCOCCOC(=O)c1ccc(-c2c3nc(c(-c4c(F)cc(S(=O)(=O)[O-])cc4F)c4ccc([nH]4)c(-c4c(F)cc(S(=O)(=O)[O-])cc4F)c4nc(c(-c5c(F)cc(S(=O)(=O)[O-])cc5F)c5ccc2[nH]5)C=C4)C=C3)cc1
REMARK SMILES IDX 23 1 22 2 21 3 19 4 20 5 18 6 12 7 13 8 14 9 16 10 15 11
REMARK SMILES IDX 17 12 11 13 10 14 5 15 6 16 7 17 9 18 8 19 3 20 4 21 2 22
REMARK SMILES IDX 1 23 24 24 25 25 26 26 27 27 28 28 29 29 30 30 31 31 95 32
REMARK SMILES IDX 32 33 94 34 33 35 34 36 35 37 88 38 36 39 93 40 87 41 89 42
REMARK SMILES IDX 37 43 92 44 86 45 85 46 38 48 72 49 51 50 71 51 52 52 55 53
REMARK SMILES IDX 70 54 90 55 53 56 54 57 69 59 91 60 56 61 39 62 40 63 49 64
REMARK SMILES IDX 41 65 42 66 48 67 50 68 43 69 44 70 45 71 46 72 47 73 73 74
REMARK SMILES IDX 74 75 83 76 75 77 76 78 82 79 84 80 77 81 78 82 79 83 80 84
REMARK SMILES IDX 81 85 57 86 58 87 67 88 59 89 60 90 66 91 68 92 61 93 62 94
REMARK SMILES IDX 63 95 64 96 65 97
REMARK H PARENT 89 47 55 58
REMARK Flexibility Score: inf
ROOT
ATOM      1  C   UNL A   1      32.124  27.541  26.865  1.00  0.00     0.202 C 
ENDROOT
BRANCH   1   2
ATOM      2  C   UNL A   1      31.183  26.375  26.554  1.00  0.00     0.261 C 
BRANCH   2   3
ATOM      3  O   UNL A   1      31.792  25.092  26.777  1.00  0.00    -0.459 OA
BRANCH   3   4
ATOM      4  C   UNL A   1      30.971  24.038  26.551  1.00  0.00     0.345 C 
ATOM      5  O   UNL A   1      29.893  23.828  27.082  1.00  0.00    -0.246 OA
BRANCH   4   6
ATOM      6  C   UNL A   1      31.480  23.194  25.459  1.00  0.00     0.138 A 
ATOM      7  C   UNL A   1      31.085  23.274  24.125  1.00  0.00     0.144 A 
ATOM      8  C   UNL A   1      31.678  22.407  23.184  1.00  0.00     0.048 A 
ATOM      9  C   UNL A   1      32.703  21.532  23.537  1.00  0.00     0.007 A 
ATOM     10  C   UNL A   1      32.508  22.305  25.804  1.00  0.00     0.141 A 
ATOM     11  C   UNL A   1      33.126  21.488  24.857  1.00  0.00     0.040 A 
ATOM     12  F   UNL A   1      32.926  22.195  27.075  1.00  0.00    -0.206 F 
BRANCH   7  13
ATOM     13  O   UNL A   1      30.145  24.070  23.537  1.00  0.00    -0.456 OA
BRANCH  13  14
ATOM     14  C   UNL A   1      30.226  25.434  23.387  1.00  0.00     0.130 A 
ATOM     15  C   UNL A   1      31.234  26.201  22.760  1.00  0.00    -0.002 A 
ATOM     16  C   UNL A   1      30.982  27.590  22.666  1.00  0.00     0.008 A 
ATOM     17  C   UNL A   1      29.794  28.181  23.117  1.00  0.00     0.001 A 
ATOM     18  C   UNL A   1      29.022  26.036  23.815  1.00  0.00     0.047 A 
ATOM     19  C   UNL A   1      28.804  27.401  23.685  1.00  0.00     0.004 A 
BRANCH  15  20
ATOM     20  C   UNL A   1      32.567  25.635  22.243  1.00  0.00     0.019 C 
ATOM     21  C   UNL A   1      32.742  25.682  20.717  1.00  0.00     0.013 C 
BRANCH  20  22
ATOM     22  C   UNL A   1      33.871  26.076  22.967  1.00  0.00     0.005 C 
ATOM     23  C   UNL A   1      34.242  25.260  24.199  1.00  0.00     0.004 C 
ENDBRANCH  20  22
ENDBRANCH  15  20
ENDBRANCH  13  14
ENDBRANCH   7  13
ENDBRANCH   4   6
ENDBRANCH   3   4
ENDBRANCH   2   3
ENDBRANCH   1   2
BRANCH   1  24
ATOM     24  O   UNL A   1      32.588  28.358  25.792  1.00  0.00    -0.374 OA
BRANCH  24  25
ATOM     25  C   UNL A   1      32.375  29.762  25.857  1.00  0.00     0.202 C 
BRANCH  25  26
ATOM     26  C   UNL A   1      32.829  30.539  27.104  1.00  0.00     0.261 C 
BRANCH  26  27
ATOM     27  O   UNL A   1      34.140  31.122  27.024  1.00  0.00    -0.460 OA
BRANCH  27  28
ATOM     28  C   UNL A   1      34.717  31.329  28.235  1.00  0.00     0.338 C 
ATOM     29  O   UNL A   1      34.288  32.026  29.140  1.00  0.00    -0.246 OA
BRANCH  28  30
ATOM     30  C   UNL A   1      35.913  30.486  28.415  1.00  0.00     0.060 A 
ATOM     31  C   UNL A   1      35.987  29.731  29.593  1.00  0.00     0.016 A 
ATOM     32  C   UNL A   1      37.013  30.577  27.559  1.00  0.00     0.016 A 
ATOM     33  C   UNL A   1      37.188  29.136  29.963  1.00  0.00     0.010 A 
ATOM     34  C   UNL A   1      38.225  29.985  27.939  1.00  0.00     0.010 A 
ATOM     35  C   UNL A   1      38.331  29.315  29.171  1.00  0.00    -0.014 A 
BRANCH  35  36
ATOM     36  C   UNL A   1      39.650  28.985  29.767  1.00  0.00     0.031 A 
ATOM     37  C   UNL A   1      40.075  29.700  31.024  1.00  0.00     0.074 A 
ATOM     38  C   UNL A   1      40.400  27.986  29.269  1.00  0.00     0.049 A 
ATOM     39  N   UNL A   1      41.129  29.503  31.775  1.00  0.00    -0.248 NA
ATOM     40  C   UNL A   1      39.191  30.776  31.503  1.00  0.00     0.031 C 
ATOM     41  C   UNL A   1      40.073  27.194  28.084  1.00  0.00     0.029 A 
ATOM     42  N   UNL A   1      41.585  27.457  29.714  1.00  0.00    -0.354 N 
ATOM     43  C   UNL A   1      41.027  30.417  32.818  1.00  0.00     0.074 A 
ATOM     44  C   UNL A   1      39.833  31.199  32.581  1.00  0.00     0.031 C 
ATOM     45  C   UNL A   1      41.032  26.270  27.901  1.00  0.00     0.029 A 
ATOM     46  C   UNL A   1      42.045  26.414  28.946  1.00  0.00     0.049 A 
ATOM     47  H   UNL A   1      42.060  27.792  30.507  1.00  0.00     0.167 HD
ATOM     48  C   UNL A   1      41.842  30.581  33.887  1.00  0.00     0.037 A 
ATOM     49  C   UNL A   1      43.155  25.661  29.077  1.00  0.00     0.037 A 
ATOM     50  C   UNL A   1      43.030  29.805  34.124  1.00  0.00     0.049 A 
ATOM     51  C   UNL A   1      44.077  25.899  30.244  1.00  0.00     0.074 A 
ATOM     52  C   UNL A   1      43.925  29.896  35.177  1.00  0.00     0.029 A 
ATOM     53  N   UNL A   1      43.490  28.792  33.295  1.00  0.00    -0.354 N 
ATOM     54  N   UNL A   1      43.959  26.760  31.228  1.00  0.00    -0.248 NA
ATOM     55  C   UNL A   1      45.279  25.057  30.323  1.00  0.00     0.031 C 
ATOM     56  C   UNL A   1      44.944  28.960  34.965  1.00  0.00     0.029 A 
ATOM     57  C   UNL A   1      44.664  28.261  33.802  1.00  0.00     0.049 A 
ATOM     58  H   UNL A   1      43.046  28.494  32.468  1.00  0.00     0.167 HD
ATOM     59  C   UNL A   1      45.060  26.547  32.053  1.00  0.00     0.074 A 
ATOM     60  C   UNL A   1      45.823  25.468  31.460  1.00  0.00     0.031 C 
ATOM     61  C   UNL A   1      45.410  27.187  33.196  1.00  0.00     0.037 A 
BRANCH  48  62
ATOM     62  C   UNL A   1      41.480  31.656  34.874  1.00  0.00     0.058 A 
ATOM     63  C   UNL A   1      42.024  32.948  34.785  1.00  0.00     0.135 A 
ATOM     64  C   UNL A   1      40.567  31.398  35.909  1.00  0.00     0.135 A 
ATOM     65  F   UNL A   1      42.916  33.241  33.826  1.00  0.00    -0.206 F 
ATOM     66  C   UNL A   1      41.693  33.941  35.703  1.00  0.00     0.059 A 
ATOM     67  C   UNL A   1      40.205  32.382  36.825  1.00  0.00     0.059 A 
ATOM     68  F   UNL A   1      40.021  30.180  36.040  1.00  0.00    -0.206 F 
ATOM     69  C   UNL A   1      40.785  33.646  36.722  1.00  0.00     0.060 A 
BRANCH  69  70
ATOM     70  S   UNL A   1      40.366  34.941  37.909  1.00  0.00     0.124 S 
ATOM     71  O   UNL A   1      40.931  34.401  39.141  1.00  0.00    -0.237 OA
ATOM     72  O   UNL A   1      41.048  36.107  37.356  1.00  0.00    -0.237 OA
ATOM     73  O   UNL A   1      38.908  34.989  37.856  1.00  0.00    -0.744 OA
ENDBRANCH  69  70
ENDBRANCH  48  62
BRANCH  49  74
ATOM     74  C   UNL A   1      43.458  24.603  28.077  1.00  0.00     0.058 A 
ATOM     75  C   UNL A   1      43.032  23.280  28.266  1.00  0.00     0.135 A 
ATOM     76  C   UNL A   1      44.192  24.897  26.918  1.00  0.00     0.135 A 
ATOM     77  F   UNL A   1      42.337  22.951  29.365  1.00  0.00    -0.206 F 
ATOM     78  C   UNL A   1      43.337  22.279  27.349  1.00  0.00     0.059 A 
ATOM     79  C   UNL A   1      44.489  23.918  25.975  1.00  0.00     0.059 A 
ATOM     80  F   UNL A   1      44.613  26.149  26.687  1.00  0.00    -0.206 F 
ATOM     81  C   UNL A   1      44.066  22.610  26.205  1.00  0.00     0.060 A 
BRANCH  81  82
ATOM     82  S   UNL A   1      44.421  21.316  24.995  1.00  0.00     0.124 S 
ATOM     83  O   UNL A   1      43.330  20.380  25.238  1.00  0.00    -0.237 OA
ATOM     84  O   UNL A   1      44.367  22.050  23.734  1.00  0.00    -0.237 OA
ATOM     85  O   UNL A   1      45.750  20.854  25.384  1.00  0.00    -0.744 OA
ENDBRANCH  81  82
ENDBRANCH  49  74
BRANCH  61  86
ATOM     86  C   UNL A   1      46.660  26.722  33.888  1.00  0.00     0.058 A 
ATOM     87  C   UNL A   1      47.910  27.296  33.612  1.00  0.00     0.135 A 
ATOM     88  C   UNL A   1      46.604  25.707  34.857  1.00  0.00     0.135 A 
ATOM     89  F   UNL A   1      48.017  28.268  32.692  1.00  0.00    -0.206 F 
ATOM     90  C   UNL A   1      49.067  26.858  34.248  1.00  0.00     0.059 A 
ATOM     91  C   UNL A   1      47.745  25.269  35.523  1.00  0.00     0.059 A 
ATOM     92  F   UNL A   1      45.431  25.133  35.168  1.00  0.00    -0.206 F 
ATOM     93  C   UNL A   1      48.975  25.841  35.198  1.00  0.00     0.060 A 
BRANCH  93  94
ATOM     94  S   UNL A   1      50.481  25.284  36.025  1.00  0.00     0.124 S 
ATOM     95  O   UNL A   1      51.211  24.671  34.921  1.00  0.00    -0.237 OA
ATOM     96  O   UNL A   1      51.039  26.531  36.540  1.00  0.00    -0.237 OA
ATOM     97  O   UNL A   1      49.986  24.361  37.041  1.00  0.00    -0.744 OA
ENDBRANCH  93  94
ENDBRANCH  61  86
ENDBRANCH  35  36
ENDBRANCH  28  30
ENDBRANCH  27  28
ENDBRANCH  26  27
ENDBRANCH  25  26
ENDBRANCH  24  25
ENDBRANCH   1  24
TORSDOF 21
ENDMDL
MODEL 3
REMARK VINA RESULT:     -10.3      0.999      8.157
REMARK SMILES CC[C@H](C)c1ccccc1Oc1cccc(F)c1C(=O)OCCOCCOC(=O)c1ccc(-c2c3nc(c(-c4c(F)cc(S(=O)(=O)[O-])cc4F)c4ccc([nH]4)c(-c4c(F)cc(S(=O)(=O)[O-])cc4F)c4nc(c(-c5c(F)cc(S(=O)(=O)[O-])cc5F)c5ccc2[nH]5)C=C4)C=C3)cc1
REMARK SMILES IDX 23 1 22 2 21 3 19 4 20 5 18 6 12 7 13 8 14 9 16 10 15 11
REMARK SMILES IDX 17 12 11 13 10 14 5 15 6 16 7 17 9 18 8 19 3 20 4 21 2 22
REMARK SMILES IDX 1 23 24 24 25 25 26 26 27 27 28 28 29 29 30 30 31 31 95 32
REMARK SMILES IDX 32 33 94 34 33 35 34 36 35 37 88 38 36 39 93 40 87 41 89 42
REMARK SMILES IDX 37 43 92 44 86 45 85 46 38 48 72 49 51 50 71 51 52 52 55 53
REMARK SMILES IDX 70 54 90 55 53 56 54 57 69 59 91 60 56 61 39 62 40 63 49 64
REMARK SMILES IDX 41 65 42 66 48 67 50 68 43 69 44 70 45 71 46 72 47 73 73 74
REMARK SMILES IDX 74 75 83 76 75 77 76 78 82 79 84 80 77 81 78 82 79 83 80 84
REMARK SMILES IDX 81 85 57 86 58 87 67 88 59 89 60 90 66 91 68 92 61 93 62 94
REMARK SMILES IDX 63 95 64 96 65 97
REMARK H PARENT 89 47 55 58
REMARK Flexibility Score: inf
ROOT
ATOM      1  C   UNL A   1      33.090  28.977  24.587  1.00  0.00     0.202 C 
ENDROOT
BRANCH   1   2
ATOM      2  C   UNL A   1      33.056  28.214  23.261  1.00  0.00     0.261 C 
BRANCH   2   3
ATOM      3  O   UNL A   1      31.725  27.842  22.865  1.00  0.00    -0.459 OA
BRANCH   3   4
ATOM      4  C   UNL A   1      31.575  26.526  22.581  1.00  0.00     0.345 C 
ATOM      5  O   UNL A   1      31.746  25.990  21.498  1.00  0.00    -0.246 OA
BRANCH   4   6
ATOM      6  C   UNL A   1      31.288  25.750  23.798  1.00  0.00     0.138 A 
ATOM      7  C   UNL A   1      31.978  24.613  24.212  1.00  0.00     0.144 A 
ATOM      8  C   UNL A   1      31.598  23.984  25.417  1.00  0.00     0.048 A 
ATOM      9  C   UNL A   1      30.608  24.516  26.241  1.00  0.00     0.007 A 
ATOM     10  C   UNL A   1      30.289  26.272  24.632  1.00  0.00     0.141 A 
ATOM     11  C   UNL A   1      29.955  25.673  25.847  1.00  0.00     0.040 A 
ATOM     12  F   UNL A   1      29.599  27.368  24.278  1.00  0.00    -0.206 F 
BRANCH   7  13
ATOM     13  O   UNL A   1      32.999  23.939  23.606  1.00  0.00    -0.456 OA
BRANCH  13  14
ATOM     14  C   UNL A   1      33.378  22.646  23.872  1.00  0.00     0.130 A 
ATOM     15  C   UNL A   1      34.616  22.165  24.358  1.00  0.00    -0.002 A 
ATOM     16  C   UNL A   1      34.670  20.778  24.640  1.00  0.00     0.008 A 
ATOM     17  C   UNL A   1      33.564  19.929  24.499  1.00  0.00     0.001 A 
ATOM     18  C   UNL A   1      32.264  21.785  23.759  1.00  0.00     0.047 A 
ATOM     19  C   UNL A   1      32.353  20.435  24.067  1.00  0.00     0.004 A 
BRANCH  15  20
ATOM     20  C   UNL A   1      35.878  23.024  24.536  1.00  0.00     0.019 C 
ATOM     21  C   UNL A   1      35.839  23.993  25.728  1.00  0.00     0.013 C 
BRANCH  20  22
ATOM     22  C   UNL A   1      37.258  22.313  24.441  1.00  0.00     0.005 C 
ATOM     23  C   UNL A   1      38.072  22.290  25.729  1.00  0.00     0.004 C 
ENDBRANCH  20  22
ENDBRANCH  15  20
ENDBRANCH  13  14
ENDBRANCH   7  13
ENDBRANCH   4   6
ENDBRANCH   3   4
ENDBRANCH   2   3
ENDBRANCH   1   2
BRANCH   1  24
ATOM     24  O   UNL A   1      31.939  29.717  24.986  1.00  0.00    -0.374 OA
BRANCH  24  25
ATOM     25  C   UNL A   1      31.868  30.213  26.317  1.00  0.00     0.202 C 
BRANCH  25  26
ATOM     26  C   UNL A   1      33.080  30.055  27.248  1.00  0.00     0.261 C 
BRANCH  26  27
ATOM     27  O   UNL A   1      33.991  31.166  27.269  1.00  0.00    -0.460 OA
BRANCH  27  28
ATOM     28  C   UNL A   1      34.705  31.262  28.419  1.00  0.00     0.338 C 
ATOM     29  O   UNL A   1      34.411  31.908  29.411  1.00  0.00    -0.246 OA
BRANCH  28  30
ATOM     30  C   UNL A   1      35.871  30.359  28.407  1.00  0.00     0.060 A 
ATOM     31  C   UNL A   1      36.277  29.830  29.640  1.00  0.00     0.016 A 
ATOM     32  C   UNL A   1      36.659  30.190  27.267  1.00  0.00     0.016 A 
ATOM     33  C   UNL A   1      37.514  29.205  29.753  1.00  0.00     0.010 A 
ATOM     34  C   UNL A   1      37.909  29.569  27.386  1.00  0.00     0.010 A 
ATOM     35  C   UNL A   1      38.365  29.130  28.642  1.00  0.00    -0.014 A 
BRANCH  35  36
ATOM     36  C   UNL A   1      39.792  28.794  28.879  1.00  0.00     0.031 A 
ATOM     37  C   UNL A   1      40.659  29.792  29.603  1.00  0.00     0.074 A 
ATOM     38  C   UNL A   1      40.276  27.580  28.563  1.00  0.00     0.049 A 
ATOM     39  N   UNL A   1      41.897  29.674  30.012  1.00  0.00    -0.248 NA
ATOM     40  C   UNL A   1      40.046  31.095  29.916  1.00  0.00     0.031 C 
ATOM     41  C   UNL A   1      39.522  26.517  27.899  1.00  0.00     0.029 A 
ATOM     42  N   UNL A   1      41.515  27.033  28.778  1.00  0.00    -0.354 N 
ATOM     43  C   UNL A   1      42.206  30.877  30.639  1.00  0.00     0.074 A 
ATOM     44  C   UNL A   1      41.042  31.727  30.520  1.00  0.00     0.031 C 
ATOM     45  C   UNL A   1      40.314  25.438  27.769  1.00  0.00     0.029 A 
ATOM     46  C   UNL A   1      41.632  25.739  28.329  1.00  0.00     0.049 A 
ATOM     47  H   UNL A   1      42.251  27.520  29.212  1.00  0.00     0.167 HD
ATOM     48  C   UNL A   1      43.347  31.236  31.273  1.00  0.00     0.037 A 
ATOM     49  C   UNL A   1      42.682  24.896  28.370  1.00  0.00     0.037 A 
ATOM     50  C   UNL A   1      44.505  30.391  31.392  1.00  0.00     0.049 A 
ATOM     51  C   UNL A   1      43.961  25.338  29.031  1.00  0.00     0.074 A 
ATOM     52  C   UNL A   1      45.713  30.664  32.012  1.00  0.00     0.029 A 
ATOM     53  N   UNL A   1      44.602  29.107  30.878  1.00  0.00    -0.354 N 
ATOM     54  N   UNL A   1      44.231  26.474  29.630  1.00  0.00    -0.248 NA
ATOM     55  C   UNL A   1      45.075  24.379  29.029  1.00  0.00     0.031 C 
ATOM     56  C   UNL A   1      46.551  29.556  31.844  1.00  0.00     0.029 A 
ATOM     57  C   UNL A   1      45.852  28.579  31.152  1.00  0.00     0.049 A 
ATOM     58  H   UNL A   1      43.886  28.638  30.391  1.00  0.00     0.167 HD
ATOM     59  C   UNL A   1      45.538  26.357  30.094  1.00  0.00     0.074 A 
ATOM     60  C   UNL A   1      45.997  25.035  29.719  1.00  0.00     0.031 C 
ATOM     61  C   UNL A   1      46.292  27.261  30.769  1.00  0.00     0.037 A 
BRANCH  48  62
ATOM     62  C   UNL A   1      43.400  32.613  31.874  1.00  0.00     0.058 A 
ATOM     63  C   UNL A   1      43.092  32.836  33.226  1.00  0.00     0.135 A 
ATOM     64  C   UNL A   1      43.779  33.719  31.097  1.00  0.00     0.135 A 
ATOM     65  F   UNL A   1      42.706  31.816  34.008  1.00  0.00    -0.206 F 
ATOM     66  C   UNL A   1      43.135  34.112  33.781  1.00  0.00     0.059 A 
ATOM     67  C   UNL A   1      43.849  35.000  31.635  1.00  0.00     0.059 A 
ATOM     68  F   UNL A   1      44.080  33.560  29.799  1.00  0.00    -0.206 F 
ATOM     69  C   UNL A   1      43.511  35.189  32.975  1.00  0.00     0.060 A 
BRANCH  69  70
ATOM     70  S   UNL A   1      43.560  36.840  33.705  1.00  0.00     0.124 S 
ATOM     71  O   UNL A   1      42.267  36.899  34.378  1.00  0.00    -0.237 OA
ATOM     72  O   UNL A   1      44.727  36.763  34.578  1.00  0.00    -0.237 OA
ATOM     73  O   UNL A   1      43.706  37.717  32.547  1.00  0.00    -0.744 OA
ENDBRANCH  69  70
ENDBRANCH  48  62
BRANCH  49  74
ATOM     74  C   UNL A   1      42.570  23.540  27.770  1.00  0.00     0.058 A 
ATOM     75  C   UNL A   1      42.656  23.349  26.383  1.00  0.00     0.135 A 
ATOM     76  C   UNL A   1      42.359  22.410  28.575  1.00  0.00     0.135 A 
ATOM     77  F   UNL A   1      42.846  24.402  25.572  1.00  0.00    -0.206 F 
ATOM     78  C   UNL A   1      42.523  22.088  25.812  1.00  0.00     0.059 A 
ATOM     79  C   UNL A   1      42.245  21.136  28.029  1.00  0.00     0.059 A 
ATOM     80  F   UNL A   1      42.278  22.539  29.908  1.00  0.00    -0.206 F 
ATOM     81  C   UNL A   1      42.318  20.987  26.645  1.00  0.00     0.060 A 
BRANCH  81  82
ATOM     82  S   UNL A   1      42.190  19.344  25.902  1.00  0.00     0.124 S 
ATOM     83  O   UNL A   1      42.685  18.497  26.979  1.00  0.00    -0.237 OA
ATOM     84  O   UNL A   1      40.762  19.246  25.614  1.00  0.00    -0.237 OA
ATOM     85  O   UNL A   1      43.050  19.444  24.727  1.00  0.00    -0.744 OA
ENDBRANCH  81  82
ENDBRANCH  49  74
BRANCH  61  86
ATOM     86  C   UNL A   1      47.681  26.841  31.159  1.00  0.00     0.058 A 
ATOM     87  C   UNL A   1      48.780  27.067  30.318  1.00  0.00     0.135 A 
ATOM     88  C   UNL A   1      47.919  26.229  32.401  1.00  0.00     0.135 A 
ATOM     89  F   UNL A   1      48.605  27.646  29.119  1.00  0.00    -0.206 F 
ATOM     90  C   UNL A   1      50.064  26.670  30.678  1.00  0.00     0.059 A 
ATOM     91  C   UNL A   1      49.198  25.846  32.792  1.00  0.00     0.059 A 
ATOM     92  F   UNL A   1      46.903  26.002  33.249  1.00  0.00    -0.206 F 
ATOM     93  C   UNL A   1      50.262  26.056  31.915  1.00  0.00     0.060 A 
BRANCH  93  94
ATOM     94  S   UNL A   1      51.933  25.551  32.378  1.00  0.00     0.124 S 
ATOM     95  O   UNL A   1      52.006  26.014  33.760  1.00  0.00    -0.237 OA
ATOM     96  O   UNL A   1      51.889  24.104  32.195  1.00  0.00    -0.237 OA
ATOM     97  O   UNL A   1      52.778  26.270  31.429  1.00  0.00    -0.744 OA
ENDBRANCH  93  94
ENDBRANCH  61  86
ENDBRANCH  35  36
ENDBRANCH  28  30
ENDBRANCH  27  28
ENDBRANCH  26  27
ENDBRANCH  25  26
ENDBRANCH  24  25
ENDBRANCH   1  24
TORSDOF 21
ENDMDL
