MODEL 1
REMARK VINA RESULT:     -11.0      0.000      0.000
REMARK SMILES O=C(OCCOCCOC(=O)c1cccc(Br)c1O[C@@H]1CCOC2(CCC2)C1)c1ccc(-c2c3nc(c(-c4c(F)cc(S(=O)(=O)[O-])cc4F)c4ccc([nH]4)c(-c4c(F)cc(S(=O)(=O)[O-])cc4F)c4nc(c(-c5c(F)cc(S(=O)(=O)[O-])cc5F)c5ccc2[nH]5)C=C4)C=C3)cc1
REMARK SMILES IDX 5 1 4 2 3 3 2 4 1 5 29 6 30 7 94 8 31 9 93 10 32 11 33 12
REMARK SMILES IDX 34 13 87 14 35 15 92 16 86 17 88 18 36 19 91 20 85 21 84 22
REMARK SMILES IDX 37 24 71 25 50 26 70 27 51 28 54 29 69 30 89 31 52 32 53 33
REMARK SMILES IDX 68 35 90 36 55 37 38 38 39 39 48 40 40 41 41 42 47 43 49 44
REMARK SMILES IDX 42 45 43 46 44 47 45 48 46 49 72 50 73 51 82 52 74 53 75 54
REMARK SMILES IDX 81 55 83 56 76 57 77 58 78 59 79 60 80 61 56 62 57 63 66 64
REMARK SMILES IDX 58 65 59 66 65 67 67 68 60 69 61 70 62 71 63 72 64 73 6 74
REMARK SMILES IDX 7 75 8 76 9 77 10 78 11 79 12 80 13 81 18 82 14 83 16 84
REMARK SMILES IDX 15 85 17 86 19 87 20 88 21 89 28 90 22 91 24 92 23 93 25 94
REMARK SMILES IDX 27 95 26 96
REMARK H PARENT 88 23 54 34
REMARK Flexibility Score: inf
ROOT
ATOM      1  C   UNL A   1      41.378  22.060  26.173  1.00  0.00     0.202 C 
ENDROOT
BRANCH   1   2
ATOM      2  C   UNL A   1      41.971  23.431  26.469  1.00  0.00     0.261 C 
BRANCH   2   3
ATOM      3  O   UNL A   1      41.051  24.458  26.090  1.00  0.00    -0.460 OA
BRANCH   3   4
ATOM      4  C   UNL A   1      41.297  25.789  26.168  1.00  0.00     0.338 C 
ATOM      5  O   UNL A   1      41.547  26.411  25.140  1.00  0.00    -0.246 OA
BRANCH   4   6
ATOM      6  C   UNL A   1      41.231  26.539  27.455  1.00  0.00     0.060 A 
ATOM      7  C   UNL A   1      41.986  27.676  27.735  1.00  0.00     0.016 A 
ATOM      8  C   UNL A   1      40.281  26.136  28.399  1.00  0.00     0.016 A 
ATOM      9  C   UNL A   1      41.851  28.390  28.898  1.00  0.00     0.010 A 
ATOM     10  C   UNL A   1      40.081  26.891  29.559  1.00  0.00     0.010 A 
ATOM     11  C   UNL A   1      40.856  28.035  29.788  1.00  0.00    -0.014 A 
BRANCH  11  12
ATOM     12  C   UNL A   1      40.728  28.887  30.972  1.00  0.00     0.031 A 
ATOM     13  C   UNL A   1      39.620  29.880  30.996  1.00  0.00     0.074 A 
ATOM     14  C   UNL A   1      41.501  28.627  32.044  1.00  0.00     0.049 A 
ATOM     15  N   UNL A   1      39.371  30.803  31.877  1.00  0.00    -0.248 NA
ATOM     16  C   UNL A   1      38.656  29.826  29.880  1.00  0.00     0.031 C 
ATOM     17  C   UNL A   1      42.487  27.538  32.136  1.00  0.00     0.029 A 
ATOM     18  N   UNL A   1      41.565  29.225  33.271  1.00  0.00    -0.354 N 
ATOM     19  C   UNL A   1      38.260  31.478  31.398  1.00  0.00     0.074 A 
ATOM     20  C   UNL A   1      37.867  30.852  30.158  1.00  0.00     0.031 C 
ATOM     21  C   UNL A   1      43.043  27.544  33.356  1.00  0.00     0.029 A 
ATOM     22  C   UNL A   1      42.532  28.691  34.090  1.00  0.00     0.049 A 
ATOM     23  H   UNL A   1      40.974  29.965  33.542  1.00  0.00     0.167 HD
ATOM     24  C   UNL A   1      37.652  32.544  31.957  1.00  0.00     0.037 A 
ATOM     25  C   UNL A   1      42.992  29.135  35.274  1.00  0.00     0.037 A 
ATOM     26  C   UNL A   1      38.080  33.109  33.207  1.00  0.00     0.049 A 
ATOM     27  C   UNL A   1      42.360  30.389  35.819  1.00  0.00     0.074 A 
ATOM     28  C   UNL A   1      37.585  34.215  33.867  1.00  0.00     0.029 A 
ATOM     29  N   UNL A   1      39.113  32.598  33.986  1.00  0.00    -0.354 N 
ATOM     30  N   UNL A   1      41.358  31.082  35.329  1.00  0.00    -0.248 NA
ATOM     31  C   UNL A   1      42.927  30.934  37.055  1.00  0.00     0.031 C 
ATOM     32  C   UNL A   1      38.360  34.409  35.015  1.00  0.00     0.029 A 
ATOM     33  C   UNL A   1      39.291  33.384  35.106  1.00  0.00     0.049 A 
ATOM     34  H   UNL A   1      39.638  31.794  33.769  1.00  0.00     0.167 HD
ATOM     35  C   UNL A   1      41.160  32.138  36.207  1.00  0.00     0.074 A 
ATOM     36  C   UNL A   1      42.132  31.973  37.272  1.00  0.00     0.031 C 
ATOM     37  C   UNL A   1      40.268  33.158  36.144  1.00  0.00     0.037 A 
BRANCH  24  38
ATOM     38  C   UNL A   1      36.551  33.202  31.185  1.00  0.00     0.058 A 
ATOM     39  C   UNL A   1      35.202  33.086  31.549  1.00  0.00     0.135 A 
ATOM     40  C   UNL A   1      36.863  33.975  30.055  1.00  0.00     0.135 A 
ATOM     41  F   UNL A   1      34.844  32.318  32.590  1.00  0.00    -0.206 F 
ATOM     42  C   UNL A   1      34.199  33.723  30.823  1.00  0.00     0.059 A 
ATOM     43  C   UNL A   1      35.882  34.640  29.331  1.00  0.00     0.059 A 
ATOM     44  F   UNL A   1      38.136  34.089  29.645  1.00  0.00    -0.206 F 
ATOM     45  C   UNL A   1      34.552  34.507  29.723  1.00  0.00     0.060 A 
BRANCH  45  46
ATOM     46  S   UNL A   1      33.245  35.374  28.830  1.00  0.00     0.124 S 
ATOM     47  O   UNL A   1      32.471  35.947  29.926  1.00  0.00    -0.237 OA
ATOM     48  O   UNL A   1      34.002  36.326  28.024  1.00  0.00    -0.237 OA
ATOM     49  O   UNL A   1      32.580  34.312  28.083  1.00  0.00    -0.744 OA
ENDBRANCH  45  46
ENDBRANCH  24  38
BRANCH  25  50
ATOM     50  C   UNL A   1      44.144  28.477  35.953  1.00  0.00     0.058 A 
ATOM     51  C   UNL A   1      45.469  28.836  35.667  1.00  0.00     0.135 A 
ATOM     52  C   UNL A   1      43.945  27.432  36.874  1.00  0.00     0.135 A 
ATOM     53  F   UNL A   1      45.721  29.826  34.795  1.00  0.00    -0.206 F 
ATOM     54  C   UNL A   1      46.550  28.161  36.229  1.00  0.00     0.059 A 
ATOM     55  C   UNL A   1      45.008  26.766  37.478  1.00  0.00     0.059 A 
ATOM     56  F   UNL A   1      42.701  27.047  37.202  1.00  0.00    -0.206 F 
ATOM     57  C   UNL A   1      46.308  27.121  37.128  1.00  0.00     0.060 A 
BRANCH  57  58
ATOM     58  S   UNL A   1      47.714  26.232  37.831  1.00  0.00     0.124 S 
ATOM     59  O   UNL A   1      47.050  25.308  38.743  1.00  0.00    -0.237 OA
ATOM     60  O   UNL A   1      48.323  25.635  36.647  1.00  0.00    -0.237 OA
ATOM     61  O   UNL A   1      48.498  27.288  38.465  1.00  0.00    -0.744 OA
ENDBRANCH  57  58
ENDBRANCH  25  50
BRANCH  37  62
ATOM     62  C   UNL A   1      40.284  34.137  37.280  1.00  0.00     0.058 A 
ATOM     63  C   UNL A   1      41.066  35.300  37.237  1.00  0.00     0.135 A 
ATOM     64  C   UNL A   1      39.451  33.936  38.391  1.00  0.00     0.135 A 
ATOM     65  F   UNL A   1      41.883  35.530  36.197  1.00  0.00    -0.206 F 
ATOM     66  C   UNL A   1      41.038  36.224  38.273  1.00  0.00     0.059 A 
ATOM     67  C   UNL A   1      39.379  34.865  39.420  1.00  0.00     0.059 A 
ATOM     68  F   UNL A   1      38.676  32.842  38.468  1.00  0.00    -0.206 F 
ATOM     69  C   UNL A   1      40.185  36.000  39.356  1.00  0.00     0.060 A 
BRANCH  69  70
ATOM     70  S   UNL A   1      40.123  37.233  40.670  1.00  0.00     0.124 S 
ATOM     71  O   UNL A   1      38.779  37.030  41.200  1.00  0.00    -0.237 OA
ATOM     72  O   UNL A   1      41.218  36.817  41.539  1.00  0.00    -0.237 OA
ATOM     73  O   UNL A   1      40.335  38.493  39.963  1.00  0.00    -0.744 OA
ENDBRANCH  69  70
ENDBRANCH  37  62
ENDBRANCH  11  12
ENDBRANCH   4   6
ENDBRANCH   3   4
ENDBRANCH   2   3
ENDBRANCH   1   2
BRANCH   1  74
ATOM     74  O   UNL A   1      40.110  21.810  26.742  1.00  0.00    -0.374 OA
BRANCH  74  75
ATOM     75  C   UNL A   1      39.029  21.473  25.892  1.00  0.00     0.202 C 
BRANCH  75  76
ATOM     76  C   UNL A   1      38.164  22.728  25.795  1.00  0.00     0.261 C 
BRANCH  76  77
ATOM     77  O   UNL A   1      36.791  22.309  25.858  1.00  0.00    -0.460 OA
BRANCH  77  78
ATOM     78  C   UNL A   1      36.118  22.211  24.666  1.00  0.00     0.342 C 
ATOM     79  O   UNL A   1      36.503  22.532  23.569  1.00  0.00    -0.246 OA
BRANCH  78  80
ATOM     80  C   UNL A   1      34.834  21.537  24.995  1.00  0.00     0.103 A 
ATOM     81  C   UNL A   1      34.786  20.172  24.701  1.00  0.00     0.020 A 
ATOM     82  C   UNL A   1      33.691  22.230  25.498  1.00  0.00     0.148 A 
ATOM     83  C   UNL A   1      33.624  19.475  24.889  1.00  0.00     0.002 A 
ATOM     84  C   UNL A   1      32.377  21.612  25.675  1.00  0.00     0.060 A 
ATOM     85  C   UNL A   1      32.485  20.146  25.349  1.00  0.00     0.019 A 
ATOM     86  Br  UNL A   1      30.294  22.914  26.509  1.00  0.00    -0.047 Br
BRANCH  82  87
ATOM     87  O   UNL A   1      33.852  23.532  25.853  1.00  0.00    -0.488 OA
BRANCH  87  88
ATOM     88  C   UNL A   1      32.755  24.002  25.131  1.00  0.00     0.178 C 
ATOM     89  C   UNL A   1      33.465  24.206  23.343  1.00  0.00     0.074 C 
ATOM     90  C   UNL A   1      32.203  25.532  26.171  1.00  0.00     0.080 C 
ATOM     91  C   UNL A   1      33.716  25.997  22.683  1.00  0.00     0.165 C 
ATOM     92  C   UNL A   1      32.626  27.250  25.486  1.00  0.00     0.072 C 
ATOM     93  O   UNL A   1      33.191  27.407  23.757  1.00  0.00    -0.375 OA
ATOM     94  C   UNL A   1      31.654  28.480  25.768  1.00  0.00     0.036 C 
ATOM     95  C   UNL A   1      33.440  27.887  26.701  1.00  0.00     0.036 C 
ATOM     96  C   UNL A   1      32.904  29.242  26.281  1.00  0.00     0.006 C 
ENDBRANCH  87  88
ENDBRANCH  82  87
ENDBRANCH  78  80
ENDBRANCH  77  78
ENDBRANCH  76  77
ENDBRANCH  75  76
ENDBRANCH  74  75
ENDBRANCH   1  74
TORSDOF 19
ENDMDL
MODEL 2
REMARK VINA RESULT:     -10.9      6.238     11.642
REMARK SMILES O=C(OCCOCCOC(=O)c1cccc(Br)c1O[C@@H]1CCOC2(CCC2)C1)c1ccc(-c2c3nc(c(-c4c(F)cc(S(=O)(=O)[O-])cc4F)c4ccc([nH]4)c(-c4c(F)cc(S(=O)(=O)[O-])cc4F)c4nc(c(-c5c(F)cc(S(=O)(=O)[O-])cc5F)c5ccc2[nH]5)C=C4)C=C3)cc1
REMARK SMILES IDX 5 1 4 2 3 3 2 4 1 5 29 6 30 7 94 8 31 9 93 10 32 11 33 12
REMARK SMILES IDX 34 13 87 14 35 15 92 16 86 17 88 18 36 19 91 20 85 21 84 22
REMARK SMILES IDX 37 24 71 25 50 26 70 27 51 28 54 29 69 30 89 31 52 32 53 33
REMARK SMILES IDX 68 35 90 36 55 37 38 38 39 39 48 40 40 41 41 42 47 43 49 44
REMARK SMILES IDX 42 45 43 46 44 47 45 48 46 49 72 50 73 51 82 52 74 53 75 54
REMARK SMILES IDX 81 55 83 56 76 57 77 58 78 59 79 60 80 61 56 62 57 63 66 64
REMARK SMILES IDX 58 65 59 66 65 67 67 68 60 69 61 70 62 71 63 72 64 73 6 74
REMARK SMILES IDX 7 75 8 76 9 77 10 78 11 79 12 80 13 81 18 82 14 83 16 84
REMARK SMILES IDX 15 85 17 86 19 87 20 88 21 89 28 90 22 91 24 92 23 93 25 94
REMARK SMILES IDX 27 95 26 96
REMARK H PARENT 88 23 54 34
REMARK Flexibility Score: inf
ROOT
ATOM      1  C   UNL A   1      34.826  32.181  28.256  1.00  0.00     0.202 C 
ENDROOT
BRANCH   1   2
ATOM      2  C   UNL A   1      34.796  32.405  29.761  1.00  0.00     0.261 C 
BRANCH   2   3
ATOM      3  O   UNL A   1      36.091  32.166  30.320  1.00  0.00    -0.460 OA
BRANCH   3   4
ATOM      4  C   UNL A   1      36.623  30.941  30.550  1.00  0.00     0.338 C 
ATOM      5  O   UNL A   1      35.921  30.069  31.055  1.00  0.00    -0.246 OA
BRANCH   4   6
ATOM      6  C   UNL A   1      38.023  30.595  30.172  1.00  0.00     0.060 A 
ATOM      7  C   UNL A   1      39.027  30.289  31.089  1.00  0.00     0.016 A 
ATOM      8  C   UNL A   1      38.322  30.472  28.811  1.00  0.00     0.016 A 
ATOM      9  C   UNL A   1      40.287  29.901  30.710  1.00  0.00     0.010 A 
ATOM     10  C   UNL A   1      39.579  30.013  28.407  1.00  0.00     0.010 A 
ATOM     11  C   UNL A   1      40.550  29.704  29.369  1.00  0.00    -0.014 A 
BRANCH  11  12
ATOM     12  C   UNL A   1      41.895  29.222  29.048  1.00  0.00     0.031 A 
ATOM     13  C   UNL A   1      43.033  30.160  29.245  1.00  0.00     0.074 A 
ATOM     14  C   UNL A   1      42.062  27.919  28.753  1.00  0.00     0.049 A 
ATOM     15  N   UNL A   1      44.286  29.998  28.936  1.00  0.00    -0.248 NA
ATOM     16  C   UNL A   1      42.725  31.454  29.884  1.00  0.00     0.031 C 
ATOM     17  C   UNL A   1      40.991  26.910  28.722  1.00  0.00     0.029 A 
ATOM     18  N   UNL A   1      43.188  27.204  28.455  1.00  0.00    -0.354 N 
ATOM     19  C   UNL A   1      44.906  31.187  29.285  1.00  0.00     0.074 A 
ATOM     20  C   UNL A   1      43.902  32.058  29.847  1.00  0.00     0.031 C 
ATOM     21  C   UNL A   1      41.518  25.711  28.435  1.00  0.00     0.029 A 
ATOM     22  C   UNL A   1      42.937  25.884  28.161  1.00  0.00     0.049 A 
ATOM     23  H   UNL A   1      44.091  27.595  28.453  1.00  0.00     0.167 HD
ATOM     24  C   UNL A   1      46.206  31.505  29.117  1.00  0.00     0.037 A 
ATOM     25  C   UNL A   1      43.760  24.946  27.659  1.00  0.00     0.037 A 
ATOM     26  C   UNL A   1      47.162  30.584  28.569  1.00  0.00     0.049 A 
ATOM     27  C   UNL A   1      45.180  25.367  27.387  1.00  0.00     0.074 A 
ATOM     28  C   UNL A   1      48.501  30.788  28.301  1.00  0.00     0.029 A 
ATOM     29  N   UNL A   1      46.870  29.273  28.207  1.00  0.00    -0.354 N 
ATOM     30  N   UNL A   1      45.757  26.520  27.641  1.00  0.00    -0.248 NA
ATOM     31  C   UNL A   1      46.053  24.381  26.745  1.00  0.00     0.031 C 
ATOM     32  C   UNL A   1      49.003  29.620  27.720  1.00  0.00     0.029 A 
ATOM     33  C   UNL A   1      47.996  28.665  27.689  1.00  0.00     0.049 A 
ATOM     34  H   UNL A   1      45.989  28.844  28.305  1.00  0.00     0.167 HD
ATOM     35  C   UNL A   1      47.069  26.393  27.207  1.00  0.00     0.074 A 
ATOM     36  C   UNL A   1      47.203  25.040  26.699  1.00  0.00     0.031 C 
ATOM     37  C   UNL A   1      48.072  27.304  27.213  1.00  0.00     0.037 A 
BRANCH  24  38
ATOM     38  C   UNL A   1      46.626  32.906  29.437  1.00  0.00     0.058 A 
ATOM     39  C   UNL A   1      46.548  33.949  28.502  1.00  0.00     0.135 A 
ATOM     40  C   UNL A   1      47.109  33.210  30.720  1.00  0.00     0.135 A 
ATOM     41  F   UNL A   1      46.140  33.703  27.246  1.00  0.00    -0.206 F 
ATOM     42  C   UNL A   1      46.927  35.246  28.831  1.00  0.00     0.059 A 
ATOM     43  C   UNL A   1      47.469  34.502  31.079  1.00  0.00     0.059 A 
ATOM     44  F   UNL A   1      47.235  32.241  31.640  1.00  0.00    -0.206 F 
ATOM     45  C   UNL A   1      47.376  35.514  30.126  1.00  0.00     0.060 A 
BRANCH  45  46
ATOM     46  S   UNL A   1      47.806  37.214  30.554  1.00  0.00     0.124 S 
ATOM     47  O   UNL A   1      46.777  37.965  29.842  1.00  0.00    -0.237 OA
ATOM     48  O   UNL A   1      47.692  37.204  32.008  1.00  0.00    -0.237 OA
ATOM     49  O   UNL A   1      49.162  37.363  30.034  1.00  0.00    -0.744 OA
ENDBRANCH  45  46
ENDBRANCH  24  38
BRANCH  25  50
ATOM     50  C   UNL A   1      43.258  23.592  27.292  1.00  0.00     0.058 A 
ATOM     51  C   UNL A   1      43.147  22.566  28.242  1.00  0.00     0.135 A 
ATOM     52  C   UNL A   1      42.922  23.276  25.963  1.00  0.00     0.135 A 
ATOM     53  F   UNL A   1      43.455  22.808  29.527  1.00  0.00    -0.206 F 
ATOM     54  C   UNL A   1      42.768  21.274  27.886  1.00  0.00     0.059 A 
ATOM     55  C   UNL A   1      42.504  22.002  25.588  1.00  0.00     0.059 A 
ATOM     56  F   UNL A   1      42.994  24.215  25.005  1.00  0.00    -0.206 F 
ATOM     57  C   UNL A   1      42.456  21.001  26.554  1.00  0.00     0.060 A 
BRANCH  57  58
ATOM     58  S   UNL A   1      41.992  19.316  26.096  1.00  0.00     0.124 S 
ATOM     59  O   UNL A   1      42.793  19.109  24.894  1.00  0.00    -0.237 OA
ATOM     60  O   UNL A   1      42.398  18.555  27.273  1.00  0.00    -0.237 OA
ATOM     61  O   UNL A   1      40.551  19.409  25.884  1.00  0.00    -0.744 OA
ENDBRANCH  57  58
ENDBRANCH  25  50
BRANCH  37  62
ATOM     62  C   UNL A   1      49.402  26.845  26.696  1.00  0.00     0.058 A 
ATOM     63  C   UNL A   1      50.359  26.264  27.541  1.00  0.00     0.135 A 
ATOM     64  C   UNL A   1      49.688  26.927  25.325  1.00  0.00     0.135 A 
ATOM     65  F   UNL A   1      50.132  26.171  28.860  1.00  0.00    -0.206 F 
ATOM     66  C   UNL A   1      51.569  25.799  27.044  1.00  0.00     0.059 A 
ATOM     67  C   UNL A   1      50.876  26.435  24.801  1.00  0.00     0.059 A 
ATOM     68  F   UNL A   1      48.796  27.465  24.477  1.00  0.00    -0.206 F 
ATOM     69  C   UNL A   1      51.814  25.883  25.671  1.00  0.00     0.060 A 
BRANCH  69  70
ATOM     70  S   UNL A   1      53.369  25.229  25.035  1.00  0.00     0.124 S 
ATOM     71  O   UNL A   1      54.341  25.886  25.903  1.00  0.00    -0.237 OA
ATOM     72  O   UNL A   1      53.207  23.793  25.234  1.00  0.00    -0.237 OA
ATOM     73  O   UNL A   1      53.377  25.667  23.642  1.00  0.00    -0.744 OA
ENDBRANCH  69  70
ENDBRANCH  37  62
ENDBRANCH  11  12
ENDBRANCH   4   6
ENDBRANCH   3   4
ENDBRANCH   2   3
ENDBRANCH   1   2
BRANCH   1  74
ATOM     74  O   UNL A   1      34.221  30.986  27.807  1.00  0.00    -0.374 OA
BRANCH  74  75
ATOM     75  C   UNL A   1      35.045  29.900  27.425  1.00  0.00     0.202 C 
BRANCH  75  76
ATOM     76  C   UNL A   1      34.101  28.726  27.173  1.00  0.00     0.261 C 
BRANCH  76  77
ATOM     77  O   UNL A   1      32.834  29.272  26.769  1.00  0.00    -0.460 OA
BRANCH  77  78
ATOM     78  C   UNL A   1      31.811  28.380  26.569  1.00  0.00     0.342 C 
ATOM     79  O   UNL A   1      31.187  27.769  27.401  1.00  0.00    -0.246 OA
BRANCH  78  80
ATOM     80  C   UNL A   1      31.566  28.388  25.102  1.00  0.00     0.103 A 
ATOM     81  C   UNL A   1      30.688  29.376  24.651  1.00  0.00     0.020 A 
ATOM     82  C   UNL A   1      32.112  27.414  24.211  1.00  0.00     0.148 A 
ATOM     83  C   UNL A   1      30.332  29.420  23.331  1.00  0.00     0.002 A 
ATOM     84  C   UNL A   1      31.753  27.314  22.796  1.00  0.00     0.060 A 
ATOM     85  C   UNL A   1      30.830  28.452  22.450  1.00  0.00     0.019 A 
ATOM     86  Br  UNL A   1      32.692  25.482  21.217  1.00  0.00    -0.047 Br
BRANCH  82  87
ATOM     87  O   UNL A   1      33.035  26.552  24.712  1.00  0.00    -0.488 OA
BRANCH  87  88
ATOM     88  C   UNL A   1      32.405  25.398  24.246  1.00  0.00     0.178 C 
ATOM     89  C   UNL A   1      31.104  25.024  25.628  1.00  0.00     0.074 C 
ATOM     90  C   UNL A   1      33.896  24.215  23.926  1.00  0.00     0.080 C 
ATOM     91  C   UNL A   1      31.415  23.494  26.754  1.00  0.00     0.165 C 
ATOM     92  C   UNL A   1      34.188  22.822  25.180  1.00  0.00     0.072 C 
ATOM     93  O   UNL A   1      32.886  22.432  26.400  1.00  0.00    -0.375 OA
ATOM     94  C   UNL A   1      34.801  21.432  24.698  1.00  0.00     0.036 C 
ATOM     95  C   UNL A   1      35.697  23.095  25.616  1.00  0.00     0.036 C 
ATOM     96  C   UNL A   1      35.852  21.601  25.826  1.00  0.00     0.006 C 
ENDBRANCH  87  88
ENDBRANCH  82  87
ENDBRANCH  78  80
ENDBRANCH  77  78
ENDBRANCH  76  77
ENDBRANCH  75  76
ENDBRANCH  74  75
ENDBRANCH   1  74
TORSDOF 19
ENDMDL
MODEL 3
REMARK VINA RESULT:     -10.9      6.542     12.222
REMARK SMILES O=C(OCCOCCOC(=O)c1cccc(Br)c1O[C@@H]1CCOC2(CCC2)C1)c1ccc(-c2c3nc(c(-c4c(F)cc(S(=O)(=O)[O-])cc4F)c4ccc([nH]4)c(-c4c(F)cc(S(=O)(=O)[O-])cc4F)c4nc(c(-c5c(F)cc(S(=O)(=O)[O-])cc5F)c5ccc2[nH]5)C=C4)C=C3)cc1
REMARK SMILES IDX 5 1 4 2 3 3 2 4 1 5 29 6 30 7 94 8 31 9 93 10 32 11 33 12
REMARK SMILES IDX 34 13 87 14 35 15 92 16 86 17 88 18 36 19 91 20 85 21 84 22
REMARK SMILES IDX 37 24 71 25 50 26 70 27 51 28 54 29 69 30 89 31 52 32 53 33
REMARK SMILES IDX 68 35 90 36 55 37 38 38 39 39 48 40 40 41 41 42 47 43 49 44
REMARK SMILES IDX 42 45 43 46 44 47 45 48 46 49 72 50 73 51 82 52 74 53 75 54
REMARK SMILES IDX 81 55 83 56 76 57 77 58 78 59 79 60 80 61 56 62 57 63 66 64
REMARK SMILES IDX 58 65 59 66 65 67 67 68 60 69 61 70 62 71 63 72 64 73 6 74
REMARK SMILES IDX 7 75 8 76 9 77 10 78 11 79 12 80 13 81 18 82 14 83 16 84
REMARK SMILES IDX 15 85 17 86 19 87 20 88 21 89 28 90 22 91 24 92 23 93 25 94
REMARK SMILES IDX 27 95 26 96
REMARK H PARENT 88 23 54 34
REMARK Flexibility Score: inf
ROOT
ATOM      1  C   UNL A   1      34.819  32.319  28.828  1.00  0.00     0.202 C 
ENDROOT
BRANCH   1   2
ATOM      2  C   UNL A   1      35.145  32.107  30.300  1.00  0.00     0.261 C 
BRANCH   2   3
ATOM      3  O   UNL A   1      36.524  31.763  30.453  1.00  0.00    -0.460 OA
BRANCH   3   4
ATOM      4  C   UNL A   1      36.991  30.512  30.690  1.00  0.00     0.338 C 
ATOM      5  O   UNL A   1      36.298  29.726  31.331  1.00  0.00    -0.246 OA
BRANCH   4   6
ATOM      6  C   UNL A   1      38.302  30.036  30.162  1.00  0.00     0.060 A 
ATOM      7  C   UNL A   1      38.648  30.045  28.812  1.00  0.00     0.016 A 
ATOM      8  C   UNL A   1      39.280  29.654  31.085  1.00  0.00     0.016 A 
ATOM      9  C   UNL A   1      39.889  29.671  28.361  1.00  0.00     0.010 A 
ATOM     10  C   UNL A   1      40.570  29.336  30.650  1.00  0.00     0.010 A 
ATOM     11  C   UNL A   1      40.873  29.373  29.282  1.00  0.00    -0.014 A 
BRANCH  11  12
ATOM     12  C   UNL A   1      42.190  29.053  28.727  1.00  0.00     0.031 A 
ATOM     13  C   UNL A   1      42.400  27.683  28.187  1.00  0.00     0.074 A 
ATOM     14  C   UNL A   1      43.088  30.045  28.578  1.00  0.00     0.049 A 
ATOM     15  N   UNL A   1      43.496  27.140  27.745  1.00  0.00    -0.248 NA
ATOM     16  C   UNL A   1      41.217  26.803  28.127  1.00  0.00     0.031 C 
ATOM     17  C   UNL A   1      42.861  31.456  28.930  1.00  0.00     0.029 A 
ATOM     18  N   UNL A   1      44.354  30.040  28.065  1.00  0.00    -0.354 N 
ATOM     19  C   UNL A   1      43.153  25.840  27.411  1.00  0.00     0.074 A 
ATOM     20  C   UNL A   1      41.744  25.674  27.680  1.00  0.00     0.031 C 
ATOM     21  C   UNL A   1      43.948  32.174  28.610  1.00  0.00     0.029 A 
ATOM     22  C   UNL A   1      44.977  31.264  28.130  1.00  0.00     0.049 A 
ATOM     23  H   UNL A   1      44.778  29.237  27.684  1.00  0.00     0.167 HD
ATOM     24  C   UNL A   1      43.973  24.878  26.940  1.00  0.00     0.037 A 
ATOM     25  C   UNL A   1      46.261  31.586  27.891  1.00  0.00     0.037 A 
ATOM     26  C   UNL A   1      45.365  25.113  26.673  1.00  0.00     0.049 A 
ATOM     27  C   UNL A   1      47.172  30.465  27.467  1.00  0.00     0.074 A 
ATOM     28  C   UNL A   1      46.321  24.218  26.238  1.00  0.00     0.029 A 
ATOM     29  N   UNL A   1      45.994  26.344  26.818  1.00  0.00    -0.354 N 
ATOM     30  N   UNL A   1      46.871  29.209  27.224  1.00  0.00    -0.248 NA
ATOM     31  C   UNL A   1      48.592  30.788  27.305  1.00  0.00     0.031 C 
ATOM     32  C   UNL A   1      47.543  24.895  26.178  1.00  0.00     0.029 A 
ATOM     33  C   UNL A   1      47.335  26.227  26.510  1.00  0.00     0.049 A 
ATOM     34  H   UNL A   1      45.549  27.176  27.099  1.00  0.00     0.167 HD
ATOM     35  C   UNL A   1      48.061  28.594  26.862  1.00  0.00     0.074 A 
ATOM     36  C   UNL A   1      49.081  29.626  26.893  1.00  0.00     0.031 C 
ATOM     37  C   UNL A   1      48.301  27.299  26.542  1.00  0.00     0.037 A 
BRANCH  24  38
ATOM     38  C   UNL A   1      43.410  23.500  26.785  1.00  0.00     0.058 A 
ATOM     39  C   UNL A   1      43.120  22.941  25.531  1.00  0.00     0.135 A 
ATOM     40  C   UNL A   1      43.165  22.718  27.924  1.00  0.00     0.135 A 
ATOM     41  F   UNL A   1      43.289  23.664  24.412  1.00  0.00    -0.206 F 
ATOM     42  C   UNL A   1      42.614  21.650  25.413  1.00  0.00     0.059 A 
ATOM     43  C   UNL A   1      42.684  21.417  27.830  1.00  0.00     0.059 A 
ATOM     44  F   UNL A   1      43.393  23.219  29.149  1.00  0.00    -0.206 F 
ATOM     45  C   UNL A   1      42.411  20.893  26.569  1.00  0.00     0.060 A 
BRANCH  45  46
ATOM     46  S   UNL A   1      41.811  19.199  26.395  1.00  0.00     0.124 S 
ATOM     47  O   UNL A   1      40.453  19.418  25.906  1.00  0.00    -0.237 OA
ATOM     48  O   UNL A   1      42.749  18.639  25.429  1.00  0.00    -0.237 OA
ATOM     49  O   UNL A   1      41.911  18.662  27.748  1.00  0.00    -0.744 OA
ENDBRANCH  45  46
ENDBRANCH  24  38
BRANCH  25  50
ATOM     50  C   UNL A   1      46.774  32.963  28.140  1.00  0.00     0.058 A 
ATOM     51  C   UNL A   1      46.732  33.953  27.147  1.00  0.00     0.135 A 
ATOM     52  C   UNL A   1      47.364  33.309  29.369  1.00  0.00     0.135 A 
ATOM     53  F   UNL A   1      46.181  33.681  25.953  1.00  0.00    -0.206 F 
ATOM     54  C   UNL A   1      47.294  35.212  27.344  1.00  0.00     0.059 A 
ATOM     55  C   UNL A   1      47.899  34.572  29.603  1.00  0.00     0.059 A 
ATOM     56  F   UNL A   1      47.425  32.411  30.366  1.00  0.00    -0.206 F 
ATOM     57  C   UNL A   1      47.882  35.509  28.574  1.00  0.00     0.060 A 
BRANCH  57  58
ATOM     58  S   UNL A   1      48.633  37.135  28.811  1.00  0.00     0.124 S 
ATOM     59  O   UNL A   1      47.831  37.960  27.915  1.00  0.00    -0.237 OA
ATOM     60  O   UNL A   1      48.433  37.360  30.239  1.00  0.00    -0.237 OA
ATOM     61  O   UNL A   1      50.020  36.928  28.404  1.00  0.00    -0.744 OA
ENDBRANCH  57  58
ENDBRANCH  25  50
BRANCH  37  62
ATOM     62  C   UNL A   1      49.708  26.949  26.161  1.00  0.00     0.058 A 
ATOM     63  C   UNL A   1      50.628  26.469  27.105  1.00  0.00     0.135 A 
ATOM     64  C   UNL A   1      50.113  27.032  24.820  1.00  0.00     0.135 A 
ATOM     65  F   UNL A   1      50.287  26.380  28.400  1.00  0.00    -0.206 F 
ATOM     66  C   UNL A   1      51.914  26.104  26.733  1.00  0.00     0.059 A 
ATOM     67  C   UNL A   1      51.383  26.637  24.420  1.00  0.00     0.059 A 
ATOM     68  F   UNL A   1      49.262  27.475  23.881  1.00  0.00    -0.206 F 
ATOM     69  C   UNL A   1      52.279  26.185  25.387  1.00  0.00     0.060 A 
BRANCH  69  70
ATOM     70  S   UNL A   1      53.937  25.659  24.913  1.00  0.00     0.124 S 
ATOM     71  O   UNL A   1      53.761  24.217  24.779  1.00  0.00    -0.237 OA
ATOM     72  O   UNL A   1      54.151  26.391  23.670  1.00  0.00    -0.237 OA
ATOM     73  O   UNL A   1      54.764  26.088  26.037  1.00  0.00    -0.744 OA
ENDBRANCH  69  70
ENDBRANCH  37  62
ENDBRANCH  11  12
ENDBRANCH   4   6
ENDBRANCH   3   4
ENDBRANCH   2   3
ENDBRANCH   1   2
BRANCH   1  74
ATOM     74  O   UNL A   1      34.288  31.196  28.155  1.00  0.00    -0.374 OA
BRANCH  74  75
ATOM     75  C   UNL A   1      35.175  30.251  27.589  1.00  0.00     0.202 C 
BRANCH  75  76
ATOM     76  C   UNL A   1      34.328  29.024  27.258  1.00  0.00     0.261 C 
BRANCH  76  77
ATOM     77  O   UNL A   1      32.951  29.438  27.267  1.00  0.00    -0.460 OA
BRANCH  77  78
ATOM     78  C   UNL A   1      32.012  28.471  27.009  1.00  0.00     0.342 C 
ATOM     79  O   UNL A   1      31.422  27.781  27.803  1.00  0.00    -0.246 OA
BRANCH  78  80
ATOM     80  C   UNL A   1      31.803  28.511  25.537  1.00  0.00     0.103 A 
ATOM     81  C   UNL A   1      31.009  29.565  25.078  1.00  0.00     0.020 A 
ATOM     82  C   UNL A   1      32.299  27.510  24.648  1.00  0.00     0.148 A 
ATOM     83  C   UNL A   1      30.687  29.646  23.751  1.00  0.00     0.002 A 
ATOM     84  C   UNL A   1      31.967  27.450  23.224  1.00  0.00     0.060 A 
ATOM     85  C   UNL A   1      31.136  28.654  22.870  1.00  0.00     0.019 A 
ATOM     86  Br  UNL A   1      32.810  25.571  21.646  1.00  0.00    -0.047 Br
BRANCH  82  87
ATOM     87  O   UNL A   1      33.145  26.579  25.160  1.00  0.00    -0.488 OA
BRANCH  87  88
ATOM     88  C   UNL A   1      32.488  25.481  24.603  1.00  0.00     0.178 C 
ATOM     89  C   UNL A   1      31.188  25.020  25.959  1.00  0.00     0.074 C 
ATOM     90  C   UNL A   1      33.951  24.298  24.173  1.00  0.00     0.080 C 
ATOM     91  C   UNL A   1      31.473  23.395  26.951  1.00  0.00     0.165 C 
ATOM     92  C   UNL A   1      34.221  22.799  25.304  1.00  0.00     0.072 C 
ATOM     93  O   UNL A   1      32.919  22.335  26.497  1.00  0.00    -0.375 OA
ATOM     94  C   UNL A   1      34.801  21.442  24.702  1.00  0.00     0.036 C 
ATOM     95  C   UNL A   1      35.738  23.003  25.749  1.00  0.00     0.036 C 
ATOM     96  C   UNL A   1      35.863  21.494  25.831  1.00  0.00     0.006 C 
ENDBRANCH  87  88
ENDBRANCH  82  87
ENDBRANCH  78  80
ENDBRANCH  77  78
ENDBRANCH  76  77
ENDBRANCH  75  76
ENDBRANCH  74  75
ENDBRANCH   1  74
TORSDOF 19
ENDMDL
