MODEL 1
REMARK VINA RESULT:     -11.0      0.000      0.000
REMARK SMILES CCOc1cnc(C(=O)c2[nH]c3cc(Cl)ccc3c2CC(=O)OCCOCCOC(=O)c2ccc(-c3c4nc(c(-c5c(F)cc(S(=O)(=O)[O-])cc5F)c5ccc([nH]5)c(-c5c(F)cc(S(=O)(=O)[O-])cc5F)c5nc(c(-c6c(F)cc(S(=O)(=O)[O-])cc6F)c6ccc3[nH]6)C=C5)C=C4)cc2)cc1CC
REMARK SMILES IDX 25 1 24 2 23 3 21 4 22 5 20 6 19 7 10 8 11 9 12 10 18 12
REMARK SMILES IDX 13 13 17 14 14 15 16 16 15 17 8 18 9 19 7 20 4 21 5 22 99 23
REMARK SMILES IDX 6 24 98 25 3 26 2 27 1 28 100 29 101 30 26 31 27 32 28 33
REMARK SMILES IDX 29 34 30 35 31 36 32 37 33 38 97 39 34 40 96 41 35 42 36 43
REMARK SMILES IDX 37 44 90 45 38 46 95 47 89 48 91 49 39 50 94 51 88 52 87 53
REMARK SMILES IDX 40 55 74 56 53 57 73 58 54 59 57 60 72 61 92 62 55 63 56 64
REMARK SMILES IDX 71 66 93 67 58 68 41 69 42 70 51 71 43 72 44 73 50 74 52 75
REMARK SMILES IDX 45 76 46 77 47 78 48 79 49 80 75 81 76 82 85 83 77 84 78 85
REMARK SMILES IDX 84 86 86 87 79 88 80 89 81 90 82 91 83 92 59 93 60 94 69 95
REMARK SMILES IDX 61 96 62 97 68 98 70 99 63 100 64 101 65 102 66 103 67 104
REMARK H PARENT 11 11 91 54 57 65
REMARK Flexibility Score: inf
ROOT
ATOM      1  C   UNL A   1      36.719  21.963  24.413  1.00  0.00     0.202 C 
ENDROOT
BRANCH   1   2
ATOM      2  C   UNL A   1      36.221  22.880  23.290  1.00  0.00     0.261 C 
BRANCH   2   3
ATOM      3  O   UNL A   1      34.979  23.540  23.623  1.00  0.00    -0.463 OA
BRANCH   3   4
ATOM      4  C   UNL A   1      33.922  23.237  22.821  1.00  0.00     0.310 C 
ATOM      5  O   UNL A   1      33.947  23.310  21.595  1.00  0.00    -0.252 OA
BRANCH   4   6
ATOM      6  C   UNL A   1      32.641  22.892  23.550  1.00  0.00     0.161 C 
BRANCH   6   7
ATOM      7  C   UNL A   1      32.670  21.806  24.594  1.00  0.00     0.000 A 
ATOM      8  C   UNL A   1      33.012  21.934  25.943  1.00  0.00     0.093 A 
ATOM      9  N   UNL A   1      32.817  20.692  26.512  1.00  0.00    -0.351 N 
ATOM     10  C   UNL A   1      32.767  19.728  25.535  1.00  0.00     0.048 A 
ATOM     11  H   UNL A   1      32.728  20.521  27.478  1.00  0.00     0.167 HD
ATOM     12  C   UNL A   1      32.616  20.396  24.322  1.00  0.00     0.004 A 
ATOM     13  C   UNL A   1      32.852  18.333  25.633  1.00  0.00     0.047 A 
ATOM     14  C   UNL A   1      32.526  19.629  23.142  1.00  0.00     0.012 A 
ATOM     15  C   UNL A   1      32.816  17.605  24.440  1.00  0.00     0.043 A 
ATOM     16  C   UNL A   1      32.648  18.235  23.212  1.00  0.00     0.021 A 
ATOM     17  Cl  UNL A   1      33.015  15.894  24.496  1.00  0.00    -0.084 Cl
BRANCH   8  18
ATOM     18  C   UNL A   1      33.477  23.128  26.644  1.00  0.00     0.227 C 
ATOM     19  O   UNL A   1      34.339  23.065  27.519  1.00  0.00    -0.285 OA
BRANCH  18  20
ATOM     20  C   UNL A   1      32.840  24.466  26.383  1.00  0.00     0.113 A 
ATOM     21  C   UNL A   1      31.531  26.739  25.584  1.00  0.00     0.140 A 
ATOM     22  C   UNL A   1      30.866  25.633  26.101  1.00  0.00     0.158 A 
ATOM     23  C   UNL A   1      32.927  26.745  25.573  1.00  0.00    -0.002 A 
ATOM     24  N   UNL A   1      31.488  24.506  26.509  1.00  0.00    -0.249 NA
ATOM     25  C   UNL A   1      33.583  25.556  25.928  1.00  0.00     0.040 A 
BRANCH  21  26
ATOM     26  O   UNL A   1      30.824  27.803  25.101  1.00  0.00    -0.492 OA
BRANCH  26  27
ATOM     27  C   UNL A   1      30.699  27.733  23.669  1.00  0.00     0.226 C 
ATOM     28  C   UNL A   1      29.251  27.941  23.251  1.00  0.00     0.049 C 
ENDBRANCH  26  27
ENDBRANCH  21  26
BRANCH  23  29
ATOM     29  C   UNL A   1      33.725  27.947  25.131  1.00  0.00     0.036 C 
ATOM     30  C   UNL A   1      33.993  28.939  26.256  1.00  0.00     0.009 C 
ENDBRANCH  23  29
ENDBRANCH  18  20
ENDBRANCH   8  18
ENDBRANCH   6   7
ENDBRANCH   4   6
ENDBRANCH   3   4
ENDBRANCH   2   3
ENDBRANCH   1   2
BRANCH   1  31
ATOM     31  O   UNL A   1      36.762  22.515  25.731  1.00  0.00    -0.374 OA
BRANCH  31  32
ATOM     32  C   UNL A   1      37.612  23.645  25.919  1.00  0.00     0.202 C 
BRANCH  32  33
ATOM     33  C   UNL A   1      39.078  23.348  26.261  1.00  0.00     0.261 C 
BRANCH  33  34
ATOM     34  O   UNL A   1      39.906  24.523  26.235  1.00  0.00    -0.460 OA
BRANCH  34  35
ATOM     35  C   UNL A   1      40.845  24.561  27.210  1.00  0.00     0.338 C 
ATOM     36  O   UNL A   1      41.845  23.859  27.303  1.00  0.00    -0.246 OA
BRANCH  35  37
ATOM     37  C   UNL A   1      40.603  25.702  28.109  1.00  0.00     0.060 A 
ATOM     38  C   UNL A   1      41.611  26.670  28.199  1.00  0.00     0.016 A 
ATOM     39  C   UNL A   1      39.451  25.797  28.893  1.00  0.00     0.016 A 
ATOM     40  C   UNL A   1      41.499  27.709  29.118  1.00  0.00     0.010 A 
ATOM     41  C   UNL A   1      39.344  26.838  29.822  1.00  0.00     0.010 A 
ATOM     42  C   UNL A   1      40.384  27.774  29.963  1.00  0.00    -0.014 A 
BRANCH  42  43
ATOM     43  C   UNL A   1      40.395  28.726  31.100  1.00  0.00     0.031 A 
ATOM     44  C   UNL A   1      39.439  29.888  31.075  1.00  0.00     0.074 A 
ATOM     45  C   UNL A   1      41.201  28.522  32.156  1.00  0.00     0.049 A 
ATOM     46  N   UNL A   1      39.279  30.849  31.945  1.00  0.00    -0.248 NA
ATOM     47  C   UNL A   1      38.540  29.976  29.910  1.00  0.00     0.031 C 
ATOM     48  C   UNL A   1      42.130  27.401  32.304  1.00  0.00     0.029 A 
ATOM     49  N   UNL A   1      41.366  29.247  33.308  1.00  0.00    -0.354 N 
ATOM     50  C   UNL A   1      38.261  31.651  31.440  1.00  0.00     0.074 A 
ATOM     51  C   UNL A   1      37.868  31.088  30.167  1.00  0.00     0.031 C 
ATOM     52  C   UNL A   1      42.771  27.517  33.481  1.00  0.00     0.029 A 
ATOM     53  C   UNL A   1      42.321  28.734  34.153  1.00  0.00     0.049 A 
ATOM     54  H   UNL A   1      40.850  30.061  33.510  1.00  0.00     0.167 HD
ATOM     55  C   UNL A   1      37.694  32.747  31.997  1.00  0.00     0.037 A 
ATOM     56  C   UNL A   1      42.787  29.206  35.327  1.00  0.00     0.037 A 
ATOM     57  C   UNL A   1      38.097  33.300  33.264  1.00  0.00     0.049 A 
ATOM     58  C   UNL A   1      42.197  30.477  35.885  1.00  0.00     0.074 A 
ATOM     59  C   UNL A   1      37.604  34.416  33.915  1.00  0.00     0.029 A 
ATOM     60  N   UNL A   1      39.093  32.771  34.074  1.00  0.00    -0.354 N 
ATOM     61  N   UNL A   1      41.235  31.224  35.397  1.00  0.00    -0.248 NA
ATOM     62  C   UNL A   1      42.756  30.969  37.152  1.00  0.00     0.031 C 
ATOM     63  C   UNL A   1      38.329  34.587  35.098  1.00  0.00     0.029 A 
ATOM     64  C   UNL A   1      39.240  33.548  35.210  1.00  0.00     0.049 A 
ATOM     65  H   UNL A   1      39.619  31.964  33.869  1.00  0.00     0.167 HD
ATOM     66  C   UNL A   1      41.047  32.252  36.316  1.00  0.00     0.074 A 
ATOM     67  C   UNL A   1      41.992  32.026  37.391  1.00  0.00     0.031 C 
ATOM     68  C   UNL A   1      40.174  33.288  36.277  1.00  0.00     0.037 A 
BRANCH  55  69
ATOM     69  C   UNL A   1      36.586  33.426  31.239  1.00  0.00     0.058 A 
ATOM     70  C   UNL A   1      36.836  34.154  30.064  1.00  0.00     0.135 A 
ATOM     71  C   UNL A   1      35.253  33.316  31.668  1.00  0.00     0.135 A 
ATOM     72  F   UNL A   1      38.094  34.309  29.620  1.00  0.00    -0.206 F 
ATOM     73  C   UNL A   1      35.808  34.761  29.351  1.00  0.00     0.059 A 
ATOM     74  C   UNL A   1      34.206  33.893  30.956  1.00  0.00     0.059 A 
ATOM     75  F   UNL A   1      34.957  32.638  32.788  1.00  0.00    -0.206 F 
ATOM     76  C   UNL A   1      34.494  34.623  29.803  1.00  0.00     0.060 A 
BRANCH  76  77
ATOM     77  S   UNL A   1      33.170  35.401  28.855  1.00  0.00     0.124 S 
ATOM     78  O   UNL A   1      32.612  34.258  28.139  1.00  0.00    -0.237 OA
ATOM     79  O   UNL A   1      32.326  35.965  29.903  1.00  0.00    -0.237 OA
ATOM     80  O   UNL A   1      33.871  36.376  28.027  1.00  0.00    -0.744 OA
ENDBRANCH  76  77
ENDBRANCH  55  69
BRANCH  56  81
ATOM     81  C   UNL A   1      43.873  28.489  36.051  1.00  0.00     0.058 A 
ATOM     82  C   UNL A   1      45.220  28.845  35.879  1.00  0.00     0.135 A 
ATOM     83  C   UNL A   1      43.589  27.412  36.905  1.00  0.00     0.135 A 
ATOM     84  F   UNL A   1      45.545  29.862  35.067  1.00  0.00    -0.206 F 
ATOM     85  C   UNL A   1      46.247  28.143  36.504  1.00  0.00     0.059 A 
ATOM     86  C   UNL A   1      44.596  26.712  37.563  1.00  0.00     0.059 A 
ATOM     87  F   UNL A   1      42.317  27.037  37.116  1.00  0.00    -0.206 F 
ATOM     88  C   UNL A   1      45.923  27.074  37.342  1.00  0.00     0.060 A 
BRANCH  88  89
ATOM     89  S   UNL A   1      47.260  26.175  38.158  1.00  0.00     0.124 S 
ATOM     90  O   UNL A   1      48.219  27.243  38.413  1.00  0.00    -0.237 OA
ATOM     91  O   UNL A   1      46.588  25.624  39.331  1.00  0.00    -0.237 OA
ATOM     92  O   UNL A   1      47.662  25.191  37.156  1.00  0.00    -0.744 OA
ENDBRANCH  88  89
ENDBRANCH  56  81
BRANCH  68  93
ATOM     93  C   UNL A   1      40.160  34.230  37.450  1.00  0.00     0.058 A 
ATOM     94  C   UNL A   1      39.285  34.049  38.532  1.00  0.00     0.135 A 
ATOM     95  C   UNL A   1      41.080  35.289  37.518  1.00  0.00     0.135 A 
ATOM     96  F   UNL A   1      38.383  33.055  38.513  1.00  0.00    -0.206 F 
ATOM     97  C   UNL A   1      39.310  34.899  39.633  1.00  0.00     0.059 A 
ATOM     98  C   UNL A   1      41.141  36.133  38.621  1.00  0.00     0.059 A 
ATOM     99  F   UNL A   1      41.946  35.498  36.513  1.00  0.00    -0.206 F 
ATOM    100  C   UNL A   1      40.244  35.936  39.670  1.00  0.00     0.060 A 
BRANCH 100 101
ATOM    101  S   UNL A   1      40.295  37.002  41.126  1.00  0.00     0.124 S 
ATOM    102  O   UNL A   1      39.103  36.570  41.848  1.00  0.00    -0.237 OA
ATOM    103  O   UNL A   1      41.570  36.640  41.734  1.00  0.00    -0.237 OA
ATOM    104  O   UNL A   1      40.234  38.348  40.563  1.00  0.00    -0.744 OA
ENDBRANCH 100 101
ENDBRANCH  68  93
ENDBRANCH  42  43
ENDBRANCH  35  37
ENDBRANCH  34  35
ENDBRANCH  33  34
ENDBRANCH  32  33
ENDBRANCH  31  32
ENDBRANCH   1  31
TORSDOF 23
ENDMDL
MODEL 2
REMARK VINA RESULT:     -10.4      3.070      8.653
REMARK SMILES CCOc1cnc(C(=O)c2[nH]c3cc(Cl)ccc3c2CC(=O)OCCOCCOC(=O)c2ccc(-c3c4nc(c(-c5c(F)cc(S(=O)(=O)[O-])cc5F)c5ccc([nH]5)c(-c5c(F)cc(S(=O)(=O)[O-])cc5F)c5nc(c(-c6c(F)cc(S(=O)(=O)[O-])cc6F)c6ccc3[nH]6)C=C5)C=C4)cc2)cc1CC
REMARK SMILES IDX 25 1 24 2 23 3 21 4 22 5 20 6 19 7 10 8 11 9 12 10 18 12
REMARK SMILES IDX 13 13 17 14 14 15 16 16 15 17 8 18 9 19 7 20 4 21 5 22 99 23
REMARK SMILES IDX 6 24 98 25 3 26 2 27 1 28 100 29 101 30 26 31 27 32 28 33
REMARK SMILES IDX 29 34 30 35 31 36 32 37 33 38 97 39 34 40 96 41 35 42 36 43
REMARK SMILES IDX 37 44 90 45 38 46 95 47 89 48 91 49 39 50 94 51 88 52 87 53
REMARK SMILES IDX 40 55 74 56 53 57 73 58 54 59 57 60 72 61 92 62 55 63 56 64
REMARK SMILES IDX 71 66 93 67 58 68 41 69 42 70 51 71 43 72 44 73 50 74 52 75
REMARK SMILES IDX 45 76 46 77 47 78 48 79 49 80 75 81 76 82 85 83 77 84 78 85
REMARK SMILES IDX 84 86 86 87 79 88 80 89 81 90 82 91 83 92 59 93 60 94 69 95
REMARK SMILES IDX 61 96 62 97 68 98 70 99 63 100 64 101 65 102 66 103 67 104
REMARK H PARENT 11 11 91 54 57 65
REMARK Flexibility Score: inf
ROOT
ATOM      1  C   UNL A   1      32.303  26.532  24.842  1.00  0.00     0.202 C 
ENDROOT
BRANCH   1   2
ATOM      2  C   UNL A   1      32.148  25.859  23.474  1.00  0.00     0.261 C 
BRANCH   2   3
ATOM      3  O   UNL A   1      33.375  25.249  23.014  1.00  0.00    -0.463 OA
BRANCH   3   4
ATOM      4  C   UNL A   1      33.331  23.899  22.846  1.00  0.00     0.310 C 
ATOM      5  O   UNL A   1      33.707  23.320  21.830  1.00  0.00    -0.252 OA
BRANCH   4   6
ATOM      6  C   UNL A   1      32.677  23.133  23.976  1.00  0.00     0.161 C 
BRANCH   6   7
ATOM      7  C   UNL A   1      33.402  21.951  24.567  1.00  0.00     0.000 A 
ATOM      8  C   UNL A   1      34.554  21.970  25.357  1.00  0.00     0.093 A 
ATOM      9  N   UNL A   1      34.797  20.661  25.721  1.00  0.00    -0.351 N 
ATOM     10  C   UNL A   1      34.116  19.807  24.889  1.00  0.00     0.048 A 
ATOM     11  H   UNL A   1      35.374  20.381  26.467  1.00  0.00     0.167 HD
ATOM     12  C   UNL A   1      33.190  20.581  24.191  1.00  0.00     0.004 A 
ATOM     13  C   UNL A   1      34.255  18.426  24.698  1.00  0.00     0.047 A 
ATOM     14  C   UNL A   1      32.343  19.937  23.265  1.00  0.00     0.012 A 
ATOM     15  C   UNL A   1      33.439  17.828  23.732  1.00  0.00     0.043 A 
ATOM     16  C   UNL A   1      32.491  18.565  23.029  1.00  0.00     0.021 A 
ATOM     17  Cl  UNL A   1      33.637  16.152  23.387  1.00  0.00    -0.084 Cl
BRANCH   8  18
ATOM     18  C   UNL A   1      35.359  23.125  25.747  1.00  0.00     0.227 C 
ATOM     19  O   UNL A   1      34.853  24.233  25.917  1.00  0.00    -0.285 OA
BRANCH  18  20
ATOM     20  C   UNL A   1      36.855  23.014  25.858  1.00  0.00     0.113 A 
ATOM     21  C   UNL A   1      39.513  22.550  26.346  1.00  0.00     0.140 A 
ATOM     22  C   UNL A   1      38.696  21.626  25.706  1.00  0.00     0.158 A 
ATOM     23  C   UNL A   1      38.997  23.811  26.653  1.00  0.00    -0.002 A 
ATOM     24  N   UNL A   1      37.387  21.833  25.447  1.00  0.00    -0.249 NA
ATOM     25  C   UNL A   1      37.624  24.015  26.453  1.00  0.00     0.040 A 
BRANCH  21  26
ATOM     26  O   UNL A   1      40.802  22.227  26.660  1.00  0.00    -0.492 OA
BRANCH  26  27
ATOM     27  C   UNL A   1      41.089  20.857  26.323  1.00  0.00     0.226 C 
ATOM     28  C   UNL A   1      41.508  20.082  27.562  1.00  0.00     0.049 C 
ENDBRANCH  26  27
ENDBRANCH  21  26
BRANCH  23  29
ATOM     29  C   UNL A   1      39.848  24.907  27.246  1.00  0.00     0.036 C 
ATOM     30  C   UNL A   1      40.638  25.688  26.204  1.00  0.00     0.009 C 
ENDBRANCH  23  29
ENDBRANCH  18  20
ENDBRANCH   8  18
ENDBRANCH   6   7
ENDBRANCH   4   6
ENDBRANCH   3   4
ENDBRANCH   2   3
ENDBRANCH   1   2
BRANCH   1  31
ATOM     31  O   UNL A   1      33.602  27.022  25.181  1.00  0.00    -0.374 OA
BRANCH  31  32
ATOM     32  C   UNL A   1      33.769  28.438  25.176  1.00  0.00     0.202 C 
BRANCH  32  33
ATOM     33  C   UNL A   1      33.643  29.147  26.531  1.00  0.00     0.261 C 
BRANCH  33  34
ATOM     34  O   UNL A   1      34.912  29.549  27.071  1.00  0.00    -0.460 OA
BRANCH  34  35
ATOM     35  C   UNL A   1      34.862  30.669  27.830  1.00  0.00     0.338 C 
ATOM     36  O   UNL A   1      33.956  31.494  27.872  1.00  0.00    -0.246 OA
BRANCH  35  37
ATOM     37  C   UNL A   1      36.001  30.709  28.761  1.00  0.00     0.060 A 
ATOM     38  C   UNL A   1      36.989  31.675  28.524  1.00  0.00     0.016 A 
ATOM     39  C   UNL A   1      36.140  29.789  29.803  1.00  0.00     0.016 A 
ATOM     40  C   UNL A   1      38.148  31.688  29.294  1.00  0.00     0.010 A 
ATOM     41  C   UNL A   1      37.310  29.799  30.570  1.00  0.00     0.010 A 
ATOM     42  C   UNL A   1      38.333  30.723  30.292  1.00  0.00    -0.014 A 
BRANCH  42  43
ATOM     43  C   UNL A   1      39.666  30.588  30.927  1.00  0.00     0.031 A 
ATOM     44  C   UNL A   1      40.643  29.602  30.347  1.00  0.00     0.074 A 
ATOM     45  C   UNL A   1      40.013  31.372  31.964  1.00  0.00     0.049 A 
ATOM     46  N   UNL A   1      41.853  29.304  30.740  1.00  0.00    -0.248 NA
ATOM     47  C   UNL A   1      40.195  28.850  29.161  1.00  0.00     0.031 C 
ATOM     48  C   UNL A   1      39.160  32.393  32.572  1.00  0.00     0.029 A 
ATOM     49  N   UNL A   1      41.176  31.434  32.687  1.00  0.00    -0.354 N 
ATOM     50  C   UNL A   1      42.313  28.340  29.850  1.00  0.00     0.074 A 
ATOM     51  C   UNL A   1      41.239  28.071  28.921  1.00  0.00     0.031 C 
ATOM     52  C   UNL A   1      39.831  32.979  33.579  1.00  0.00     0.029 A 
ATOM     53  C   UNL A   1      41.145  32.354  33.708  1.00  0.00     0.049 A 
ATOM     54  H   UNL A   1      41.961  30.871  32.493  1.00  0.00     0.167 HD
ATOM     55  C   UNL A   1      43.530  27.746  29.803  1.00  0.00     0.037 A 
ATOM     56  C   UNL A   1      42.069  32.642  34.646  1.00  0.00     0.037 A 
ATOM     57  C   UNL A   1      44.590  28.020  30.736  1.00  0.00     0.049 A 
ATOM     58  C   UNL A   1      43.384  31.905  34.623  1.00  0.00     0.074 A 
ATOM     59  C   UNL A   1      45.856  27.464  30.792  1.00  0.00     0.029 A 
ATOM     60  N   UNL A   1      44.507  28.933  31.778  1.00  0.00    -0.354 N 
ATOM     61  N   UNL A   1      43.806  30.996  33.775  1.00  0.00    -0.248 NA
ATOM     62  C   UNL A   1      44.349  32.232  35.682  1.00  0.00     0.031 C 
ATOM     63  C   UNL A   1      46.523  28.011  31.893  1.00  0.00     0.029 A 
ATOM     64  C   UNL A   1      45.693  28.945  32.492  1.00  0.00     0.049 A 
ATOM     65  H   UNL A   1      43.720  29.490  31.981  1.00  0.00     0.167 HD
ATOM     66  C   UNL A   1      45.098  30.672  34.176  1.00  0.00     0.074 A 
ATOM     67  C   UNL A   1      45.390  31.486  35.338  1.00  0.00     0.031 C 
ATOM     68  C   UNL A   1      45.965  29.781  33.634  1.00  0.00     0.037 A 
BRANCH  55  69
ATOM     69  C   UNL A   1      43.776  26.737  28.715  1.00  0.00     0.058 A 
ATOM     70  C   UNL A   1      43.579  25.362  28.927  1.00  0.00     0.135 A 
ATOM     71  C   UNL A   1      44.173  27.149  27.432  1.00  0.00     0.135 A 
ATOM     72  F   UNL A   1      43.220  24.911  30.140  1.00  0.00    -0.206 F 
ATOM     73  C   UNL A   1      43.784  24.432  27.913  1.00  0.00     0.059 A 
ATOM     74  C   UNL A   1      44.358  26.239  26.396  1.00  0.00     0.059 A 
ATOM     75  F   UNL A   1      44.381  28.450  27.174  1.00  0.00    -0.206 F 
ATOM     76  C   UNL A   1      44.171  24.880  26.649  1.00  0.00     0.060 A 
BRANCH  76  77
ATOM     77  S   UNL A   1      44.414  23.661  25.339  1.00  0.00     0.124 S 
ATOM     78  O   UNL A   1      45.385  24.338  24.487  1.00  0.00    -0.237 OA
ATOM     79  O   UNL A   1      44.915  22.506  26.078  1.00  0.00    -0.237 OA
ATOM     80  O   UNL A   1      43.080  23.505  24.768  1.00  0.00    -0.744 OA
ENDBRANCH  76  77
ENDBRANCH  55  69
BRANCH  56  81
ATOM     81  C   UNL A   1      41.787  33.663  35.693  1.00  0.00     0.058 A 
ATOM     82  C   UNL A   1      42.296  34.967  35.593  1.00  0.00     0.135 A 
ATOM     83  C   UNL A   1      41.030  33.346  36.832  1.00  0.00     0.135 A 
ATOM     84  F   UNL A   1      43.034  35.318  34.528  1.00  0.00    -0.206 F 
ATOM     85  C   UNL A   1      42.090  35.911  36.595  1.00  0.00     0.059 A 
ATOM     86  C   UNL A   1      40.786  34.280  37.834  1.00  0.00     0.059 A 
ATOM     87  F   UNL A   1      40.508  32.117  36.973  1.00  0.00    -0.206 F 
ATOM     88  C   UNL A   1      41.336  35.555  37.715  1.00  0.00     0.060 A 
BRANCH  88  89
ATOM     89  S   UNL A   1      41.063  36.788  39.006  1.00  0.00     0.124 S 
ATOM     90  O   UNL A   1      39.739  37.290  38.657  1.00  0.00    -0.237 OA
ATOM     91  O   UNL A   1      41.142  35.983  40.221  1.00  0.00    -0.237 OA
ATOM     92  O   UNL A   1      42.165  37.726  38.813  1.00  0.00    -0.744 OA
ENDBRANCH  88  89
ENDBRANCH  56  81
BRANCH  68  93
ATOM     93  C   UNL A   1      47.331  29.676  34.257  1.00  0.00     0.058 A 
ATOM     94  C   UNL A   1      47.596  28.786  35.309  1.00  0.00     0.135 A 
ATOM     95  C   UNL A   1      48.400  30.431  33.749  1.00  0.00     0.135 A 
ATOM     96  F   UNL A   1      46.607  28.046  35.834  1.00  0.00    -0.206 F 
ATOM     97  C   UNL A   1      48.872  28.663  35.849  1.00  0.00     0.059 A 
ATOM     98  C   UNL A   1      49.689  30.304  34.255  1.00  0.00     0.059 A 
ATOM     99  F   UNL A   1      48.200  31.289  32.735  1.00  0.00    -0.206 F 
ATOM    100  C   UNL A   1      49.913  29.424  35.313  1.00  0.00     0.060 A 
BRANCH 100 101
ATOM    101  S   UNL A   1      51.572  29.220  35.993  1.00  0.00     0.124 S 
ATOM    102  O   UNL A   1      51.281  28.732  37.338  1.00  0.00    -0.237 OA
ATOM    103  O   UNL A   1      52.167  28.249  35.082  1.00  0.00    -0.237 OA
ATOM    104  O   UNL A   1      52.136  30.564  35.923  1.00  0.00    -0.744 OA
ENDBRANCH 100 101
ENDBRANCH  68  93
ENDBRANCH  42  43
ENDBRANCH  35  37
ENDBRANCH  34  35
ENDBRANCH  33  34
ENDBRANCH  32  33
ENDBRANCH  31  32
ENDBRANCH   1  31
TORSDOF 23
ENDMDL
MODEL 3
REMARK VINA RESULT:     -10.2      6.154     10.672
REMARK SMILES CCOc1cnc(C(=O)c2[nH]c3cc(Cl)ccc3c2CC(=O)OCCOCCOC(=O)c2ccc(-c3c4nc(c(-c5c(F)cc(S(=O)(=O)[O-])cc5F)c5ccc([nH]5)c(-c5c(F)cc(S(=O)(=O)[O-])cc5F)c5nc(c(-c6c(F)cc(S(=O)(=O)[O-])cc6F)c6ccc3[nH]6)C=C5)C=C4)cc2)cc1CC
REMARK SMILES IDX 25 1 24 2 23 3 21 4 22 5 20 6 19 7 10 8 11 9 12 10 18 12
REMARK SMILES IDX 13 13 17 14 14 15 16 16 15 17 8 18 9 19 7 20 4 21 5 22 99 23
REMARK SMILES IDX 6 24 98 25 3 26 2 27 1 28 100 29 101 30 26 31 27 32 28 33
REMARK SMILES IDX 29 34 30 35 31 36 32 37 33 38 97 39 34 40 96 41 35 42 36 43
REMARK SMILES IDX 37 44 90 45 38 46 95 47 89 48 91 49 39 50 94 51 88 52 87 53
REMARK SMILES IDX 40 55 74 56 53 57 73 58 54 59 57 60 72 61 92 62 55 63 56 64
REMARK SMILES IDX 71 66 93 67 58 68 41 69 42 70 51 71 43 72 44 73 50 74 52 75
REMARK SMILES IDX 45 76 46 77 47 78 48 79 49 80 75 81 76 82 85 83 77 84 78 85
REMARK SMILES IDX 84 86 86 87 79 88 80 89 81 90 82 91 83 92 59 93 60 94 69 95
REMARK SMILES IDX 61 96 62 97 68 98 70 99 63 100 64 101 65 102 66 103 67 104
REMARK H PARENT 11 11 91 54 57 65
REMARK Flexibility Score: inf
ROOT
ATOM      1  C   UNL A   1      37.151  20.876  24.579  1.00  0.00     0.202 C 
ENDROOT
BRANCH   1   2
ATOM      2  C   UNL A   1      36.524  22.140  23.981  1.00  0.00     0.261 C 
BRANCH   2   3
ATOM      3  O   UNL A   1      35.724  22.869  24.940  1.00  0.00    -0.463 OA
BRANCH   3   4
ATOM      4  C   UNL A   1      34.995  23.899  24.431  1.00  0.00     0.310 C 
ATOM      5  O   UNL A   1      34.780  24.062  23.232  1.00  0.00    -0.252 OA
BRANCH   4   6
ATOM      6  C   UNL A   1      34.535  24.923  25.445  1.00  0.00     0.161 C 
BRANCH   6   7
ATOM      7  C   UNL A   1      33.116  25.423  25.381  1.00  0.00     0.000 A 
ATOM      8  C   UNL A   1      31.975  24.811  25.906  1.00  0.00     0.093 A 
ATOM      9  N   UNL A   1      30.925  25.675  25.666  1.00  0.00    -0.351 N 
ATOM     10  C   UNL A   1      31.270  26.575  24.688  1.00  0.00     0.048 A 
ATOM     11  H   UNL A   1      30.056  25.649  26.128  1.00  0.00     0.167 HD
ATOM     12  C   UNL A   1      32.651  26.481  24.527  1.00  0.00     0.004 A 
ATOM     13  C   UNL A   1      30.471  27.447  23.937  1.00  0.00     0.047 A 
ATOM     14  C   UNL A   1      33.271  27.319  23.577  1.00  0.00     0.012 A 
ATOM     15  C   UNL A   1      31.109  28.223  22.965  1.00  0.00     0.043 A 
ATOM     16  C   UNL A   1      32.488  28.171  22.788  1.00  0.00     0.021 A 
ATOM     17  Cl  UNL A   1      30.161  29.240  21.947  1.00  0.00    -0.084 Cl
BRANCH   8  18
ATOM     18  C   UNL A   1      31.878  23.522  26.586  1.00  0.00     0.227 C 
ATOM     19  O   UNL A   1      31.534  23.441  27.764  1.00  0.00    -0.285 OA
BRANCH  18  20
ATOM     20  C   UNL A   1      32.292  22.255  25.889  1.00  0.00     0.113 A 
ATOM     21  C   UNL A   1      33.409  20.096  24.620  1.00  0.00     0.140 A 
ATOM     22  C   UNL A   1      33.612  20.360  25.969  1.00  0.00     0.158 A 
ATOM     23  C   UNL A   1      32.513  20.891  23.902  1.00  0.00    -0.002 A 
ATOM     24  N   UNL A   1      33.067  21.411  26.619  1.00  0.00    -0.249 NA
ATOM     25  C   UNL A   1      31.994  22.025  24.545  1.00  0.00     0.040 A 
BRANCH  21  26
ATOM     26  O   UNL A   1      34.075  19.070  24.012  1.00  0.00    -0.492 OA
BRANCH  26  27
ATOM     27  C   UNL A   1      33.703  17.802  24.584  1.00  0.00     0.226 C 
ATOM     28  C   UNL A   1      33.958  16.678  23.592  1.00  0.00     0.049 C 
ENDBRANCH  26  27
ENDBRANCH  21  26
BRANCH  23  29
ATOM     29  C   UNL A   1      32.154  20.604  22.465  1.00  0.00     0.036 C 
ATOM     30  C   UNL A   1      32.160  21.846  21.583  1.00  0.00     0.009 C 
ENDBRANCH  23  29
ENDBRANCH  18  20
ENDBRANCH   8  18
ENDBRANCH   6   7
ENDBRANCH   4   6
ENDBRANCH   3   4
ENDBRANCH   2   3
ENDBRANCH   1   2
BRANCH   1  31
ATOM     31  O   UNL A   1      37.870  21.025  25.805  1.00  0.00    -0.374 OA
BRANCH  31  32
ATOM     32  C   UNL A   1      39.293  20.980  25.716  1.00  0.00     0.202 C 
BRANCH  32  33
ATOM     33  C   UNL A   1      39.938  19.589  25.758  1.00  0.00     0.261 C 
BRANCH  33  34
ATOM     34  O   UNL A   1      41.074  19.526  26.635  1.00  0.00    -0.460 OA
BRANCH  34  35
ATOM     35  C   UNL A   1      42.207  20.054  26.113  1.00  0.00     0.338 C 
ATOM     36  O   UNL A   1      42.949  19.540  25.284  1.00  0.00    -0.246 OA
BRANCH  35  37
ATOM     37  C   UNL A   1      42.373  21.448  26.555  1.00  0.00     0.060 A 
ATOM     38  C   UNL A   1      42.390  22.437  25.562  1.00  0.00     0.016 A 
ATOM     39  C   UNL A   1      42.571  21.783  27.897  1.00  0.00     0.016 A 
ATOM     40  C   UNL A   1      42.663  23.759  25.900  1.00  0.00     0.010 A 
ATOM     41  C   UNL A   1      42.854  23.111  28.233  1.00  0.00     0.010 A 
ATOM     42  C   UNL A   1      42.938  24.095  27.232  1.00  0.00    -0.014 A 
BRANCH  42  43
ATOM     43  C   UNL A   1      43.473  25.442  27.540  1.00  0.00     0.031 A 
ATOM     44  C   UNL A   1      44.933  25.712  27.291  1.00  0.00     0.074 A 
ATOM     45  C   UNL A   1      42.658  26.418  27.980  1.00  0.00     0.049 A 
ATOM     46  N   UNL A   1      45.621  26.804  27.496  1.00  0.00    -0.248 NA
ATOM     47  C   UNL A   1      45.721  24.601  26.732  1.00  0.00     0.031 C 
ATOM     48  C   UNL A   1      41.220  26.277  28.208  1.00  0.00     0.029 A 
ATOM     49  N   UNL A   1      42.923  27.723  28.308  1.00  0.00    -0.354 N 
ATOM     50  C   UNL A   1      46.918  26.515  27.087  1.00  0.00     0.074 A 
ATOM     51  C   UNL A   1      46.932  25.134  26.660  1.00  0.00     0.031 C 
ATOM     52  C   UNL A   1      40.730  27.451  28.644  1.00  0.00     0.029 A 
ATOM     53  C   UNL A   1      41.823  28.415  28.754  1.00  0.00     0.049 A 
ATOM     54  H   UNL A   1      43.819  28.126  28.233  1.00  0.00     0.167 HD
ATOM     55  C   UNL A   1      47.996  27.334  27.055  1.00  0.00     0.037 A 
ATOM     56  C   UNL A   1      41.718  29.678  29.214  1.00  0.00     0.037 A 
ATOM     57  C   UNL A   1      47.970  28.707  27.486  1.00  0.00     0.049 A 
ATOM     58  C   UNL A   1      42.952  30.544  29.248  1.00  0.00     0.074 A 
ATOM     59  C   UNL A   1      49.006  29.623  27.513  1.00  0.00     0.029 A 
ATOM     60  N   UNL A   1      46.843  29.362  27.966  1.00  0.00    -0.354 N 
ATOM     61  N   UNL A   1      44.172  30.259  28.856  1.00  0.00    -0.248 NA
ATOM     62  C   UNL A   1      42.796  31.904  29.783  1.00  0.00     0.031 C 
ATOM     63  C   UNL A   1      48.516  30.820  28.047  1.00  0.00     0.029 A 
ATOM     64  C   UNL A   1      47.163  30.666  28.305  1.00  0.00     0.049 A 
ATOM     65  H   UNL A   1      45.949  28.959  28.052  1.00  0.00     0.167 HD
ATOM     66  C   UNL A   1      44.919  31.414  29.063  1.00  0.00     0.074 A 
ATOM     67  C   UNL A   1      44.012  32.404  29.608  1.00  0.00     0.031 C 
ATOM     68  C   UNL A   1      46.235  31.638  28.826  1.00  0.00     0.037 A 
BRANCH  55  69
ATOM     69  C   UNL A   1      49.293  26.768  26.545  1.00  0.00     0.058 A 
ATOM     70  C   UNL A   1      49.671  26.892  25.198  1.00  0.00     0.135 A 
ATOM     71  C   UNL A   1      50.188  26.129  27.419  1.00  0.00     0.135 A 
ATOM     72  F   UNL A   1      48.845  27.476  24.315  1.00  0.00    -0.206 F 
ATOM     73  C   UNL A   1      50.882  26.389  24.733  1.00  0.00     0.059 A 
ATOM     74  C   UNL A   1      51.415  25.642  26.980  1.00  0.00     0.059 A 
ATOM     75  F   UNL A   1      49.875  25.977  28.715  1.00  0.00    -0.206 F 
ATOM     76  C   UNL A   1      51.750  25.768  25.632  1.00  0.00     0.060 A 
BRANCH  76  77
ATOM     77  S   UNL A   1      53.325  25.138  25.015  1.00  0.00     0.124 S 
ATOM     78  O   UNL A   1      54.274  25.809  25.896  1.00  0.00    -0.237 OA
ATOM     79  O   UNL A   1      53.185  23.698  25.214  1.00  0.00    -0.237 OA
ATOM     80  O   UNL A   1      53.345  25.575  23.623  1.00  0.00    -0.744 OA
ENDBRANCH  76  77
ENDBRANCH  55  69
BRANCH  56  81
ATOM     81  C   UNL A   1      40.408  30.202  29.691  1.00  0.00     0.058 A 
ATOM     82  C   UNL A   1      40.202  30.524  31.041  1.00  0.00     0.135 A 
ATOM     83  C   UNL A   1      39.325  30.359  28.812  1.00  0.00     0.135 A 
ATOM     84  F   UNL A   1      41.203  30.383  31.924  1.00  0.00    -0.206 F 
ATOM     85  C   UNL A   1      38.964  30.957  31.509  1.00  0.00     0.059 A 
ATOM     86  C   UNL A   1      38.086  30.816  29.250  1.00  0.00     0.059 A 
ATOM     87  F   UNL A   1      39.470  30.077  27.508  1.00  0.00    -0.206 F 
ATOM     88  C   UNL A   1      37.911  31.096  30.604  1.00  0.00     0.060 A 
BRANCH  88  89
ATOM     89  S   UNL A   1      36.310  31.667  31.215  1.00  0.00     0.124 S 
ATOM     90  O   UNL A   1      35.698  32.184  29.996  1.00  0.00    -0.237 OA
ATOM     91  O   UNL A   1      35.730  30.440  31.752  1.00  0.00    -0.237 OA
ATOM     92  O   UNL A   1      36.671  32.669  32.214  1.00  0.00    -0.744 OA
ENDBRANCH  88  89
ENDBRANCH  56  81
BRANCH  68  93
ATOM     93  C   UNL A   1      46.765  33.018  29.103  1.00  0.00     0.058 A 
ATOM     94  C   UNL A   1      46.718  34.035  28.137  1.00  0.00     0.135 A 
ATOM     95  C   UNL A   1      47.269  33.340  30.374  1.00  0.00     0.135 A 
ATOM     96  F   UNL A   1      46.252  33.777  26.905  1.00  0.00    -0.206 F 
ATOM     97  C   UNL A   1      47.171  35.321  28.417  1.00  0.00     0.059 A 
ATOM     98  C   UNL A   1      47.700  34.626  30.684  1.00  0.00     0.059 A 
ATOM     99  F   UNL A   1      47.325  32.405  31.336  1.00  0.00    -0.206 F 
ATOM    100  C   UNL A   1      47.657  35.607  29.694  1.00  0.00     0.060 A 
BRANCH 100 101
ATOM    101  S   UNL A   1      48.197  37.291  30.056  1.00  0.00     0.124 S 
ATOM    102  O   UNL A   1      47.380  38.067  29.129  1.00  0.00    -0.237 OA
ATOM    103  O   UNL A   1      47.860  37.431  31.469  1.00  0.00    -0.237 OA
ATOM    104  O   UNL A   1      49.626  37.260  29.759  1.00  0.00    -0.744 OA
ENDBRANCH 100 101
ENDBRANCH  68  93
ENDBRANCH  42  43
ENDBRANCH  35  37
ENDBRANCH  34  35
ENDBRANCH  33  34
ENDBRANCH  32  33
ENDBRANCH  31  32
ENDBRANCH   1  31
TORSDOF 23
ENDMDL
