MODEL 1
REMARK VINA RESULT:      -9.9      0.000      0.000
REMARK SMILES CCC[C@H](C)C[N@H+]1[C@@H]2CC[C@H]1C[C@H](CC(=O)OCCOCCOC(=O)c1ccc(-c3c4nc(c(-c5c(F)cc(S(=O)(=O)[O-])cc5F)c5ccc([nH]5)c(-c5c(F)cc(S(=O)(=O)[O-])cc5F)c5nc(c(-c6c(F)cc(S(=O)(=O)[O-])cc6F)c6ccc3[nH]6)C=C5)C=C4)cc1)C2
REMARK SMILES IDX 19 1 18 2 17 3 15 4 16 5 14 6 13 7 7 8 8 9 11 10 9 12 92 13
REMARK SMILES IDX 10 14 12 15 6 16 4 17 5 18 3 19 2 20 1 21 20 22 21 23 22 24
REMARK SMILES IDX 23 25 24 26 25 27 26 28 27 29 91 30 28 31 90 32 29 33 30 34
REMARK SMILES IDX 31 35 84 36 32 37 89 38 83 39 85 40 33 41 88 42 82 43 81 44
REMARK SMILES IDX 34 46 68 47 47 48 67 49 48 50 51 51 66 52 86 53 49 54 50 55
REMARK SMILES IDX 65 57 87 58 52 59 35 60 36 61 45 62 37 63 38 64 44 65 46 66
REMARK SMILES IDX 39 67 40 68 41 69 42 70 43 71 69 72 70 73 79 74 71 75 72 76
REMARK SMILES IDX 78 77 80 78 73 79 74 80 75 81 76 82 77 83 53 84 54 85 63 86
REMARK SMILES IDX 55 87 56 88 62 89 64 90 57 91 58 92 59 93 60 94 61 95
REMARK H PARENT 7 11 85 45 51 56
REMARK Flexibility Score: inf
ROOT
ATOM      1  C   UNL A   1      34.668  29.791  27.243  1.00  0.00     0.202 C 
ENDROOT
BRANCH   1   2
ATOM      2  C   UNL A   1      33.892  29.038  26.158  1.00  0.00     0.261 C 
BRANCH   2   3
ATOM      3  O   UNL A   1      34.003  27.615  26.345  1.00  0.00    -0.463 OA
BRANCH   3   4
ATOM      4  C   UNL A   1      33.515  26.821  25.362  1.00  0.00     0.306 C 
ATOM      5  O   UNL A   1      33.022  27.217  24.313  1.00  0.00    -0.252 OA
BRANCH   4   6
ATOM      6  C   UNL A   1      33.597  25.353  25.726  1.00  0.00     0.126 C 
BRANCH   6   7
ATOM      7  C   UNL A   1      34.798  24.532  25.197  1.00  0.00     0.012 C 
ATOM      8  N   UNL A   1      34.984  21.601  24.724  1.00  0.00    -0.330 N 
ATOM      9  C   UNL A   1      35.050  22.516  23.562  1.00  0.00     0.184 C 
ATOM     10  C   UNL A   1      35.923  22.238  25.654  1.00  0.00     0.184 C 
ATOM     11  H   UNL A   1      35.254  20.634  24.549  1.00  0.00     0.348 HD
ATOM     12  C   UNL A   1      36.556  22.682  23.362  1.00  0.00     0.071 C 
ATOM     13  C   UNL A   1      34.384  23.875  23.852  1.00  0.00     0.069 C 
ATOM     14  C   UNL A   1      37.137  22.521  24.759  1.00  0.00     0.071 C 
ATOM     15  C   UNL A   1      35.330  23.522  26.243  1.00  0.00     0.069 C 
BRANCH   8  16
ATOM     16  C   UNL A   1      33.603  21.378  25.191  1.00  0.00     0.265 C 
BRANCH  16  17
ATOM     17  C   UNL A   1      32.740  20.236  24.588  1.00  0.00     0.041 C 
ATOM     18  C   UNL A   1      32.365  20.393  23.110  1.00  0.00     0.013 C 
BRANCH  17  19
ATOM     19  C   UNL A   1      33.513  18.889  24.688  1.00  0.00     0.009 C 
BRANCH  19  20
ATOM     20  C   UNL A   1      32.855  17.665  24.053  1.00  0.00    -0.003 C 
ATOM     21  C   UNL A   1      33.787  16.907  23.124  1.00  0.00     0.004 C 
ENDBRANCH  19  20
ENDBRANCH  17  19
ENDBRANCH  16  17
ENDBRANCH   8  16
ENDBRANCH   6   7
ENDBRANCH   4   6
ENDBRANCH   3   4
ENDBRANCH   2   3
ENDBRANCH   1   2
BRANCH   1  22
ATOM     22  O   UNL A   1      34.067  31.002  27.704  1.00  0.00    -0.374 OA
BRANCH  22  23
ATOM     23  C   UNL A   1      32.752  31.284  27.231  1.00  0.00     0.202 C 
BRANCH  23  24
ATOM     24  C   UNL A   1      32.307  32.750  27.297  1.00  0.00     0.261 C 
BRANCH  24  25
ATOM     25  O   UNL A   1      33.425  33.652  27.385  1.00  0.00    -0.460 OA
BRANCH  25  26
ATOM     26  C   UNL A   1      33.396  34.476  28.457  1.00  0.00     0.338 C 
ATOM     27  O   UNL A   1      32.528  35.302  28.719  1.00  0.00    -0.246 OA
BRANCH  26  28
ATOM     28  C   UNL A   1      34.477  34.144  29.406  1.00  0.00     0.060 A 
ATOM     29  C   UNL A   1      35.790  34.345  28.963  1.00  0.00     0.016 A 
ATOM     30  C   UNL A   1      34.235  33.579  30.661  1.00  0.00     0.016 A 
ATOM     31  C   UNL A   1      36.864  33.908  29.733  1.00  0.00     0.010 A 
ATOM     32  C   UNL A   1      35.319  33.140  31.436  1.00  0.00     0.010 A 
ATOM     33  C   UNL A   1      36.635  33.257  30.952  1.00  0.00    -0.014 A 
BRANCH  33  34
ATOM     34  C   UNL A   1      37.766  32.556  31.613  1.00  0.00     0.031 A 
ATOM     35  C   UNL A   1      38.233  33.036  32.964  1.00  0.00     0.074 A 
ATOM     36  C   UNL A   1      38.323  31.462  31.060  1.00  0.00     0.049 A 
ATOM     37  N   UNL A   1      39.178  32.560  33.733  1.00  0.00    -0.248 NA
ATOM     38  C   UNL A   1      37.537  34.207  33.523  1.00  0.00     0.031 C 
ATOM     39  C   UNL A   1      37.933  30.873  29.780  1.00  0.00     0.029 A 
ATOM     40  N   UNL A   1      39.331  30.648  31.512  1.00  0.00    -0.354 N 
ATOM     41  C   UNL A   1      39.196  33.374  34.861  1.00  0.00     0.074 A 
ATOM     42  C   UNL A   1      38.190  34.395  34.660  1.00  0.00     0.031 C 
ATOM     43  C   UNL A   1      38.697  29.791  29.548  1.00  0.00     0.029 A 
ATOM     44  C   UNL A   1      39.646  29.626  30.647  1.00  0.00     0.049 A 
ATOM     45  H   UNL A   1      39.786  30.782  32.375  1.00  0.00     0.167 HD
ATOM     46  C   UNL A   1      39.969  33.274  35.969  1.00  0.00     0.037 A 
ATOM     47  C   UNL A   1      40.601  28.678  30.725  1.00  0.00     0.037 A 
ATOM     48  C   UNL A   1      40.963  32.252  36.170  1.00  0.00     0.049 A 
ATOM     49  C   UNL A   1      41.490  28.620  31.942  1.00  0.00     0.074 A 
ATOM     50  C   UNL A   1      41.786  32.057  37.266  1.00  0.00     0.029 A 
ATOM     51  N   UNL A   1      41.275  31.258  35.255  1.00  0.00    -0.354 N 
ATOM     52  N   UNL A   1      41.480  29.384  33.008  1.00  0.00    -0.248 NA
ATOM     53  C   UNL A   1      42.515  27.567  31.969  1.00  0.00     0.031 C 
ATOM     54  C   UNL A   1      42.629  30.975  36.993  1.00  0.00     0.029 A 
ATOM     55  C   UNL A   1      42.293  30.460  35.752  1.00  0.00     0.049 A 
ATOM     56  H   UNL A   1      40.837  31.136  34.382  1.00  0.00     0.167 HD
ATOM     57  C   UNL A   1      42.473  28.885  33.845  1.00  0.00     0.074 A 
ATOM     58  C   UNL A   1      43.060  27.749  33.164  1.00  0.00     0.031 C 
ATOM     59  C   UNL A   1      42.862  29.324  35.069  1.00  0.00     0.037 A 
BRANCH  46  60
ATOM     60  C   UNL A   1      39.787  34.312  37.043  1.00  0.00     0.058 A 
ATOM     61  C   UNL A   1      39.046  34.054  38.206  1.00  0.00     0.135 A 
ATOM     62  C   UNL A   1      40.394  35.573  36.920  1.00  0.00     0.135 A 
ATOM     63  F   UNL A   1      38.430  32.872  38.368  1.00  0.00    -0.206 F 
ATOM     64  C   UNL A   1      38.891  35.017  39.199  1.00  0.00     0.059 A 
ATOM     65  C   UNL A   1      40.276  36.541  37.914  1.00  0.00     0.059 A 
ATOM     66  F   UNL A   1      41.114  35.874  35.828  1.00  0.00    -0.206 F 
ATOM     67  C   UNL A   1      39.511  36.258  39.043  1.00  0.00     0.060 A 
BRANCH  67  68
ATOM     68  S   UNL A   1      39.304  37.496  40.341  1.00  0.00     0.124 S 
ATOM     69  O   UNL A   1      40.691  37.860  40.619  1.00  0.00    -0.237 OA
ATOM     70  O   UNL A   1      38.504  38.518  39.674  1.00  0.00    -0.237 OA
ATOM     71  O   UNL A   1      38.624  36.765  41.404  1.00  0.00    -0.744 OA
ENDBRANCH  67  68
ENDBRANCH  46  60
BRANCH  47  72
ATOM     72  C   UNL A   1      40.772  27.705  29.613  1.00  0.00     0.058 A 
ATOM     73  C   UNL A   1      39.894  26.623  29.449  1.00  0.00     0.135 A 
ATOM     74  C   UNL A   1      41.821  27.840  28.690  1.00  0.00     0.135 A 
ATOM     75  F   UNL A   1      38.883  26.443  30.312  1.00  0.00    -0.206 F 
ATOM     76  C   UNL A   1      40.057  25.701  28.418  1.00  0.00     0.059 A 
ATOM     77  C   UNL A   1      41.989  26.948  27.636  1.00  0.00     0.059 A 
ATOM     78  F   UNL A   1      42.684  28.862  28.797  1.00  0.00    -0.206 F 
ATOM     79  C   UNL A   1      41.106  25.876  27.514  1.00  0.00     0.060 A 
BRANCH  79  80
ATOM     80  S   UNL A   1      41.278  24.706  26.148  1.00  0.00     0.124 S 
ATOM     81  O   UNL A   1      39.921  24.186  26.035  1.00  0.00    -0.237 OA
ATOM     82  O   UNL A   1      41.724  25.571  25.060  1.00  0.00    -0.237 OA
ATOM     83  O   UNL A   1      42.277  23.762  26.638  1.00  0.00    -0.744 OA
ENDBRANCH  79  80
ENDBRANCH  47  72
BRANCH  59  84
ATOM     84  C   UNL A   1      43.942  28.552  35.777  1.00  0.00     0.058 A 
ATOM     85  C   UNL A   1      43.650  27.475  36.628  1.00  0.00     0.135 A 
ATOM     86  C   UNL A   1      45.296  28.861  35.554  1.00  0.00     0.135 A 
ATOM     87  F   UNL A   1      42.375  27.140  36.879  1.00  0.00    -0.206 F 
ATOM     88  C   UNL A   1      44.658  26.747  37.252  1.00  0.00     0.059 A 
ATOM     89  C   UNL A   1      46.320  28.128  36.144  1.00  0.00     0.059 A 
ATOM     90  F   UNL A   1      45.632  29.874  34.740  1.00  0.00    -0.206 F 
ATOM     91  C   UNL A   1      45.991  27.080  37.002  1.00  0.00     0.060 A 
BRANCH  91  92
ATOM     92  S   UNL A   1      47.290  26.106  37.792  1.00  0.00     0.124 S 
ATOM     93  O   UNL A   1      46.686  25.801  39.084  1.00  0.00    -0.237 OA
ATOM     94  O   UNL A   1      47.437  24.978  36.878  1.00  0.00    -0.237 OA
ATOM     95  O   UNL A   1      48.425  27.023  37.832  1.00  0.00    -0.744 OA
ENDBRANCH  91  92
ENDBRANCH  59  84
ENDBRANCH  33  34
ENDBRANCH  26  28
ENDBRANCH  25  26
ENDBRANCH  24  25
ENDBRANCH  23  24
ENDBRANCH  22  23
ENDBRANCH   1  22
TORSDOF 22
ENDMDL
MODEL 2
REMARK VINA RESULT:      -9.7      2.354      8.949
REMARK SMILES CCC[C@H](C)C[N@H+]1[C@@H]2CC[C@H]1C[C@H](CC(=O)OCCOCCOC(=O)c1ccc(-c3c4nc(c(-c5c(F)cc(S(=O)(=O)[O-])cc5F)c5ccc([nH]5)c(-c5c(F)cc(S(=O)(=O)[O-])cc5F)c5nc(c(-c6c(F)cc(S(=O)(=O)[O-])cc6F)c6ccc3[nH]6)C=C5)C=C4)cc1)C2
REMARK SMILES IDX 19 1 18 2 17 3 15 4 16 5 14 6 13 7 7 8 8 9 11 10 9 12 92 13
REMARK SMILES IDX 10 14 12 15 6 16 4 17 5 18 3 19 2 20 1 21 20 22 21 23 22 24
REMARK SMILES IDX 23 25 24 26 25 27 26 28 27 29 91 30 28 31 90 32 29 33 30 34
REMARK SMILES IDX 31 35 84 36 32 37 89 38 83 39 85 40 33 41 88 42 82 43 81 44
REMARK SMILES IDX 34 46 68 47 47 48 67 49 48 50 51 51 66 52 86 53 49 54 50 55
REMARK SMILES IDX 65 57 87 58 52 59 35 60 36 61 45 62 37 63 38 64 44 65 46 66
REMARK SMILES IDX 39 67 40 68 41 69 42 70 43 71 69 72 70 73 79 74 71 75 72 76
REMARK SMILES IDX 78 77 80 78 73 79 74 80 75 81 76 82 77 83 53 84 54 85 63 86
REMARK SMILES IDX 55 87 56 88 62 89 64 90 57 91 58 92 59 93 60 94 61 95
REMARK H PARENT 7 11 85 45 51 56
REMARK Flexibility Score: inf
ROOT
ATOM      1  C   UNL A   1      42.214  21.700  26.870  1.00  0.00     0.202 C 
ENDROOT
BRANCH   1   2
ATOM      2  C   UNL A   1      41.146  22.186  25.886  1.00  0.00     0.261 C 
BRANCH   2   3
ATOM      3  O   UNL A   1      39.835  21.762  26.305  1.00  0.00    -0.463 OA
BRANCH   3   4
ATOM      4  C   UNL A   1      38.841  22.681  26.252  1.00  0.00     0.306 C 
ATOM      5  O   UNL A   1      38.821  23.737  26.872  1.00  0.00    -0.252 OA
BRANCH   4   6
ATOM      6  C   UNL A   1      37.701  22.232  25.362  1.00  0.00     0.126 C 
BRANCH   6   7
ATOM      7  C   UNL A   1      36.589  23.254  25.022  1.00  0.00     0.012 C 
ATOM      8  N   UNL A   1      33.730  22.748  24.378  1.00  0.00    -0.330 N 
ATOM      9  C   UNL A   1      34.062  23.469  25.628  1.00  0.00     0.184 C 
ATOM     10  C   UNL A   1      34.571  23.448  23.402  1.00  0.00     0.184 C 
ATOM     11  H   UNL A   1      32.752  22.774  24.093  1.00  0.00     0.348 HD
ATOM     12  C   UNL A   1      33.937  24.932  25.204  1.00  0.00     0.071 C 
ATOM     13  C   UNL A   1      35.490  23.161  26.116  1.00  0.00     0.069 C 
ATOM     14  C   UNL A   1      34.299  24.923  23.727  1.00  0.00     0.071 C 
ATOM     15  C   UNL A   1      36.047  23.081  23.582  1.00  0.00     0.069 C 
BRANCH   8  16
ATOM     16  C   UNL A   1      33.898  21.288  24.505  1.00  0.00     0.265 C 
BRANCH  16  17
ATOM     17  C   UNL A   1      32.722  20.326  24.183  1.00  0.00     0.041 C 
ATOM     18  C   UNL A   1      32.182  20.389  22.750  1.00  0.00     0.013 C 
BRANCH  17  19
ATOM     19  C   UNL A   1      33.176  18.854  24.400  1.00  0.00     0.009 C 
BRANCH  19  20
ATOM     20  C   UNL A   1      33.190  17.945  23.172  1.00  0.00    -0.003 C 
ATOM     21  C   UNL A   1      33.928  16.640  23.409  1.00  0.00     0.004 C 
ENDBRANCH  19  20
ENDBRANCH  17  19
ENDBRANCH  16  17
ENDBRANCH   8  16
ENDBRANCH   6   7
ENDBRANCH   4   6
ENDBRANCH   3   4
ENDBRANCH   2   3
ENDBRANCH   1   2
BRANCH   1  22
ATOM     22  O   UNL A   1      43.442  21.263  26.283  1.00  0.00    -0.374 OA
BRANCH  22  23
ATOM     23  C   UNL A   1      44.488  22.228  26.196  1.00  0.00     0.202 C 
BRANCH  23  24
ATOM     24  C   UNL A   1      44.485  23.328  27.264  1.00  0.00     0.261 C 
BRANCH  24  25
ATOM     25  O   UNL A   1      44.654  24.638  26.693  1.00  0.00    -0.460 OA
BRANCH  25  26
ATOM     26  C   UNL A   1      43.539  25.148  26.122  1.00  0.00     0.338 C 
ATOM     27  O   UNL A   1      43.070  24.838  25.032  1.00  0.00    -0.246 OA
BRANCH  26  28
ATOM     28  C   UNL A   1      42.823  26.031  27.063  1.00  0.00     0.060 A 
ATOM     29  C   UNL A   1      43.289  27.346  27.175  1.00  0.00     0.016 A 
ATOM     30  C   UNL A   1      41.777  25.582  27.875  1.00  0.00     0.016 A 
ATOM     31  C   UNL A   1      42.773  28.192  28.153  1.00  0.00     0.010 A 
ATOM     32  C   UNL A   1      41.258  26.436  28.860  1.00  0.00     0.010 A 
ATOM     33  C   UNL A   1      41.790  27.727  29.035  1.00  0.00    -0.014 A 
BRANCH  33  34
ATOM     34  C   UNL A   1      41.460  28.541  30.234  1.00  0.00     0.031 A 
ATOM     35  C   UNL A   1      42.312  28.399  31.469  1.00  0.00     0.074 A 
ATOM     36  C   UNL A   1      40.467  29.449  30.204  1.00  0.00     0.049 A 
ATOM     37  N   UNL A   1      42.225  29.027  32.614  1.00  0.00    -0.248 NA
ATOM     38  C   UNL A   1      43.411  27.422  31.403  1.00  0.00     0.031 C 
ATOM     39  C   UNL A   1      39.599  29.712  29.056  1.00  0.00     0.029 A 
ATOM     40  N   UNL A   1      40.026  30.323  31.166  1.00  0.00    -0.354 N 
ATOM     41  C   UNL A   1      43.250  28.518  33.405  1.00  0.00     0.074 A 
ATOM     42  C   UNL A   1      43.924  27.506  32.621  1.00  0.00     0.031 C 
ATOM     43  C   UNL A   1      38.727  30.682  29.383  1.00  0.00     0.029 A 
ATOM     44  C   UNL A   1      38.956  31.090  30.768  1.00  0.00     0.049 A 
ATOM     45  H   UNL A   1      40.438  30.396  32.057  1.00  0.00     0.167 HD
ATOM     46  C   UNL A   1      43.607  28.871  34.663  1.00  0.00     0.037 A 
ATOM     47  C   UNL A   1      38.234  32.003  31.448  1.00  0.00     0.037 A 
ATOM     48  C   UNL A   1      42.940  29.884  35.438  1.00  0.00     0.049 A 
ATOM     49  C   UNL A   1      38.613  32.338  32.869  1.00  0.00     0.074 A 
ATOM     50  C   UNL A   1      43.238  30.324  36.717  1.00  0.00     0.029 A 
ATOM     51  N   UNL A   1      41.839  30.612  35.012  1.00  0.00    -0.354 N 
ATOM     52  N   UNL A   1      39.597  31.864  33.594  1.00  0.00    -0.248 NA
ATOM     53  C   UNL A   1      37.787  33.339  33.560  1.00  0.00     0.031 C 
ATOM     54  C   UNL A   1      42.286  31.282  37.082  1.00  0.00     0.029 A 
ATOM     55  C   UNL A   1      41.431  31.482  36.010  1.00  0.00     0.049 A 
ATOM     56  H   UNL A   1      41.411  30.524  34.130  1.00  0.00     0.167 HD
ATOM     57  C   UNL A   1      39.529  32.530  34.814  1.00  0.00     0.074 A 
ATOM     58  C   UNL A   1      38.410  33.445  34.726  1.00  0.00     0.031 C 
ATOM     59  C   UNL A   1      40.322  32.398  35.907  1.00  0.00     0.037 A 
BRANCH  46  60
ATOM     60  C   UNL A   1      44.760  28.136  35.293  1.00  0.00     0.058 A 
ATOM     61  C   UNL A   1      46.080  28.605  35.196  1.00  0.00     0.135 A 
ATOM     62  C   UNL A   1      44.534  26.965  36.035  1.00  0.00     0.135 A 
ATOM     63  F   UNL A   1      46.355  29.710  34.485  1.00  0.00    -0.206 F 
ATOM     64  C   UNL A   1      47.138  27.925  35.790  1.00  0.00     0.059 A 
ATOM     65  C   UNL A   1      45.575  26.284  36.661  1.00  0.00     0.059 A 
ATOM     66  F   UNL A   1      43.292  26.471  36.159  1.00  0.00    -0.206 F 
ATOM     67  C   UNL A   1      46.875  26.764  36.521  1.00  0.00     0.060 A 
BRANCH  67  68
ATOM     68  S   UNL A   1      48.258  25.894  37.289  1.00  0.00     0.124 S 
ATOM     69  O   UNL A   1      47.824  24.504  37.180  1.00  0.00    -0.237 OA
ATOM     70  O   UNL A   1      49.380  26.275  36.436  1.00  0.00    -0.237 OA
ATOM     71  O   UNL A   1      48.292  26.435  38.643  1.00  0.00    -0.744 OA
ENDBRANCH  67  68
ENDBRANCH  46  60
BRANCH  47  72
ATOM     72  C   UNL A   1      37.073  32.666  30.795  1.00  0.00     0.058 A 
ATOM     73  C   UNL A   1      37.249  33.733  29.903  1.00  0.00     0.135 A 
ATOM     74  C   UNL A   1      35.760  32.241  31.055  1.00  0.00     0.135 A 
ATOM     75  F   UNL A   1      38.483  34.184  29.631  1.00  0.00    -0.206 F 
ATOM     76  C   UNL A   1      36.165  34.365  29.299  1.00  0.00     0.059 A 
ATOM     77  C   UNL A   1      34.663  32.838  30.443  1.00  0.00     0.059 A 
ATOM     78  F   UNL A   1      35.538  31.218  31.894  1.00  0.00    -0.206 F 
ATOM     79  C   UNL A   1      34.876  33.907  29.574  1.00  0.00     0.060 A 
BRANCH  79  80
ATOM     80  S   UNL A   1      33.479  34.697  28.745  1.00  0.00     0.124 S 
ATOM     81  O   UNL A   1      32.578  34.949  29.863  1.00  0.00    -0.237 OA
ATOM     82  O   UNL A   1      34.104  35.875  28.150  1.00  0.00    -0.237 OA
ATOM     83  O   UNL A   1      33.036  33.684  27.792  1.00  0.00    -0.744 OA
ENDBRANCH  79  80
ENDBRANCH  47  72
BRANCH  59  84
ATOM     84  C   UNL A   1      40.044  33.293  37.084  1.00  0.00     0.058 A 
ATOM     85  C   UNL A   1      40.775  34.469  37.312  1.00  0.00     0.135 A 
ATOM     86  C   UNL A   1      38.989  32.997  37.965  1.00  0.00     0.135 A 
ATOM     87  F   UNL A   1      41.795  34.797  36.504  1.00  0.00    -0.206 F 
ATOM     88  C   UNL A   1      40.487  35.308  38.385  1.00  0.00     0.059 A 
ATOM     89  C   UNL A   1      38.665  33.837  39.027  1.00  0.00     0.059 A 
ATOM     90  F   UNL A   1      38.249  31.891  37.786  1.00  0.00    -0.206 F 
ATOM     91  C   UNL A   1      39.428  34.983  39.236  1.00  0.00     0.060 A 
BRANCH  91  92
ATOM     92  S   UNL A   1      39.045  36.097  40.605  1.00  0.00     0.124 S 
ATOM     93  O   UNL A   1      37.978  35.371  41.286  1.00  0.00    -0.237 OA
ATOM     94  O   UNL A   1      40.317  36.170  41.316  1.00  0.00    -0.237 OA
ATOM     95  O   UNL A   1      38.636  37.329  39.936  1.00  0.00    -0.744 OA
ENDBRANCH  91  92
ENDBRANCH  59  84
ENDBRANCH  33  34
ENDBRANCH  26  28
ENDBRANCH  25  26
ENDBRANCH  24  25
ENDBRANCH  23  24
ENDBRANCH  22  23
ENDBRANCH   1  22
TORSDOF 22
ENDMDL
MODEL 3
REMARK VINA RESULT:      -9.7      2.469      9.070
REMARK SMILES CCC[C@H](C)C[N@H+]1[C@@H]2CC[C@H]1C[C@H](CC(=O)OCCOCCOC(=O)c1ccc(-c3c4nc(c(-c5c(F)cc(S(=O)(=O)[O-])cc5F)c5ccc([nH]5)c(-c5c(F)cc(S(=O)(=O)[O-])cc5F)c5nc(c(-c6c(F)cc(S(=O)(=O)[O-])cc6F)c6ccc3[nH]6)C=C5)C=C4)cc1)C2
REMARK SMILES IDX 19 1 18 2 17 3 15 4 16 5 14 6 13 7 7 8 8 9 11 10 9 12 92 13
REMARK SMILES IDX 10 14 12 15 6 16 4 17 5 18 3 19 2 20 1 21 20 22 21 23 22 24
REMARK SMILES IDX 23 25 24 26 25 27 26 28 27 29 91 30 28 31 90 32 29 33 30 34
REMARK SMILES IDX 31 35 84 36 32 37 89 38 83 39 85 40 33 41 88 42 82 43 81 44
REMARK SMILES IDX 34 46 68 47 47 48 67 49 48 50 51 51 66 52 86 53 49 54 50 55
REMARK SMILES IDX 65 57 87 58 52 59 35 60 36 61 45 62 37 63 38 64 44 65 46 66
REMARK SMILES IDX 39 67 40 68 41 69 42 70 43 71 69 72 70 73 79 74 71 75 72 76
REMARK SMILES IDX 78 77 80 78 73 79 74 80 75 81 76 82 77 83 53 84 54 85 63 86
REMARK SMILES IDX 55 87 56 88 62 89 64 90 57 91 58 92 59 93 60 94 61 95
REMARK H PARENT 7 11 85 45 51 56
REMARK Flexibility Score: inf
ROOT
ATOM      1  C   UNL A   1      39.111  22.090  26.195  1.00  0.00     0.202 C 
ENDROOT
BRANCH   1   2
ATOM      2  C   UNL A   1      38.028  21.406  25.355  1.00  0.00     0.261 C 
BRANCH   2   3
ATOM      3  O   UNL A   1      37.263  22.379  24.619  1.00  0.00    -0.463 OA
BRANCH   3   4
ATOM      4  C   UNL A   1      35.983  22.057  24.315  1.00  0.00     0.306 C 
ATOM      5  O   UNL A   1      35.433  21.000  24.597  1.00  0.00    -0.252 OA
BRANCH   4   6
ATOM      6  C   UNL A   1      35.297  23.150  23.521  1.00  0.00     0.126 C 
BRANCH   6   7
ATOM      7  C   UNL A   1      33.776  23.356  23.718  1.00  0.00     0.012 C 
ATOM      8  N   UNL A   1      32.268  25.900  24.039  1.00  0.00    -0.330 N 
ATOM      9  C   UNL A   1      32.039  25.084  22.825  1.00  0.00     0.184 C 
ATOM     10  C   UNL A   1      32.193  24.884  25.095  1.00  0.00     0.184 C 
ATOM     11  H   UNL A   1      31.595  26.646  24.211  1.00  0.00     0.348 HD
ATOM     12  C   UNL A   1      30.809  24.263  23.211  1.00  0.00     0.071 C 
ATOM     13  C   UNL A   1      33.233  24.164  22.507  1.00  0.00     0.069 C 
ATOM     14  C   UNL A   1      30.923  24.109  24.720  1.00  0.00     0.071 C 
ATOM     15  C   UNL A   1      33.438  23.990  25.089  1.00  0.00     0.069 C 
BRANCH   8  16
ATOM     16  C   UNL A   1      33.499  26.709  23.953  1.00  0.00     0.265 C 
BRANCH  16  17
ATOM     17  C   UNL A   1      33.422  28.237  23.688  1.00  0.00     0.041 C 
ATOM     18  C   UNL A   1      32.108  28.745  23.083  1.00  0.00     0.013 C 
BRANCH  17  19
ATOM     19  C   UNL A   1      33.596  29.009  25.028  1.00  0.00     0.009 C 
BRANCH  19  20
ATOM     20  C   UNL A   1      34.151  28.220  26.214  1.00  0.00    -0.003 C 
ATOM     21  C   UNL A   1      34.510  29.102  27.396  1.00  0.00     0.004 C 
ENDBRANCH  19  20
ENDBRANCH  17  19
ENDBRANCH  16  17
ENDBRANCH   8  16
ENDBRANCH   6   7
ENDBRANCH   4   6
ENDBRANCH   3   4
ENDBRANCH   2   3
ENDBRANCH   1   2
BRANCH   1  22
ATOM     22  O   UNL A   1      40.153  21.236  26.673  1.00  0.00    -0.374 OA
BRANCH  22  23
ATOM     23  C   UNL A   1      41.076  21.809  27.596  1.00  0.00     0.202 C 
BRANCH  23  24
ATOM     24  C   UNL A   1      42.464  22.150  27.044  1.00  0.00     0.261 C 
BRANCH  24  25
ATOM     25  O   UNL A   1      43.008  23.342  27.641  1.00  0.00    -0.460 OA
BRANCH  25  26
ATOM     26  C   UNL A   1      42.856  24.460  26.896  1.00  0.00     0.338 C 
ATOM     27  O   UNL A   1      43.045  24.566  25.689  1.00  0.00    -0.246 OA
BRANCH  26  28
ATOM     28  C   UNL A   1      42.251  25.545  27.694  1.00  0.00     0.060 A 
ATOM     29  C   UNL A   1      43.025  26.695  27.887  1.00  0.00     0.016 A 
ATOM     30  C   UNL A   1      41.000  25.426  28.307  1.00  0.00     0.016 A 
ATOM     31  C   UNL A   1      42.593  27.693  28.756  1.00  0.00     0.010 A 
ATOM     32  C   UNL A   1      40.567  26.433  29.182  1.00  0.00     0.010 A 
ATOM     33  C   UNL A   1      41.385  27.546  29.449  1.00  0.00    -0.014 A 
BRANCH  33  34
ATOM     34  C   UNL A   1      41.084  28.474  30.570  1.00  0.00     0.031 A 
ATOM     35  C   UNL A   1      41.925  28.409  31.818  1.00  0.00     0.074 A 
ATOM     36  C   UNL A   1      40.127  29.414  30.453  1.00  0.00     0.049 A 
ATOM     37  N   UNL A   1      41.859  29.138  32.903  1.00  0.00    -0.248 NA
ATOM     38  C   UNL A   1      42.985  27.388  31.845  1.00  0.00     0.031 C 
ATOM     39  C   UNL A   1      39.274  29.608  29.281  1.00  0.00     0.029 A 
ATOM     40  N   UNL A   1      39.718  30.386  31.331  1.00  0.00    -0.354 N 
ATOM     41  C   UNL A   1      42.861  28.662  33.742  1.00  0.00     0.074 A 
ATOM     42  C   UNL A   1      43.498  27.559  33.055  1.00  0.00     0.031 C 
ATOM     43  C   UNL A   1      38.440  30.637  29.515  1.00  0.00     0.029 A 
ATOM     44  C   UNL A   1      38.680  31.156  30.860  1.00  0.00     0.049 A 
ATOM     45  H   UNL A   1      40.130  30.522  32.215  1.00  0.00     0.167 HD
ATOM     46  C   UNL A   1      43.227  29.110  34.967  1.00  0.00     0.037 A 
ATOM     47  C   UNL A   1      37.992  32.153  31.452  1.00  0.00     0.037 A 
ATOM     48  C   UNL A   1      42.598  30.213  35.645  1.00  0.00     0.049 A 
ATOM     49  C   UNL A   1      38.379  32.597  32.841  1.00  0.00     0.074 A 
ATOM     50  C   UNL A   1      42.909  30.752  36.882  1.00  0.00     0.029 A 
ATOM     51  N   UNL A   1      41.528  30.943  35.149  1.00  0.00    -0.354 N 
ATOM     52  N   UNL A   1      39.342  32.151  33.611  1.00  0.00    -0.248 NA
ATOM     53  C   UNL A   1      37.591  33.686  33.435  1.00  0.00     0.031 C 
ATOM     54  C   UNL A   1      41.995  31.775  37.155  1.00  0.00     0.029 A 
ATOM     55  C   UNL A   1      41.151  31.913  36.064  1.00  0.00     0.049 A 
ATOM     56  H   UNL A   1      41.100  30.794  34.275  1.00  0.00     0.167 HD
ATOM     57  C   UNL A   1      39.295  32.924  34.767  1.00  0.00     0.074 A 
ATOM     58  C   UNL A   1      38.213  33.871  34.591  1.00  0.00     0.031 C 
ATOM     59  C   UNL A   1      40.079  32.858  35.873  1.00  0.00     0.037 A 
BRANCH  46  60
ATOM     60  C   UNL A   1      44.348  28.390  35.667  1.00  0.00     0.058 A 
ATOM     61  C   UNL A   1      45.690  28.770  35.504  1.00  0.00     0.135 A 
ATOM     62  C   UNL A   1      44.071  27.326  36.541  1.00  0.00     0.135 A 
ATOM     63  F   UNL A   1      46.013  29.769  34.668  1.00  0.00    -0.206 F 
ATOM     64  C   UNL A   1      46.719  28.105  36.163  1.00  0.00     0.059 A 
ATOM     65  C   UNL A   1      45.083  26.664  37.232  1.00  0.00     0.059 A 
ATOM     66  F   UNL A   1      42.806  26.920  36.732  1.00  0.00    -0.206 F 
ATOM     67  C   UNL A   1      46.405  27.052  37.025  1.00  0.00     0.060 A 
BRANCH  67  68
ATOM     68  S   UNL A   1      47.751  26.201  37.875  1.00  0.00     0.124 S 
ATOM     69  O   UNL A   1      47.700  26.824  39.195  1.00  0.00    -0.237 OA
ATOM     70  O   UNL A   1      47.325  24.806  37.818  1.00  0.00    -0.237 OA
ATOM     71  O   UNL A   1      48.924  26.530  37.073  1.00  0.00    -0.744 OA
ENDBRANCH  67  68
ENDBRANCH  46  60
BRANCH  47  72
ATOM     72  C   UNL A   1      36.860  32.800  30.736  1.00  0.00     0.058 A 
ATOM     73  C   UNL A   1      35.540  32.358  30.909  1.00  0.00     0.135 A 
ATOM     74  C   UNL A   1      37.080  33.875  29.860  1.00  0.00     0.135 A 
ATOM     75  F   UNL A   1      35.280  31.326  31.725  1.00  0.00    -0.206 F 
ATOM     76  C   UNL A   1      34.478  32.951  30.232  1.00  0.00     0.059 A 
ATOM     77  C   UNL A   1      36.032  34.501  29.193  1.00  0.00     0.059 A 
ATOM     78  F   UNL A   1      38.323  34.341  29.666  1.00  0.00    -0.206 F 
ATOM     79  C   UNL A   1      34.735  34.025  29.378  1.00  0.00     0.060 A 
BRANCH  79  80
ATOM     80  S   UNL A   1      33.345  34.822  28.544  1.00  0.00     0.124 S 
ATOM     81  O   UNL A   1      32.617  35.396  29.669  1.00  0.00    -0.237 OA
ATOM     82  O   UNL A   1      34.021  35.774  27.667  1.00  0.00    -0.237 OA
ATOM     83  O   UNL A   1      32.683  33.715  27.861  1.00  0.00    -0.744 OA
ENDBRANCH  79  80
ENDBRANCH  47  72
BRANCH  59  84
ATOM     84  C   UNL A   1      39.833  33.864  36.965  1.00  0.00     0.058 A 
ATOM     85  C   UNL A   1      39.060  33.559  38.096  1.00  0.00     0.135 A 
ATOM     86  C   UNL A   1      40.429  35.136  36.904  1.00  0.00     0.135 A 
ATOM     87  F   UNL A   1      38.465  32.361  38.203  1.00  0.00    -0.206 F 
ATOM     88  C   UNL A   1      38.866  34.485  39.116  1.00  0.00     0.059 A 
ATOM     89  C   UNL A   1      40.273  36.067  37.926  1.00  0.00     0.059 A 
ATOM     90  F   UNL A   1      41.188  35.476  35.851  1.00  0.00    -0.206 F 
ATOM     91  C   UNL A   1      39.479  35.737  39.023  1.00  0.00     0.060 A 
BRANCH  91  92
ATOM     92  S   UNL A   1      39.246  36.918  40.368  1.00  0.00     0.124 S 
ATOM     93  O   UNL A   1      40.611  37.078  40.860  1.00  0.00    -0.237 OA
ATOM     94  O   UNL A   1      38.681  38.073  39.678  1.00  0.00    -0.237 OA
ATOM     95  O   UNL A   1      38.332  36.227  41.273  1.00  0.00    -0.744 OA
ENDBRANCH  91  92
ENDBRANCH  59  84
ENDBRANCH  33  34
ENDBRANCH  26  28
ENDBRANCH  25  26
ENDBRANCH  24  25
ENDBRANCH  23  24
ENDBRANCH  22  23
ENDBRANCH   1  22
TORSDOF 22
ENDMDL
