MODEL 1
REMARK VINA RESULT:      -9.5      0.000      0.000
REMARK SMILES O=C(OCCOCCOC(=O)[C@@]1([NH2+]C2CC2)CC[C@H](SC2CCCC2)C1)c1ccc(-c2c3nc(c(-c4c(F)cc(S(=O)(=O)[O-])cc4F)c4ccc([nH]4)c(-c4c(F)cc(S(=O)(=O)[O-])cc4F)c4nc(c(-c5c(F)cc(S(=O)(=O)[O-])cc5F)c5ccc2[nH]5)C=C4)C=C3)cc1
REMARK SMILES IDX 5 1 4 2 3 3 2 4 1 5 27 6 28 7 92 8 29 9 91 10 30 11 31 12
REMARK SMILES IDX 32 13 85 14 33 15 90 16 84 17 86 18 34 19 89 20 83 21 82 22
REMARK SMILES IDX 35 24 69 25 48 26 68 27 49 28 52 29 67 30 87 31 50 32 51 33
REMARK SMILES IDX 66 35 88 36 53 37 36 38 37 39 46 40 38 41 39 42 45 43 47 44
REMARK SMILES IDX 40 45 41 46 42 47 43 48 44 49 70 50 71 51 80 52 72 53 73 54
REMARK SMILES IDX 79 55 81 56 74 57 75 58 76 59 77 60 78 61 54 62 55 63 64 64
REMARK SMILES IDX 56 65 57 66 63 67 65 68 58 69 59 70 60 71 61 72 62 73 6 74
REMARK SMILES IDX 7 75 8 76 9 77 10 78 11 79 12 80 17 81 26 82 18 83 19 84
REMARK SMILES IDX 13 85 14 88 15 89 16 90 20 91 21 92 22 93 25 94 23 95 24 96
REMARK H PARENT 86 23 52 34 13 86 13 87
REMARK Flexibility Score: inf
ROOT
ATOM      1  C   UNL A   1      32.333  28.914  26.141  1.00  0.00     0.202 C 
ENDROOT
BRANCH   1   2
ATOM      2  C   UNL A   1      33.806  28.664  26.466  1.00  0.00     0.261 C 
BRANCH   2   3
ATOM      3  O   UNL A   1      34.060  29.005  27.837  1.00  0.00    -0.460 OA
BRANCH   3   4
ATOM      4  C   UNL A   1      34.892  29.994  28.254  1.00  0.00     0.338 C 
ATOM      5  O   UNL A   1      34.417  31.066  28.630  1.00  0.00    -0.246 OA
BRANCH   4   6
ATOM      6  C   UNL A   1      36.361  29.776  28.373  1.00  0.00     0.060 A 
ATOM      7  C   UNL A   1      37.265  30.023  27.342  1.00  0.00     0.016 A 
ATOM      8  C   UNL A   1      36.867  29.333  29.600  1.00  0.00     0.016 A 
ATOM      9  C   UNL A   1      38.600  29.757  27.457  1.00  0.00     0.010 A 
ATOM     10  C   UNL A   1      38.243  29.134  29.760  1.00  0.00     0.010 A 
ATOM     11  C   UNL A   1      39.104  29.347  28.677  1.00  0.00    -0.014 A 
BRANCH  11  12
ATOM     12  C   UNL A   1      40.535  29.046  28.677  1.00  0.00     0.031 A 
ATOM     13  C   UNL A   1      41.451  30.069  29.259  1.00  0.00     0.074 A 
ATOM     14  C   UNL A   1      40.926  27.792  28.386  1.00  0.00     0.049 A 
ATOM     15  N   UNL A   1      42.750  30.066  29.318  1.00  0.00    -0.248 NA
ATOM     16  C   UNL A   1      40.819  31.254  29.867  1.00  0.00     0.031 C 
ATOM     17  C   UNL A   1      40.025  26.686  28.020  1.00  0.00     0.029 A 
ATOM     18  N   UNL A   1      42.159  27.208  28.415  1.00  0.00    -0.354 N 
ATOM     19  C   UNL A   1      43.095  31.279  29.893  1.00  0.00     0.074 A 
ATOM     20  C   UNL A   1      41.872  31.982  30.200  1.00  0.00     0.031 C 
ATOM     21  C   UNL A   1      40.735  25.555  27.911  1.00  0.00     0.029 A 
ATOM     22  C   UNL A   1      42.143  25.876  28.079  1.00  0.00     0.049 A 
ATOM     23  H   UNL A   1      42.981  27.695  28.656  1.00  0.00     0.167 HD
ATOM     24  C   UNL A   1      44.341  31.754  30.107  1.00  0.00     0.037 A 
ATOM     25  C   UNL A   1      43.172  25.035  27.877  1.00  0.00     0.037 A 
ATOM     26  C   UNL A   1      45.513  30.982  29.799  1.00  0.00     0.049 A 
ATOM     27  C   UNL A   1      44.550  25.615  28.034  1.00  0.00     0.074 A 
ATOM     28  C   UNL A   1      46.841  31.348  29.879  1.00  0.00     0.029 A 
ATOM     29  N   UNL A   1      45.481  29.663  29.356  1.00  0.00    -0.354 N 
ATOM     30  N   UNL A   1      44.891  26.819  28.438  1.00  0.00    -0.248 NA
ATOM     31  C   UNL A   1      45.677  24.752  27.677  1.00  0.00     0.031 C 
ATOM     32  C   UNL A   1      47.611  30.263  29.440  1.00  0.00     0.029 A 
ATOM     33  C   UNL A   1      46.766  29.201  29.142  1.00  0.00     0.049 A 
ATOM     34  H   UNL A   1      44.663  29.135  29.214  1.00  0.00     0.167 HD
ATOM     35  C   UNL A   1      46.277  26.855  28.402  1.00  0.00     0.074 A 
ATOM     36  C   UNL A   1      46.706  25.542  27.951  1.00  0.00     0.031 C 
ATOM     37  C   UNL A   1      47.123  27.872  28.705  1.00  0.00     0.037 A 
BRANCH  24  38
ATOM     38  C   UNL A   1      44.458  33.179  30.564  1.00  0.00     0.058 A 
ATOM     39  C   UNL A   1      44.487  34.262  29.672  1.00  0.00     0.135 A 
ATOM     40  C   UNL A   1      44.627  33.454  31.931  1.00  0.00     0.135 A 
ATOM     41  F   UNL A   1      44.376  34.054  28.350  1.00  0.00    -0.206 F 
ATOM     42  C   UNL A   1      44.712  35.563  30.116  1.00  0.00     0.059 A 
ATOM     43  C   UNL A   1      44.826  34.749  32.399  1.00  0.00     0.059 A 
ATOM     44  F   UNL A   1      44.632  32.454  32.826  1.00  0.00    -0.206 F 
ATOM     45  C   UNL A   1      44.887  35.795  31.482  1.00  0.00     0.060 A 
BRANCH  45  46
ATOM     46  S   UNL A   1      45.207  37.481  32.042  1.00  0.00     0.124 S 
ATOM     47  O   UNL A   1      46.143  37.953  31.025  1.00  0.00    -0.237 OA
ATOM     48  O   UNL A   1      43.878  38.080  32.006  1.00  0.00    -0.237 OA
ATOM     49  O   UNL A   1      45.773  37.295  33.374  1.00  0.00    -0.744 OA
ENDBRANCH  45  46
ENDBRANCH  24  38
BRANCH  25  50
ATOM     50  C   UNL A   1      42.939  23.632  27.437  1.00  0.00     0.058 A 
ATOM     51  C   UNL A   1      42.892  23.292  26.078  1.00  0.00     0.135 A 
ATOM     52  C   UNL A   1      42.764  22.593  28.368  1.00  0.00     0.135 A 
ATOM     53  F   UNL A   1      43.048  24.243  25.143  1.00  0.00    -0.206 F 
ATOM     54  C   UNL A   1      42.662  21.984  25.657  1.00  0.00     0.059 A 
ATOM     55  C   UNL A   1      42.564  21.273  27.975  1.00  0.00     0.059 A 
ATOM     56  F   UNL A   1      42.809  22.853  29.686  1.00  0.00    -0.206 F 
ATOM     57  C   UNL A   1      42.499  20.981  26.615  1.00  0.00     0.060 A 
BRANCH  57  58
ATOM     58  S   UNL A   1      42.217  19.285  26.061  1.00  0.00     0.124 S 
ATOM     59  O   UNL A   1      43.109  19.200  24.910  1.00  0.00    -0.237 OA
ATOM     60  O   UNL A   1      42.610  18.509  27.232  1.00  0.00    -0.237 OA
ATOM     61  O   UNL A   1      40.790  19.264  25.753  1.00  0.00    -0.744 OA
ENDBRANCH  57  58
ENDBRANCH  25  50
BRANCH  37  62
ATOM     62  C   UNL A   1      48.586  27.568  28.605  1.00  0.00     0.058 A 
ATOM     63  C   UNL A   1      49.297  27.749  27.411  1.00  0.00     0.135 A 
ATOM     64  C   UNL A   1      49.287  27.136  29.742  1.00  0.00     0.135 A 
ATOM     65  F   UNL A   1      48.663  28.152  26.298  1.00  0.00    -0.206 F 
ATOM     66  C   UNL A   1      50.658  27.486  27.339  1.00  0.00     0.059 A 
ATOM     67  C   UNL A   1      50.652  26.898  29.701  1.00  0.00     0.059 A 
ATOM     68  F   UNL A   1      48.645  26.961  30.908  1.00  0.00    -0.206 F 
ATOM     69  C   UNL A   1      51.327  27.065  28.491  1.00  0.00     0.060 A 
BRANCH  69  70
ATOM     70  S   UNL A   1      53.101  26.762  28.397  1.00  0.00     0.124 S 
ATOM     71  O   UNL A   1      53.381  26.245  29.732  1.00  0.00    -0.237 OA
ATOM     72  O   UNL A   1      53.195  25.794  27.308  1.00  0.00    -0.237 OA
ATOM     73  O   UNL A   1      53.655  28.081  28.104  1.00  0.00    -0.744 OA
ENDBRANCH  69  70
ENDBRANCH  37  62
ENDBRANCH  11  12
ENDBRANCH   4   6
ENDBRANCH   3   4
ENDBRANCH   2   3
ENDBRANCH   1   2
BRANCH   1  74
ATOM     74  O   UNL A   1      31.513  27.750  26.118  1.00  0.00    -0.374 OA
BRANCH  74  75
ATOM     75  C   UNL A   1      30.983  27.373  24.856  1.00  0.00     0.202 C 
BRANCH  75  76
ATOM     76  C   UNL A   1      30.267  26.033  24.984  1.00  0.00     0.261 C 
BRANCH  76  77
ATOM     77  O   UNL A   1      31.098  25.139  25.743  1.00  0.00    -0.459 OA
BRANCH  77  78
ATOM     78  C   UNL A   1      31.352  23.904  25.196  1.00  0.00     0.368 C 
ATOM     79  O   UNL A   1      30.541  23.247  24.560  1.00  0.00    -0.245 OA
BRANCH  78  80
ATOM     80  C   UNL A   1      32.814  23.507  25.505  1.00  0.00     0.195 C 
ATOM     81  C   UNL A   1      33.121  23.285  26.996  1.00  0.00     0.082 C 
ATOM     82  C   UNL A   1      33.019  22.066  24.986  1.00  0.00     0.095 C 
ATOM     83  C   UNL A   1      34.354  22.407  27.007  1.00  0.00     0.022 C 
ATOM     84  C   UNL A   1      34.183  21.481  25.801  1.00  0.00     0.054 C 
BRANCH  80  85
ATOM     85  N   UNL A   1      33.814  24.371  24.853  1.00  0.00    -0.330 N 
ATOM     86  H   UNL A   1      34.720  24.075  25.215  1.00  0.00     0.347 HD
ATOM     87  H   UNL A   1      33.453  25.299  25.074  1.00  0.00     0.347 HD
BRANCH  85  88
ATOM     88  C   UNL A   1      33.972  24.461  23.406  1.00  0.00     0.183 C 
ATOM     89  C   UNL A   1      32.912  24.586  22.351  1.00  0.00     0.071 C 
ATOM     90  C   UNL A   1      33.631  25.810  22.798  1.00  0.00     0.071 C 
ENDBRANCH  85  88
ENDBRANCH  80  85
BRANCH  84  91
ATOM     91  S   UNL A   1      35.670  21.396  24.750  1.00  0.00    -0.155 SA
BRANCH  91  92
ATOM     92  C   UNL A   1      36.930  22.246  25.735  1.00  0.00     0.047 C 
ATOM     93  C   UNL A   1      38.306  21.594  25.747  1.00  0.00     0.014 C 
ATOM     94  C   UNL A   1      37.243  23.696  25.388  1.00  0.00     0.014 C 
ATOM     95  C   UNL A   1      39.146  22.618  26.498  1.00  0.00     0.001 C 
ATOM     96  C   UNL A   1      38.538  23.980  26.153  1.00  0.00     0.001 C 
ENDBRANCH  91  92
ENDBRANCH  84  91
ENDBRANCH  78  80
ENDBRANCH  77  78
ENDBRANCH  76  77
ENDBRANCH  75  76
ENDBRANCH  74  75
ENDBRANCH   1  74
TORSDOF 21
ENDMDL
MODEL 2
REMARK VINA RESULT:      -9.4      5.634     11.032
REMARK SMILES O=C(OCCOCCOC(=O)[C@@]1([NH2+]C2CC2)CC[C@H](SC2CCCC2)C1)c1ccc(-c2c3nc(c(-c4c(F)cc(S(=O)(=O)[O-])cc4F)c4ccc([nH]4)c(-c4c(F)cc(S(=O)(=O)[O-])cc4F)c4nc(c(-c5c(F)cc(S(=O)(=O)[O-])cc5F)c5ccc2[nH]5)C=C4)C=C3)cc1
REMARK SMILES IDX 5 1 4 2 3 3 2 4 1 5 27 6 28 7 92 8 29 9 91 10 30 11 31 12
REMARK SMILES IDX 32 13 85 14 33 15 90 16 84 17 86 18 34 19 89 20 83 21 82 22
REMARK SMILES IDX 35 24 69 25 48 26 68 27 49 28 52 29 67 30 87 31 50 32 51 33
REMARK SMILES IDX 66 35 88 36 53 37 36 38 37 39 46 40 38 41 39 42 45 43 47 44
REMARK SMILES IDX 40 45 41 46 42 47 43 48 44 49 70 50 71 51 80 52 72 53 73 54
REMARK SMILES IDX 79 55 81 56 74 57 75 58 76 59 77 60 78 61 54 62 55 63 64 64
REMARK SMILES IDX 56 65 57 66 63 67 65 68 58 69 59 70 60 71 61 72 62 73 6 74
REMARK SMILES IDX 7 75 8 76 9 77 10 78 11 79 12 80 17 81 26 82 18 83 19 84
REMARK SMILES IDX 13 85 14 88 15 89 16 90 20 91 21 92 22 93 25 94 23 95 24 96
REMARK H PARENT 86 23 52 34 13 86 13 87
REMARK Flexibility Score: inf
ROOT
ATOM      1  C   UNL A   1      38.833  21.745  25.929  1.00  0.00     0.202 C 
ENDROOT
BRANCH   1   2
ATOM      2  C   UNL A   1      39.715  22.654  26.785  1.00  0.00     0.261 C 
BRANCH   2   3
ATOM      3  O   UNL A   1      39.409  24.027  26.502  1.00  0.00    -0.460 OA
BRANCH   3   4
ATOM      4  C   UNL A   1      40.298  25.052  26.557  1.00  0.00     0.338 C 
ATOM      5  O   UNL A   1      41.040  25.261  25.598  1.00  0.00    -0.246 OA
BRANCH   4   6
ATOM      6  C   UNL A   1      40.322  26.001  27.705  1.00  0.00     0.060 A 
ATOM      7  C   UNL A   1      39.447  25.927  28.787  1.00  0.00     0.016 A 
ATOM      8  C   UNL A   1      41.300  27.002  27.717  1.00  0.00     0.016 A 
ATOM      9  C   UNL A   1      39.450  26.846  29.799  1.00  0.00     0.010 A 
ATOM     10  C   UNL A   1      41.369  27.902  28.787  1.00  0.00     0.010 A 
ATOM     11  C   UNL A   1      40.433  27.817  29.825  1.00  0.00    -0.014 A 
BRANCH  11  12
ATOM     12  C   UNL A   1      40.317  28.775  30.923  1.00  0.00     0.031 A 
ATOM     13  C   UNL A   1      41.380  28.755  31.968  1.00  0.00     0.074 A 
ATOM     14  C   UNL A   1      39.414  29.767  30.814  1.00  0.00     0.049 A 
ATOM     15  N   UNL A   1      41.467  29.453  33.062  1.00  0.00    -0.248 NA
ATOM     16  C   UNL A   1      42.507  27.829  31.747  1.00  0.00     0.031 C 
ATOM     17  C   UNL A   1      38.489  29.951  29.683  1.00  0.00     0.029 A 
ATOM     18  N   UNL A   1      39.165  30.844  31.614  1.00  0.00    -0.354 N 
ATOM     19  C   UNL A   1      42.610  28.996  33.700  1.00  0.00     0.074 A 
ATOM     20  C   UNL A   1      43.207  27.986  32.859  1.00  0.00     0.031 C 
ATOM     21  C   UNL A   1      37.816  31.099  29.845  1.00  0.00     0.029 A 
ATOM     22  C   UNL A   1      38.171  31.664  31.136  1.00  0.00     0.049 A 
ATOM     23  H   UNL A   1      39.652  31.017  32.453  1.00  0.00     0.167 HD
ATOM     24  C   UNL A   1      43.080  29.385  34.904  1.00  0.00     0.037 A 
ATOM     25  C   UNL A   1      37.583  32.722  31.722  1.00  0.00     0.037 A 
ATOM     26  C   UNL A   1      42.445  30.419  35.673  1.00  0.00     0.049 A 
ATOM     27  C   UNL A   1      38.066  33.076  33.101  1.00  0.00     0.074 A 
ATOM     28  C   UNL A   1      42.747  30.871  36.941  1.00  0.00     0.029 A 
ATOM     29  N   UNL A   1      41.366  31.174  35.219  1.00  0.00    -0.354 N 
ATOM     30  N   UNL A   1      39.059  32.548  33.783  1.00  0.00    -0.248 NA
ATOM     31  C   UNL A   1      37.338  34.132  33.806  1.00  0.00     0.031 C 
ATOM     32  C   UNL A   1      41.821  31.869  37.271  1.00  0.00     0.029 A 
ATOM     33  C   UNL A   1      40.978  32.079  36.187  1.00  0.00     0.049 A 
ATOM     34  H   UNL A   1      40.941  31.076  34.337  1.00  0.00     0.167 HD
ATOM     35  C   UNL A   1      39.089  33.220  34.995  1.00  0.00     0.074 A 
ATOM     36  C   UNL A   1      38.021  34.204  34.941  1.00  0.00     0.031 C 
ATOM     37  C   UNL A   1      39.911  33.045  36.060  1.00  0.00     0.037 A 
BRANCH  24  38
ATOM     38  C   UNL A   1      44.229  28.603  35.472  1.00  0.00     0.058 A 
ATOM     39  C   UNL A   1      44.050  27.456  36.261  1.00  0.00     0.135 A 
ATOM     40  C   UNL A   1      45.541  29.067  35.283  1.00  0.00     0.135 A 
ATOM     41  F   UNL A   1      42.816  26.993  36.513  1.00  0.00    -0.206 F 
ATOM     42  C   UNL A   1      45.129  26.817  36.870  1.00  0.00     0.059 A 
ATOM     43  C   UNL A   1      46.636  28.429  35.859  1.00  0.00     0.059 A 
ATOM     44  F   UNL A   1      45.769  30.173  34.557  1.00  0.00    -0.206 F 
ATOM     45  C   UNL A   1      46.417  27.316  36.667  1.00  0.00     0.060 A 
BRANCH  45  46
ATOM     46  S   UNL A   1      47.803  26.498  37.485  1.00  0.00     0.124 S 
ATOM     47  O   UNL A   1      48.750  27.600  37.624  1.00  0.00    -0.237 OA
ATOM     48  O   UNL A   1      47.199  26.023  38.725  1.00  0.00    -0.237 OA
ATOM     49  O   UNL A   1      48.189  25.456  36.539  1.00  0.00    -0.744 OA
ENDBRANCH  45  46
ENDBRANCH  24  38
BRANCH  25  50
ATOM     50  C   UNL A   1      36.457  33.435  31.060  1.00  0.00     0.058 A 
ATOM     51  C   UNL A   1      35.150  33.363  31.563  1.00  0.00     0.135 A 
ATOM     52  C   UNL A   1      36.662  34.214  29.908  1.00  0.00     0.135 A 
ATOM     53  F   UNL A   1      34.894  32.630  32.658  1.00  0.00    -0.206 F 
ATOM     54  C   UNL A   1      34.089  34.017  30.942  1.00  0.00     0.059 A 
ATOM     55  C   UNL A   1      35.625  34.903  29.286  1.00  0.00     0.059 A 
ATOM     56  F   UNL A   1      37.893  34.332  29.382  1.00  0.00    -0.206 F 
ATOM     57  C   UNL A   1      34.337  34.786  29.803  1.00  0.00     0.060 A 
BRANCH  57  58
ATOM     58  S   UNL A   1      32.957  35.644  29.013  1.00  0.00     0.124 S 
ATOM     59  O   UNL A   1      32.146  36.017  30.166  1.00  0.00    -0.237 OA
ATOM     60  O   UNL A   1      33.630  36.740  28.325  1.00  0.00    -0.237 OA
ATOM     61  O   UNL A   1      32.381  34.624  28.141  1.00  0.00    -0.744 OA
ENDBRANCH  57  58
ENDBRANCH  25  50
BRANCH  37  62
ATOM     62  C   UNL A   1      39.709  33.978  37.213  1.00  0.00     0.058 A 
ATOM     63  C   UNL A   1      38.908  33.631  38.310  1.00  0.00     0.135 A 
ATOM     64  C   UNL A   1      40.372  35.215  37.234  1.00  0.00     0.135 A 
ATOM     65  F   UNL A   1      38.248  32.462  38.326  1.00  0.00    -0.206 F 
ATOM     66  C   UNL A   1      38.748  34.496  39.384  1.00  0.00     0.059 A 
ATOM     67  C   UNL A   1      40.252  36.080  38.311  1.00  0.00     0.059 A 
ATOM     68  F   UNL A   1      41.158  35.579  36.209  1.00  0.00    -0.206 F 
ATOM     69  C   UNL A   1      39.427  35.717  39.376  1.00  0.00     0.060 A 
BRANCH  69  70
ATOM     70  S   UNL A   1      39.243  36.816  40.792  1.00  0.00     0.124 S 
ATOM     71  O   UNL A   1      40.632  37.005  41.199  1.00  0.00    -0.237 OA
ATOM     72  O   UNL A   1      38.591  37.980  40.201  1.00  0.00    -0.237 OA
ATOM     73  O   UNL A   1      38.417  36.044  41.715  1.00  0.00    -0.744 OA
ENDBRANCH  69  70
ENDBRANCH  37  62
ENDBRANCH  11  12
ENDBRANCH   4   6
ENDBRANCH   3   4
ENDBRANCH   2   3
ENDBRANCH   1   2
BRANCH   1  74
ATOM     74  O   UNL A   1      37.521  22.241  25.676  1.00  0.00    -0.374 OA
BRANCH  74  75
ATOM     75  C   UNL A   1      36.863  21.731  24.526  1.00  0.00     0.202 C 
BRANCH  75  76
ATOM     76  C   UNL A   1      35.515  21.143  24.930  1.00  0.00     0.261 C 
BRANCH  76  77
ATOM     77  O   UNL A   1      34.632  22.220  25.283  1.00  0.00    -0.459 OA
BRANCH  77  78
ATOM     78  C   UNL A   1      33.702  22.600  24.345  1.00  0.00     0.368 C 
ATOM     79  O   UNL A   1      33.222  21.855  23.502  1.00  0.00    -0.245 OA
BRANCH  78  80
ATOM     80  C   UNL A   1      33.364  24.096  24.547  1.00  0.00     0.195 C 
ATOM     81  C   UNL A   1      34.543  25.059  24.329  1.00  0.00     0.082 C 
ATOM     82  C   UNL A   1      32.462  24.526  23.369  1.00  0.00     0.095 C 
ATOM     83  C   UNL A   1      33.897  26.394  24.029  1.00  0.00     0.022 C 
ATOM     84  C   UNL A   1      32.639  26.047  23.231  1.00  0.00     0.054 C 
BRANCH  80  85
ATOM     85  N   UNL A   1      32.640  24.376  25.799  1.00  0.00    -0.330 N 
ATOM     86  H   UNL A   1      32.623  25.392  25.893  1.00  0.00     0.347 HD
ATOM     87  H   UNL A   1      33.163  23.809  26.466  1.00  0.00     0.347 HD
BRANCH  85  88
ATOM     88  C   UNL A   1      31.274  23.930  26.052  1.00  0.00     0.183 C 
ATOM     89  C   UNL A   1      30.685  22.560  25.873  1.00  0.00     0.071 C 
ATOM     90  C   UNL A   1      31.106  22.993  27.234  1.00  0.00     0.071 C 
ENDBRANCH  85  88
ENDBRANCH  80  85
BRANCH  84  91
ATOM     91  S   UNL A   1      31.144  26.884  23.855  1.00  0.00    -0.155 SA
BRANCH  91  92
ATOM     92  C   UNL A   1      31.787  27.986  25.142  1.00  0.00     0.047 C 
ATOM     93  C   UNL A   1      31.333  29.437  25.051  1.00  0.00     0.014 C 
ATOM     94  C   UNL A   1      31.494  27.627  26.593  1.00  0.00     0.014 C 
ATOM     95  C   UNL A   1      31.892  30.033  26.336  1.00  0.00     0.001 C 
ATOM     96  C   UNL A   1      31.866  28.897  27.362  1.00  0.00     0.001 C 
ENDBRANCH  91  92
ENDBRANCH  84  91
ENDBRANCH  78  80
ENDBRANCH  77  78
ENDBRANCH  76  77
ENDBRANCH  75  76
ENDBRANCH  74  75
ENDBRANCH   1  74
TORSDOF 21
ENDMDL
MODEL 3
REMARK VINA RESULT:      -9.3      1.687      2.636
REMARK SMILES O=C(OCCOCCOC(=O)[C@@]1([NH2+]C2CC2)CC[C@H](SC2CCCC2)C1)c1ccc(-c2c3nc(c(-c4c(F)cc(S(=O)(=O)[O-])cc4F)c4ccc([nH]4)c(-c4c(F)cc(S(=O)(=O)[O-])cc4F)c4nc(c(-c5c(F)cc(S(=O)(=O)[O-])cc5F)c5ccc2[nH]5)C=C4)C=C3)cc1
REMARK SMILES IDX 5 1 4 2 3 3 2 4 1 5 27 6 28 7 92 8 29 9 91 10 30 11 31 12
REMARK SMILES IDX 32 13 85 14 33 15 90 16 84 17 86 18 34 19 89 20 83 21 82 22
REMARK SMILES IDX 35 24 69 25 48 26 68 27 49 28 52 29 67 30 87 31 50 32 51 33
REMARK SMILES IDX 66 35 88 36 53 37 36 38 37 39 46 40 38 41 39 42 45 43 47 44
REMARK SMILES IDX 40 45 41 46 42 47 43 48 44 49 70 50 71 51 80 52 72 53 73 54
REMARK SMILES IDX 79 55 81 56 74 57 75 58 76 59 77 60 78 61 54 62 55 63 64 64
REMARK SMILES IDX 56 65 57 66 63 67 65 68 58 69 59 70 60 71 61 72 62 73 6 74
REMARK SMILES IDX 7 75 8 76 9 77 10 78 11 79 12 80 17 81 26 82 18 83 19 84
REMARK SMILES IDX 13 85 14 88 15 89 16 90 20 91 21 92 22 93 25 94 23 95 24 96
REMARK H PARENT 86 23 52 34 13 86 13 87
REMARK Flexibility Score: inf
ROOT
ATOM      1  C   UNL A   1      31.590  29.846  25.699  1.00  0.00     0.202 C 
ENDROOT
BRANCH   1   2
ATOM      2  C   UNL A   1      32.212  29.629  27.079  1.00  0.00     0.261 C 
BRANCH   2   3
ATOM      3  O   UNL A   1      33.643  29.667  26.972  1.00  0.00    -0.460 OA
BRANCH   3   4
ATOM      4  C   UNL A   1      34.467  30.382  27.781  1.00  0.00     0.338 C 
ATOM      5  O   UNL A   1      34.014  31.331  28.420  1.00  0.00    -0.246 OA
BRANCH   4   6
ATOM      6  C   UNL A   1      35.884  29.978  27.999  1.00  0.00     0.060 A 
ATOM      7  C   UNL A   1      36.358  29.431  29.189  1.00  0.00     0.016 A 
ATOM      8  C   UNL A   1      36.785  30.123  26.937  1.00  0.00     0.016 A 
ATOM      9  C   UNL A   1      37.675  29.125  29.384  1.00  0.00     0.010 A 
ATOM     10  C   UNL A   1      38.121  29.739  27.094  1.00  0.00     0.010 A 
ATOM     11  C   UNL A   1      38.558  29.242  28.328  1.00  0.00    -0.014 A 
BRANCH  11  12
ATOM     12  C   UNL A   1      39.950  28.934  28.657  1.00  0.00     0.031 A 
ATOM     13  C   UNL A   1      40.687  29.913  29.506  1.00  0.00     0.074 A 
ATOM     14  C   UNL A   1      40.412  27.698  28.392  1.00  0.00     0.049 A 
ATOM     15  N   UNL A   1      41.933  29.898  29.879  1.00  0.00    -0.248 NA
ATOM     16  C   UNL A   1      39.914  31.061  30.015  1.00  0.00     0.031 C 
ATOM     17  C   UNL A   1      39.637  26.623  27.750  1.00  0.00     0.029 A 
ATOM     18  N   UNL A   1      41.606  27.107  28.683  1.00  0.00    -0.354 N 
ATOM     19  C   UNL A   1      42.116  31.071  30.595  1.00  0.00     0.074 A 
ATOM     20  C   UNL A   1      40.848  31.761  30.639  1.00  0.00     0.031 C 
ATOM     21  C   UNL A   1      40.363  25.497  27.746  1.00  0.00     0.029 A 
ATOM     22  C   UNL A   1      41.685  25.798  28.272  1.00  0.00     0.049 A 
ATOM     23  H   UNL A   1      42.340  27.573  29.147  1.00  0.00     0.167 HD
ATOM     24  C   UNL A   1      43.268  31.524  31.134  1.00  0.00     0.037 A 
ATOM     25  C   UNL A   1      42.740  24.965  28.274  1.00  0.00     0.037 A 
ATOM     26  C   UNL A   1      44.488  30.766  31.074  1.00  0.00     0.049 A 
ATOM     27  C   UNL A   1      44.033  25.527  28.796  1.00  0.00     0.074 A 
ATOM     28  C   UNL A   1      45.752  31.119  31.497  1.00  0.00     0.029 A 
ATOM     29  N   UNL A   1      44.577  29.477  30.555  1.00  0.00    -0.354 N 
ATOM     30  N   UNL A   1      44.254  26.701  29.346  1.00  0.00    -0.248 NA
ATOM     31  C   UNL A   1      45.221  24.680  28.671  1.00  0.00     0.031 C 
ATOM     32  C   UNL A   1      46.616  30.059  31.191  1.00  0.00     0.029 A 
ATOM     33  C   UNL A   1      45.879  29.023  30.631  1.00  0.00     0.049 A 
ATOM     34  H   UNL A   1      43.823  28.965  30.186  1.00  0.00     0.167 HD
ATOM     35  C   UNL A   1      45.607  26.730  29.650  1.00  0.00     0.074 A 
ATOM     36  C   UNL A   1      46.145  25.446  29.236  1.00  0.00     0.031 C 
ATOM     37  C   UNL A   1      46.344  27.721  30.212  1.00  0.00     0.037 A 
BRANCH  24  38
ATOM     38  C   UNL A   1      43.257  32.917  31.695  1.00  0.00     0.058 A 
ATOM     39  C   UNL A   1      43.484  34.055  30.904  1.00  0.00     0.135 A 
ATOM     40  C   UNL A   1      43.095  33.105  33.077  1.00  0.00     0.135 A 
ATOM     41  F   UNL A   1      43.691  33.931  29.583  1.00  0.00    -0.206 F 
ATOM     42  C   UNL A   1      43.582  35.324  31.469  1.00  0.00     0.059 A 
ATOM     43  C   UNL A   1      43.162  34.367  33.659  1.00  0.00     0.059 A 
ATOM     44  F   UNL A   1      42.899  32.050  33.884  1.00  0.00    -0.206 F 
ATOM     45  C   UNL A   1      43.426  35.468  32.849  1.00  0.00     0.060 A 
BRANCH  45  46
ATOM     46  S   UNL A   1      43.585  37.114  33.573  1.00  0.00     0.124 S 
ATOM     47  O   UNL A   1      44.761  36.945  34.423  1.00  0.00    -0.237 OA
ATOM     48  O   UNL A   1      43.770  37.957  32.397  1.00  0.00    -0.237 OA
ATOM     49  O   UNL A   1      42.322  37.298  34.281  1.00  0.00    -0.744 OA
ENDBRANCH  45  46
ENDBRANCH  24  38
BRANCH  25  50
ATOM     50  C   UNL A   1      42.635  23.594  27.703  1.00  0.00     0.058 A 
ATOM     51  C   UNL A   1      42.434  22.476  28.524  1.00  0.00     0.135 A 
ATOM     52  C   UNL A   1      42.727  23.370  26.318  1.00  0.00     0.135 A 
ATOM     53  F   UNL A   1      42.343  22.629  29.855  1.00  0.00    -0.206 F 
ATOM     54  C   UNL A   1      42.347  21.188  27.999  1.00  0.00     0.059 A 
ATOM     55  C   UNL A   1      42.612  22.098  25.766  1.00  0.00     0.059 A 
ATOM     56  F   UNL A   1      42.909  24.402  25.478  1.00  0.00    -0.206 F 
ATOM     57  C   UNL A   1      42.438  21.010  26.617  1.00  0.00     0.060 A 
BRANCH  57  58
ATOM     58  S   UNL A   1      42.308  19.339  25.944  1.00  0.00     0.124 S 
ATOM     59  O   UNL A   1      43.108  19.449  24.730  1.00  0.00    -0.237 OA
ATOM     60  O   UNL A   1      42.881  18.530  27.015  1.00  0.00    -0.237 OA
ATOM     61  O   UNL A   1      40.872  19.169  25.739  1.00  0.00    -0.744 OA
ENDBRANCH  57  58
ENDBRANCH  25  50
BRANCH  37  62
ATOM     62  C   UNL A   1      47.790  27.416  30.452  1.00  0.00     0.058 A 
ATOM     63  C   UNL A   1      48.776  27.723  29.504  1.00  0.00     0.135 A 
ATOM     64  C   UNL A   1      48.190  26.852  31.674  1.00  0.00     0.135 A 
ATOM     65  F   UNL A   1      48.436  28.253  28.319  1.00  0.00    -0.206 F 
ATOM     66  C   UNL A   1      50.116  27.455  29.750  1.00  0.00     0.059 A 
ATOM     67  C   UNL A   1      49.526  26.607  31.953  1.00  0.00     0.059 A 
ATOM     68  F   UNL A   1      47.278  26.555  32.613  1.00  0.00    -0.206 F 
ATOM     69  C   UNL A   1      50.481  26.901  30.979  1.00  0.00     0.060 A 
BRANCH  69  70
ATOM     70  S   UNL A   1      52.226  26.593  31.303  1.00  0.00     0.124 S 
ATOM     71  O   UNL A   1      52.502  27.559  32.361  1.00  0.00    -0.237 OA
ATOM     72  O   UNL A   1      52.226  25.190  31.707  1.00  0.00    -0.237 OA
ATOM     73  O   UNL A   1      52.863  26.868  30.018  1.00  0.00    -0.744 OA
ENDBRANCH  69  70
ENDBRANCH  37  62
ENDBRANCH  11  12
ENDBRANCH   4   6
ENDBRANCH   3   4
ENDBRANCH   2   3
ENDBRANCH   1   2
BRANCH   1  74
ATOM     74  O   UNL A   1      31.852  28.817  24.750  1.00  0.00    -0.374 OA
BRANCH  74  75
ATOM     75  C   UNL A   1      30.936  27.731  24.724  1.00  0.00     0.202 C 
BRANCH  75  76
ATOM     76  C   UNL A   1      31.609  26.513  24.101  1.00  0.00     0.261 C 
BRANCH  76  77
ATOM     77  O   UNL A   1      31.673  25.470  25.087  1.00  0.00    -0.459 OA
BRANCH  77  78
ATOM     78  C   UNL A   1      32.907  25.193  25.626  1.00  0.00     0.368 C 
ATOM     79  O   UNL A   1      33.582  25.992  26.258  1.00  0.00    -0.245 OA
BRANCH  78  80
ATOM     80  C   UNL A   1      33.275  23.724  25.313  1.00  0.00     0.195 C 
ATOM     81  C   UNL A   1      33.632  22.872  26.542  1.00  0.00     0.082 C 
ATOM     82  C   UNL A   1      31.978  23.008  24.875  1.00  0.00     0.095 C 
ATOM     83  C   UNL A   1      33.405  21.443  26.098  1.00  0.00     0.022 C 
ATOM     84  C   UNL A   1      32.198  21.514  25.161  1.00  0.00     0.054 C 
BRANCH  80  85
ATOM     85  N   UNL A   1      34.262  23.578  24.229  1.00  0.00    -0.330 N 
ATOM     86  H   UNL A   1      33.999  24.258  23.515  1.00  0.00     0.347 HD
ATOM     87  H   UNL A   1      34.200  22.579  24.032  1.00  0.00     0.347 HD
BRANCH  85  88
ATOM     88  C   UNL A   1      35.698  23.742  24.426  1.00  0.00     0.183 C 
ATOM     89  C   UNL A   1      36.712  22.718  24.845  1.00  0.00     0.071 C 
ATOM     90  C   UNL A   1      36.578  23.050  23.400  1.00  0.00     0.071 C 
ENDBRANCH  85  88
ENDBRANCH  80  85
BRANCH  84  91
ATOM     91  S   UNL A   1      32.464  20.635  23.586  1.00  0.00    -0.155 SA
BRANCH  91  92
ATOM     92  C   UNL A   1      32.984  18.981  24.112  1.00  0.00     0.047 C 
ATOM     93  C   UNL A   1      32.676  17.854  23.135  1.00  0.00     0.014 C 
ATOM     94  C   UNL A   1      34.460  18.767  24.424  1.00  0.00     0.014 C 
ATOM     95  C   UNL A   1      33.375  16.664  23.780  1.00  0.00     0.001 C 
ATOM     96  C   UNL A   1      34.598  17.244  24.495  1.00  0.00     0.001 C 
ENDBRANCH  91  92
ENDBRANCH  84  91
ENDBRANCH  78  80
ENDBRANCH  77  78
ENDBRANCH  76  77
ENDBRANCH  75  76
ENDBRANCH  74  75
ENDBRANCH   1  74
TORSDOF 21
ENDMDL
