MODEL 1
REMARK VINA RESULT:     -13.0      0.000      0.000
REMARK SMILES Cc1coc2cc3c(cc12)[C@@H](C)[C@H](CCC(=O)N[C@@H](Cc1c[nH]c2ccccc12)C(=O)OCCOCCOC(=O)c1ccc(-c2c4nc(c(-c5c(F)cc(S(=O)(=O)[O-])cc5F)c5ccc([nH]5)c(-c5c(F)cc(S(=O)(=O)[O-])cc5F)c5nc(c(-c6c(F)cc(S(=O)(=O)[O-])cc6F)c6ccc2[nH]6)C=C5)C=C4)cc1)C(=O)O3
REMARK SMILES IDX 34 1 33 2 32 3 30 4 31 5 19 6 18 7 16 8 17 9 15 11 14 12
REMARK SMILES IDX 13 13 1 14 2 15 3 16 10 17 4 18 5 19 9 20 6 21 8 22 7 23
REMARK SMILES IDX 11 24 109 25 12 26 107 27 108 28 20 29 21 30 22 31 29 32
REMARK SMILES IDX 23 33 24 34 28 35 25 37 27 38 26 39 35 40 36 41 37 42 38 43
REMARK SMILES IDX 39 44 40 45 41 46 42 47 106 48 43 49 105 50 44 51 45 52
REMARK SMILES IDX 46 53 99 54 47 55 104 56 98 57 100 58 48 59 103 60 97 61
REMARK SMILES IDX 96 62 49 64 83 65 62 66 82 67 63 68 66 69 81 70 101 71 64 72
REMARK SMILES IDX 65 73 80 75 102 76 67 77 50 78 51 79 60 80 52 81 53 82 59 83
REMARK SMILES IDX 61 84 54 85 55 86 56 87 57 88 58 89 84 90 85 91 94 92 86 93
REMARK SMILES IDX 87 94 93 95 95 96 88 97 89 98 90 99 91 100 92 101 68 102
REMARK SMILES IDX 69 103 78 104 70 105 71 106 77 107 79 108 72 109 73 110
REMARK SMILES IDX 74 111 75 112 76 113
REMARK H PARENT 18 10 23 36 100 63 66 74
REMARK Flexibility Score: inf
ROOT
ATOM      1  C   UNL A   1      39.589  21.692  26.273  1.00  0.00     0.202 C 
ENDROOT
BRANCH   1   2
ATOM      2  C   UNL A   1      39.141  23.151  26.341  1.00  0.00     0.261 C 
BRANCH   2   3
ATOM      3  O   UNL A   1      37.733  23.259  26.494  1.00  0.00    -0.462 OA
BRANCH   3   4
ATOM      4  C   UNL A   1      37.052  22.808  25.422  1.00  0.00     0.329 C 
ATOM      5  O   UNL A   1      37.112  23.263  24.282  1.00  0.00    -0.250 OA
BRANCH   4   6
ATOM      6  C   UNL A   1      36.146  21.647  25.757  1.00  0.00     0.196 C 
BRANCH   6   7
ATOM      7  N   UNL A   1      35.213  21.773  26.893  1.00  0.00    -0.342 N 
ATOM      8  C   UNL A   1      34.338  22.775  27.239  1.00  0.00     0.220 C 
ATOM      9  O   UNL A   1      33.609  22.609  28.224  1.00  0.00    -0.275 OA
ATOM     10  H   UNL A   1      35.218  21.006  27.510  1.00  0.00     0.164 HD
BRANCH   8  11
ATOM     11  C   UNL A   1      34.184  24.066  26.412  1.00  0.00     0.101 C 
BRANCH  11  12
ATOM     12  C   UNL A   1      33.075  24.242  25.336  1.00  0.00     0.026 C 
BRANCH  12  13
ATOM     13  C   UNL A   1      32.163  25.443  25.548  1.00  0.00     0.107 C 
ATOM     14  C   UNL A   1      29.470  30.624  21.466  1.00  0.00     0.048 C 
ATOM     15  C   UNL A   1      28.775  29.662  22.343  1.00  0.00    -0.005 A 
ATOM     16  C   UNL A   1      27.418  29.417  22.409  1.00  0.00     0.199 A 
ATOM     17  C   UNL A   1      29.391  28.692  23.180  1.00  0.00     0.024 A 
ATOM     18  O   UNL A   1      27.160  28.314  23.151  1.00  0.00    -0.464 OA
ATOM     19  C   UNL A   1      28.363  27.831  23.544  1.00  0.00     0.137 A 
ATOM     20  C   UNL A   1      30.716  28.397  23.572  1.00  0.00     0.020 A 
ATOM     21  C   UNL A   1      28.559  26.596  24.115  1.00  0.00     0.095 A 
ATOM     22  C   UNL A   1      30.970  27.147  24.139  1.00  0.00    -0.001 A 
ATOM     23  C   UNL A   1      29.897  26.253  24.251  1.00  0.00     0.138 A 
ATOM     24  C   UNL A   1      32.330  26.705  24.652  1.00  0.00     0.034 C 
ATOM     25  O   UNL A   1      30.145  24.911  24.396  1.00  0.00    -0.426 OA
ATOM     26  C   UNL A   1      32.972  27.841  25.505  1.00  0.00     0.014 C 
ATOM     27  C   UNL A   1      30.746  24.912  25.595  1.00  0.00     0.314 C 
ATOM     28  O   UNL A   1      30.214  24.371  26.557  1.00  0.00    -0.251 OA
ENDBRANCH  12  13
ENDBRANCH  11  12
ENDBRANCH   8  11
ENDBRANCH   6   7
BRANCH   6  29
ATOM     29  C   UNL A   1      35.493  21.151  24.442  1.00  0.00     0.074 C 
BRANCH  29  30
ATOM     30  C   UNL A   1      34.288  20.258  24.543  1.00  0.00    -0.020 A 
ATOM     31  C   UNL A   1      32.980  20.691  24.457  1.00  0.00     0.087 A 
ATOM     32  C   UNL A   1      34.237  18.819  24.581  1.00  0.00     0.003 A 
ATOM     33  N   UNL A   1      32.154  19.601  24.473  1.00  0.00    -0.361 N 
ATOM     34  C   UNL A   1      32.891  18.447  24.597  1.00  0.00     0.046 A 
ATOM     35  C   UNL A   1      35.190  17.778  24.565  1.00  0.00     0.010 A 
ATOM     36  H   UNL A   1      31.173  19.636  24.403  1.00  0.00     0.166 HD
ATOM     37  C   UNL A   1      32.469  17.112  24.673  1.00  0.00     0.026 A 
ATOM     38  C   UNL A   1      34.793  16.440  24.660  1.00  0.00     0.001 A 
ATOM     39  C   UNL A   1      33.446  16.114  24.727  1.00  0.00     0.002 A 
ENDBRANCH  29  30
ENDBRANCH   6  29
ENDBRANCH   4   6
ENDBRANCH   3   4
ENDBRANCH   2   3
ENDBRANCH   1   2
BRANCH   1  40
ATOM     40  O   UNL A   1      40.212  21.124  27.422  1.00  0.00    -0.374 OA
BRANCH  40  41
ATOM     41  C   UNL A   1      41.477  20.477  27.243  1.00  0.00     0.202 C 
BRANCH  41  42
ATOM     42  C   UNL A   1      42.430  20.954  26.125  1.00  0.00     0.261 C 
BRANCH  42  43
ATOM     43  O   UNL A   1      43.073  22.197  26.452  1.00  0.00    -0.460 OA
BRANCH  43  44
ATOM     44  C   UNL A   1      43.268  23.051  25.409  1.00  0.00     0.338 C 
ATOM     45  O   UNL A   1      43.118  22.822  24.223  1.00  0.00    -0.246 OA
BRANCH  44  46
ATOM     46  C   UNL A   1      43.256  24.402  26.008  1.00  0.00     0.060 A 
ATOM     47  C   UNL A   1      43.972  24.681  27.172  1.00  0.00     0.016 A 
ATOM     48  C   UNL A   1      42.236  25.258  25.557  1.00  0.00     0.016 A 
ATOM     49  C   UNL A   1      43.581  25.771  27.944  1.00  0.00     0.010 A 
ATOM     50  C   UNL A   1      41.803  26.298  26.370  1.00  0.00     0.010 A 
ATOM     51  C   UNL A   1      42.448  26.526  27.586  1.00  0.00    -0.014 A 
BRANCH  51  52
ATOM     52  C   UNL A   1      42.103  27.697  28.396  1.00  0.00     0.031 A 
ATOM     53  C   UNL A   1      43.180  28.721  28.316  1.00  0.00     0.074 A 
ATOM     54  C   UNL A   1      40.936  27.950  29.030  1.00  0.00     0.049 A 
ATOM     55  N   UNL A   1      43.992  29.086  29.251  1.00  0.00    -0.248 NA
ATOM     56  C   UNL A   1      43.529  29.237  26.980  1.00  0.00     0.031 C 
ATOM     57  C   UNL A   1      39.684  27.191  28.997  1.00  0.00     0.029 A 
ATOM     58  N   UNL A   1      40.597  29.026  29.806  1.00  0.00    -0.354 N 
ATOM     59  C   UNL A   1      44.811  30.051  28.672  1.00  0.00     0.074 A 
ATOM     60  C   UNL A   1      44.623  29.946  27.252  1.00  0.00     0.031 C 
ATOM     61  C   UNL A   1      38.683  27.937  29.524  1.00  0.00     0.029 A 
ATOM     62  C   UNL A   1      39.229  29.184  30.025  1.00  0.00     0.049 A 
ATOM     63  H   UNL A   1      41.268  29.641  30.181  1.00  0.00     0.167 HD
ATOM     64  C   UNL A   1      45.393  31.027  29.419  1.00  0.00     0.037 A 
ATOM     65  C   UNL A   1      38.588  30.286  30.510  1.00  0.00     0.037 A 
ATOM     66  C   UNL A   1      45.382  30.690  30.818  1.00  0.00     0.049 A 
ATOM     67  C   UNL A   1      39.600  31.077  31.261  1.00  0.00     0.074 A 
ATOM     68  C   UNL A   1      45.906  29.658  31.572  1.00  0.00     0.029 A 
ATOM     69  N   UNL A   1      44.435  31.290  31.613  1.00  0.00    -0.354 N 
ATOM     70  N   UNL A   1      40.175  30.654  32.357  1.00  0.00    -0.248 NA
ATOM     71  C   UNL A   1      40.338  32.088  30.519  1.00  0.00     0.031 C 
ATOM     72  C   UNL A   1      44.917  29.384  32.559  1.00  0.00     0.029 A 
ATOM     73  C   UNL A   1      43.884  30.308  32.395  1.00  0.00     0.049 A 
ATOM     74  H   UNL A   1      44.196  32.245  31.619  1.00  0.00     0.167 HD
ATOM     75  C   UNL A   1      41.508  31.006  32.215  1.00  0.00     0.074 A 
ATOM     76  C   UNL A   1      41.540  31.927  31.079  1.00  0.00     0.031 C 
ATOM     77  C   UNL A   1      42.506  30.308  32.834  1.00  0.00     0.037 A 
BRANCH  64  78
ATOM     78  C   UNL A   1      45.621  32.437  28.933  1.00  0.00     0.058 A 
ATOM     79  C   UNL A   1      46.875  33.040  29.159  1.00  0.00     0.135 A 
ATOM     80  C   UNL A   1      44.585  33.311  28.530  1.00  0.00     0.135 A 
ATOM     81  F   UNL A   1      47.928  32.303  29.546  1.00  0.00    -0.206 F 
ATOM     82  C   UNL A   1      47.062  34.419  29.080  1.00  0.00     0.059 A 
ATOM     83  C   UNL A   1      44.766  34.680  28.390  1.00  0.00     0.059 A 
ATOM     84  F   UNL A   1      43.325  32.901  28.352  1.00  0.00    -0.206 F 
ATOM     85  C   UNL A   1      45.995  35.232  28.711  1.00  0.00     0.060 A 
BRANCH  85  86
ATOM     86  S   UNL A   1      46.204  37.019  28.725  1.00  0.00     0.124 S 
ATOM     87  O   UNL A   1      45.661  37.384  27.421  1.00  0.00    -0.237 OA
ATOM     88  O   UNL A   1      45.405  37.404  29.883  1.00  0.00    -0.237 OA
ATOM     89  O   UNL A   1      47.646  37.186  28.879  1.00  0.00    -0.744 OA
ENDBRANCH  85  86
ENDBRANCH  64  78
BRANCH  65  90
ATOM     90  C   UNL A   1      37.308  30.878  30.000  1.00  0.00     0.058 A 
ATOM     91  C   UNL A   1      36.392  31.549  30.835  1.00  0.00     0.135 A 
ATOM     92  C   UNL A   1      37.078  31.021  28.616  1.00  0.00     0.135 A 
ATOM     93  F   UNL A   1      36.544  31.513  32.169  1.00  0.00    -0.206 F 
ATOM     94  C   UNL A   1      35.331  32.322  30.328  1.00  0.00     0.059 A 
ATOM     95  C   UNL A   1      36.028  31.773  28.088  1.00  0.00     0.059 A 
ATOM     96  F   UNL A   1      37.924  30.500  27.716  1.00  0.00    -0.206 F 
ATOM     97  C   UNL A   1      35.164  32.437  28.948  1.00  0.00     0.060 A 
BRANCH  97  98
ATOM     98  S   UNL A   1      33.881  33.520  28.268  1.00  0.00     0.124 S 
ATOM     99  O   UNL A   1      33.041  32.576  27.538  1.00  0.00    -0.237 OA
ATOM    100  O   UNL A   1      33.294  34.097  29.473  1.00  0.00    -0.237 OA
ATOM    101  O   UNL A   1      34.631  34.456  27.435  1.00  0.00    -0.744 OA
ENDBRANCH  97  98
ENDBRANCH  65  90
BRANCH  77 102
ATOM    102  C   UNL A   1      42.154  29.295  33.892  1.00  0.00     0.058 A 
ATOM    103  C   UNL A   1      41.680  27.999  33.624  1.00  0.00     0.135 A 
ATOM    104  C   UNL A   1      42.535  29.577  35.214  1.00  0.00     0.135 A 
ATOM    105  F   UNL A   1      41.387  27.617  32.372  1.00  0.00    -0.206 F 
ATOM    106  C   UNL A   1      41.583  27.030  34.627  1.00  0.00     0.059 A 
ATOM    107  C   UNL A   1      42.477  28.620  36.221  1.00  0.00     0.059 A 
ATOM    108  F   UNL A   1      43.053  30.779  35.521  1.00  0.00    -0.206 F 
ATOM    109  C   UNL A   1      41.998  27.347  35.922  1.00  0.00     0.060 A 
BRANCH 109 110
ATOM    110  S   UNL A   1      41.986  26.061  37.192  1.00  0.00     0.124 S 
ATOM    111  O   UNL A   1      40.595  26.079  37.634  1.00  0.00    -0.237 OA
ATOM    112  O   UNL A   1      42.398  24.878  36.443  1.00  0.00    -0.237 OA
ATOM    113  O   UNL A   1      42.958  26.539  38.173  1.00  0.00    -0.744 OA
ENDBRANCH 109 110
ENDBRANCH  77 102
ENDBRANCH  51  52
ENDBRANCH  44  46
ENDBRANCH  43  44
ENDBRANCH  42  43
ENDBRANCH  41  42
ENDBRANCH  40  41
ENDBRANCH   1  40
TORSDOF 23
ENDMDL
MODEL 2
REMARK VINA RESULT:     -11.7      2.068      6.724
REMARK SMILES Cc1coc2cc3c(cc12)[C@@H](C)[C@H](CCC(=O)N[C@@H](Cc1c[nH]c2ccccc12)C(=O)OCCOCCOC(=O)c1ccc(-c2c4nc(c(-c5c(F)cc(S(=O)(=O)[O-])cc5F)c5ccc([nH]5)c(-c5c(F)cc(S(=O)(=O)[O-])cc5F)c5nc(c(-c6c(F)cc(S(=O)(=O)[O-])cc6F)c6ccc2[nH]6)C=C5)C=C4)cc1)C(=O)O3
REMARK SMILES IDX 34 1 33 2 32 3 30 4 31 5 19 6 18 7 16 8 17 9 15 11 14 12
REMARK SMILES IDX 13 13 1 14 2 15 3 16 10 17 4 18 5 19 9 20 6 21 8 22 7 23
REMARK SMILES IDX 11 24 109 25 12 26 107 27 108 28 20 29 21 30 22 31 29 32
REMARK SMILES IDX 23 33 24 34 28 35 25 37 27 38 26 39 35 40 36 41 37 42 38 43
REMARK SMILES IDX 39 44 40 45 41 46 42 47 106 48 43 49 105 50 44 51 45 52
REMARK SMILES IDX 46 53 99 54 47 55 104 56 98 57 100 58 48 59 103 60 97 61
REMARK SMILES IDX 96 62 49 64 83 65 62 66 82 67 63 68 66 69 81 70 101 71 64 72
REMARK SMILES IDX 65 73 80 75 102 76 67 77 50 78 51 79 60 80 52 81 53 82 59 83
REMARK SMILES IDX 61 84 54 85 55 86 56 87 57 88 58 89 84 90 85 91 94 92 86 93
REMARK SMILES IDX 87 94 93 95 95 96 88 97 89 98 90 99 91 100 92 101 68 102
REMARK SMILES IDX 69 103 78 104 70 105 71 106 77 107 79 108 72 109 73 110
REMARK SMILES IDX 74 111 75 112 76 113
REMARK H PARENT 18 10 23 36 100 63 66 74
REMARK Flexibility Score: inf
ROOT
ATOM      1  C   UNL A   1      38.143  23.016  26.504  1.00  0.00     0.202 C 
ENDROOT
BRANCH   1   2
ATOM      2  C   UNL A   1      37.086  23.563  25.546  1.00  0.00     0.261 C 
BRANCH   2   3
ATOM      3  O   UNL A   1      36.388  22.517  24.886  1.00  0.00    -0.462 OA
BRANCH   3   4
ATOM      4  C   UNL A   1      35.879  22.894  23.696  1.00  0.00     0.329 C 
ATOM      5  O   UNL A   1      36.368  22.663  22.594  1.00  0.00    -0.250 OA
BRANCH   4   6
ATOM      6  C   UNL A   1      34.599  23.682  23.837  1.00  0.00     0.196 C 
BRANCH   6   7
ATOM      7  N   UNL A   1      34.078  24.416  22.668  1.00  0.00    -0.342 N 
ATOM      8  C   UNL A   1      33.739  25.738  22.505  1.00  0.00     0.220 C 
ATOM      9  O   UNL A   1      33.378  26.124  21.388  1.00  0.00    -0.275 OA
ATOM     10  H   UNL A   1      33.954  23.862  21.863  1.00  0.00     0.164 HD
BRANCH   8  11
ATOM     11  C   UNL A   1      33.851  26.770  23.645  1.00  0.00     0.101 C 
BRANCH  11  12
ATOM     12  C   UNL A   1      33.236  26.531  25.053  1.00  0.00     0.026 C 
BRANCH  12  13
ATOM     13  C   UNL A   1      31.964  27.319  25.337  1.00  0.00     0.107 C 
ATOM     14  C   UNL A   1      29.175  33.510  23.179  1.00  0.00     0.048 C 
ATOM     15  C   UNL A   1      28.592  32.155  23.147  1.00  0.00    -0.005 A 
ATOM     16  C   UNL A   1      27.444  31.752  22.495  1.00  0.00     0.199 A 
ATOM     17  C   UNL A   1      29.190  30.970  23.658  1.00  0.00     0.024 A 
ATOM     18  O   UNL A   1      27.339  30.402  22.488  1.00  0.00    -0.464 OA
ATOM     19  C   UNL A   1      28.441  29.932  23.118  1.00  0.00     0.137 A 
ATOM     20  C   UNL A   1      30.340  30.674  24.422  1.00  0.00     0.020 A 
ATOM     21  C   UNL A   1      28.838  28.616  23.120  1.00  0.00     0.095 A 
ATOM     22  C   UNL A   1      30.795  29.353  24.440  1.00  0.00    -0.001 A 
ATOM     23  C   UNL A   1      30.097  28.415  23.668  1.00  0.00     0.138 A 
ATOM     24  C   UNL A   1      31.986  28.873  25.251  1.00  0.00     0.034 C 
ATOM     25  O   UNL A   1      30.710  27.240  23.311  1.00  0.00    -0.426 OA
ATOM     26  C   UNL A   1      31.913  29.453  26.697  1.00  0.00     0.014 C 
ATOM     27  C   UNL A   1      30.863  26.678  24.519  1.00  0.00     0.314 C 
ATOM     28  O   UNL A   1      30.259  25.652  24.808  1.00  0.00    -0.251 OA
ENDBRANCH  12  13
ENDBRANCH  11  12
ENDBRANCH   8  11
ENDBRANCH   6   7
BRANCH   6  29
ATOM     29  C   UNL A   1      33.555  22.782  24.547  1.00  0.00     0.074 C 
BRANCH  29  30
ATOM     30  C   UNL A   1      32.935  21.663  23.760  1.00  0.00    -0.020 A 
ATOM     31  C   UNL A   1      32.116  21.833  22.661  1.00  0.00     0.087 A 
ATOM     32  C   UNL A   1      33.178  20.246  23.867  1.00  0.00     0.003 A 
ATOM     33  N   UNL A   1      31.834  20.606  22.128  1.00  0.00    -0.361 N 
ATOM     34  C   UNL A   1      32.428  19.615  22.873  1.00  0.00     0.046 A 
ATOM     35  C   UNL A   1      33.989  19.425  24.679  1.00  0.00     0.010 A 
ATOM     36  H   UNL A   1      31.285  20.453  21.326  1.00  0.00     0.166 HD
ATOM     37  C   UNL A   1      32.396  18.223  22.709  1.00  0.00     0.026 A 
ATOM     38  C   UNL A   1      33.957  18.031  24.547  1.00  0.00     0.001 A 
ATOM     39  C   UNL A   1      33.157  17.439  23.580  1.00  0.00     0.002 A 
ENDBRANCH  29  30
ENDBRANCH   6  29
ENDBRANCH   4   6
ENDBRANCH   3   4
ENDBRANCH   2   3
ENDBRANCH   1   2
BRANCH   1  40
ATOM     40  O   UNL A   1      39.130  22.130  25.985  1.00  0.00    -0.374 OA
BRANCH  40  41
ATOM     41  C   UNL A   1      40.299  21.896  26.779  1.00  0.00     0.202 C 
BRANCH  41  42
ATOM     42  C   UNL A   1      41.638  21.558  26.088  1.00  0.00     0.261 C 
BRANCH  42  43
ATOM     43  O   UNL A   1      42.709  22.406  26.532  1.00  0.00    -0.460 OA
BRANCH  43  44
ATOM     44  C   UNL A   1      43.312  23.150  25.563  1.00  0.00     0.338 C 
ATOM     45  O   UNL A   1      43.552  22.821  24.416  1.00  0.00    -0.246 OA
BRANCH  44  46
ATOM     46  C   UNL A   1      43.207  24.549  26.028  1.00  0.00     0.060 A 
ATOM     47  C   UNL A   1      44.320  25.390  26.040  1.00  0.00     0.016 A 
ATOM     48  C   UNL A   1      42.051  24.861  26.764  1.00  0.00     0.016 A 
ATOM     49  C   UNL A   1      44.307  26.493  26.888  1.00  0.00     0.010 A 
ATOM     50  C   UNL A   1      42.073  25.919  27.663  1.00  0.00     0.010 A 
ATOM     51  C   UNL A   1      43.219  26.709  27.757  1.00  0.00    -0.014 A 
BRANCH  51  52
ATOM     52  C   UNL A   1      43.221  27.912  28.593  1.00  0.00     0.031 A 
ATOM     53  C   UNL A   1      43.379  27.550  30.027  1.00  0.00     0.074 A 
ATOM     54  C   UNL A   1      43.234  29.202  28.186  1.00  0.00     0.049 A 
ATOM     55  N   UNL A   1      42.499  27.651  30.967  1.00  0.00    -0.248 NA
ATOM     56  C   UNL A   1      44.580  26.786  30.407  1.00  0.00     0.031 C 
ATOM     57  C   UNL A   1      43.353  29.742  26.830  1.00  0.00     0.029 A 
ATOM     58  N   UNL A   1      43.218  30.341  28.946  1.00  0.00    -0.354 N 
ATOM     59  C   UNL A   1      43.126  27.169  32.112  1.00  0.00     0.074 A 
ATOM     60  C   UNL A   1      44.300  26.469  31.670  1.00  0.00     0.031 C 
ATOM     61  C   UNL A   1      43.622  31.069  26.887  1.00  0.00     0.029 A 
ATOM     62  C   UNL A   1      43.597  31.502  28.272  1.00  0.00     0.049 A 
ATOM     63  H   UNL A   1      42.960  30.340  29.896  1.00  0.00     0.167 HD
ATOM     64  C   UNL A   1      42.762  27.594  33.351  1.00  0.00     0.037 A 
ATOM     65  C   UNL A   1      43.936  32.705  28.818  1.00  0.00     0.037 A 
ATOM     66  C   UNL A   1      41.472  28.232  33.327  1.00  0.00     0.049 A 
ATOM     67  C   UNL A   1      43.332  32.747  30.176  1.00  0.00     0.074 A 
ATOM     68  C   UNL A   1      40.197  27.828  32.979  1.00  0.00     0.029 A 
ATOM     69  N   UNL A   1      41.436  29.605  33.351  1.00  0.00    -0.354 N 
ATOM     70  N   UNL A   1      42.042  32.763  30.390  1.00  0.00    -0.248 NA
ATOM     71  C   UNL A   1      44.142  32.252  31.279  1.00  0.00     0.031 C 
ATOM     72  C   UNL A   1      39.617  28.958  32.335  1.00  0.00     0.029 A 
ATOM     73  C   UNL A   1      40.541  30.002  32.391  1.00  0.00     0.049 A 
ATOM     74  H   UNL A   1      41.956  30.194  33.945  1.00  0.00     0.167 HD
ATOM     75  C   UNL A   1      41.849  31.892  31.451  1.00  0.00     0.074 A 
ATOM     76  C   UNL A   1      43.188  31.640  31.985  1.00  0.00     0.031 C 
ATOM     77  C   UNL A   1      40.671  31.223  31.627  1.00  0.00     0.037 A 
BRANCH  64  78
ATOM     78  C   UNL A   1      43.728  27.777  34.496  1.00  0.00     0.058 A 
ATOM     79  C   UNL A   1      43.404  27.228  35.753  1.00  0.00     0.135 A 
ATOM     80  C   UNL A   1      44.793  28.706  34.491  1.00  0.00     0.135 A 
ATOM     81  F   UNL A   1      42.407  26.336  35.874  1.00  0.00    -0.206 F 
ATOM     82  C   UNL A   1      44.030  27.639  36.928  1.00  0.00     0.059 A 
ATOM     83  C   UNL A   1      45.468  29.086  35.643  1.00  0.00     0.059 A 
ATOM     84  F   UNL A   1      45.167  29.367  33.390  1.00  0.00    -0.206 F 
ATOM     85  C   UNL A   1      45.050  28.582  36.863  1.00  0.00     0.060 A 
BRANCH  85  86
ATOM     86  S   UNL A   1      45.776  29.201  38.389  1.00  0.00     0.124 S 
ATOM     87  O   UNL A   1      44.909  28.591  39.390  1.00  0.00    -0.237 OA
ATOM     88  O   UNL A   1      47.134  28.672  38.308  1.00  0.00    -0.237 OA
ATOM     89  O   UNL A   1      45.662  30.650  38.251  1.00  0.00    -0.744 OA
ENDBRANCH  85  86
ENDBRANCH  64  78
BRANCH  65  90
ATOM     90  C   UNL A   1      45.077  33.587  28.406  1.00  0.00     0.058 A 
ATOM     91  C   UNL A   1      44.916  34.959  28.121  1.00  0.00     0.135 A 
ATOM     92  C   UNL A   1      46.412  33.151  28.535  1.00  0.00     0.135 A 
ATOM     93  F   UNL A   1      43.685  35.486  28.019  1.00  0.00    -0.206 F 
ATOM     94  C   UNL A   1      46.007  35.838  27.989  1.00  0.00     0.059 A 
ATOM     95  C   UNL A   1      47.510  34.001  28.399  1.00  0.00     0.059 A 
ATOM     96  F   UNL A   1      46.698  31.890  28.885  1.00  0.00    -0.206 F 
ATOM     97  C   UNL A   1      47.304  35.349  28.142  1.00  0.00     0.060 A 
BRANCH  97  98
ATOM     98  S   UNL A   1      48.718  36.479  28.094  1.00  0.00     0.124 S 
ATOM     99  O   UNL A   1      49.422  36.038  26.895  1.00  0.00    -0.237 OA
ATOM    100  O   UNL A   1      48.070  37.783  28.010  1.00  0.00    -0.237 OA
ATOM    101  O   UNL A   1      49.410  36.212  29.353  1.00  0.00    -0.744 OA
ENDBRANCH  97  98
ENDBRANCH  65  90
BRANCH  77 102
ATOM    102  C   UNL A   1      39.467  31.619  30.812  1.00  0.00     0.058 A 
ATOM    103  C   UNL A   1      39.136  31.064  29.564  1.00  0.00     0.135 A 
ATOM    104  C   UNL A   1      38.496  32.420  31.435  1.00  0.00     0.135 A 
ATOM    105  F   UNL A   1      39.966  30.210  28.947  1.00  0.00    -0.206 F 
ATOM    106  C   UNL A   1      37.898  31.303  28.959  1.00  0.00     0.059 A 
ATOM    107  C   UNL A   1      37.246  32.645  30.867  1.00  0.00     0.059 A 
ATOM    108  F   UNL A   1      38.729  32.929  32.657  1.00  0.00    -0.206 F 
ATOM    109  C   UNL A   1      36.953  32.084  29.626  1.00  0.00     0.060 A 
BRANCH 109 110
ATOM    110  S   UNL A   1      35.311  32.294  28.902  1.00  0.00     0.124 S 
ATOM    111  O   UNL A   1      35.550  33.317  27.889  1.00  0.00    -0.237 OA
ATOM    112  O   UNL A   1      35.018  30.956  28.397  1.00  0.00    -0.237 OA
ATOM    113  O   UNL A   1      34.489  32.718  30.034  1.00  0.00    -0.744 OA
ENDBRANCH 109 110
ENDBRANCH  77 102
ENDBRANCH  51  52
ENDBRANCH  44  46
ENDBRANCH  43  44
ENDBRANCH  42  43
ENDBRANCH  41  42
ENDBRANCH  40  41
ENDBRANCH   1  40
TORSDOF 23
ENDMDL
MODEL 3
REMARK VINA RESULT:     -11.7      3.774      9.252
REMARK SMILES Cc1coc2cc3c(cc12)[C@@H](C)[C@H](CCC(=O)N[C@@H](Cc1c[nH]c2ccccc12)C(=O)OCCOCCOC(=O)c1ccc(-c2c4nc(c(-c5c(F)cc(S(=O)(=O)[O-])cc5F)c5ccc([nH]5)c(-c5c(F)cc(S(=O)(=O)[O-])cc5F)c5nc(c(-c6c(F)cc(S(=O)(=O)[O-])cc6F)c6ccc2[nH]6)C=C5)C=C4)cc1)C(=O)O3
REMARK SMILES IDX 34 1 33 2 32 3 30 4 31 5 19 6 18 7 16 8 17 9 15 11 14 12
REMARK SMILES IDX 13 13 1 14 2 15 3 16 10 17 4 18 5 19 9 20 6 21 8 22 7 23
REMARK SMILES IDX 11 24 109 25 12 26 107 27 108 28 20 29 21 30 22 31 29 32
REMARK SMILES IDX 23 33 24 34 28 35 25 37 27 38 26 39 35 40 36 41 37 42 38 43
REMARK SMILES IDX 39 44 40 45 41 46 42 47 106 48 43 49 105 50 44 51 45 52
REMARK SMILES IDX 46 53 99 54 47 55 104 56 98 57 100 58 48 59 103 60 97 61
REMARK SMILES IDX 96 62 49 64 83 65 62 66 82 67 63 68 66 69 81 70 101 71 64 72
REMARK SMILES IDX 65 73 80 75 102 76 67 77 50 78 51 79 60 80 52 81 53 82 59 83
REMARK SMILES IDX 61 84 54 85 55 86 56 87 57 88 58 89 84 90 85 91 94 92 86 93
REMARK SMILES IDX 87 94 93 95 95 96 88 97 89 98 90 99 91 100 92 101 68 102
REMARK SMILES IDX 69 103 78 104 70 105 71 106 77 107 79 108 72 109 73 110
REMARK SMILES IDX 74 111 75 112 76 113
REMARK H PARENT 18 10 23 36 100 63 66 74
REMARK Flexibility Score: inf
ROOT
ATOM      1  C   UNL A   1      32.869  21.354  25.458  1.00  0.00     0.202 C 
ENDROOT
BRANCH   1   2
ATOM      2  C   UNL A   1      32.391  22.319  24.375  1.00  0.00     0.261 C 
BRANCH   2   3
ATOM      3  O   UNL A   1      32.713  23.664  24.694  1.00  0.00    -0.462 OA
BRANCH   3   4
ATOM      4  C   UNL A   1      32.512  24.512  23.666  1.00  0.00     0.329 C 
ATOM      5  O   UNL A   1      33.384  25.059  22.997  1.00  0.00    -0.250 OA
BRANCH   4   6
ATOM      6  C   UNL A   1      31.046  24.764  23.402  1.00  0.00     0.196 C 
BRANCH   6   7
ATOM      7  N   UNL A   1      30.149  25.029  24.543  1.00  0.00    -0.342 N 
ATOM      8  C   UNL A   1      30.295  25.843  25.641  1.00  0.00     0.220 C 
ATOM      9  O   UNL A   1      29.355  25.937  26.438  1.00  0.00    -0.275 OA
ATOM     10  H   UNL A   1      29.296  24.537  24.512  1.00  0.00     0.164 HD
BRANCH   8  11
ATOM     11  C   UNL A   1      31.560  26.690  25.884  1.00  0.00     0.101 C 
BRANCH  11  12
ATOM     12  C   UNL A   1      31.619  27.817  26.954  1.00  0.00     0.026 C 
BRANCH  12  13
ATOM     13  C   UNL A   1      32.292  29.103  26.492  1.00  0.00     0.107 C 
ATOM     14  C   UNL A   1      33.575  35.517  29.314  1.00  0.00     0.048 C 
ATOM     15  C   UNL A   1      34.514  34.550  28.714  1.00  0.00    -0.005 A 
ATOM     16  C   UNL A   1      35.894  34.587  28.753  1.00  0.00     0.199 A 
ATOM     17  C   UNL A   1      34.171  33.309  28.111  1.00  0.00     0.024 A 
ATOM     18  O   UNL A   1      36.422  33.424  28.302  1.00  0.00    -0.464 OA
ATOM     19  C   UNL A   1      35.374  32.624  27.996  1.00  0.00     0.137 A 
ATOM     20  C   UNL A   1      32.966  32.663  27.757  1.00  0.00     0.020 A 
ATOM     21  C   UNL A   1      35.471  31.279  27.729  1.00  0.00     0.095 A 
ATOM     22  C   UNL A   1      33.009  31.292  27.495  1.00  0.00    -0.001 A 
ATOM     23  C   UNL A   1      34.242  30.641  27.634  1.00  0.00     0.138 A 
ATOM     24  C   UNL A   1      31.808  30.470  27.057  1.00  0.00     0.034 C 
ATOM     25  O   UNL A   1      34.275  29.280  27.803  1.00  0.00    -0.426 OA
ATOM     26  C   UNL A   1      31.027  31.224  25.938  1.00  0.00     0.014 C 
ATOM     27  C   UNL A   1      33.785  28.884  26.619  1.00  0.00     0.314 C 
ATOM     28  O   UNL A   1      34.489  28.264  25.832  1.00  0.00    -0.251 OA
ENDBRANCH  12  13
ENDBRANCH  11  12
ENDBRANCH   8  11
ENDBRANCH   6   7
BRANCH   6  29
ATOM     29  C   UNL A   1      30.935  25.792  22.247  1.00  0.00     0.074 C 
BRANCH  29  30
ATOM     30  C   UNL A   1      30.841  27.249  22.602  1.00  0.00    -0.020 A 
ATOM     31  C   UNL A   1      31.908  28.125  22.614  1.00  0.00     0.087 A 
ATOM     32  C   UNL A   1      29.662  28.044  22.830  1.00  0.00     0.003 A 
ATOM     33  N   UNL A   1      31.439  29.385  22.866  1.00  0.00    -0.361 N 
ATOM     34  C   UNL A   1      30.077  29.358  23.051  1.00  0.00     0.046 A 
ATOM     35  C   UNL A   1      28.271  27.801  22.836  1.00  0.00     0.010 A 
ATOM     36  H   UNL A   1      31.996  30.195  22.908  1.00  0.00     0.166 HD
ATOM     37  C   UNL A   1      29.187  30.401  23.346  1.00  0.00     0.026 A 
ATOM     38  C   UNL A   1      27.366  28.822  23.148  1.00  0.00     0.001 A 
ATOM     39  C   UNL A   1      27.824  30.105  23.413  1.00  0.00     0.002 A 
ENDBRANCH  29  30
ENDBRANCH   6  29
ENDBRANCH   4   6
ENDBRANCH   3   4
ENDBRANCH   2   3
ENDBRANCH   1   2
BRANCH   1  40
ATOM     40  O   UNL A   1      34.269  21.124  25.586  1.00  0.00    -0.374 OA
BRANCH  40  41
ATOM     41  C   UNL A   1      35.097  21.402  24.451  1.00  0.00     0.202 C 
BRANCH  41  42
ATOM     42  C   UNL A   1      36.093  22.581  24.500  1.00  0.00     0.261 C 
BRANCH  42  43
ATOM     43  O   UNL A   1      37.444  22.164  24.246  1.00  0.00    -0.460 OA
BRANCH  43  44
ATOM     44  C   UNL A   1      37.937  21.219  25.093  1.00  0.00     0.338 C 
ATOM     45  O   UNL A   1      38.147  20.044  24.854  1.00  0.00    -0.246 OA
BRANCH  44  46
ATOM     46  C   UNL A   1      38.578  21.977  26.188  1.00  0.00     0.060 A 
ATOM     47  C   UNL A   1      38.205  23.291  26.470  1.00  0.00     0.016 A 
ATOM     48  C   UNL A   1      39.784  21.442  26.674  1.00  0.00     0.016 A 
ATOM     49  C   UNL A   1      39.107  24.103  27.151  1.00  0.00     0.010 A 
ATOM     50  C   UNL A   1      40.709  22.277  27.286  1.00  0.00     0.010 A 
ATOM     51  C   UNL A   1      40.388  23.620  27.484  1.00  0.00    -0.014 A 
BRANCH  51  52
ATOM     52  C   UNL A   1      41.285  24.490  28.249  1.00  0.00     0.031 A 
ATOM     53  C   UNL A   1      40.678  25.836  28.430  1.00  0.00     0.074 A 
ATOM     54  C   UNL A   1      42.442  24.150  28.862  1.00  0.00     0.049 A 
ATOM     55  N   UNL A   1      41.058  26.950  27.900  1.00  0.00    -0.248 NA
ATOM     56  C   UNL A   1      39.369  25.906  29.104  1.00  0.00     0.031 C 
ATOM     57  C   UNL A   1      43.050  22.828  29.018  1.00  0.00     0.029 A 
ATOM     58  N   UNL A   1      43.305  24.947  29.566  1.00  0.00    -0.354 N 
ATOM     59  C   UNL A   1      40.160  27.905  28.365  1.00  0.00     0.074 A 
ATOM     60  C   UNL A   1      39.044  27.183  28.912  1.00  0.00     0.031 C 
ATOM     61  C   UNL A   1      44.040  22.885  29.942  1.00  0.00     0.029 A 
ATOM     62  C   UNL A   1      44.211  24.260  30.375  1.00  0.00     0.049 A 
ATOM     63  H   UNL A   1      43.287  25.929  29.506  1.00  0.00     0.167 HD
ATOM     64  C   UNL A   1      40.514  29.213  28.485  1.00  0.00     0.037 A 
ATOM     65  C   UNL A   1      44.984  24.772  31.374  1.00  0.00     0.037 A 
ATOM     66  C   UNL A   1      41.704  29.503  27.731  1.00  0.00     0.049 A 
ATOM     67  C   UNL A   1      45.114  26.231  31.114  1.00  0.00     0.074 A 
ATOM     68  C   UNL A   1      42.048  29.427  26.395  1.00  0.00     0.029 A 
ATOM     69  N   UNL A   1      42.890  29.597  28.418  1.00  0.00    -0.354 N 
ATOM     70  N   UNL A   1      45.737  26.724  30.076  1.00  0.00    -0.248 NA
ATOM     71  C   UNL A   1      44.118  27.104  31.718  1.00  0.00     0.031 C 
ATOM     72  C   UNL A   1      43.400  28.979  26.389  1.00  0.00     0.029 A 
ATOM     73  C   UNL A   1      43.822  28.878  27.715  1.00  0.00     0.049 A 
ATOM     74  H   UNL A   1      43.043  30.088  29.258  1.00  0.00     0.167 HD
ATOM     75  C   UNL A   1      44.927  27.761  29.637  1.00  0.00     0.074 A 
ATOM     76  C   UNL A   1      43.964  27.974  30.717  1.00  0.00     0.031 C 
ATOM     77  C   UNL A   1      44.917  28.162  28.331  1.00  0.00     0.037 A 
BRANCH  64  78
ATOM     78  C   UNL A   1      40.013  30.124  29.579  1.00  0.00     0.058 A 
ATOM     79  C   UNL A   1      40.450  29.905  30.901  1.00  0.00     0.135 A 
ATOM     80  C   UNL A   1      38.909  30.996  29.437  1.00  0.00     0.135 A 
ATOM     81  F   UNL A   1      41.490  29.092  31.151  1.00  0.00    -0.206 F 
ATOM     82  C   UNL A   1      39.785  30.439  32.003  1.00  0.00     0.059 A 
ATOM     83  C   UNL A   1      38.268  31.584  30.519  1.00  0.00     0.059 A 
ATOM     84  F   UNL A   1      38.333  31.242  28.255  1.00  0.00    -0.206 F 
ATOM     85  C   UNL A   1      38.684  31.264  31.800  1.00  0.00     0.060 A 
BRANCH  85  86
ATOM     86  S   UNL A   1      37.755  31.857  33.223  1.00  0.00     0.124 S 
ATOM     87  O   UNL A   1      38.629  31.465  34.323  1.00  0.00    -0.237 OA
ATOM     88  O   UNL A   1      37.670  33.287  32.948  1.00  0.00    -0.237 OA
ATOM     89  O   UNL A   1      36.494  31.127  33.126  1.00  0.00    -0.744 OA
ENDBRANCH  85  86
ENDBRANCH  64  78
BRANCH  65  90
ATOM     90  C   UNL A   1      45.232  24.160  32.721  1.00  0.00     0.058 A 
ATOM     91  C   UNL A   1      44.363  23.213  33.300  1.00  0.00     0.135 A 
ATOM     92  C   UNL A   1      46.479  24.305  33.363  1.00  0.00     0.135 A 
ATOM     93  F   UNL A   1      43.166  22.967  32.742  1.00  0.00    -0.206 F 
ATOM     94  C   UNL A   1      44.717  22.452  34.429  1.00  0.00     0.059 A 
ATOM     95  C   UNL A   1      46.850  23.569  34.489  1.00  0.00     0.059 A 
ATOM     96  F   UNL A   1      47.426  25.113  32.864  1.00  0.00    -0.206 F 
ATOM     97  C   UNL A   1      45.971  22.630  35.011  1.00  0.00     0.060 A 
BRANCH  97  98
ATOM     98  S   UNL A   1      46.497  21.582  36.392  1.00  0.00     0.124 S 
ATOM     99  O   UNL A   1      45.666  22.076  37.484  1.00  0.00    -0.237 OA
ATOM    100  O   UNL A   1      46.180  20.245  35.902  1.00  0.00    -0.237 OA
ATOM    101  O   UNL A   1      47.923  21.874  36.516  1.00  0.00    -0.744 OA
ENDBRANCH  97  98
ENDBRANCH  65  90
BRANCH  77 102
ATOM    102  C   UNL A   1      45.979  27.651  27.392  1.00  0.00     0.058 A 
ATOM    103  C   UNL A   1      45.857  26.489  26.612  1.00  0.00     0.135 A 
ATOM    104  C   UNL A   1      47.057  28.505  27.106  1.00  0.00     0.135 A 
ATOM    105  F   UNL A   1      44.804  25.670  26.754  1.00  0.00    -0.206 F 
ATOM    106  C   UNL A   1      46.772  26.185  25.599  1.00  0.00     0.059 A 
ATOM    107  C   UNL A   1      47.960  28.239  26.083  1.00  0.00     0.059 A 
ATOM    108  F   UNL A   1      47.192  29.662  27.777  1.00  0.00    -0.206 F 
ATOM    109  C   UNL A   1      47.813  27.075  25.332  1.00  0.00     0.060 A 
BRANCH 109 110
ATOM    110  S   UNL A   1      48.924  26.744  23.946  1.00  0.00     0.124 S 
ATOM    111  O   UNL A   1      48.867  27.998  23.201  1.00  0.00    -0.237 OA
ATOM    112  O   UNL A   1      50.189  26.462  24.618  1.00  0.00    -0.237 OA
ATOM    113  O   UNL A   1      48.310  25.596  23.281  1.00  0.00    -0.744 OA
ENDBRANCH 109 110
ENDBRANCH  77 102
ENDBRANCH  51  52
ENDBRANCH  44  46
ENDBRANCH  43  44
ENDBRANCH  42  43
ENDBRANCH  41  42
ENDBRANCH  40  41
ENDBRANCH   1  40
TORSDOF 23
ENDMDL
