MODEL 1
REMARK VINA RESULT:     -11.4      0.000      0.000
REMARK SMILES O=C(CSc1ccc(NC(=O)c2cccc3ccccc23)cc1)OCCOCCOC(=O)c1ccc(-c2c3nc(c(-c4c(F)cc(S(=O)(=O)[O-])cc4F)c4ccc([nH]4)c(-c4c(F)cc(S(=O)(=O)[O-])cc4F)c4nc(c(-c5c(F)cc(S(=O)(=O)[O-])cc5F)c5ccc2[nH]5)C=C4)C=C3)cc1
REMARK SMILES IDX 26 1 25 2 24 3 2 4 1 5 3 6 4 7 5 8 6 9 23 10 7 11 22 12 8 13
REMARK SMILES IDX 9 14 10 15 11 17 12 18 13 19 21 20 14 21 16 22 20 23 15 24
REMARK SMILES IDX 17 25 19 26 18 27 27 28 28 29 29 30 30 31 31 32 32 33 33 34
REMARK SMILES IDX 34 35 98 36 35 37 97 38 36 39 37 40 38 41 91 42 39 43 96 44
REMARK SMILES IDX 90 45 92 46 40 47 95 48 89 49 88 50 41 52 75 53 54 54 74 55
REMARK SMILES IDX 55 56 58 57 73 58 93 59 56 60 57 61 72 63 94 64 59 65 42 66
REMARK SMILES IDX 43 67 52 68 44 69 45 70 51 71 53 72 46 73 47 74 48 75 49 76
REMARK SMILES IDX 50 77 76 78 77 79 86 80 78 81 79 82 85 83 87 84 80 85 81 86
REMARK SMILES IDX 82 87 83 88 84 89 60 90 61 91 70 92 62 93 63 94 69 95 71 96
REMARK SMILES IDX 64 97 65 98 66 99 67 100 68 101
REMARK H PARENT 9 16 92 51 58 62
REMARK Flexibility Score: inf
ROOT
ATOM      1  C   UNL A   1      41.340  21.259  26.591  1.00  0.00     0.202 C 
ENDROOT
BRANCH   1   2
ATOM      2  C   UNL A   1      39.879  21.502  26.213  1.00  0.00     0.261 C 
BRANCH   2   3
ATOM      3  O   UNL A   1      39.413  22.852  26.313  1.00  0.00    -0.463 OA
BRANCH   3   4
ATOM      4  C   UNL A   1      38.150  23.288  26.108  1.00  0.00     0.316 C 
ATOM      5  O   UNL A   1      37.817  24.366  26.610  1.00  0.00    -0.251 OA
BRANCH   4   6
ATOM      6  C   UNL A   1      37.116  22.444  25.394  1.00  0.00     0.197 C 
BRANCH   6   7
ATOM      7  S   UNL A   1      36.692  22.928  23.695  1.00  0.00    -0.114 SA
BRANCH   7   8
ATOM      8  C   UNL A   1      35.080  23.572  24.047  1.00  0.00     0.008 A 
ATOM      9  C   UNL A   1      33.992  22.926  23.473  1.00  0.00     0.017 A 
ATOM     10  C   UNL A   1      34.882  24.566  25.007  1.00  0.00     0.017 A 
ATOM     11  C   UNL A   1      32.716  23.163  23.965  1.00  0.00     0.027 A 
ATOM     12  C   UNL A   1      33.604  24.779  25.519  1.00  0.00     0.027 A 
ATOM     13  C   UNL A   1      32.539  23.996  25.067  1.00  0.00     0.041 A 
BRANCH  13  14
ATOM     14  N   UNL A   1      31.366  24.023  25.829  1.00  0.00    -0.322 N 
ATOM     15  C   UNL A   1      30.426  25.012  26.004  1.00  0.00     0.256 C 
ATOM     16  H   UNL A   1      31.182  23.193  26.326  1.00  0.00     0.170 HD
ATOM     17  O   UNL A   1      29.500  24.827  26.795  1.00  0.00    -0.269 OA
BRANCH  15  18
ATOM     18  C   UNL A   1      30.462  26.311  25.288  1.00  0.00     0.048 A 
ATOM     19  C   UNL A   1      29.799  26.298  24.048  1.00  0.00     0.014 A 
ATOM     20  C   UNL A   1      31.147  27.478  25.743  1.00  0.00    -0.006 A 
ATOM     21  C   UNL A   1      29.826  27.417  23.227  1.00  0.00     0.001 A 
ATOM     22  C   UNL A   1      31.194  28.593  24.864  1.00  0.00    -0.018 A 
ATOM     23  C   UNL A   1      31.763  27.637  27.012  1.00  0.00     0.009 A 
ATOM     24  C   UNL A   1      30.545  28.541  23.620  1.00  0.00     0.009 A 
ATOM     25  C   UNL A   1      31.869  29.767  25.236  1.00  0.00     0.009 A 
ATOM     26  C   UNL A   1      32.353  28.846  27.401  1.00  0.00     0.001 A 
ATOM     27  C   UNL A   1      32.425  29.904  26.505  1.00  0.00     0.001 A 
ENDBRANCH  15  18
ENDBRANCH  13  14
ENDBRANCH   7   8
ENDBRANCH   6   7
ENDBRANCH   4   6
ENDBRANCH   3   4
ENDBRANCH   2   3
ENDBRANCH   1   2
BRANCH   1  28
ATOM     28  O   UNL A   1      42.339  21.393  25.591  1.00  0.00    -0.374 OA
BRANCH  28  29
ATOM     29  C   UNL A   1      42.866  22.705  25.369  1.00  0.00     0.202 C 
BRANCH  29  30
ATOM     30  C   UNL A   1      42.809  23.671  26.556  1.00  0.00     0.261 C 
BRANCH  30  31
ATOM     31  O   UNL A   1      43.037  25.024  26.139  1.00  0.00    -0.460 OA
BRANCH  31  32
ATOM     32  C   UNL A   1      41.938  25.822  26.142  1.00  0.00     0.338 C 
ATOM     33  O   UNL A   1      41.041  25.841  25.323  1.00  0.00    -0.246 OA
BRANCH  32  34
ATOM     34  C   UNL A   1      41.863  26.501  27.452  1.00  0.00     0.060 A 
ATOM     35  C   UNL A   1      40.805  26.156  28.308  1.00  0.00     0.016 A 
ATOM     36  C   UNL A   1      42.815  27.444  27.841  1.00  0.00     0.016 A 
ATOM     37  C   UNL A   1      40.674  26.786  29.541  1.00  0.00     0.010 A 
ATOM     38  C   UNL A   1      42.674  28.086  29.069  1.00  0.00     0.010 A 
ATOM     39  C   UNL A   1      41.585  27.783  29.908  1.00  0.00    -0.014 A 
BRANCH  39  40
ATOM     40  C   UNL A   1      41.314  28.627  31.092  1.00  0.00     0.031 A 
ATOM     41  C   UNL A   1      40.185  29.616  31.019  1.00  0.00     0.074 A 
ATOM     42  C   UNL A   1      42.060  28.506  32.204  1.00  0.00     0.049 A 
ATOM     43  N   UNL A   1      39.814  30.513  31.891  1.00  0.00    -0.248 NA
ATOM     44  C   UNL A   1      39.368  29.594  29.792  1.00  0.00     0.031 C 
ATOM     45  C   UNL A   1      43.155  27.553  32.388  1.00  0.00     0.029 A 
ATOM     46  N   UNL A   1      42.019  29.203  33.383  1.00  0.00    -0.354 N 
ATOM     47  C   UNL A   1      38.734  31.173  31.317  1.00  0.00     0.074 A 
ATOM     48  C   UNL A   1      38.522  30.590  30.011  1.00  0.00     0.031 C 
ATOM     49  C   UNL A   1      43.695  27.741  33.604  1.00  0.00     0.029 A 
ATOM     50  C   UNL A   1      43.011  28.849  34.266  1.00  0.00     0.049 A 
ATOM     51  H   UNL A   1      41.343  29.892  33.579  1.00  0.00     0.167 HD
ATOM     52  C   UNL A   1      37.985  32.171  31.840  1.00  0.00     0.037 A 
ATOM     53  C   UNL A   1      43.346  29.387  35.456  1.00  0.00     0.037 A 
ATOM     54  C   UNL A   1      38.207  32.735  33.146  1.00  0.00     0.049 A 
ATOM     55  C   UNL A   1      42.533  30.540  35.988  1.00  0.00     0.074 A 
ATOM     56  C   UNL A   1      37.488  33.729  33.786  1.00  0.00     0.029 A 
ATOM     57  N   UNL A   1      39.228  32.361  34.007  1.00  0.00    -0.354 N 
ATOM     58  N   UNL A   1      41.493  31.134  35.452  1.00  0.00    -0.248 NA
ATOM     59  C   UNL A   1      42.937  31.095  37.286  1.00  0.00     0.031 C 
ATOM     60  C   UNL A   1      38.112  33.997  35.007  1.00  0.00     0.029 A 
ATOM     61  C   UNL A   1      39.178  33.126  35.160  1.00  0.00     0.049 A 
ATOM     62  H   UNL A   1      39.890  31.655  33.825  1.00  0.00     0.167 HD
ATOM     63  C   UNL A   1      41.100  32.112  36.361  1.00  0.00     0.074 A 
ATOM     64  C   UNL A   1      42.005  32.017  37.487  1.00  0.00     0.031 C 
ATOM     65  C   UNL A   1      40.085  33.007  36.274  1.00  0.00     0.037 A 
BRANCH  52  66
ATOM     66  C   UNL A   1      36.875  32.738  31.000  1.00  0.00     0.058 A 
ATOM     67  C   UNL A   1      35.531  32.388  31.211  1.00  0.00     0.135 A 
ATOM     68  C   UNL A   1      37.154  33.695  30.011  1.00  0.00     0.135 A 
ATOM     69  F   UNL A   1      35.210  31.460  32.126  1.00  0.00    -0.206 F 
ATOM     70  C   UNL A   1      34.505  32.964  30.469  1.00  0.00     0.059 A 
ATOM     71  C   UNL A   1      36.142  34.305  29.277  1.00  0.00     0.059 A 
ATOM     72  F   UNL A   1      38.421  34.059  29.761  1.00  0.00    -0.206 F 
ATOM     73  C   UNL A   1      34.819  33.929  29.510  1.00  0.00     0.060 A 
BRANCH  73  74
ATOM     74  S   UNL A   1      33.471  34.699  28.589  1.00  0.00     0.124 S 
ATOM     75  O   UNL A   1      34.162  35.801  27.927  1.00  0.00    -0.237 OA
ATOM     76  O   UNL A   1      33.033  33.612  27.718  1.00  0.00    -0.237 OA
ATOM     77  O   UNL A   1      32.525  35.087  29.630  1.00  0.00    -0.744 OA
ENDBRANCH  73  74
ENDBRANCH  52  66
BRANCH  53  78
ATOM     78  C   UNL A   1      44.515  28.864  36.213  1.00  0.00     0.058 A 
ATOM     79  C   UNL A   1      45.790  29.428  36.064  1.00  0.00     0.135 A 
ATOM     80  C   UNL A   1      44.384  27.770  37.085  1.00  0.00     0.135 A 
ATOM     81  F   UNL A   1      45.970  30.468  35.236  1.00  0.00    -0.206 F 
ATOM     82  C   UNL A   1      46.898  28.914  36.730  1.00  0.00     0.059 A 
ATOM     83  C   UNL A   1      45.471  27.258  37.787  1.00  0.00     0.059 A 
ATOM     84  F   UNL A   1      43.185  27.200  37.276  1.00  0.00    -0.206 F 
ATOM     85  C   UNL A   1      46.728  27.827  37.590  1.00  0.00     0.060 A 
BRANCH  85  86
ATOM     86  S   UNL A   1      48.168  27.183  38.467  1.00  0.00     0.124 S 
ATOM     87  O   UNL A   1      48.382  28.214  39.475  1.00  0.00    -0.237 OA
ATOM     88  O   UNL A   1      47.677  25.899  38.959  1.00  0.00    -0.237 OA
ATOM     89  O   UNL A   1      49.186  27.098  37.424  1.00  0.00    -0.744 OA
ENDBRANCH  85  86
ENDBRANCH  53  78
BRANCH  65  90
ATOM     90  C   UNL A   1      39.873  33.930  37.444  1.00  0.00     0.058 A 
ATOM     91  C   UNL A   1      39.116  33.546  38.562  1.00  0.00     0.135 A 
ATOM     92  C   UNL A   1      40.479  35.197  37.466  1.00  0.00     0.135 A 
ATOM     93  F   UNL A   1      38.511  32.348  38.590  1.00  0.00    -0.206 F 
ATOM     94  C   UNL A   1      38.946  34.396  39.650  1.00  0.00     0.059 A 
ATOM     95  C   UNL A   1      40.350  36.049  38.558  1.00  0.00     0.059 A 
ATOM     96  F   UNL A   1      41.224  35.609  36.429  1.00  0.00    -0.206 F 
ATOM     97  C   UNL A   1      39.570  35.645  39.640  1.00  0.00     0.060 A 
BRANCH  97  98
ATOM     98  S   UNL A   1      39.364  36.725  41.071  1.00  0.00     0.124 S 
ATOM     99  O   UNL A   1      40.746  36.898  41.509  1.00  0.00    -0.237 OA
ATOM    100  O   UNL A   1      38.733  37.902  40.484  1.00  0.00    -0.237 OA
ATOM    101  O   UNL A   1      38.515  35.946  41.966  1.00  0.00    -0.744 OA
ENDBRANCH  97  98
ENDBRANCH  65  90
ENDBRANCH  39  40
ENDBRANCH  32  34
ENDBRANCH  31  32
ENDBRANCH  30  31
ENDBRANCH  29  30
ENDBRANCH  28  29
ENDBRANCH   1  28
TORSDOF 21
ENDMDL
MODEL 2
REMARK VINA RESULT:     -11.2      0.538      1.968
REMARK SMILES O=C(CSc1ccc(NC(=O)c2cccc3ccccc23)cc1)OCCOCCOC(=O)c1ccc(-c2c3nc(c(-c4c(F)cc(S(=O)(=O)[O-])cc4F)c4ccc([nH]4)c(-c4c(F)cc(S(=O)(=O)[O-])cc4F)c4nc(c(-c5c(F)cc(S(=O)(=O)[O-])cc5F)c5ccc2[nH]5)C=C4)C=C3)cc1
REMARK SMILES IDX 26 1 25 2 24 3 2 4 1 5 3 6 4 7 5 8 6 9 23 10 7 11 22 12 8 13
REMARK SMILES IDX 9 14 10 15 11 17 12 18 13 19 21 20 14 21 16 22 20 23 15 24
REMARK SMILES IDX 17 25 19 26 18 27 27 28 28 29 29 30 30 31 31 32 32 33 33 34
REMARK SMILES IDX 34 35 98 36 35 37 97 38 36 39 37 40 38 41 91 42 39 43 96 44
REMARK SMILES IDX 90 45 92 46 40 47 95 48 89 49 88 50 41 52 75 53 54 54 74 55
REMARK SMILES IDX 55 56 58 57 73 58 93 59 56 60 57 61 72 63 94 64 59 65 42 66
REMARK SMILES IDX 43 67 52 68 44 69 45 70 51 71 53 72 46 73 47 74 48 75 49 76
REMARK SMILES IDX 50 77 76 78 77 79 86 80 78 81 79 82 85 83 87 84 80 85 81 86
REMARK SMILES IDX 82 87 83 88 84 89 60 90 61 91 70 92 62 93 63 94 69 95 71 96
REMARK SMILES IDX 64 97 65 98 66 99 67 100 68 101
REMARK H PARENT 9 16 92 51 58 62
REMARK Flexibility Score: inf
ROOT
ATOM      1  C   UNL A   1      42.016  21.192  26.401  1.00  0.00     0.202 C 
ENDROOT
BRANCH   1   2
ATOM      2  C   UNL A   1      40.495  21.308  26.309  1.00  0.00     0.261 C 
BRANCH   2   3
ATOM      3  O   UNL A   1      39.931  22.576  26.667  1.00  0.00    -0.463 OA
BRANCH   3   4
ATOM      4  C   UNL A   1      38.773  23.102  26.212  1.00  0.00     0.316 C 
ATOM      5  O   UNL A   1      38.614  24.324  26.300  1.00  0.00    -0.251 OA
BRANCH   4   6
ATOM      6  C   UNL A   1      37.636  22.233  25.719  1.00  0.00     0.197 C 
BRANCH   6   7
ATOM      7  S   UNL A   1      36.862  22.708  24.144  1.00  0.00    -0.114 SA
BRANCH   7   8
ATOM      8  C   UNL A   1      35.460  23.544  24.833  1.00  0.00     0.008 A 
ATOM      9  C   UNL A   1      34.623  24.221  23.956  1.00  0.00     0.017 A 
ATOM     10  C   UNL A   1      35.094  23.380  26.170  1.00  0.00     0.017 A 
ATOM     11  C   UNL A   1      33.356  24.602  24.373  1.00  0.00     0.027 A 
ATOM     12  C   UNL A   1      33.810  23.736  26.577  1.00  0.00     0.027 A 
ATOM     13  C   UNL A   1      32.907  24.250  25.643  1.00  0.00     0.041 A 
BRANCH  13  14
ATOM     14  N   UNL A   1      31.559  24.285  26.019  1.00  0.00    -0.322 N 
ATOM     15  C   UNL A   1      30.711  25.346  26.239  1.00  0.00     0.256 C 
ATOM     16  H   UNL A   1      31.148  23.400  26.150  1.00  0.00     0.170 HD
ATOM     17  O   UNL A   1      29.567  25.126  26.640  1.00  0.00    -0.269 OA
BRANCH  15  18
ATOM     18  C   UNL A   1      31.097  26.761  26.020  1.00  0.00     0.048 A 
ATOM     19  C   UNL A   1      31.628  27.391  27.158  1.00  0.00     0.014 A 
ATOM     20  C   UNL A   1      30.906  27.482  24.802  1.00  0.00    -0.006 A 
ATOM     21  C   UNL A   1      31.951  28.741  27.127  1.00  0.00     0.001 A 
ATOM     22  C   UNL A   1      31.204  28.871  24.812  1.00  0.00    -0.018 A 
ATOM     23  C   UNL A   1      30.471  26.929  23.569  1.00  0.00     0.009 A 
ATOM     24  C   UNL A   1      31.709  29.478  25.972  1.00  0.00     0.009 A 
ATOM     25  C   UNL A   1      31.019  29.648  23.656  1.00  0.00     0.009 A 
ATOM     26  C   UNL A   1      30.380  27.701  22.404  1.00  0.00     0.001 A 
ATOM     27  C   UNL A   1      30.633  29.064  22.453  1.00  0.00     0.001 A 
ENDBRANCH  15  18
ENDBRANCH  13  14
ENDBRANCH   7   8
ENDBRANCH   6   7
ENDBRANCH   4   6
ENDBRANCH   3   4
ENDBRANCH   2   3
ENDBRANCH   1   2
BRANCH   1  28
ATOM     28  O   UNL A   1      42.799  21.528  25.264  1.00  0.00    -0.374 OA
BRANCH  28  29
ATOM     29  C   UNL A   1      43.056  22.918  25.039  1.00  0.00     0.202 C 
BRANCH  29  30
ATOM     30  C   UNL A   1      43.181  23.797  26.287  1.00  0.00     0.261 C 
BRANCH  30  31
ATOM     31  O   UNL A   1      43.368  25.176  25.937  1.00  0.00    -0.460 OA
BRANCH  31  32
ATOM     32  C   UNL A   1      42.240  25.933  25.953  1.00  0.00     0.338 C 
ATOM     33  O   UNL A   1      41.343  25.933  25.134  1.00  0.00    -0.246 OA
BRANCH  32  34
ATOM     34  C   UNL A   1      42.140  26.586  27.274  1.00  0.00     0.060 A 
ATOM     35  C   UNL A   1      41.115  26.166  28.136  1.00  0.00     0.016 A 
ATOM     36  C   UNL A   1      43.039  27.578  27.667  1.00  0.00     0.016 A 
ATOM     37  C   UNL A   1      40.962  26.767  29.380  1.00  0.00     0.010 A 
ATOM     38  C   UNL A   1      42.874  28.192  28.908  1.00  0.00     0.010 A 
ATOM     39  C   UNL A   1      41.816  27.811  29.753  1.00  0.00    -0.014 A 
BRANCH  39  40
ATOM     40  C   UNL A   1      41.509  28.619  30.954  1.00  0.00     0.031 A 
ATOM     41  C   UNL A   1      40.360  29.585  30.888  1.00  0.00     0.074 A 
ATOM     42  C   UNL A   1      42.242  28.487  32.073  1.00  0.00     0.049 A 
ATOM     43  N   UNL A   1      39.957  30.452  31.777  1.00  0.00    -0.248 NA
ATOM     44  C   UNL A   1      39.561  29.576  29.650  1.00  0.00     0.031 C 
ATOM     45  C   UNL A   1      43.355  27.554  32.250  1.00  0.00     0.029 A 
ATOM     46  N   UNL A   1      42.168  29.154  33.269  1.00  0.00    -0.354 N 
ATOM     47  C   UNL A   1      38.871  31.101  31.204  1.00  0.00     0.074 A 
ATOM     48  C   UNL A   1      38.690  30.547  29.880  1.00  0.00     0.031 C 
ATOM     49  C   UNL A   1      43.873  27.723  33.478  1.00  0.00     0.029 A 
ATOM     50  C   UNL A   1      43.156  28.800  34.157  1.00  0.00     0.049 A 
ATOM     51  H   UNL A   1      41.475  29.822  33.472  1.00  0.00     0.167 HD
ATOM     52  C   UNL A   1      38.092  32.070  31.739  1.00  0.00     0.037 A 
ATOM     53  C   UNL A   1      43.462  29.314  35.364  1.00  0.00     0.037 A 
ATOM     54  C   UNL A   1      38.282  32.605  33.063  1.00  0.00     0.049 A 
ATOM     55  C   UNL A   1      42.616  30.436  35.913  1.00  0.00     0.074 A 
ATOM     56  C   UNL A   1      37.533  33.567  33.716  1.00  0.00     0.029 A 
ATOM     57  N   UNL A   1      39.299  32.233  33.929  1.00  0.00    -0.354 N 
ATOM     58  N   UNL A   1      41.570  31.020  35.376  1.00  0.00    -0.248 NA
ATOM     59  C   UNL A   1      42.989  30.967  37.230  1.00  0.00     0.031 C 
ATOM     60  C   UNL A   1      38.132  33.819  34.953  1.00  0.00     0.029 A 
ATOM     61  C   UNL A   1      39.216  32.968  35.099  1.00  0.00     0.049 A 
ATOM     62  H   UNL A   1      39.980  31.546  33.740  1.00  0.00     0.167 HD
ATOM     63  C   UNL A   1      41.143  31.966  36.303  1.00  0.00     0.074 A 
ATOM     64  C   UNL A   1      42.034  31.863  37.440  1.00  0.00     0.031 C 
ATOM     65  C   UNL A   1      40.110  32.841  36.224  1.00  0.00     0.037 A 
BRANCH  52  66
ATOM     66  C   UNL A   1      36.981  32.632  30.897  1.00  0.00     0.058 A 
ATOM     67  C   UNL A   1      37.215  33.610  29.917  1.00  0.00     0.135 A 
ATOM     68  C   UNL A   1      35.674  32.137  31.028  1.00  0.00     0.135 A 
ATOM     69  F   UNL A   1      38.441  34.136  29.765  1.00  0.00    -0.206 F 
ATOM     70  C   UNL A   1      36.191  34.080  29.100  1.00  0.00     0.059 A 
ATOM     71  C   UNL A   1      34.641  32.572  30.204  1.00  0.00     0.059 A 
ATOM     72  F   UNL A   1      35.393  31.209  31.957  1.00  0.00    -0.206 F 
ATOM     73  C   UNL A   1      34.908  33.547  29.245  1.00  0.00     0.060 A 
BRANCH  73  74
ATOM     74  S   UNL A   1      33.602  34.136  28.147  1.00  0.00     0.124 S 
ATOM     75  O   UNL A   1      34.363  34.938  27.193  1.00  0.00    -0.237 OA
ATOM     76  O   UNL A   1      33.049  32.890  27.628  1.00  0.00    -0.237 OA
ATOM     77  O   UNL A   1      32.723  34.889  29.037  1.00  0.00    -0.744 OA
ENDBRANCH  73  74
ENDBRANCH  52  66
BRANCH  53  78
ATOM     78  C   UNL A   1      44.631  28.798  36.126  1.00  0.00     0.058 A 
ATOM     79  C   UNL A   1      44.504  27.716  37.009  1.00  0.00     0.135 A 
ATOM     80  C   UNL A   1      45.897  29.394  36.003  1.00  0.00     0.135 A 
ATOM     81  F   UNL A   1      43.314  27.118  37.170  1.00  0.00    -0.206 F 
ATOM     82  C   UNL A   1      45.580  27.259  37.763  1.00  0.00     0.059 A 
ATOM     83  C   UNL A   1      46.996  28.934  36.722  1.00  0.00     0.059 A 
ATOM     84  F   UNL A   1      46.079  30.424  35.163  1.00  0.00    -0.206 F 
ATOM     85  C   UNL A   1      46.824  27.876  37.612  1.00  0.00     0.060 A 
BRANCH  85  86
ATOM     86  S   UNL A   1      48.219  27.259  38.577  1.00  0.00     0.124 S 
ATOM     87  O   UNL A   1      49.288  27.269  37.586  1.00  0.00    -0.237 OA
ATOM     88  O   UNL A   1      48.320  28.256  39.638  1.00  0.00    -0.237 OA
ATOM     89  O   UNL A   1      47.770  25.939  39.009  1.00  0.00    -0.744 OA
ENDBRANCH  85  86
ENDBRANCH  53  78
BRANCH  65  90
ATOM     90  C   UNL A   1      39.860  33.730  37.413  1.00  0.00     0.058 A 
ATOM     91  C   UNL A   1      40.475  34.984  37.541  1.00  0.00     0.135 A 
ATOM     92  C   UNL A   1      38.951  33.339  38.410  1.00  0.00     0.135 A 
ATOM     93  F   UNL A   1      41.356  35.403  36.619  1.00  0.00    -0.206 F 
ATOM     94  C   UNL A   1      40.219  35.810  38.631  1.00  0.00     0.059 A 
ATOM     95  C   UNL A   1      38.655  34.163  39.490  1.00  0.00     0.059 A 
ATOM     96  F   UNL A   1      38.324  32.155  38.329  1.00  0.00    -0.206 F 
ATOM     97  C   UNL A   1      39.304  35.391  39.599  1.00  0.00     0.060 A 
BRANCH  97  98
ATOM     98  S   UNL A   1      38.960  36.486  40.993  1.00  0.00     0.124 S 
ATOM     99  O   UNL A   1      37.899  35.758  41.683  1.00  0.00    -0.237 OA
ATOM    100  O   UNL A   1      40.247  36.531  41.678  1.00  0.00    -0.237 OA
ATOM    101  O   UNL A   1      38.551  37.733  40.354  1.00  0.00    -0.744 OA
ENDBRANCH  97  98
ENDBRANCH  65  90
ENDBRANCH  39  40
ENDBRANCH  32  34
ENDBRANCH  31  32
ENDBRANCH  30  31
ENDBRANCH  29  30
ENDBRANCH  28  29
ENDBRANCH   1  28
TORSDOF 21
ENDMDL
MODEL 3
REMARK VINA RESULT:     -11.1      1.116      1.824
REMARK SMILES O=C(CSc1ccc(NC(=O)c2cccc3ccccc23)cc1)OCCOCCOC(=O)c1ccc(-c2c3nc(c(-c4c(F)cc(S(=O)(=O)[O-])cc4F)c4ccc([nH]4)c(-c4c(F)cc(S(=O)(=O)[O-])cc4F)c4nc(c(-c5c(F)cc(S(=O)(=O)[O-])cc5F)c5ccc2[nH]5)C=C4)C=C3)cc1
REMARK SMILES IDX 26 1 25 2 24 3 2 4 1 5 3 6 4 7 5 8 6 9 23 10 7 11 22 12 8 13
REMARK SMILES IDX 9 14 10 15 11 17 12 18 13 19 21 20 14 21 16 22 20 23 15 24
REMARK SMILES IDX 17 25 19 26 18 27 27 28 28 29 29 30 30 31 31 32 32 33 33 34
REMARK SMILES IDX 34 35 98 36 35 37 97 38 36 39 37 40 38 41 91 42 39 43 96 44
REMARK SMILES IDX 90 45 92 46 40 47 95 48 89 49 88 50 41 52 75 53 54 54 74 55
REMARK SMILES IDX 55 56 58 57 73 58 93 59 56 60 57 61 72 63 94 64 59 65 42 66
REMARK SMILES IDX 43 67 52 68 44 69 45 70 51 71 53 72 46 73 47 74 48 75 49 76
REMARK SMILES IDX 50 77 76 78 77 79 86 80 78 81 79 82 85 83 87 84 80 85 81 86
REMARK SMILES IDX 82 87 83 88 84 89 60 90 61 91 70 92 62 93 63 94 69 95 71 96
REMARK SMILES IDX 64 97 65 98 66 99 67 100 68 101
REMARK H PARENT 9 16 92 51 58 62
REMARK Flexibility Score: inf
ROOT
ATOM      1  C   UNL A   1      42.355  20.609  26.421  1.00  0.00     0.202 C 
ENDROOT
BRANCH   1   2
ATOM      2  C   UNL A   1      40.891  20.220  26.215  1.00  0.00     0.261 C 
BRANCH   2   3
ATOM      3  O   UNL A   1      39.913  21.105  26.775  1.00  0.00    -0.463 OA
BRANCH   3   4
ATOM      4  C   UNL A   1      38.960  21.785  26.102  1.00  0.00     0.316 C 
ATOM      5  O   UNL A   1      38.883  23.006  26.274  1.00  0.00    -0.251 OA
BRANCH   4   6
ATOM      6  C   UNL A   1      37.924  21.083  25.251  1.00  0.00     0.197 C 
BRANCH   6   7
ATOM      7  S   UNL A   1      36.818  22.137  24.266  1.00  0.00    -0.114 SA
BRANCH   7   8
ATOM      8  C   UNL A   1      35.372  21.936  25.271  1.00  0.00     0.008 A 
ATOM      9  C   UNL A   1      35.352  22.584  26.500  1.00  0.00     0.017 A 
ATOM     10  C   UNL A   1      34.222  21.315  24.783  1.00  0.00     0.017 A 
ATOM     11  C   UNL A   1      34.147  22.742  27.170  1.00  0.00     0.027 A 
ATOM     12  C   UNL A   1      33.010  21.503  25.444  1.00  0.00     0.027 A 
ATOM     13  C   UNL A   1      32.962  22.310  26.583  1.00  0.00     0.041 A 
BRANCH  13  14
ATOM     14  N   UNL A   1      31.695  22.723  27.012  1.00  0.00    -0.322 N 
ATOM     15  C   UNL A   1      30.866  23.718  26.549  1.00  0.00     0.256 C 
ATOM     16  H   UNL A   1      31.337  22.216  27.777  1.00  0.00     0.170 HD
ATOM     17  O   UNL A   1      29.812  23.947  27.145  1.00  0.00    -0.269 OA
BRANCH  15  18
ATOM     18  C   UNL A   1      31.169  24.548  25.358  1.00  0.00     0.048 A 
ATOM     19  C   UNL A   1      30.611  24.059  24.164  1.00  0.00     0.014 A 
ATOM     20  C   UNL A   1      32.000  25.710  25.359  1.00  0.00    -0.006 A 
ATOM     21  C   UNL A   1      30.883  24.683  22.955  1.00  0.00     0.001 A 
ATOM     22  C   UNL A   1      32.296  26.302  24.102  1.00  0.00    -0.018 A 
ATOM     23  C   UNL A   1      32.535  26.346  26.509  1.00  0.00     0.009 A 
ATOM     24  C   UNL A   1      31.745  25.775  22.924  1.00  0.00     0.009 A 
ATOM     25  C   UNL A   1      33.125  27.434  24.025  1.00  0.00     0.009 A 
ATOM     26  C   UNL A   1      33.284  27.526  26.419  1.00  0.00     0.001 A 
ATOM     27  C   UNL A   1      33.597  28.058  25.177  1.00  0.00     0.001 A 
ENDBRANCH  15  18
ENDBRANCH  13  14
ENDBRANCH   7   8
ENDBRANCH   6   7
ENDBRANCH   4   6
ENDBRANCH   3   4
ENDBRANCH   2   3
ENDBRANCH   1   2
BRANCH   1  28
ATOM     28  O   UNL A   1      42.922  21.612  25.590  1.00  0.00    -0.374 OA
BRANCH  28  29
ATOM     29  C   UNL A   1      44.155  22.195  26.022  1.00  0.00     0.202 C 
BRANCH  29  30
ATOM     30  C   UNL A   1      44.224  23.725  26.011  1.00  0.00     0.261 C 
BRANCH  30  31
ATOM     31  O   UNL A   1      43.073  24.305  26.642  1.00  0.00    -0.460 OA
BRANCH  31  32
ATOM     32  C   UNL A   1      42.669  25.493  26.124  1.00  0.00     0.338 C 
ATOM     33  O   UNL A   1      42.523  25.772  24.950  1.00  0.00    -0.246 OA
BRANCH  32  34
ATOM     34  C   UNL A   1      42.177  26.338  27.232  1.00  0.00     0.060 A 
ATOM     35  C   UNL A   1      42.743  27.614  27.382  1.00  0.00     0.016 A 
ATOM     36  C   UNL A   1      41.174  25.898  28.095  1.00  0.00     0.016 A 
ATOM     37  C   UNL A   1      42.334  28.438  28.425  1.00  0.00     0.010 A 
ATOM     38  C   UNL A   1      40.776  26.717  29.150  1.00  0.00     0.010 A 
ATOM     39  C   UNL A   1      41.378  27.975  29.337  1.00  0.00    -0.014 A 
BRANCH  39  40
ATOM     40  C   UNL A   1      41.121  28.733  30.581  1.00  0.00     0.031 A 
ATOM     41  C   UNL A   1      39.997  29.731  30.588  1.00  0.00     0.074 A 
ATOM     42  C   UNL A   1      41.875  28.529  31.675  1.00  0.00     0.049 A 
ATOM     43  N   UNL A   1      39.638  30.565  31.526  1.00  0.00    -0.248 NA
ATOM     44  C   UNL A   1      39.170  29.801  29.370  1.00  0.00     0.031 C 
ATOM     45  C   UNL A   1      42.966  27.560  31.781  1.00  0.00     0.029 A 
ATOM     46  N   UNL A   1      41.846  29.140  32.902  1.00  0.00    -0.354 N 
ATOM     47  C   UNL A   1      38.557  31.269  31.009  1.00  0.00     0.074 A 
ATOM     48  C   UNL A   1      38.332  30.782  29.666  1.00  0.00     0.031 C 
ATOM     49  C   UNL A   1      43.516  27.658  33.003  1.00  0.00     0.029 A 
ATOM     50  C   UNL A   1      42.844  28.719  33.748  1.00  0.00     0.049 A 
ATOM     51  H   UNL A   1      41.176  29.816  33.152  1.00  0.00     0.167 HD
ATOM     52  C   UNL A   1      37.817  32.231  31.608  1.00  0.00     0.037 A 
ATOM     53  C   UNL A   1      43.191  29.168  34.971  1.00  0.00     0.037 A 
ATOM     54  C   UNL A   1      38.052  32.698  32.950  1.00  0.00     0.049 A 
ATOM     55  C   UNL A   1      42.388  30.283  35.592  1.00  0.00     0.074 A 
ATOM     56  C   UNL A   1      37.344  33.647  33.666  1.00  0.00     0.029 A 
ATOM     57  N   UNL A   1      39.078  32.258  33.774  1.00  0.00    -0.354 N 
ATOM     58  N   UNL A   1      41.347  30.919  35.108  1.00  0.00    -0.248 NA
ATOM     59  C   UNL A   1      42.806  30.741  36.923  1.00  0.00     0.031 C 
ATOM     60  C   UNL A   1      37.978  33.824  34.898  1.00  0.00     0.029 A 
ATOM     61  C   UNL A   1      39.041  32.939  34.979  1.00  0.00     0.049 A 
ATOM     62  H   UNL A   1      39.735  31.564  33.536  1.00  0.00     0.167 HD
ATOM     63  C   UNL A   1      40.967  31.831  36.088  1.00  0.00     0.074 A 
ATOM     64  C   UNL A   1      41.880  31.651  37.197  1.00  0.00     0.031 C 
ATOM     65  C   UNL A   1      39.956  32.736  36.074  1.00  0.00     0.037 A 
BRANCH  52  66
ATOM     66  C   UNL A   1      36.703  32.862  30.820  1.00  0.00     0.058 A 
ATOM     67  C   UNL A   1      35.357  32.532  31.043  1.00  0.00     0.135 A 
ATOM     68  C   UNL A   1      36.984  33.859  29.873  1.00  0.00     0.135 A 
ATOM     69  F   UNL A   1      35.032  31.568  31.920  1.00  0.00    -0.206 F 
ATOM     70  C   UNL A   1      34.329  33.166  30.352  1.00  0.00     0.059 A 
ATOM     71  C   UNL A   1      35.972  34.526  29.190  1.00  0.00     0.059 A 
ATOM     72  F   UNL A   1      38.255  34.206  29.613  1.00  0.00    -0.206 F 
ATOM     73  C   UNL A   1      34.646  34.169  29.434  1.00  0.00     0.060 A 
BRANCH  73  74
ATOM     74  S   UNL A   1      33.298  35.011  28.579  1.00  0.00     0.124 S 
ATOM     75  O   UNL A   1      34.023  36.019  27.812  1.00  0.00    -0.237 OA
ATOM     76  O   UNL A   1      32.702  33.930  27.801  1.00  0.00    -0.237 OA
ATOM     77  O   UNL A   1      32.473  35.526  29.668  1.00  0.00    -0.744 OA
ENDBRANCH  73  74
ENDBRANCH  52  66
BRANCH  53  78
ATOM     78  C   UNL A   1      44.363  28.586  35.679  1.00  0.00     0.058 A 
ATOM     79  C   UNL A   1      44.211  27.532  36.593  1.00  0.00     0.135 A 
ATOM     80  C   UNL A   1      45.658  29.088  35.473  1.00  0.00     0.135 A 
ATOM     81  F   UNL A   1      42.994  27.023  36.832  1.00  0.00    -0.206 F 
ATOM     82  C   UNL A   1      45.294  27.016  37.297  1.00  0.00     0.059 A 
ATOM     83  C   UNL A   1      46.762  28.567  36.142  1.00  0.00     0.059 A 
ATOM     84  F   UNL A   1      45.863  30.086  34.600  1.00  0.00    -0.206 F 
ATOM     85  C   UNL A   1      46.567  27.541  37.064  1.00  0.00     0.060 A 
BRANCH  85  86
ATOM     86  S   UNL A   1      47.968  26.846  37.965  1.00  0.00     0.124 S 
ATOM     87  O   UNL A   1      48.771  28.036  38.221  1.00  0.00    -0.237 OA
ATOM     88  O   UNL A   1      47.318  26.250  39.128  1.00  0.00    -0.237 OA
ATOM     89  O   UNL A   1      48.536  25.892  37.018  1.00  0.00    -0.744 OA
ENDBRANCH  85  86
ENDBRANCH  53  78
BRANCH  65  90
ATOM     90  C   UNL A   1      39.758  33.573  37.309  1.00  0.00     0.058 A 
ATOM     91  C   UNL A   1      40.468  34.765  37.517  1.00  0.00     0.135 A 
ATOM     92  C   UNL A   1      38.805  33.201  38.271  1.00  0.00     0.135 A 
ATOM     93  F   UNL A   1      41.394  35.164  36.631  1.00  0.00    -0.206 F 
ATOM     94  C   UNL A   1      40.260  35.546  38.650  1.00  0.00     0.059 A 
ATOM     95  C   UNL A   1      38.556  33.983  39.394  1.00  0.00     0.059 A 
ATOM     96  F   UNL A   1      38.088  32.077  38.115  1.00  0.00    -0.206 F 
ATOM     97  C   UNL A   1      39.299  35.148  39.581  1.00  0.00     0.060 A 
BRANCH  97  98
ATOM     98  S   UNL A   1      39.019  36.186  41.030  1.00  0.00     0.124 S 
ATOM     99  O   UNL A   1      40.330  36.155  41.673  1.00  0.00    -0.237 OA
ATOM    100  O   UNL A   1      38.637  37.461  40.431  1.00  0.00    -0.237 OA
ATOM    101  O   UNL A   1      37.953  35.493  41.746  1.00  0.00    -0.744 OA
ENDBRANCH  97  98
ENDBRANCH  65  90
ENDBRANCH  39  40
ENDBRANCH  32  34
ENDBRANCH  31  32
ENDBRANCH  30  31
ENDBRANCH  29  30
ENDBRANCH  28  29
ENDBRANCH   1  28
TORSDOF 21
ENDMDL
