MODEL 1
REMARK VINA RESULT:     -10.7      0.000      0.000
REMARK SMILES Cc1cccc(NC(=O)C[C@H]([NH2+]C(C)C)C(=O)OCCOCCOC(=O)c2ccc(-c3c4nc(c(-c5c(F)cc(S(=O)(=O)[O-])cc5F)c5ccc([nH]5)c(-c5c(F)cc(S(=O)(=O)[O-])cc5F)c5nc(c(-c6c(F)cc(S(=O)(=O)[O-])cc6F)c6ccc3[nH]6)C=C5)C=C4)cc2)c1
REMARK SMILES IDX 21 1 20 2 19 3 18 4 16 5 17 6 11 7 10 8 8 9 7 10 9 12 6 13
REMARK SMILES IDX 1 14 2 15 3 16 93 17 4 18 5 19 12 20 13 23 14 24 15 25 22 26
REMARK SMILES IDX 23 27 24 28 25 29 26 30 27 31 28 32 92 33 29 34 91 35 30 36
REMARK SMILES IDX 31 37 32 38 85 39 33 40 90 41 84 42 86 43 34 44 89 45 83 46
REMARK SMILES IDX 82 47 35 49 69 50 48 51 68 52 49 53 52 54 67 55 87 56 50 57
REMARK SMILES IDX 51 58 66 60 88 61 53 62 36 63 37 64 46 65 38 66 39 67 45 68
REMARK SMILES IDX 47 69 40 70 41 71 42 72 43 73 44 74 70 75 71 76 80 77 72 78
REMARK SMILES IDX 73 79 79 80 81 81 74 82 75 83 76 84 77 85 78 86 54 87 55 88
REMARK SMILES IDX 64 89 56 90 57 91 63 92 65 93 58 94 59 95 60 96 61 97 62 98
REMARK H PARENT 7 11 12 21 12 22 86 48 52 59
REMARK Flexibility Score: inf
ROOT
ATOM      1  O   UNL A   1      33.909  31.052  28.436  1.00  0.00    -0.374 OA
ENDROOT
BRANCH   1   2
ATOM      2  C   UNL A   1      34.122  30.596  27.127  1.00  0.00     0.202 C 
BRANCH   2   3
ATOM      3  C   UNL A   1      33.192  29.478  27.122  1.00  0.00     0.261 C 
BRANCH   3   4
ATOM      4  O   UNL A   1      32.979  29.240  25.768  1.00  0.00    -0.459 OA
BRANCH   4   5
ATOM      5  C   UNL A   1      31.936  29.757  25.094  1.00  0.00     0.365 C 
ATOM      6  O   UNL A   1      31.180  30.644  25.446  1.00  0.00    -0.245 OA
BRANCH   5   7
ATOM      7  C   UNL A   1      31.864  28.875  23.839  1.00  0.00     0.303 C 
BRANCH   7   8
ATOM      8  C   UNL A   1      33.307  28.446  23.422  1.00  0.00     0.177 C 
BRANCH   8   9
ATOM      9  C   UNL A   1      33.284  27.306  22.414  1.00  0.00     0.231 C 
ATOM     10  N   UNL A   1      32.655  26.042  22.309  1.00  0.00    -0.326 N 
ATOM     11  H   UNL A   1      32.506  25.817  21.362  1.00  0.00     0.169 HD
ATOM     12  O   UNL A   1      33.906  27.645  21.379  1.00  0.00    -0.274 OA
BRANCH  10  13
ATOM     13  C   UNL A   1      32.174  25.003  23.135  1.00  0.00     0.041 A 
ATOM     14  C   UNL A   1      30.391  23.008  26.824  1.00  0.00     0.044 C 
ATOM     15  C   UNL A   1      30.844  22.975  25.391  1.00  0.00    -0.049 A 
ATOM     16  C   UNL A   1      31.730  21.735  24.590  1.00  0.00     0.003 A 
ATOM     17  C   UNL A   1      30.981  24.618  24.769  1.00  0.00     0.029 A 
ATOM     18  C   UNL A   1      32.738  21.994  23.167  1.00  0.00     0.002 A 
ATOM     19  C   UNL A   1      32.970  23.550  22.428  1.00  0.00     0.026 A 
ENDBRANCH  10  13
ENDBRANCH   8   9
ENDBRANCH   7   8
BRANCH   7  20
ATOM     20  N   UNL A   1      31.114  29.480  22.672  1.00  0.00    -0.332 N 
ATOM     21  H   UNL A   1      31.336  28.932  21.840  1.00  0.00     0.347 HD
ATOM     22  H   UNL A   1      31.420  30.452  22.618  1.00  0.00     0.347 HD
BRANCH  20  23
ATOM     23  C   UNL A   1      29.640  29.523  22.812  1.00  0.00     0.176 C 
ATOM     24  C   UNL A   1      28.948  30.111  21.592  1.00  0.00     0.075 C 
ATOM     25  C   UNL A   1      29.085  28.113  23.066  1.00  0.00     0.075 C 
ENDBRANCH  20  23
ENDBRANCH   7  20
ENDBRANCH   5   7
ENDBRANCH   4   5
ENDBRANCH   3   4
ENDBRANCH   2   3
ENDBRANCH   1   2
BRANCH   1  26
ATOM     26  C   UNL A   1      34.440  32.301  28.680  1.00  0.00     0.202 C 
BRANCH  26  27
ATOM     27  C   UNL A   1      35.811  32.454  28.043  1.00  0.00     0.261 C 
BRANCH  27  28
ATOM     28  O   UNL A   1      36.924  31.590  28.550  1.00  0.00    -0.460 OA
BRANCH  28  29
ATOM     29  C   UNL A   1      37.147  30.572  29.456  1.00  0.00     0.338 C 
ATOM     30  O   UNL A   1      36.267  30.310  30.277  1.00  0.00    -0.246 OA
BRANCH  29  31
ATOM     31  C   UNL A   1      38.282  29.562  29.325  1.00  0.00     0.060 A 
ATOM     32  C   UNL A   1      38.844  28.847  30.399  1.00  0.00     0.016 A 
ATOM     33  C   UNL A   1      38.883  29.323  28.115  1.00  0.00     0.016 A 
ATOM     34  C   UNL A   1      40.127  28.194  30.290  1.00  0.00     0.010 A 
ATOM     35  C   UNL A   1      40.241  28.924  28.093  1.00  0.00     0.010 A 
ATOM     36  C   UNL A   1      40.973  28.463  29.215  1.00  0.00    -0.014 A 
BRANCH  36  37
ATOM     37  C   UNL A   1      42.382  27.909  28.911  1.00  0.00     0.031 A 
ATOM     38  C   UNL A   1      43.257  29.090  28.757  1.00  0.00     0.074 A 
ATOM     39  C   UNL A   1      42.937  26.626  28.901  1.00  0.00     0.049 A 
ATOM     40  N   UNL A   1      44.429  29.080  28.259  1.00  0.00    -0.248 NA
ATOM     41  C   UNL A   1      42.855  30.475  29.081  1.00  0.00     0.031 C 
ATOM     42  C   UNL A   1      44.243  25.966  29.222  1.00  0.00     0.029 A 
ATOM     43  N   UNL A   1      42.303  25.417  28.794  1.00  0.00    -0.354 N 
ATOM     44  C   UNL A   1      45.050  30.153  28.856  1.00  0.00     0.074 A 
ATOM     45  C   UNL A   1      44.018  31.112  29.077  1.00  0.00     0.031 C 
ATOM     46  C   UNL A   1      44.300  24.628  28.869  1.00  0.00     0.029 A 
ATOM     47  C   UNL A   1      42.996  24.276  28.327  1.00  0.00     0.049 A 
ATOM     48  H   UNL A   1      41.353  25.342  29.045  1.00  0.00     0.167 HD
ATOM     49  C   UNL A   1      46.295  29.944  29.357  1.00  0.00     0.037 A 
ATOM     50  C   UNL A   1      42.522  23.442  27.343  1.00  0.00     0.037 A 
ATOM     51  C   UNL A   1      46.715  28.549  29.060  1.00  0.00     0.049 A 
ATOM     52  C   UNL A   1      43.562  23.992  26.289  1.00  0.00     0.074 A 
ATOM     53  C   UNL A   1      47.029  27.440  29.821  1.00  0.00     0.029 A 
ATOM     54  N   UNL A   1      46.514  28.055  27.765  1.00  0.00    -0.354 N 
ATOM     55  N   UNL A   1      44.067  25.216  26.361  1.00  0.00    -0.248 NA
ATOM     56  C   UNL A   1      44.406  23.123  25.455  1.00  0.00     0.031 C 
ATOM     57  C   UNL A   1      47.065  26.297  28.940  1.00  0.00     0.029 A 
ATOM     58  C   UNL A   1      46.581  26.674  27.683  1.00  0.00     0.049 A 
ATOM     59  H   UNL A   1      46.342  28.633  26.987  1.00  0.00     0.167 HD
ATOM     60  C   UNL A   1      45.396  25.161  26.022  1.00  0.00     0.074 A 
ATOM     61  C   UNL A   1      45.519  23.872  25.336  1.00  0.00     0.031 C 
ATOM     62  C   UNL A   1      46.404  26.033  26.368  1.00  0.00     0.037 A 
BRANCH  49  63
ATOM     63  C   UNL A   1      47.065  30.903  30.248  1.00  0.00     0.058 A 
ATOM     64  C   UNL A   1      48.235  31.496  29.736  1.00  0.00     0.135 A 
ATOM     65  C   UNL A   1      46.722  31.341  31.553  1.00  0.00     0.135 A 
ATOM     66  F   UNL A   1      48.714  31.175  28.528  1.00  0.00    -0.206 F 
ATOM     67  C   UNL A   1      48.964  32.466  30.421  1.00  0.00     0.059 A 
ATOM     68  C   UNL A   1      47.430  32.323  32.254  1.00  0.00     0.059 A 
ATOM     69  F   UNL A   1      45.685  30.858  32.239  1.00  0.00    -0.206 F 
ATOM     70  C   UNL A   1      48.542  32.896  31.669  1.00  0.00     0.060 A 
BRANCH  70  71
ATOM     71  S   UNL A   1      49.438  34.232  32.469  1.00  0.00     0.124 S 
ATOM     72  O   UNL A   1      49.402  35.275  31.448  1.00  0.00    -0.237 OA
ATOM     73  O   UNL A   1      48.622  34.475  33.655  1.00  0.00    -0.237 OA
ATOM     74  O   UNL A   1      50.756  33.659  32.727  1.00  0.00    -0.744 OA
ENDBRANCH  70  71
ENDBRANCH  49  63
BRANCH  50  75
ATOM     75  C   UNL A   1      40.895  23.493  27.348  1.00  0.00     0.058 A 
ATOM     76  C   UNL A   1      39.674  24.767  26.738  1.00  0.00     0.135 A 
ATOM     77  C   UNL A   1      40.477  21.803  27.091  1.00  0.00     0.135 A 
ATOM     78  F   UNL A   1      40.067  26.045  26.892  1.00  0.00    -0.206 F 
ATOM     79  C   UNL A   1      38.069  24.049  25.637  1.00  0.00     0.059 A 
ATOM     80  C   UNL A   1      39.132  21.246  26.118  1.00  0.00     0.059 A 
ATOM     81  F   UNL A   1      41.014  20.909  27.950  1.00  0.00    -0.206 F 
ATOM     82  C   UNL A   1      37.961  22.282  25.369  1.00  0.00     0.060 A 
BRANCH  82  83
ATOM     83  S   UNL A   1      36.303  21.588  25.150  1.00  0.00     0.124 S 
ATOM     84  O   UNL A   1      35.884  22.167  23.880  1.00  0.00    -0.237 OA
ATOM     85  O   UNL A   1      36.580  20.158  25.129  1.00  0.00    -0.237 OA
ATOM     86  O   UNL A   1      35.594  22.095  26.321  1.00  0.00    -0.744 OA
ENDBRANCH  82  83
ENDBRANCH  50  75
BRANCH  62  87
ATOM     87  C   UNL A   1      47.341  26.456  25.277  1.00  0.00     0.058 A 
ATOM     88  C   UNL A   1      46.954  27.353  24.270  1.00  0.00     0.135 A 
ATOM     89  C   UNL A   1      48.711  26.101  25.306  1.00  0.00     0.135 A 
ATOM     90  F   UNL A   1      45.756  27.954  24.255  1.00  0.00    -0.206 F 
ATOM     91  C   UNL A   1      47.800  27.689  23.240  1.00  0.00     0.059 A 
ATOM     92  C   UNL A   1      49.610  26.552  24.364  1.00  0.00     0.059 A 
ATOM     93  F   UNL A   1      49.243  25.313  26.251  1.00  0.00    -0.206 F 
ATOM     94  C   UNL A   1      49.121  27.274  23.293  1.00  0.00     0.060 A 
BRANCH  94  95
ATOM     95  S   UNL A   1      50.179  27.679  21.919  1.00  0.00     0.124 S 
ATOM     96  O   UNL A   1      49.199  27.797  20.842  1.00  0.00    -0.237 OA
ATOM     97  O   UNL A   1      50.792  28.928  22.359  1.00  0.00    -0.237 OA
ATOM     98  O   UNL A   1      51.079  26.534  21.834  1.00  0.00    -0.744 OA
ENDBRANCH  94  95
ENDBRANCH  62  87
ENDBRANCH  36  37
ENDBRANCH  29  31
ENDBRANCH  28  29
ENDBRANCH  27  28
ENDBRANCH  26  27
ENDBRANCH   1  26
TORSDOF 22
ENDMDL
MODEL 2
REMARK VINA RESULT:     -10.6      4.844     10.305
REMARK SMILES Cc1cccc(NC(=O)C[C@H]([NH2+]C(C)C)C(=O)OCCOCCOC(=O)c2ccc(-c3c4nc(c(-c5c(F)cc(S(=O)(=O)[O-])cc5F)c5ccc([nH]5)c(-c5c(F)cc(S(=O)(=O)[O-])cc5F)c5nc(c(-c6c(F)cc(S(=O)(=O)[O-])cc6F)c6ccc3[nH]6)C=C5)C=C4)cc2)c1
REMARK SMILES IDX 21 1 20 2 19 3 18 4 16 5 17 6 11 7 10 8 8 9 7 10 9 12 6 13
REMARK SMILES IDX 1 14 2 15 3 16 93 17 4 18 5 19 12 20 13 23 14 24 15 25 22 26
REMARK SMILES IDX 23 27 24 28 25 29 26 30 27 31 28 32 92 33 29 34 91 35 30 36
REMARK SMILES IDX 31 37 32 38 85 39 33 40 90 41 84 42 86 43 34 44 89 45 83 46
REMARK SMILES IDX 82 47 35 49 69 50 48 51 68 52 49 53 52 54 67 55 87 56 50 57
REMARK SMILES IDX 51 58 66 60 88 61 53 62 36 63 37 64 46 65 38 66 39 67 45 68
REMARK SMILES IDX 47 69 40 70 41 71 42 72 43 73 44 74 70 75 71 76 80 77 72 78
REMARK SMILES IDX 73 79 79 80 81 81 74 82 75 83 76 84 77 85 78 86 54 87 55 88
REMARK SMILES IDX 64 89 56 90 57 91 63 92 65 93 58 94 59 95 60 96 61 97 62 98
REMARK H PARENT 7 11 12 21 12 22 86 48 52 59
REMARK Flexibility Score: inf
ROOT
ATOM      1  O   UNL A   1      39.187  21.239  26.101  1.00  0.00    -0.374 OA
ENDROOT
BRANCH   1   2
ATOM      2  C   UNL A   1      38.161  20.949  25.191  1.00  0.00     0.202 C 
BRANCH   2   3
ATOM      3  C   UNL A   1      37.130  21.827  25.722  1.00  0.00     0.261 C 
BRANCH   3   4
ATOM      4  O   UNL A   1      35.948  21.254  25.262  1.00  0.00    -0.459 OA
BRANCH   4   5
ATOM      5  C   UNL A   1      35.101  21.897  24.440  1.00  0.00     0.365 C 
ATOM      6  O   UNL A   1      35.338  22.833  23.699  1.00  0.00    -0.245 OA
BRANCH   5   7
ATOM      7  C   UNL A   1      33.748  21.242  24.757  1.00  0.00     0.303 C 
BRANCH   7   8
ATOM      8  C   UNL A   1      33.603  21.071  26.303  1.00  0.00     0.177 C 
BRANCH   8   9
ATOM      9  C   UNL A   1      33.116  22.350  26.966  1.00  0.00     0.231 C 
ATOM     10  N   UNL A   1      32.295  23.445  26.603  1.00  0.00    -0.326 N 
ATOM     11  H   UNL A   1      31.847  23.810  27.401  1.00  0.00     0.169 HD
ATOM     12  O   UNL A   1      33.459  22.358  28.173  1.00  0.00    -0.274 OA
BRANCH  10  13
ATOM     13  C   UNL A   1      31.916  24.178  25.457  1.00  0.00     0.041 A 
ATOM     14  C   UNL A   1      32.363  26.303  21.451  1.00  0.00     0.044 C 
ATOM     15  C   UNL A   1      31.524  25.748  22.567  1.00  0.00    -0.049 A 
ATOM     16  C   UNL A   1      30.140  26.461  23.305  1.00  0.00     0.003 A 
ATOM     17  C   UNL A   1      32.474  24.612  23.523  1.00  0.00     0.029 A 
ATOM     18  C   UNL A   1      29.591  26.103  24.942  1.00  0.00     0.002 A 
ATOM     19  C   UNL A   1      30.411  25.001  26.007  1.00  0.00     0.026 A 
ENDBRANCH  10  13
ENDBRANCH   8   9
ENDBRANCH   7   8
BRANCH   7  20
ATOM     20  N   UNL A   1      33.483  19.938  24.036  1.00  0.00    -0.332 N 
ATOM     21  H   UNL A   1      34.131  19.878  23.249  1.00  0.00     0.347 HD
ATOM     22  H   UNL A   1      32.502  19.966  23.760  1.00  0.00     0.347 HD
BRANCH  20  23
ATOM     23  C   UNL A   1      33.642  18.712  24.853  1.00  0.00     0.176 C 
ATOM     24  C   UNL A   1      32.440  17.784  24.767  1.00  0.00     0.075 C 
ATOM     25  C   UNL A   1      34.897  17.939  24.421  1.00  0.00     0.075 C 
ENDBRANCH  20  23
ENDBRANCH   7  20
ENDBRANCH   5   7
ENDBRANCH   4   5
ENDBRANCH   3   4
ENDBRANCH   2   3
ENDBRANCH   1   2
BRANCH   1  26
ATOM     26  C   UNL A   1      39.277  22.576  26.426  1.00  0.00     0.202 C 
BRANCH  26  27
ATOM     27  C   UNL A   1      40.450  22.842  27.354  1.00  0.00     0.261 C 
BRANCH  27  28
ATOM     28  O   UNL A   1      40.987  24.237  27.429  1.00  0.00    -0.460 OA
BRANCH  28  29
ATOM     29  C   UNL A   1      40.957  25.424  26.723  1.00  0.00     0.338 C 
ATOM     30  O   UNL A   1      41.005  25.380  25.493  1.00  0.00    -0.246 OA
BRANCH  29  31
ATOM     31  C   UNL A   1      40.577  26.763  27.345  1.00  0.00     0.060 A 
ATOM     32  C   UNL A   1      41.083  28.010  26.930  1.00  0.00     0.016 A 
ATOM     33  C   UNL A   1      39.731  26.831  28.423  1.00  0.00     0.016 A 
ATOM     34  C   UNL A   1      40.984  29.185  27.762  1.00  0.00     0.010 A 
ATOM     35  C   UNL A   1      39.874  27.900  29.339  1.00  0.00     0.010 A 
ATOM     36  C   UNL A   1      40.623  29.080  29.104  1.00  0.00    -0.014 A 
BRANCH  36  37
ATOM     37  C   UNL A   1      40.482  30.184  30.174  1.00  0.00     0.031 A 
ATOM     38  C   UNL A   1      41.384  29.795  31.279  1.00  0.00     0.074 A 
ATOM     39  C   UNL A   1      39.832  31.421  30.210  1.00  0.00     0.049 A 
ATOM     40  N   UNL A   1      41.376  30.299  32.449  1.00  0.00    -0.248 NA
ATOM     41  C   UNL A   1      42.369  28.696  31.205  1.00  0.00     0.031 C 
ATOM     42  C   UNL A   1      40.038  32.780  30.803  1.00  0.00     0.029 A 
ATOM     43  N   UNL A   1      38.799  31.870  29.430  1.00  0.00    -0.354 N 
ATOM     44  C   UNL A   1      42.669  30.126  32.890  1.00  0.00     0.074 A 
ATOM     45  C   UNL A   1      43.121  28.922  32.275  1.00  0.00     0.031 C 
ATOM     46  C   UNL A   1      38.957  33.633  30.649  1.00  0.00     0.029 A 
ATOM     47  C   UNL A   1      37.954  32.911  29.880  1.00  0.00     0.049 A 
ATOM     48  H   UNL A   1      38.643  31.463  28.547  1.00  0.00     0.167 HD
ATOM     49  C   UNL A   1      43.270  31.198  33.469  1.00  0.00     0.037 A 
ATOM     50  C   UNL A   1      36.581  32.850  29.850  1.00  0.00     0.037 A 
ATOM     51  C   UNL A   1      42.303  32.325  33.537  1.00  0.00     0.049 A 
ATOM     52  C   UNL A   1      36.492  32.664  31.415  1.00  0.00     0.074 A 
ATOM     53  C   UNL A   1      42.240  33.593  32.992  1.00  0.00     0.029 A 
ATOM     54  N   UNL A   1      41.006  32.063  33.996  1.00  0.00    -0.354 N 
ATOM     55  N   UNL A   1      37.470  32.114  32.122  1.00  0.00    -0.248 NA
ATOM     56  C   UNL A   1      35.602  33.458  32.276  1.00  0.00     0.031 C 
ATOM     57  C   UNL A   1      40.899  34.091  33.190  1.00  0.00     0.029 A 
ATOM     58  C   UNL A   1      40.095  33.055  33.677  1.00  0.00     0.049 A 
ATOM     59  H   UNL A   1      40.765  31.251  34.497  1.00  0.00     0.167 HD
ATOM     60  C   UNL A   1      37.594  32.802  33.304  1.00  0.00     0.074 A 
ATOM     61  C   UNL A   1      36.328  33.530  33.409  1.00  0.00     0.031 C 
ATOM     62  C   UNL A   1      38.698  32.904  34.122  1.00  0.00     0.037 A 
BRANCH  49  63
ATOM     63  C   UNL A   1      44.745  31.307  33.814  1.00  0.00     0.058 A 
ATOM     64  C   UNL A   1      45.589  31.999  32.925  1.00  0.00     0.135 A 
ATOM     65  C   UNL A   1      45.401  30.836  34.980  1.00  0.00     0.135 A 
ATOM     66  F   UNL A   1      45.136  32.488  31.764  1.00  0.00    -0.206 F 
ATOM     67  C   UNL A   1      46.935  32.251  33.185  1.00  0.00     0.059 A 
ATOM     68  C   UNL A   1      46.746  31.088  35.270  1.00  0.00     0.059 A 
ATOM     69  F   UNL A   1      44.795  30.106  35.918  1.00  0.00    -0.206 F 
ATOM     70  C   UNL A   1      47.502  31.816  34.372  1.00  0.00     0.060 A 
BRANCH  70  71
ATOM     71  S   UNL A   1      49.206  32.263  34.728  1.00  0.00     0.124 S 
ATOM     72  O   UNL A   1      49.181  32.418  36.180  1.00  0.00    -0.237 OA
ATOM     73  O   UNL A   1      49.933  31.102  34.226  1.00  0.00    -0.237 OA
ATOM     74  O   UNL A   1      49.404  33.496  33.973  1.00  0.00    -0.744 OA
ENDBRANCH  70  71
ENDBRANCH  49  63
BRANCH  50  75
ATOM     75  C   UNL A   1      36.126  31.862  28.639  1.00  0.00     0.058 A 
ATOM     76  C   UNL A   1      36.047  30.002  28.495  1.00  0.00     0.135 A 
ATOM     77  C   UNL A   1      34.815  32.774  27.899  1.00  0.00     0.135 A 
ATOM     78  F   UNL A   1      37.030  29.344  29.136  1.00  0.00    -0.206 F 
ATOM     79  C   UNL A   1      34.315  29.216  27.667  1.00  0.00     0.059 A 
ATOM     80  C   UNL A   1      33.352  32.066  27.248  1.00  0.00     0.059 A 
ATOM     81  F   UNL A   1      35.098  34.038  27.515  1.00  0.00    -0.206 F 
ATOM     82  C   UNL A   1      33.044  30.363  27.139  1.00  0.00     0.060 A 
BRANCH  82  83
ATOM     83  S   UNL A   1      31.973  29.828  25.781  1.00  0.00     0.124 S 
ATOM     84  O   UNL A   1      31.375  28.609  26.311  1.00  0.00    -0.237 OA
ATOM     85  O   UNL A   1      31.072  30.966  25.648  1.00  0.00    -0.237 OA
ATOM     86  O   UNL A   1      32.925  29.625  24.693  1.00  0.00    -0.744 OA
ENDBRANCH  82  83
ENDBRANCH  50  75
BRANCH  62  87
ATOM     87  C   UNL A   1      38.471  32.732  35.593  1.00  0.00     0.058 A 
ATOM     88  C   UNL A   1      38.475  33.820  36.479  1.00  0.00     0.135 A 
ATOM     89  C   UNL A   1      38.076  31.485  36.136  1.00  0.00     0.135 A 
ATOM     90  F   UNL A   1      38.601  35.090  36.067  1.00  0.00    -0.206 F 
ATOM     91  C   UNL A   1      38.326  33.647  37.835  1.00  0.00     0.059 A 
ATOM     92  C   UNL A   1      37.774  31.323  37.470  1.00  0.00     0.059 A 
ATOM     93  F   UNL A   1      37.952  30.373  35.398  1.00  0.00    -0.206 F 
ATOM     94  C   UNL A   1      37.987  32.393  38.319  1.00  0.00     0.060 A 
BRANCH  94  95
ATOM     95  S   UNL A   1      37.853  32.187  40.082  1.00  0.00     0.124 S 
ATOM     96  O   UNL A   1      39.227  32.459  40.496  1.00  0.00    -0.237 OA
ATOM     97  O   UNL A   1      36.870  33.205  40.438  1.00  0.00    -0.237 OA
ATOM     98  O   UNL A   1      37.407  30.806  40.229  1.00  0.00    -0.744 OA
ENDBRANCH  94  95
ENDBRANCH  62  87
ENDBRANCH  36  37
ENDBRANCH  29  31
ENDBRANCH  28  29
ENDBRANCH  27  28
ENDBRANCH  26  27
ENDBRANCH   1  26
TORSDOF 22
ENDMDL
MODEL 3
REMARK VINA RESULT:     -10.5      5.406     10.468
REMARK SMILES Cc1cccc(NC(=O)C[C@H]([NH2+]C(C)C)C(=O)OCCOCCOC(=O)c2ccc(-c3c4nc(c(-c5c(F)cc(S(=O)(=O)[O-])cc5F)c5ccc([nH]5)c(-c5c(F)cc(S(=O)(=O)[O-])cc5F)c5nc(c(-c6c(F)cc(S(=O)(=O)[O-])cc6F)c6ccc3[nH]6)C=C5)C=C4)cc2)c1
REMARK SMILES IDX 21 1 20 2 19 3 18 4 16 5 17 6 11 7 10 8 8 9 7 10 9 12 6 13
REMARK SMILES IDX 1 14 2 15 3 16 93 17 4 18 5 19 12 20 13 23 14 24 15 25 22 26
REMARK SMILES IDX 23 27 24 28 25 29 26 30 27 31 28 32 92 33 29 34 91 35 30 36
REMARK SMILES IDX 31 37 32 38 85 39 33 40 90 41 84 42 86 43 34 44 89 45 83 46
REMARK SMILES IDX 82 47 35 49 69 50 48 51 68 52 49 53 52 54 67 55 87 56 50 57
REMARK SMILES IDX 51 58 66 60 88 61 53 62 36 63 37 64 46 65 38 66 39 67 45 68
REMARK SMILES IDX 47 69 40 70 41 71 42 72 43 73 44 74 70 75 71 76 80 77 72 78
REMARK SMILES IDX 73 79 79 80 81 81 74 82 75 83 76 84 77 85 78 86 54 87 55 88
REMARK SMILES IDX 64 89 56 90 57 91 63 92 65 93 58 94 59 95 60 96 61 97 62 98
REMARK H PARENT 7 11 12 21 12 22 86 48 52 59
REMARK Flexibility Score: inf
ROOT
ATOM      1  O   UNL A   1      36.638  21.862  25.988  1.00  0.00    -0.374 OA
ENDROOT
BRANCH   1   2
ATOM      2  C   UNL A   1      36.218  20.736  25.267  1.00  0.00     0.202 C 
BRANCH   2   3
ATOM      3  C   UNL A   1      35.253  21.375  24.387  1.00  0.00     0.261 C 
BRANCH   3   4
ATOM      4  O   UNL A   1      34.065  21.315  25.110  1.00  0.00    -0.459 OA
BRANCH   4   5
ATOM      5  C   UNL A   1      32.856  21.438  24.533  1.00  0.00     0.365 C 
ATOM      6  O   UNL A   1      32.279  20.637  23.821  1.00  0.00    -0.245 OA
BRANCH   5   7
ATOM      7  C   UNL A   1      32.446  22.873  24.895  1.00  0.00     0.303 C 
BRANCH   7   8
ATOM      8  C   UNL A   1      30.919  22.909  25.226  1.00  0.00     0.177 C 
BRANCH   8   9
ATOM      9  C   UNL A   1      30.629  23.772  26.445  1.00  0.00     0.231 C 
ATOM     10  N   UNL A   1      30.364  25.141  26.694  1.00  0.00    -0.326 N 
ATOM     11  H   UNL A   1      29.787  25.233  27.486  1.00  0.00     0.169 HD
ATOM     12  O   UNL A   1      30.494  23.042  27.456  1.00  0.00    -0.274 OA
BRANCH  10  13
ATOM     13  C   UNL A   1      30.668  26.413  26.163  1.00  0.00     0.041 A 
ATOM     14  C   UNL A   1      31.868  30.808  26.122  1.00  0.00     0.044 C 
ATOM     15  C   UNL A   1      31.575  29.511  25.422  1.00  0.00    -0.049 A 
ATOM     16  C   UNL A   1      30.687  29.271  23.966  1.00  0.00     0.003 A 
ATOM     17  C   UNL A   1      31.638  28.181  26.577  1.00  0.00     0.029 A 
ATOM     18  C   UNL A   1      29.867  27.771  23.538  1.00  0.00     0.002 A 
ATOM     19  C   UNL A   1      29.842  26.367  24.562  1.00  0.00     0.026 A 
ENDBRANCH  10  13
ENDBRANCH   8   9
ENDBRANCH   7   8
BRANCH   7  20
ATOM     20  N   UNL A   1      32.807  23.922  23.866  1.00  0.00    -0.332 N 
ATOM     21  H   UNL A   1      31.967  24.467  23.666  1.00  0.00     0.347 HD
ATOM     22  H   UNL A   1      33.167  23.411  23.061  1.00  0.00     0.347 HD
BRANCH  20  23
ATOM     23  C   UNL A   1      33.879  24.864  24.264  1.00  0.00     0.176 C 
ATOM     24  C   UNL A   1      33.581  26.301  23.863  1.00  0.00     0.075 C 
ATOM     25  C   UNL A   1      34.104  24.810  25.783  1.00  0.00     0.075 C 
ENDBRANCH  20  23
ENDBRANCH   7  20
ENDBRANCH   5   7
ENDBRANCH   4   5
ENDBRANCH   3   4
ENDBRANCH   2   3
ENDBRANCH   1   2
BRANCH   1  26
ATOM     26  C   UNL A   1      37.409  22.735  25.251  1.00  0.00     0.202 C 
BRANCH  26  27
ATOM     27  C   UNL A   1      38.025  23.809  26.132  1.00  0.00     0.261 C 
BRANCH  27  28
ATOM     28  O   UNL A   1      39.439  23.625  26.584  1.00  0.00    -0.460 OA
BRANCH  28  29
ATOM     29  C   UNL A   1      40.253  23.910  27.663  1.00  0.00     0.338 C 
ATOM     30  O   UNL A   1      41.074  23.065  28.021  1.00  0.00    -0.246 OA
BRANCH  29  31
ATOM     31  C   UNL A   1      40.404  25.306  28.259  1.00  0.00     0.060 A 
ATOM     32  C   UNL A   1      41.636  25.934  28.522  1.00  0.00     0.016 A 
ATOM     33  C   UNL A   1      39.308  26.037  28.640  1.00  0.00     0.016 A 
ATOM     34  C   UNL A   1      41.736  27.073  29.403  1.00  0.00     0.010 A 
ATOM     35  C   UNL A   1      39.439  26.966  29.700  1.00  0.00     0.010 A 
ATOM     36  C   UNL A   1      40.670  27.432  30.226  1.00  0.00    -0.014 A 
BRANCH  36  37
ATOM     37  C   UNL A   1      40.564  28.580  31.253  1.00  0.00     0.031 A 
ATOM     38  C   UNL A   1      40.182  29.781  30.479  1.00  0.00     0.074 A 
ATOM     39  C   UNL A   1      40.619  28.641  32.648  1.00  0.00     0.049 A 
ATOM     40  N   UNL A   1      40.235  30.980  30.905  1.00  0.00    -0.248 NA
ATOM     41  C   UNL A   1      39.766  29.763  29.061  1.00  0.00     0.031 C 
ATOM     42  C   UNL A   1      39.994  29.421  33.763  1.00  0.00     0.029 A 
ATOM     43  N   UNL A   1      41.162  27.740  33.526  1.00  0.00    -0.354 N 
ATOM     44  C   UNL A   1      39.271  31.633  30.171  1.00  0.00     0.074 A 
ATOM     45  C   UNL A   1      39.248  30.974  28.907  1.00  0.00     0.031 C 
ATOM     46  C   UNL A   1      40.547  29.169  35.008  1.00  0.00     0.029 A 
ATOM     47  C   UNL A   1      41.563  28.144  34.820  1.00  0.00     0.049 A 
ATOM     48  H   UNL A   1      41.275  26.801  33.251  1.00  0.00     0.167 HD
ATOM     49  C   UNL A   1      38.419  32.439  30.854  1.00  0.00     0.037 A 
ATOM     50  C   UNL A   1      42.788  27.848  35.370  1.00  0.00     0.037 A 
ATOM     51  C   UNL A   1      38.805  32.458  32.289  1.00  0.00     0.049 A 
ATOM     52  C   UNL A   1      43.293  29.334  35.202  1.00  0.00     0.074 A 
ATOM     53  C   UNL A   1      38.202  32.067  33.469  1.00  0.00     0.029 A 
ATOM     54  N   UNL A   1      40.157  32.629  32.612  1.00  0.00    -0.354 N 
ATOM     55  N   UNL A   1      42.824  30.142  34.260  1.00  0.00    -0.248 NA
ATOM     56  C   UNL A   1      43.929  30.100  36.284  1.00  0.00     0.031 C 
ATOM     57  C   UNL A   1      39.213  32.067  34.501  1.00  0.00     0.029 A 
ATOM     58  C   UNL A   1      40.466  32.266  33.912  1.00  0.00     0.049 A 
ATOM     59  H   UNL A   1      40.824  32.975  31.977  1.00  0.00     0.167 HD
ATOM     60  C   UNL A   1      42.685  31.400  34.794  1.00  0.00     0.074 A 
ATOM     61  C   UNL A   1      43.513  31.350  36.002  1.00  0.00     0.031 C 
ATOM     62  C   UNL A   1      41.856  32.417  34.379  1.00  0.00     0.037 A 
BRANCH  49  63
ATOM     63  C   UNL A   1      37.154  33.068  30.295  1.00  0.00     0.058 A 
ATOM     64  C   UNL A   1      35.912  32.527  30.682  1.00  0.00     0.135 A 
ATOM     65  C   UNL A   1      37.048  34.201  29.448  1.00  0.00     0.135 A 
ATOM     66  F   UNL A   1      35.833  31.440  31.459  1.00  0.00    -0.206 F 
ATOM     67  C   UNL A   1      34.688  33.081  30.316  1.00  0.00     0.059 A 
ATOM     68  C   UNL A   1      35.831  34.783  29.078  1.00  0.00     0.059 A 
ATOM     69  F   UNL A   1      38.104  34.823  28.922  1.00  0.00    -0.206 F 
ATOM     70  C   UNL A   1      34.653  34.226  29.536  1.00  0.00     0.060 A 
BRANCH  70  71
ATOM     71  S   UNL A   1      33.061  34.982  29.183  1.00  0.00     0.124 S 
ATOM     72  O   UNL A   1      32.502  34.063  28.195  1.00  0.00    -0.237 OA
ATOM     73  O   UNL A   1      32.424  34.968  30.496  1.00  0.00    -0.237 OA
ATOM     74  O   UNL A   1      33.411  36.304  28.675  1.00  0.00    -0.744 OA
ENDBRANCH  70  71
ENDBRANCH  49  63
BRANCH  50  75
ATOM     75  C   UNL A   1      43.337  26.463  34.714  1.00  0.00     0.058 A 
ATOM     76  C   UNL A   1      44.499  26.118  33.293  1.00  0.00     0.135 A 
ATOM     77  C   UNL A   1      43.474  25.421  36.125  1.00  0.00     0.135 A 
ATOM     78  F   UNL A   1      44.408  26.983  32.266  1.00  0.00    -0.206 F 
ATOM     79  C   UNL A   1      45.961  24.685  33.628  1.00  0.00     0.059 A 
ATOM     80  C   UNL A   1      44.752  24.251  36.380  1.00  0.00     0.059 A 
ATOM     81  F   UNL A   1      42.365  25.281  36.884  1.00  0.00    -0.206 F 
ATOM     82  C   UNL A   1      45.992  23.879  35.227  1.00  0.00     0.060 A 
BRANCH  82  83
ATOM     83  S   UNL A   1      46.655  22.194  35.281  1.00  0.00     0.124 S 
ATOM     84  O   UNL A   1      45.969  21.549  34.167  1.00  0.00    -0.237 OA
ATOM     85  O   UNL A   1      48.080  22.430  35.092  1.00  0.00    -0.237 OA
ATOM     86  O   UNL A   1      46.242  21.738  36.605  1.00  0.00    -0.744 OA
ENDBRANCH  82  83
ENDBRANCH  50  75
BRANCH  62  87
ATOM     87  C   UNL A   1      42.455  33.788  34.288  1.00  0.00     0.058 A 
ATOM     88  C   UNL A   1      42.275  34.748  35.294  1.00  0.00     0.135 A 
ATOM     89  C   UNL A   1      43.369  34.124  33.260  1.00  0.00     0.135 A 
ATOM     90  F   UNL A   1      41.626  34.486  36.438  1.00  0.00    -0.206 F 
ATOM     91  C   UNL A   1      42.776  36.022  35.174  1.00  0.00     0.059 A 
ATOM     92  C   UNL A   1      44.002  35.347  33.205  1.00  0.00     0.059 A 
ATOM     93  F   UNL A   1      43.700  33.281  32.271  1.00  0.00    -0.206 F 
ATOM     94  C   UNL A   1      43.629  36.312  34.120  1.00  0.00     0.060 A 
BRANCH  94  95
ATOM     95  S   UNL A   1      44.222  37.984  33.961  1.00  0.00     0.124 S 
ATOM     96  O   UNL A   1      44.690  38.240  35.321  1.00  0.00    -0.237 OA
ATOM     97  O   UNL A   1      45.262  37.847  32.947  1.00  0.00    -0.237 OA
ATOM     98  O   UNL A   1      43.035  38.725  33.548  1.00  0.00    -0.744 OA
ENDBRANCH  94  95
ENDBRANCH  62  87
ENDBRANCH  36  37
ENDBRANCH  29  31
ENDBRANCH  28  29
ENDBRANCH  27  28
ENDBRANCH  26  27
ENDBRANCH   1  26
TORSDOF 22
ENDMDL
