MODEL 1
REMARK VINA RESULT:     -12.0      0.000      0.000
REMARK SMILES Nc1nc(N2CCCCC2)nc2c1[C@H](C(=O)OCCOCCOC(=O)c1ccc(-c3c4nc(c(-c5c(F)cc(S(=O)(=O)[O-])cc5F)c5ccc([nH]5)c(-c5c(F)cc(S(=O)(=O)[O-])cc5F)c5nc(c(-c6c(F)cc(S(=O)(=O)[O-])cc6F)c6ccc3[nH]6)C=C5)C=C4)cc1)CC(=O)N2
REMARK SMILES IDX 21 1 20 2 19 3 18 4 17 5 15 6 16 7 14 8 2 9 3 10 13 11 4 12
REMARK SMILES IDX 12 13 11 14 95 15 92 16 93 17 94 19 1 20 5 23 6 24 10 25
REMARK SMILES IDX 7 26 9 27 8 28 22 29 23 30 24 31 25 32 26 33 27 34 91 35
REMARK SMILES IDX 28 36 90 37 29 38 30 39 31 40 84 41 32 42 89 43 83 44 85 45
REMARK SMILES IDX 33 46 88 47 82 48 81 49 34 51 68 52 47 53 67 54 48 55 51 56
REMARK SMILES IDX 66 57 86 58 49 59 50 60 65 62 87 63 52 64 35 65 36 66 45 67
REMARK SMILES IDX 37 68 38 69 44 70 46 71 39 72 40 73 41 74 42 75 43 76 69 77
REMARK SMILES IDX 70 78 79 79 71 80 72 81 78 82 80 83 73 84 74 85 75 86 76 87
REMARK SMILES IDX 77 88 53 89 54 90 63 91 55 92 56 93 62 94 64 95 57 96 58 97
REMARK SMILES IDX 59 98 60 99 61 100
REMARK H PARENT 95 18 1 21 1 22 85 50 51 61
REMARK Flexibility Score: inf
ROOT
ATOM      1  C   UNL A   1      38.934  21.576  25.892  1.00  0.00     0.202 C 
ENDROOT
BRANCH   1   2
ATOM      2  O   UNL A   1      37.772  22.326  25.531  1.00  0.00    -0.374 OA
BRANCH   2   3
ATOM      3  C   UNL A   1      37.012  21.873  24.415  1.00  0.00     0.202 C 
BRANCH   3   4
ATOM      4  C   UNL A   1      36.518  22.943  23.435  1.00  0.00     0.261 C 
BRANCH   4   5
ATOM      5  O   UNL A   1      35.747  23.973  24.080  1.00  0.00    -0.463 OA
BRANCH   5   6
ATOM      6  C   UNL A   1      34.476  24.123  23.625  1.00  0.00     0.314 C 
ATOM      7  O   UNL A   1      34.195  24.576  22.518  1.00  0.00    -0.252 OA
BRANCH   6   8
ATOM      8  C   UNL A   1      33.399  23.655  24.608  1.00  0.00     0.146 C 
ATOM      9  C   UNL A   1      32.567  21.644  23.257  1.00  0.00     0.135 A 
ATOM     10  N   UNL A   1      32.335  20.331  23.108  1.00  0.00    -0.196 NA
ATOM     11  C   UNL A   1      33.062  22.195  24.423  1.00  0.00     0.052 A 
ATOM     12  C   UNL A   1      32.566  19.526  24.151  1.00  0.00     0.229 A 
ATOM     13  C   UNL A   1      33.271  21.280  25.426  1.00  0.00     0.144 A 
ATOM     14  N   UNL A   1      33.010  19.970  25.330  1.00  0.00    -0.195 NA
ATOM     15  N   UNL A   1      33.844  21.679  26.622  1.00  0.00    -0.310 N 
ATOM     16  C   UNL A   1      33.633  24.055  26.070  1.00  0.00     0.120 C 
ATOM     17  C   UNL A   1      34.156  22.956  26.961  1.00  0.00     0.226 C 
ATOM     18  H   UNL A   1      34.041  20.977  27.284  1.00  0.00     0.171 HD
ATOM     19  O   UNL A   1      34.752  23.193  28.009  1.00  0.00    -0.275 OA
BRANCH   9  20
ATOM     20  N   UNL A   1      32.234  22.418  22.160  1.00  0.00    -0.383 N 
ATOM     21  H   UNL A   1      32.789  22.385  21.348  1.00  0.00     0.158 HD
ATOM     22  H   UNL A   1      31.440  23.000  22.191  1.00  0.00     0.158 HD
ENDBRANCH   9  20
BRANCH  12  23
ATOM     23  N   UNL A   1      32.390  18.171  24.007  1.00  0.00    -0.341 N 
ATOM     24  C   UNL A   1      32.204  17.351  25.190  1.00  0.00     0.119 C 
ATOM     25  C   UNL A   1      32.913  17.552  22.802  1.00  0.00     0.119 C 
ATOM     26  C   UNL A   1      33.469  16.566  25.523  1.00  0.00     0.022 C 
ATOM     27  C   UNL A   1      34.201  16.788  23.127  1.00  0.00     0.022 C 
ATOM     28  C   UNL A   1      33.995  15.822  24.296  1.00  0.00     0.004 C 
ENDBRANCH  12  23
ENDBRANCH   6   8
ENDBRANCH   5   6
ENDBRANCH   4   5
ENDBRANCH   3   4
ENDBRANCH   2   3
ENDBRANCH   1   2
BRANCH   1  29
ATOM     29  C   UNL A   1      39.968  22.260  26.793  1.00  0.00     0.261 C 
BRANCH  29  30
ATOM     30  O   UNL A   1      40.081  23.670  26.523  1.00  0.00    -0.460 OA
BRANCH  30  31
ATOM     31  C   UNL A   1      41.183  24.258  27.044  1.00  0.00     0.338 C 
ATOM     32  O   UNL A   1      42.352  23.980  26.802  1.00  0.00    -0.246 OA
BRANCH  31  33
ATOM     33  C   UNL A   1      40.814  25.448  27.828  1.00  0.00     0.060 A 
ATOM     34  C   UNL A   1      41.760  26.476  27.929  1.00  0.00     0.016 A 
ATOM     35  C   UNL A   1      39.616  25.514  28.544  1.00  0.00     0.016 A 
ATOM     36  C   UNL A   1      41.537  27.549  28.788  1.00  0.00     0.010 A 
ATOM     37  C   UNL A   1      39.400  26.586  29.416  1.00  0.00     0.010 A 
ATOM     38  C   UNL A   1      40.375  27.589  29.569  1.00  0.00    -0.014 A 
BRANCH  38  39
ATOM     39  C   UNL A   1      40.252  28.607  30.641  1.00  0.00     0.031 A 
ATOM     40  C   UNL A   1      41.162  28.529  31.836  1.00  0.00     0.074 A 
ATOM     41  C   UNL A   1      39.370  29.617  30.529  1.00  0.00     0.049 A 
ATOM     42  N   UNL A   1      41.214  29.301  32.890  1.00  0.00    -0.248 NA
ATOM     43  C   UNL A   1      42.149  27.437  31.838  1.00  0.00     0.031 C 
ATOM     44  C   UNL A   1      38.478  29.832  29.392  1.00  0.00     0.029 A 
ATOM     45  N   UNL A   1      39.086  30.651  31.384  1.00  0.00    -0.354 N 
ATOM     46  C   UNL A   1      42.237  28.793  33.681  1.00  0.00     0.074 A 
ATOM     47  C   UNL A   1      42.762  27.630  32.997  1.00  0.00     0.031 C 
ATOM     48  C   UNL A   1      37.738  30.929  29.623  1.00  0.00     0.029 A 
ATOM     49  C   UNL A   1      38.083  31.476  30.934  1.00  0.00     0.049 A 
ATOM     50  H   UNL A   1      39.555  30.789  32.238  1.00  0.00     0.167 HD
ATOM     51  C   UNL A   1      42.701  29.257  34.867  1.00  0.00     0.037 A 
ATOM     52  C   UNL A   1      37.499  32.539  31.522  1.00  0.00     0.037 A 
ATOM     53  C   UNL A   1      42.165  30.405  35.551  1.00  0.00     0.049 A 
ATOM     54  C   UNL A   1      37.976  32.992  32.874  1.00  0.00     0.074 A 
ATOM     55  C   UNL A   1      42.556  30.945  36.764  1.00  0.00     0.029 A 
ATOM     56  N   UNL A   1      41.116  31.186  35.086  1.00  0.00    -0.354 N 
ATOM     57  N   UNL A   1      38.934  32.495  33.619  1.00  0.00    -0.248 NA
ATOM     58  C   UNL A   1      37.294  34.151  33.466  1.00  0.00     0.031 C 
ATOM     59  C   UNL A   1      41.719  32.029  37.051  1.00  0.00     0.029 A 
ATOM     60  C   UNL A   1      40.836  32.193  35.995  1.00  0.00     0.049 A 
ATOM     61  H   UNL A   1      40.642  31.045  34.235  1.00  0.00     0.167 HD
ATOM     62  C   UNL A   1      38.988  33.294  34.757  1.00  0.00     0.074 A 
ATOM     63  C   UNL A   1      37.965  34.309  34.600  1.00  0.00     0.031 C 
ATOM     64  C   UNL A   1      39.814  33.198  35.828  1.00  0.00     0.037 A 
BRANCH  51  65
ATOM     65  C   UNL A   1      43.828  28.499  35.510  1.00  0.00     0.058 A 
ATOM     66  C   UNL A   1      45.171  28.798  35.234  1.00  0.00     0.135 A 
ATOM     67  C   UNL A   1      43.562  27.468  36.427  1.00  0.00     0.135 A 
ATOM     68  F   UNL A   1      45.481  29.761  34.352  1.00  0.00    -0.206 F 
ATOM     69  C   UNL A   1      46.212  28.084  35.822  1.00  0.00     0.059 A 
ATOM     70  C   UNL A   1      44.586  26.757  37.044  1.00  0.00     0.059 A 
ATOM     71  F   UNL A   1      42.295  27.140  36.724  1.00  0.00    -0.206 F 
ATOM     72  C   UNL A   1      45.908  27.062  36.723  1.00  0.00     0.060 A 
BRANCH  72  73
ATOM     73  S   UNL A   1      47.267  26.137  37.469  1.00  0.00     0.124 S 
ATOM     74  O   UNL A   1      48.421  26.930  37.056  1.00  0.00    -0.237 OA
ATOM     75  O   UNL A   1      46.938  26.189  38.890  1.00  0.00    -0.237 OA
ATOM     76  O   UNL A   1      47.160  24.818  36.852  1.00  0.00    -0.744 OA
ENDBRANCH  72  73
ENDBRANCH  51  65
BRANCH  52  77
ATOM     77  C   UNL A   1      36.402  33.246  30.814  1.00  0.00     0.058 A 
ATOM     78  C   UNL A   1      35.074  33.139  31.251  1.00  0.00     0.135 A 
ATOM     79  C   UNL A   1      36.668  34.093  29.727  1.00  0.00     0.135 A 
ATOM     80  F   UNL A   1      34.769  32.331  32.278  1.00  0.00    -0.206 F 
ATOM     81  C   UNL A   1      34.049  33.860  30.646  1.00  0.00     0.059 A 
ATOM     82  C   UNL A   1      35.664  34.839  29.119  1.00  0.00     0.059 A 
ATOM     83  F   UNL A   1      37.925  34.234  29.277  1.00  0.00    -0.206 F 
ATOM     84  C   UNL A   1      34.357  34.718  29.589  1.00  0.00     0.060 A 
BRANCH  84  85
ATOM     85  S   UNL A   1      33.038  35.732  28.885  1.00  0.00     0.124 S 
ATOM     86  O   UNL A   1      32.334  34.764  28.052  1.00  0.00    -0.237 OA
ATOM     87  O   UNL A   1      32.330  36.181  30.081  1.00  0.00    -0.237 OA
ATOM     88  O   UNL A   1      33.763  36.776  28.168  1.00  0.00    -0.744 OA
ENDBRANCH  84  85
ENDBRANCH  52  77
BRANCH  64  89
ATOM     89  C   UNL A   1      39.672  34.233  36.910  1.00  0.00     0.058 A 
ATOM     90  C   UNL A   1      38.999  33.959  38.110  1.00  0.00     0.135 A 
ATOM     91  C   UNL A   1      40.269  35.496  36.765  1.00  0.00     0.135 A 
ATOM     92  F   UNL A   1      38.407  32.769  38.297  1.00  0.00    -0.206 F 
ATOM     93  C   UNL A   1      38.905  34.910  39.122  1.00  0.00     0.059 A 
ATOM     94  C   UNL A   1      40.206  36.454  37.774  1.00  0.00     0.059 A 
ATOM     95  F   UNL A   1      40.934  35.805  35.641  1.00  0.00    -0.206 F 
ATOM     96  C   UNL A   1      39.512  36.154  38.945  1.00  0.00     0.060 A 
BRANCH  96  97
ATOM     97  S   UNL A   1      39.407  37.368  40.277  1.00  0.00     0.124 S 
ATOM     98  O   UNL A   1      38.600  36.655  41.261  1.00  0.00    -0.237 OA
ATOM     99  O   UNL A   1      40.808  37.568  40.631  1.00  0.00    -0.237 OA
ATOM    100  O   UNL A   1      38.757  38.513  39.645  1.00  0.00    -0.744 OA
ENDBRANCH  96  97
ENDBRANCH  64  89
ENDBRANCH  38  39
ENDBRANCH  31  33
ENDBRANCH  30  31
ENDBRANCH  29  30
ENDBRANCH   1  29
TORSDOF 19
ENDMDL
MODEL 2
REMARK VINA RESULT:     -11.8      4.735     10.193
REMARK SMILES Nc1nc(N2CCCCC2)nc2c1[C@H](C(=O)OCCOCCOC(=O)c1ccc(-c3c4nc(c(-c5c(F)cc(S(=O)(=O)[O-])cc5F)c5ccc([nH]5)c(-c5c(F)cc(S(=O)(=O)[O-])cc5F)c5nc(c(-c6c(F)cc(S(=O)(=O)[O-])cc6F)c6ccc3[nH]6)C=C5)C=C4)cc1)CC(=O)N2
REMARK SMILES IDX 21 1 20 2 19 3 18 4 17 5 15 6 16 7 14 8 2 9 3 10 13 11 4 12
REMARK SMILES IDX 12 13 11 14 95 15 92 16 93 17 94 19 1 20 5 23 6 24 10 25
REMARK SMILES IDX 7 26 9 27 8 28 22 29 23 30 24 31 25 32 26 33 27 34 91 35
REMARK SMILES IDX 28 36 90 37 29 38 30 39 31 40 84 41 32 42 89 43 83 44 85 45
REMARK SMILES IDX 33 46 88 47 82 48 81 49 34 51 68 52 47 53 67 54 48 55 51 56
REMARK SMILES IDX 66 57 86 58 49 59 50 60 65 62 87 63 52 64 35 65 36 66 45 67
REMARK SMILES IDX 37 68 38 69 44 70 46 71 39 72 40 73 41 74 42 75 43 76 69 77
REMARK SMILES IDX 70 78 79 79 71 80 72 81 78 82 80 83 73 84 74 85 75 86 76 87
REMARK SMILES IDX 77 88 53 89 54 90 63 91 55 92 56 93 62 94 64 95 57 96 58 97
REMARK SMILES IDX 59 98 60 99 61 100
REMARK H PARENT 95 18 1 21 1 22 85 50 51 61
REMARK Flexibility Score: inf
ROOT
ATOM      1  C   UNL A   1      32.877  29.644  25.489  1.00  0.00     0.202 C 
ENDROOT
BRANCH   1   2
ATOM      2  O   UNL A   1      31.647  29.234  24.888  1.00  0.00    -0.374 OA
BRANCH   2   3
ATOM      3  C   UNL A   1      31.335  27.844  24.900  1.00  0.00     0.202 C 
BRANCH   3   4
ATOM      4  C   UNL A   1      32.259  26.937  25.719  1.00  0.00     0.261 C 
BRANCH   4   5
ATOM      5  O   UNL A   1      31.922  25.543  25.596  1.00  0.00    -0.463 OA
BRANCH   5   6
ATOM      6  C   UNL A   1      32.790  24.794  24.868  1.00  0.00     0.314 C 
ATOM      7  O   UNL A   1      32.897  24.865  23.646  1.00  0.00    -0.252 OA
BRANCH   6   8
ATOM      8  C   UNL A   1      33.659  23.850  25.705  1.00  0.00     0.146 C 
ATOM      9  C   UNL A   1      32.067  21.843  25.702  1.00  0.00     0.135 A 
ATOM     10  N   UNL A   1      31.774  20.564  25.422  1.00  0.00    -0.196 NA
ATOM     11  C   UNL A   1      33.309  22.401  25.466  1.00  0.00     0.052 A 
ATOM     12  C   UNL A   1      32.741  19.789  24.920  1.00  0.00     0.229 A 
ATOM     13  C   UNL A   1      34.224  21.521  24.943  1.00  0.00     0.144 A 
ATOM     14  N   UNL A   1      33.982  20.228  24.692  1.00  0.00    -0.195 NA
ATOM     15  N   UNL A   1      35.485  21.964  24.579  1.00  0.00    -0.310 N 
ATOM     16  C   UNL A   1      35.165  24.138  25.659  1.00  0.00     0.120 C 
ATOM     17  C   UNL A   1      35.968  23.217  24.774  1.00  0.00     0.226 C 
ATOM     18  H   UNL A   1      36.082  21.315  24.142  1.00  0.00     0.171 HD
ATOM     19  O   UNL A   1      37.067  23.537  24.326  1.00  0.00    -0.275 OA
BRANCH   9  20
ATOM     20  N   UNL A   1      31.037  22.557  26.286  1.00  0.00    -0.383 N 
ATOM     21  H   UNL A   1      31.237  23.355  26.827  1.00  0.00     0.158 HD
ATOM     22  H   UNL A   1      30.104  22.268  26.159  1.00  0.00     0.158 HD
ENDBRANCH   9  20
BRANCH  12  23
ATOM     23  N   UNL A   1      32.451  18.492  24.572  1.00  0.00    -0.341 N 
ATOM     24  C   UNL A   1      32.558  17.448  25.575  1.00  0.00     0.119 C 
ATOM     25  C   UNL A   1      32.576  18.130  23.171  1.00  0.00     0.119 C 
ATOM     26  C   UNL A   1      33.816  16.610  25.370  1.00  0.00     0.022 C 
ATOM     27  C   UNL A   1      33.856  17.315  22.956  1.00  0.00     0.022 C 
ATOM     28  C   UNL A   1      33.930  16.132  23.923  1.00  0.00     0.004 C 
ENDBRANCH  12  23
ENDBRANCH   6   8
ENDBRANCH   5   6
ENDBRANCH   4   5
ENDBRANCH   3   4
ENDBRANCH   2   3
ENDBRANCH   1   2
BRANCH   1  29
ATOM     29  C   UNL A   1      32.797  30.583  26.698  1.00  0.00     0.261 C 
BRANCH  29  30
ATOM     30  O   UNL A   1      33.492  30.058  27.845  1.00  0.00    -0.460 OA
BRANCH  30  31
ATOM     31  C   UNL A   1      34.444  30.875  28.351  1.00  0.00     0.338 C 
ATOM     32  O   UNL A   1      34.275  31.979  28.857  1.00  0.00    -0.246 OA
BRANCH  31  33
ATOM     33  C   UNL A   1      35.745  30.187  28.402  1.00  0.00     0.060 A 
ATOM     34  C   UNL A   1      36.186  29.729  29.650  1.00  0.00     0.016 A 
ATOM     35  C   UNL A   1      36.569  30.092  27.279  1.00  0.00     0.016 A 
ATOM     36  C   UNL A   1      37.475  29.221  29.792  1.00  0.00     0.010 A 
ATOM     37  C   UNL A   1      37.869  29.593  27.426  1.00  0.00     0.010 A 
ATOM     38  C   UNL A   1      38.339  29.191  28.690  1.00  0.00    -0.014 A 
BRANCH  38  39
ATOM     39  C   UNL A   1      39.772  28.866  28.896  1.00  0.00     0.031 A 
ATOM     40  C   UNL A   1      40.681  29.903  29.495  1.00  0.00     0.074 A 
ATOM     41  C   UNL A   1      40.248  27.645  28.594  1.00  0.00     0.049 A 
ATOM     42  N   UNL A   1      41.962  29.838  29.746  1.00  0.00    -0.248 NA
ATOM     43  C   UNL A   1      40.059  31.184  29.867  1.00  0.00     0.031 C 
ATOM     44  C   UNL A   1      39.452  26.540  28.064  1.00  0.00     0.029 A 
ATOM     45  N   UNL A   1      41.517  27.133  28.695  1.00  0.00    -0.354 N 
ATOM     46  C   UNL A   1      42.302  31.063  30.306  1.00  0.00     0.074 A 
ATOM     47  C   UNL A   1      41.096  31.863  30.334  1.00  0.00     0.031 C 
ATOM     48  C   UNL A   1      40.255  25.477  27.880  1.00  0.00     0.029 A 
ATOM     49  C   UNL A   1      41.623  25.837  28.250  1.00  0.00     0.049 A 
ATOM     50  H   UNL A   1      42.278  27.644  29.052  1.00  0.00     0.167 HD
ATOM     51  C   UNL A   1      43.509  31.481  30.761  1.00  0.00     0.037 A 
ATOM     52  C   UNL A   1      42.704  25.039  28.138  1.00  0.00     0.037 A 
ATOM     53  C   UNL A   1      44.709  30.687  30.716  1.00  0.00     0.049 A 
ATOM     54  C   UNL A   1      44.049  25.549  28.576  1.00  0.00     0.074 A 
ATOM     55  C   UNL A   1      45.983  31.026  31.138  1.00  0.00     0.029 A 
ATOM     56  N   UNL A   1      44.786  29.396  30.212  1.00  0.00    -0.354 N 
ATOM     57  N   UNL A   1      44.360  26.715  29.090  1.00  0.00    -0.248 NA
ATOM     58  C   UNL A   1      45.190  24.636  28.420  1.00  0.00     0.031 C 
ATOM     59  C   UNL A   1      46.839  29.956  30.853  1.00  0.00     0.029 A 
ATOM     60  C   UNL A   1      46.088  28.931  30.297  1.00  0.00     0.049 A 
ATOM     61  H   UNL A   1      44.027  28.885  29.849  1.00  0.00     0.167 HD
ATOM     62  C   UNL A   1      45.728  26.668  29.343  1.00  0.00     0.074 A 
ATOM     63  C   UNL A   1      46.183  25.356  28.926  1.00  0.00     0.031 C 
ATOM     64  C   UNL A   1      46.529  27.622  29.877  1.00  0.00     0.037 A 
BRANCH  51  65
ATOM     65  C   UNL A   1      43.590  32.874  31.319  1.00  0.00     0.058 A 
ATOM     66  C   UNL A   1      43.890  33.979  30.506  1.00  0.00     0.135 A 
ATOM     67  C   UNL A   1      43.351  33.111  32.682  1.00  0.00     0.135 A 
ATOM     68  F   UNL A   1      44.145  33.806  29.200  1.00  0.00    -0.206 F 
ATOM     69  C   UNL A   1      43.977  35.265  31.030  1.00  0.00     0.059 A 
ATOM     70  C   UNL A   1      43.410  34.391  33.223  1.00  0.00     0.059 A 
ATOM     71  F   UNL A   1      43.062  32.089  33.504  1.00  0.00    -0.206 F 
ATOM     72  C   UNL A   1      43.739  35.460  32.391  1.00  0.00     0.060 A 
BRANCH  72  73
ATOM     73  S   UNL A   1      43.868  37.133  33.059  1.00  0.00     0.124 S 
ATOM     74  O   UNL A   1      43.775  37.939  31.846  1.00  0.00    -0.237 OA
ATOM     75  O   UNL A   1      42.718  37.201  33.955  1.00  0.00    -0.237 OA
ATOM     76  O   UNL A   1      45.171  37.138  33.716  1.00  0.00    -0.744 OA
ENDBRANCH  72  73
ENDBRANCH  51  65
BRANCH  52  77
ATOM     77  C   UNL A   1      42.539  23.668  27.592  1.00  0.00     0.058 A 
ATOM     78  C   UNL A   1      42.575  23.433  26.210  1.00  0.00     0.135 A 
ATOM     79  C   UNL A   1      42.407  22.560  28.443  1.00  0.00     0.135 A 
ATOM     80  F   UNL A   1      42.687  24.462  25.356  1.00  0.00    -0.206 F 
ATOM     81  C   UNL A   1      42.502  22.144  25.691  1.00  0.00     0.059 A 
ATOM     82  C   UNL A   1      42.352  21.261  27.948  1.00  0.00     0.059 A 
ATOM     83  F   UNL A   1      42.374  22.734  29.773  1.00  0.00    -0.206 F 
ATOM     84  C   UNL A   1      42.405  21.063  26.570  1.00  0.00     0.060 A 
BRANCH  84  85
ATOM     85  S   UNL A   1      42.425  19.390  25.888  1.00  0.00     0.124 S 
ATOM     86  O   UNL A   1      43.271  19.560  24.713  1.00  0.00    -0.237 OA
ATOM     87  O   UNL A   1      43.003  18.621  26.987  1.00  0.00    -0.237 OA
ATOM     88  O   UNL A   1      41.016  19.121  25.619  1.00  0.00    -0.744 OA
ENDBRANCH  84  85
ENDBRANCH  52  77
BRANCH  64  89
ATOM     89  C   UNL A   1      47.981  27.281  30.073  1.00  0.00     0.058 A 
ATOM     90  C   UNL A   1      48.972  27.734  29.189  1.00  0.00     0.135 A 
ATOM     91  C   UNL A   1      48.390  26.539  31.193  1.00  0.00     0.135 A 
ATOM     92  F   UNL A   1      48.633  28.444  28.100  1.00  0.00    -0.206 F 
ATOM     93  C   UNL A   1      50.317  27.446  29.398  1.00  0.00     0.059 A 
ATOM     94  C   UNL A   1      49.732  26.259  31.433  1.00  0.00     0.059 A 
ATOM     95  F   UNL A   1      47.484  26.091  32.075  1.00  0.00    -0.206 F 
ATOM     96  C   UNL A   1      50.688  26.708  30.523  1.00  0.00     0.060 A 
BRANCH  96  97
ATOM     97  S   UNL A   1      52.439  26.366  30.797  1.00  0.00     0.124 S 
ATOM     98  O   UNL A   1      52.378  25.204  31.677  1.00  0.00    -0.237 OA
ATOM     99  O   UNL A   1      52.925  26.112  29.444  1.00  0.00    -0.237 OA
ATOM    100  O   UNL A   1      52.934  27.594  31.414  1.00  0.00    -0.744 OA
ENDBRANCH  96  97
ENDBRANCH  64  89
ENDBRANCH  38  39
ENDBRANCH  31  33
ENDBRANCH  30  31
ENDBRANCH  29  30
ENDBRANCH   1  29
TORSDOF 19
ENDMDL
MODEL 3
REMARK VINA RESULT:     -11.8      7.072     12.596
REMARK SMILES Nc1nc(N2CCCCC2)nc2c1[C@H](C(=O)OCCOCCOC(=O)c1ccc(-c3c4nc(c(-c5c(F)cc(S(=O)(=O)[O-])cc5F)c5ccc([nH]5)c(-c5c(F)cc(S(=O)(=O)[O-])cc5F)c5nc(c(-c6c(F)cc(S(=O)(=O)[O-])cc6F)c6ccc3[nH]6)C=C5)C=C4)cc1)CC(=O)N2
REMARK SMILES IDX 21 1 20 2 19 3 18 4 17 5 15 6 16 7 14 8 2 9 3 10 13 11 4 12
REMARK SMILES IDX 12 13 11 14 95 15 92 16 93 17 94 19 1 20 5 23 6 24 10 25
REMARK SMILES IDX 7 26 9 27 8 28 22 29 23 30 24 31 25 32 26 33 27 34 91 35
REMARK SMILES IDX 28 36 90 37 29 38 30 39 31 40 84 41 32 42 89 43 83 44 85 45
REMARK SMILES IDX 33 46 88 47 82 48 81 49 34 51 68 52 47 53 67 54 48 55 51 56
REMARK SMILES IDX 66 57 86 58 49 59 50 60 65 62 87 63 52 64 35 65 36 66 45 67
REMARK SMILES IDX 37 68 38 69 44 70 46 71 39 72 40 73 41 74 42 75 43 76 69 77
REMARK SMILES IDX 70 78 79 79 71 80 72 81 78 82 80 83 73 84 74 85 75 86 76 87
REMARK SMILES IDX 77 88 53 89 54 90 63 91 55 92 56 93 62 94 64 95 57 96 58 97
REMARK SMILES IDX 59 98 60 99 61 100
REMARK H PARENT 95 18 1 21 1 22 85 50 51 61
REMARK Flexibility Score: inf
ROOT
ATOM      1  C   UNL A   1      33.854  30.854  27.252  1.00  0.00     0.202 C 
ENDROOT
BRANCH   1   2
ATOM      2  O   UNL A   1      34.468  29.593  26.978  1.00  0.00    -0.374 OA
BRANCH   2   3
ATOM      3  C   UNL A   1      33.914  28.799  25.933  1.00  0.00     0.202 C 
BRANCH   3   4
ATOM      4  C   UNL A   1      33.344  27.434  26.332  1.00  0.00     0.261 C 
BRANCH   4   5
ATOM      5  O   UNL A   1      32.065  27.167  25.729  1.00  0.00    -0.463 OA
BRANCH   5   6
ATOM      6  C   UNL A   1      31.975  26.000  25.041  1.00  0.00     0.314 C 
ATOM      7  O   UNL A   1      31.997  24.891  25.569  1.00  0.00    -0.252 OA
BRANCH   6   8
ATOM      8  C   UNL A   1      31.822  26.175  23.527  1.00  0.00     0.146 C 
ATOM      9  C   UNL A   1      29.418  27.063  23.537  1.00  0.00     0.135 A 
ATOM     10  N   UNL A   1      28.502  28.004  23.265  1.00  0.00    -0.196 NA
ATOM     11  C   UNL A   1      30.748  27.180  23.181  1.00  0.00     0.052 A 
ATOM     12  C   UNL A   1      28.893  29.090  22.590  1.00  0.00     0.229 A 
ATOM     13  C   UNL A   1      31.043  28.335  22.500  1.00  0.00     0.144 A 
ATOM     14  N   UNL A   1      30.148  29.275  22.172  1.00  0.00    -0.195 NA
ATOM     15  N   UNL A   1      32.352  28.623  22.154  1.00  0.00    -0.310 N 
ATOM     16  C   UNL A   1      33.133  26.383  22.759  1.00  0.00     0.120 C 
ATOM     17  C   UNL A   1      33.418  27.806  22.348  1.00  0.00     0.226 C 
ATOM     18  H   UNL A   1      32.525  29.495  21.732  1.00  0.00     0.171 HD
ATOM     19  O   UNL A   1      34.555  28.196  22.095  1.00  0.00    -0.275 OA
BRANCH   9  20
ATOM     20  N   UNL A   1      28.921  25.939  24.172  1.00  0.00    -0.383 N 
ATOM     21  H   UNL A   1      29.475  25.460  24.830  1.00  0.00     0.158 HD
ATOM     22  H   UNL A   1      28.013  25.619  23.967  1.00  0.00     0.158 HD
ENDBRANCH   9  20
BRANCH  12  23
ATOM     23  N   UNL A   1      27.987  30.094  22.348  1.00  0.00    -0.341 N 
ATOM     24  C   UNL A   1      27.754  30.525  20.981  1.00  0.00     0.119 C 
ATOM     25  C   UNL A   1      27.710  31.023  23.430  1.00  0.00     0.119 C 
ATOM     26  C   UNL A   1      28.434  31.860  20.698  1.00  0.00     0.022 C 
ATOM     27  C   UNL A   1      28.418  32.356  23.164  1.00  0.00     0.022 C 
ATOM     28  C   UNL A   1      28.088  32.893  21.770  1.00  0.00     0.004 C 
ENDBRANCH  12  23
ENDBRANCH   6   8
ENDBRANCH   5   6
ENDBRANCH   4   5
ENDBRANCH   3   4
ENDBRANCH   2   3
ENDBRANCH   1   2
BRANCH   1  29
ATOM     29  C   UNL A   1      34.488  31.731  28.338  1.00  0.00     0.261 C 
BRANCH  29  30
ATOM     30  O   UNL A   1      35.927  31.727  28.272  1.00  0.00    -0.460 OA
BRANCH  30  31
ATOM     31  C   UNL A   1      36.543  31.393  29.429  1.00  0.00     0.338 C 
ATOM     32  O   UNL A   1      36.133  31.589  30.568  1.00  0.00    -0.246 OA
BRANCH  31  33
ATOM     33  C   UNL A   1      37.729  30.561  29.164  1.00  0.00     0.060 A 
ATOM     34  C   UNL A   1      38.678  30.442  30.186  1.00  0.00     0.016 A 
ATOM     35  C   UNL A   1      37.967  30.002  27.906  1.00  0.00     0.016 A 
ATOM     36  C   UNL A   1      39.894  29.809  29.941  1.00  0.00     0.010 A 
ATOM     37  C   UNL A   1      39.194  29.378  27.657  1.00  0.00     0.010 A 
ATOM     38  C   UNL A   1      40.177  29.311  28.663  1.00  0.00    -0.014 A 
BRANCH  38  39
ATOM     39  C   UNL A   1      41.550  28.847  28.348  1.00  0.00     0.031 A 
ATOM     40  C   UNL A   1      42.685  29.834  28.386  1.00  0.00     0.074 A 
ATOM     41  C   UNL A   1      41.791  27.552  28.077  1.00  0.00     0.049 A 
ATOM     42  N   UNL A   1      43.954  29.648  28.131  1.00  0.00    -0.248 NA
ATOM     43  C   UNL A   1      42.342  31.213  28.768  1.00  0.00     0.031 C 
ATOM     44  C   UNL A   1      40.784  26.494  28.069  1.00  0.00     0.029 A 
ATOM     45  N   UNL A   1      42.961  26.910  27.759  1.00  0.00    -0.354 N 
ATOM     46  C   UNL A   1      44.563  30.882  28.323  1.00  0.00     0.074 A 
ATOM     47  C   UNL A   1      43.520  31.815  28.691  1.00  0.00     0.031 C 
ATOM     48  C   UNL A   1      41.380  25.331  27.755  1.00  0.00     0.029 A 
ATOM     49  C   UNL A   1      42.802  25.569  27.511  1.00  0.00     0.049 A 
ATOM     50  H   UNL A   1      43.832  27.367  27.713  1.00  0.00     0.167 HD
ATOM     51  C   UNL A   1      45.874  31.206  28.210  1.00  0.00     0.037 A 
ATOM     52  C   UNL A   1      43.698  24.642  27.115  1.00  0.00     0.037 A 
ATOM     53  C   UNL A   1      46.906  30.277  27.829  1.00  0.00     0.049 A 
ATOM     54  C   UNL A   1      45.135  25.039  26.918  1.00  0.00     0.074 A 
ATOM     55  C   UNL A   1      48.261  30.512  27.671  1.00  0.00     0.029 A 
ATOM     56  N   UNL A   1      46.698  28.937  27.537  1.00  0.00    -0.354 N 
ATOM     57  N   UNL A   1      45.696  26.212  27.088  1.00  0.00    -0.248 NA
ATOM     58  C   UNL A   1      46.061  23.987  26.477  1.00  0.00     0.031 C 
ATOM     59  C   UNL A   1      48.866  29.323  27.246  1.00  0.00     0.029 A 
ATOM     60  C   UNL A   1      47.895  28.336  27.185  1.00  0.00     0.049 A 
ATOM     61  H   UNL A   1      45.827  28.480  27.576  1.00  0.00     0.167 HD
ATOM     62  C   UNL A   1      47.046  26.036  26.800  1.00  0.00     0.074 A 
ATOM     63  C   UNL A   1      47.216  24.640  26.446  1.00  0.00     0.031 C 
ATOM     64  C   UNL A   1      48.051  26.945  26.832  1.00  0.00     0.037 A 
BRANCH  51  65
ATOM     65  C   UNL A   1      46.257  32.636  28.474  1.00  0.00     0.058 A 
ATOM     66  C   UNL A   1      46.238  33.604  27.459  1.00  0.00     0.135 A 
ATOM     67  C   UNL A   1      46.632  33.046  29.763  1.00  0.00     0.135 A 
ATOM     68  F   UNL A   1      45.904  33.262  26.204  1.00  0.00    -0.206 F 
ATOM     69  C   UNL A   1      46.606  34.924  27.705  1.00  0.00     0.059 A 
ATOM     70  C   UNL A   1      46.981  34.365  30.038  1.00  0.00     0.059 A 
ATOM     71  F   UNL A   1      46.669  32.159  30.770  1.00  0.00    -0.206 F 
ATOM     72  C   UNL A   1      46.980  35.293  28.998  1.00  0.00     0.060 A 
BRANCH  72  73
ATOM     73  S   UNL A   1      47.466  37.006  29.300  1.00  0.00     0.124 S 
ATOM     74  O   UNL A   1      48.766  36.831  29.941  1.00  0.00    -0.237 OA
ATOM     75  O   UNL A   1      47.494  37.566  27.953  1.00  0.00    -0.237 OA
ATOM     76  O   UNL A   1      46.405  37.513  30.165  1.00  0.00    -0.744 OA
ENDBRANCH  72  73
ENDBRANCH  51  65
BRANCH  52  77
ATOM     77  C   UNL A   1      43.245  23.246  26.890  1.00  0.00     0.058 A 
ATOM     78  C   UNL A   1      43.136  22.722  25.594  1.00  0.00     0.135 A 
ATOM     79  C   UNL A   1      42.975  22.390  27.969  1.00  0.00     0.135 A 
ATOM     80  F   UNL A   1      43.372  23.507  24.531  1.00  0.00    -0.206 F 
ATOM     81  C   UNL A   1      42.791  21.393  25.374  1.00  0.00     0.059 A 
ATOM     82  C   UNL A   1      42.647  21.051  27.775  1.00  0.00     0.059 A 
ATOM     83  F   UNL A   1      43.072  22.843  29.228  1.00  0.00    -0.206 F 
ATOM     84  C   UNL A   1      42.562  20.561  26.473  1.00  0.00     0.060 A 
BRANCH  84  85
ATOM     85  S   UNL A   1      42.225  18.811  26.178  1.00  0.00     0.124 S 
ATOM     86  O   UNL A   1      43.168  18.505  25.108  1.00  0.00    -0.237 OA
ATOM     87  O   UNL A   1      42.522  18.220  27.480  1.00  0.00    -0.237 OA
ATOM     88  O   UNL A   1      40.815  18.800  25.801  1.00  0.00    -0.744 OA
ENDBRANCH  84  85
ENDBRANCH  52  77
BRANCH  64  89
ATOM     89  C   UNL A   1      49.437  26.461  26.504  1.00  0.00     0.058 A 
ATOM     90  C   UNL A   1      49.958  26.540  25.204  1.00  0.00     0.135 A 
ATOM     91  C   UNL A   1      50.273  25.966  27.518  1.00  0.00     0.135 A 
ATOM     92  F   UNL A   1      49.198  27.002  24.198  1.00  0.00    -0.206 F 
ATOM     93  C   UNL A   1      51.255  26.126  24.916  1.00  0.00     0.059 A 
ATOM     94  C   UNL A   1      51.581  25.568  27.256  1.00  0.00     0.059 A 
ATOM     95  F   UNL A   1      49.828  25.880  28.781  1.00  0.00    -0.206 F 
ATOM     96  C   UNL A   1      52.059  25.641  25.948  1.00  0.00     0.060 A 
BRANCH  96  97
ATOM     97  S   UNL A   1      53.749  25.134  25.566  1.00  0.00     0.124 S 
ATOM     98  O   UNL A   1      54.462  25.557  26.766  1.00  0.00    -0.237 OA
ATOM     99  O   UNL A   1      53.610  23.693  25.385  1.00  0.00    -0.237 OA
ATOM    100  O   UNL A   1      54.064  25.884  24.352  1.00  0.00    -0.744 OA
ENDBRANCH  96  97
ENDBRANCH  64  89
ENDBRANCH  38  39
ENDBRANCH  31  33
ENDBRANCH  30  31
ENDBRANCH  29  30
ENDBRANCH   1  29
TORSDOF 19
ENDMDL
