MODEL 1
REMARK VINA RESULT:     -11.5      0.000      0.000
REMARK SMILES CC(C)(C)c1cc2c(cc1Cl)C=C(C(=O)OCCOCCOC(=O)c1ccc(-c3c4nc(c(-c5c(F)cc(S(=O)(=O)[O-])cc5F)c5ccc([nH]5)c(-c5c(F)cc(S(=O)(=O)[O-])cc5F)c5nc(c(-c6c(F)cc(S(=O)(=O)[O-])cc6F)c6ccc3[nH]6)C=C5)C=C4)cc1)[C@H](C(F)(F)F)O2
REMARK SMILES IDX 20 1 19 2 18 3 17 4 16 5 14 6 15 7 13 8 5 9 6 10 10 11 7 12
REMARK SMILES IDX 9 13 11 14 8 15 96 16 12 17 91 18 2 19 1 20 3 21 4 22 92 23
REMARK SMILES IDX 93 24 94 25 95 26 21 27 22 28 23 29 24 30 25 31 26 32 90 33
REMARK SMILES IDX 27 34 89 35 28 36 29 37 30 38 83 39 31 40 88 41 82 42 84 43
REMARK SMILES IDX 32 44 87 45 81 46 80 47 33 49 67 50 46 51 66 52 47 53 50 54
REMARK SMILES IDX 65 55 85 56 48 57 49 58 64 60 86 61 51 62 34 63 35 64 44 65
REMARK SMILES IDX 36 66 37 67 43 68 45 69 38 70 39 71 40 72 41 73 42 74 68 75
REMARK SMILES IDX 69 76 78 77 70 78 71 79 77 80 79 81 72 82 73 83 74 84 75 85
REMARK SMILES IDX 76 86 52 87 53 88 62 89 54 90 55 91 61 92 63 93 56 94 57 95
REMARK SMILES IDX 58 96 59 97 60 98
REMARK H PARENT 84 48 50 59
REMARK Flexibility Score: inf
ROOT
ATOM      1  C   UNL A   1      40.826  21.421  26.179  1.00  0.00     0.202 C 
ENDROOT
BRANCH   1   2
ATOM      2  O   UNL A   1      39.478  21.694  26.573  1.00  0.00    -0.374 OA
BRANCH   2   3
ATOM      3  C   UNL A   1      38.546  22.032  25.547  1.00  0.00     0.202 C 
BRANCH   3   4
ATOM      4  C   UNL A   1      37.144  21.427  25.662  1.00  0.00     0.261 C 
BRANCH   4   5
ATOM      5  O   UNL A   1      36.328  21.791  24.538  1.00  0.00    -0.460 OA
BRANCH   5   6
ATOM      6  C   UNL A   1      35.044  21.391  24.626  1.00  0.00     0.338 C 
ATOM      7  O   UNL A   1      34.639  20.238  24.591  1.00  0.00    -0.246 OA
BRANCH   6   8
ATOM      8  C   UNL A   1      34.169  22.537  24.920  1.00  0.00     0.087 C 
ATOM      9  C   UNL A   1      32.865  27.361  25.697  1.00  0.00    -0.020 A 
ATOM     10  C   UNL A   1      32.535  26.102  26.281  1.00  0.00     0.053 A 
ATOM     11  C   UNL A   1      33.638  27.310  24.518  1.00  0.00     0.045 A 
ATOM     12  C   UNL A   1      33.003  24.887  25.778  1.00  0.00     0.128 A 
ATOM     13  C   UNL A   1      34.101  26.083  24.013  1.00  0.00     0.032 A 
ATOM     14  Cl  UNL A   1      34.163  28.671  23.591  1.00  0.00    -0.084 Cl
ATOM     15  C   UNL A   1      33.819  24.884  24.660  1.00  0.00     0.019 A 
ATOM     16  O   UNL A   1      32.705  23.762  26.498  1.00  0.00    -0.475 OA
ATOM     17  C   UNL A   1      34.501  23.665  24.277  1.00  0.00     0.027 C 
ATOM     18  C   UNL A   1      33.038  22.463  25.912  1.00  0.00     0.316 C 
BRANCH   9  19
ATOM     19  C   UNL A   1      32.427  28.623  26.481  1.00  0.00    -0.012 C 
ATOM     20  C   UNL A   1      31.499  28.232  27.657  1.00  0.00     0.016 C 
ATOM     21  C   UNL A   1      31.672  29.726  25.711  1.00  0.00     0.016 C 
ATOM     22  C   UNL A   1      33.705  29.294  27.046  1.00  0.00     0.016 C 
ENDBRANCH   9  19
BRANCH  18  23
ATOM     23  C   UNL A   1      31.753  21.818  25.351  1.00  0.00     0.430 C 
ATOM     24  F   UNL A   1      31.795  20.466  25.444  1.00  0.00    -0.167 F 
ATOM     25  F   UNL A   1      30.645  22.226  26.017  1.00  0.00    -0.167 F 
ATOM     26  F   UNL A   1      31.565  22.104  24.042  1.00  0.00    -0.167 F 
ENDBRANCH  18  23
ENDBRANCH   6   8
ENDBRANCH   5   6
ENDBRANCH   4   5
ENDBRANCH   3   4
ENDBRANCH   2   3
ENDBRANCH   1   2
BRANCH   1  27
ATOM     27  C   UNL A   1      41.826  22.584  26.225  1.00  0.00     0.261 C 
BRANCH  27  28
ATOM     28  O   UNL A   1      41.216  23.790  26.720  1.00  0.00    -0.460 OA
BRANCH  28  29
ATOM     29  C   UNL A   1      41.949  24.918  26.561  1.00  0.00     0.338 C 
ATOM     30  O   UNL A   1      42.702  25.180  25.635  1.00  0.00    -0.246 OA
BRANCH  29  31
ATOM     31  C   UNL A   1      41.532  25.915  27.569  1.00  0.00     0.060 A 
ATOM     32  C   UNL A   1      40.377  25.747  28.335  1.00  0.00     0.016 A 
ATOM     33  C   UNL A   1      42.346  27.041  27.752  1.00  0.00     0.016 A 
ATOM     34  C   UNL A   1      40.064  26.694  29.314  1.00  0.00     0.010 A 
ATOM     35  C   UNL A   1      42.032  27.984  28.730  1.00  0.00     0.010 A 
ATOM     36  C   UNL A   1      40.902  27.804  29.538  1.00  0.00    -0.014 A 
BRANCH  36  37
ATOM     37  C   UNL A   1      40.677  28.685  30.713  1.00  0.00     0.031 A 
ATOM     38  C   UNL A   1      41.490  28.556  31.967  1.00  0.00     0.074 A 
ATOM     39  C   UNL A   1      39.695  29.605  30.636  1.00  0.00     0.049 A 
ATOM     40  N   UNL A   1      41.456  29.299  33.044  1.00  0.00    -0.248 NA
ATOM     41  C   UNL A   1      42.458  27.451  32.028  1.00  0.00     0.031 C 
ATOM     42  C   UNL A   1      38.808  29.788  29.485  1.00  0.00     0.029 A 
ATOM     43  N   UNL A   1      39.284  30.562  31.528  1.00  0.00    -0.354 N 
ATOM     44  C   UNL A   1      42.412  28.774  33.902  1.00  0.00     0.074 A 
ATOM     45  C   UNL A   1      42.970  27.610  33.243  1.00  0.00     0.031 C 
ATOM     46  C   UNL A   1      37.987  30.821  29.724  1.00  0.00     0.029 A 
ATOM     47  C   UNL A   1      38.263  31.353  31.054  1.00  0.00     0.049 A 
ATOM     48  H   UNL A   1      39.681  30.672  32.423  1.00  0.00     0.167 HD
ATOM     49  C   UNL A   1      42.802  29.234  35.115  1.00  0.00     0.037 A 
ATOM     50  C   UNL A   1      37.624  32.395  31.622  1.00  0.00     0.037 A 
ATOM     51  C   UNL A   1      42.225  30.383  35.771  1.00  0.00     0.049 A 
ATOM     52  C   UNL A   1      38.046  32.858  32.989  1.00  0.00     0.074 A 
ATOM     53  C   UNL A   1      42.575  30.943  36.988  1.00  0.00     0.029 A 
ATOM     54  N   UNL A   1      41.170  31.138  35.277  1.00  0.00    -0.354 N 
ATOM     55  N   UNL A   1      39.004  32.395  33.756  1.00  0.00    -0.248 NA
ATOM     56  C   UNL A   1      37.303  33.986  33.568  1.00  0.00     0.031 C 
ATOM     57  C   UNL A   1      41.698  31.998  37.255  1.00  0.00     0.029 A 
ATOM     58  C   UNL A   1      40.841  32.140  36.178  1.00  0.00     0.049 A 
ATOM     59  H   UNL A   1      40.722  30.985  34.414  1.00  0.00     0.167 HD
ATOM     60  C   UNL A   1      38.999  33.193  34.895  1.00  0.00     0.074 A 
ATOM     61  C   UNL A   1      37.949  34.173  34.713  1.00  0.00     0.031 C 
ATOM     62  C   UNL A   1      39.795  33.117  35.988  1.00  0.00     0.037 A 
BRANCH  49  63
ATOM     63  C   UNL A   1      43.921  28.513  35.819  1.00  0.00     0.058 A 
ATOM     64  C   UNL A   1      43.664  27.444  36.692  1.00  0.00     0.135 A 
ATOM     65  C   UNL A   1      45.263  28.833  35.558  1.00  0.00     0.135 A 
ATOM     66  F   UNL A   1      42.399  27.098  36.985  1.00  0.00    -0.206 F 
ATOM     67  C   UNL A   1      44.693  26.731  37.296  1.00  0.00     0.059 A 
ATOM     68  C   UNL A   1      46.312  28.115  36.130  1.00  0.00     0.059 A 
ATOM     69  F   UNL A   1      45.569  29.843  34.728  1.00  0.00    -0.206 F 
ATOM     70  C   UNL A   1      46.015  27.072  37.005  1.00  0.00     0.060 A 
BRANCH  70  71
ATOM     71  S   UNL A   1      47.337  26.126  37.793  1.00  0.00     0.124 S 
ATOM     72  O   UNL A   1      47.914  25.426  36.649  1.00  0.00    -0.237 OA
ATOM     73  O   UNL A   1      48.164  27.177  38.375  1.00  0.00    -0.237 OA
ATOM     74  O   UNL A   1      46.630  25.283  38.750  1.00  0.00    -0.744 OA
ENDBRANCH  70  71
ENDBRANCH  49  63
BRANCH  50  75
ATOM     75  C   UNL A   1      36.548  33.094  30.871  1.00  0.00     0.058 A 
ATOM     76  C   UNL A   1      35.201  32.929  31.223  1.00  0.00     0.135 A 
ATOM     77  C   UNL A   1      36.846  33.968  29.814  1.00  0.00     0.135 A 
ATOM     78  F   UNL A   1      34.865  32.100  32.224  1.00  0.00    -0.206 F 
ATOM     79  C   UNL A   1      34.185  33.597  30.548  1.00  0.00     0.059 A 
ATOM     80  C   UNL A   1      35.850  34.670  29.143  1.00  0.00     0.059 A 
ATOM     81  F   UNL A   1      38.121  34.173  29.449  1.00  0.00    -0.206 F 
ATOM     82  C   UNL A   1      34.520  34.473  29.514  1.00  0.00     0.060 A 
BRANCH  82  83
ATOM     83  S   UNL A   1      33.195  35.375  28.685  1.00  0.00     0.124 S 
ATOM     84  O   UNL A   1      32.535  34.310  27.939  1.00  0.00    -0.237 OA
ATOM     85  O   UNL A   1      32.449  35.923  29.813  1.00  0.00    -0.237 OA
ATOM     86  O   UNL A   1      33.911  36.359  27.877  1.00  0.00    -0.744 OA
ENDBRANCH  82  83
ENDBRANCH  50  75
BRANCH  62  87
ATOM     87  C   UNL A   1      39.591  34.134  37.080  1.00  0.00     0.058 A 
ATOM     88  C   UNL A   1      38.803  33.857  38.208  1.00  0.00     0.135 A 
ATOM     89  C   UNL A   1      40.263  35.368  37.039  1.00  0.00     0.135 A 
ATOM     90  F   UNL A   1      38.131  32.698  38.297  1.00  0.00    -0.206 F 
ATOM     91  C   UNL A   1      38.683  34.769  39.252  1.00  0.00     0.059 A 
ATOM     92  C   UNL A   1      40.180  36.282  38.084  1.00  0.00     0.059 A 
ATOM     93  F   UNL A   1      41.034  35.682  35.985  1.00  0.00    -0.206 F 
ATOM     94  C   UNL A   1      39.384  35.975  39.186  1.00  0.00     0.060 A 
BRANCH  94  95
ATOM     95  S   UNL A   1      39.267  37.118  40.579  1.00  0.00     0.124 S 
ATOM     96  O   UNL A   1      38.750  36.250  41.632  1.00  0.00    -0.237 OA
ATOM     97  O   UNL A   1      40.651  37.554  40.740  1.00  0.00    -0.237 OA
ATOM     98  O   UNL A   1      38.345  38.145  40.103  1.00  0.00    -0.744 OA
ENDBRANCH  94  95
ENDBRANCH  62  87
ENDBRANCH  36  37
ENDBRANCH  29  31
ENDBRANCH  28  29
ENDBRANCH  27  28
ENDBRANCH   1  27
TORSDOF 19
ENDMDL
MODEL 2
REMARK VINA RESULT:     -11.2      0.652      8.128
REMARK SMILES CC(C)(C)c1cc2c(cc1Cl)C=C(C(=O)OCCOCCOC(=O)c1ccc(-c3c4nc(c(-c5c(F)cc(S(=O)(=O)[O-])cc5F)c5ccc([nH]5)c(-c5c(F)cc(S(=O)(=O)[O-])cc5F)c5nc(c(-c6c(F)cc(S(=O)(=O)[O-])cc6F)c6ccc3[nH]6)C=C5)C=C4)cc1)[C@H](C(F)(F)F)O2
REMARK SMILES IDX 20 1 19 2 18 3 17 4 16 5 14 6 15 7 13 8 5 9 6 10 10 11 7 12
REMARK SMILES IDX 9 13 11 14 8 15 96 16 12 17 91 18 2 19 1 20 3 21 4 22 92 23
REMARK SMILES IDX 93 24 94 25 95 26 21 27 22 28 23 29 24 30 25 31 26 32 90 33
REMARK SMILES IDX 27 34 89 35 28 36 29 37 30 38 83 39 31 40 88 41 82 42 84 43
REMARK SMILES IDX 32 44 87 45 81 46 80 47 33 49 67 50 46 51 66 52 47 53 50 54
REMARK SMILES IDX 65 55 85 56 48 57 49 58 64 60 86 61 51 62 34 63 35 64 44 65
REMARK SMILES IDX 36 66 37 67 43 68 45 69 38 70 39 71 40 72 41 73 42 74 68 75
REMARK SMILES IDX 69 76 78 77 70 78 71 79 77 80 79 81 72 82 73 83 74 84 75 85
REMARK SMILES IDX 76 86 52 87 53 88 62 89 54 90 55 91 61 92 63 93 56 94 57 95
REMARK SMILES IDX 58 96 59 97 60 98
REMARK H PARENT 84 48 50 59
REMARK Flexibility Score: inf
ROOT
ATOM      1  C   UNL A   1      40.393  22.243  26.769  1.00  0.00     0.202 C 
ENDROOT
BRANCH   1   2
ATOM      2  O   UNL A   1      39.576  21.316  26.049  1.00  0.00    -0.374 OA
BRANCH   2   3
ATOM      3  C   UNL A   1      38.231  21.700  25.769  1.00  0.00     0.202 C 
BRANCH   3   4
ATOM      4  C   UNL A   1      37.569  21.054  24.548  1.00  0.00     0.261 C 
BRANCH   4   5
ATOM      5  O   UNL A   1      36.406  21.791  24.137  1.00  0.00    -0.460 OA
BRANCH   5   6
ATOM      6  C   UNL A   1      35.245  21.328  24.640  1.00  0.00     0.338 C 
ATOM      7  O   UNL A   1      34.996  20.172  24.947  1.00  0.00    -0.246 OA
BRANCH   6   8
ATOM      8  C   UNL A   1      34.325  22.444  24.915  1.00  0.00     0.087 C 
ATOM      9  C   UNL A   1      32.847  27.218  25.683  1.00  0.00    -0.020 A 
ATOM     10  C   UNL A   1      32.540  25.946  26.250  1.00  0.00     0.053 A 
ATOM     11  C   UNL A   1      33.654  27.201  24.527  1.00  0.00     0.045 A 
ATOM     12  C   UNL A   1      33.060  24.750  25.754  1.00  0.00     0.128 A 
ATOM     13  C   UNL A   1      34.170  25.992  24.027  1.00  0.00     0.032 A 
ATOM     14  Cl  UNL A   1      34.161  28.584  23.623  1.00  0.00    -0.084 Cl
ATOM     15  C   UNL A   1      33.908  24.780  24.659  1.00  0.00     0.019 A 
ATOM     16  O   UNL A   1      32.779  23.611  26.458  1.00  0.00    -0.475 OA
ATOM     17  C   UNL A   1      34.639  23.586  24.289  1.00  0.00     0.027 C 
ATOM     18  C   UNL A   1      33.170  22.327  25.874  1.00  0.00     0.316 C 
BRANCH   9  19
ATOM     19  C   UNL A   1      32.346  28.461  26.462  1.00  0.00    -0.012 C 
ATOM     20  C   UNL A   1      33.546  29.295  26.974  1.00  0.00     0.016 C 
ATOM     21  C   UNL A   1      31.449  28.229  27.695  1.00  0.00     0.016 C 
ATOM     22  C   UNL A   1      31.511  29.325  25.482  1.00  0.00     0.016 C 
ENDBRANCH   9  19
BRANCH  18  23
ATOM     23  C   UNL A   1      31.922  21.646  25.272  1.00  0.00     0.430 C 
ATOM     24  F   UNL A   1      31.773  21.955  23.960  1.00  0.00    -0.167 F 
ATOM     25  F   UNL A   1      31.989  20.295  25.354  1.00  0.00    -0.167 F 
ATOM     26  F   UNL A   1      30.780  22.033  25.885  1.00  0.00    -0.167 F 
ENDBRANCH  18  23
ENDBRANCH   6   8
ENDBRANCH   5   6
ENDBRANCH   4   5
ENDBRANCH   3   4
ENDBRANCH   2   3
ENDBRANCH   1   2
BRANCH   1  27
ATOM     27  C   UNL A   1      41.767  22.585  26.178  1.00  0.00     0.261 C 
BRANCH  27  28
ATOM     28  O   UNL A   1      42.387  23.680  26.876  1.00  0.00    -0.460 OA
BRANCH  28  29
ATOM     29  C   UNL A   1      42.252  24.893  26.288  1.00  0.00     0.338 C 
ATOM     30  O   UNL A   1      42.252  25.132  25.090  1.00  0.00    -0.246 OA
BRANCH  29  31
ATOM     31  C   UNL A   1      41.863  25.887  27.309  1.00  0.00     0.060 A 
ATOM     32  C   UNL A   1      40.850  25.632  28.236  1.00  0.00     0.016 A 
ATOM     33  C   UNL A   1      42.558  27.104  27.337  1.00  0.00     0.016 A 
ATOM     34  C   UNL A   1      40.566  26.587  29.217  1.00  0.00     0.010 A 
ATOM     35  C   UNL A   1      42.273  28.055  28.317  1.00  0.00     0.010 A 
ATOM     36  C   UNL A   1      41.292  27.792  29.282  1.00  0.00    -0.014 A 
BRANCH  36  37
ATOM     37  C   UNL A   1      41.129  28.701  30.445  1.00  0.00     0.031 A 
ATOM     38  C   UNL A   1      40.069  29.761  30.480  1.00  0.00     0.074 A 
ATOM     39  C   UNL A   1      41.983  28.565  31.480  1.00  0.00     0.049 A 
ATOM     40  N   UNL A   1      39.762  30.579  31.455  1.00  0.00    -0.248 NA
ATOM     41  C   UNL A   1      39.255  29.935  29.269  1.00  0.00     0.031 C 
ATOM     42  C   UNL A   1      43.085  27.602  31.534  1.00  0.00     0.029 A 
ATOM     43  N   UNL A   1      42.057  29.223  32.681  1.00  0.00    -0.354 N 
ATOM     44  C   UNL A   1      38.703  31.348  30.991  1.00  0.00     0.074 A 
ATOM     45  C   UNL A   1      38.459  30.938  29.622  1.00  0.00     0.031 C 
ATOM     46  C   UNL A   1      43.697  27.701  32.723  1.00  0.00     0.029 A 
ATOM     47  C   UNL A   1      43.056  28.756  33.503  1.00  0.00     0.049 A 
ATOM     48  H   UNL A   1      41.453  29.959  32.931  1.00  0.00     0.167 HD
ATOM     49  C   UNL A   1      37.989  32.289  31.654  1.00  0.00     0.037 A 
ATOM     50  C   UNL A   1      43.415  29.129  34.747  1.00  0.00     0.037 A 
ATOM     51  C   UNL A   1      38.254  32.704  33.010  1.00  0.00     0.049 A 
ATOM     52  C   UNL A   1      42.634  30.208  35.444  1.00  0.00     0.074 A 
ATOM     53  C   UNL A   1      37.566  33.630  33.775  1.00  0.00     0.029 A 
ATOM     54  N   UNL A   1      39.295  32.234  33.799  1.00  0.00    -0.354 N 
ATOM     55  N   UNL A   1      41.587  30.873  35.017  1.00  0.00    -0.248 NA
ATOM     56  C   UNL A   1      43.079  30.588  36.792  1.00  0.00     0.031 C 
ATOM     57  C   UNL A   1      38.222  33.761  35.003  1.00  0.00     0.029 A 
ATOM     58  C   UNL A   1      39.283  32.871  35.031  1.00  0.00     0.049 A 
ATOM     59  H   UNL A   1      39.947  31.549  33.524  1.00  0.00     0.167 HD
ATOM     60  C   UNL A   1      41.231  31.729  36.054  1.00  0.00     0.074 A 
ATOM     61  C   UNL A   1      42.167  31.491  37.132  1.00  0.00     0.031 C 
ATOM     62  C   UNL A   1      40.217  32.627  36.103  1.00  0.00     0.037 A 
BRANCH  49  63
ATOM     63  C   UNL A   1      36.833  32.935  30.936  1.00  0.00     0.058 A 
ATOM     64  C   UNL A   1      35.505  32.587  31.231  1.00  0.00     0.135 A 
ATOM     65  C   UNL A   1      37.045  33.968  30.009  1.00  0.00     0.135 A 
ATOM     66  F   UNL A   1      35.242  31.601  32.104  1.00  0.00    -0.206 F 
ATOM     67  C   UNL A   1      34.431  33.224  30.620  1.00  0.00     0.059 A 
ATOM     68  C   UNL A   1      35.985  34.640  29.404  1.00  0.00     0.059 A 
ATOM     69  F   UNL A   1      38.294  34.346  29.691  1.00  0.00    -0.206 F 
ATOM     70  C   UNL A   1      34.681  34.252  29.710  1.00  0.00     0.060 A 
BRANCH  70  71
ATOM     71  S   UNL A   1      33.271  35.072  28.936  1.00  0.00     0.124 S 
ATOM     72  O   UNL A   1      32.385  35.268  30.080  1.00  0.00    -0.237 OA
ATOM     73  O   UNL A   1      33.877  36.282  28.391  1.00  0.00    -0.237 OA
ATOM     74  O   UNL A   1      32.811  34.102  27.948  1.00  0.00    -0.744 OA
ENDBRANCH  70  71
ENDBRANCH  49  63
BRANCH  50  75
ATOM     75  C   UNL A   1      44.543  28.436  35.425  1.00  0.00     0.058 A 
ATOM     76  C   UNL A   1      45.858  28.903  35.291  1.00  0.00     0.135 A 
ATOM     77  C   UNL A   1      44.325  27.320  36.248  1.00  0.00     0.135 A 
ATOM     78  F   UNL A   1      46.118  29.965  34.512  1.00  0.00    -0.206 F 
ATOM     79  C   UNL A   1      46.920  28.284  35.941  1.00  0.00     0.059 A 
ATOM     80  C   UNL A   1      45.367  26.701  36.930  1.00  0.00     0.059 A 
ATOM     81  F   UNL A   1      43.082  26.844  36.422  1.00  0.00    -0.206 F 
ATOM     82  C   UNL A   1      46.664  27.187  36.765  1.00  0.00     0.060 A 
BRANCH  82  83
ATOM     83  S   UNL A   1      48.045  26.429  37.645  1.00  0.00     0.124 S 
ATOM     84  O   UNL A   1      48.893  25.993  36.542  1.00  0.00    -0.237 OA
ATOM     85  O   UNL A   1      48.549  27.545  38.438  1.00  0.00    -0.237 OA
ATOM     86  O   UNL A   1      47.411  25.359  38.411  1.00  0.00    -0.744 OA
ENDBRANCH  82  83
ENDBRANCH  50  75
BRANCH  62  87
ATOM     87  C   UNL A   1      40.037  33.416  37.373  1.00  0.00     0.058 A 
ATOM     88  C   UNL A   1      40.793  34.568  37.639  1.00  0.00     0.135 A 
ATOM     89  C   UNL A   1      39.035  33.065  38.294  1.00  0.00     0.135 A 
ATOM     90  F   UNL A   1      41.770  34.945  36.799  1.00  0.00    -0.206 F 
ATOM     91  C   UNL A   1      40.568  35.340  38.775  1.00  0.00     0.059 A 
ATOM     92  C   UNL A   1      38.773  33.837  39.421  1.00  0.00     0.059 A 
ATOM     93  F   UNL A   1      38.278  31.975  38.086  1.00  0.00    -0.206 F 
ATOM     94  C   UNL A   1      39.547  34.972  39.655  1.00  0.00     0.060 A 
BRANCH  94  95
ATOM     95  S   UNL A   1      39.227  36.021  41.090  1.00  0.00     0.124 S 
ATOM     96  O   UNL A   1      40.574  36.453  41.447  1.00  0.00    -0.237 OA
ATOM     97  O   UNL A   1      38.357  37.052  40.532  1.00  0.00    -0.237 OA
ATOM     98  O   UNL A   1      38.586  35.116  42.039  1.00  0.00    -0.744 OA
ENDBRANCH  94  95
ENDBRANCH  62  87
ENDBRANCH  36  37
ENDBRANCH  29  31
ENDBRANCH  28  29
ENDBRANCH  27  28
ENDBRANCH   1  27
TORSDOF 19
ENDMDL
MODEL 3
REMARK VINA RESULT:     -11.1      6.553     11.840
REMARK SMILES CC(C)(C)c1cc2c(cc1Cl)C=C(C(=O)OCCOCCOC(=O)c1ccc(-c3c4nc(c(-c5c(F)cc(S(=O)(=O)[O-])cc5F)c5ccc([nH]5)c(-c5c(F)cc(S(=O)(=O)[O-])cc5F)c5nc(c(-c6c(F)cc(S(=O)(=O)[O-])cc6F)c6ccc3[nH]6)C=C5)C=C4)cc1)[C@H](C(F)(F)F)O2
REMARK SMILES IDX 20 1 19 2 18 3 17 4 16 5 14 6 15 7 13 8 5 9 6 10 10 11 7 12
REMARK SMILES IDX 9 13 11 14 8 15 96 16 12 17 91 18 2 19 1 20 3 21 4 22 92 23
REMARK SMILES IDX 93 24 94 25 95 26 21 27 22 28 23 29 24 30 25 31 26 32 90 33
REMARK SMILES IDX 27 34 89 35 28 36 29 37 30 38 83 39 31 40 88 41 82 42 84 43
REMARK SMILES IDX 32 44 87 45 81 46 80 47 33 49 67 50 46 51 66 52 47 53 50 54
REMARK SMILES IDX 65 55 85 56 48 57 49 58 64 60 86 61 51 62 34 63 35 64 44 65
REMARK SMILES IDX 36 66 37 67 43 68 45 69 38 70 39 71 40 72 41 73 42 74 68 75
REMARK SMILES IDX 69 76 78 77 70 78 71 79 77 80 79 81 72 82 73 83 74 84 75 85
REMARK SMILES IDX 76 86 52 87 53 88 62 89 54 90 55 91 61 92 63 93 56 94 57 95
REMARK SMILES IDX 58 96 59 97 60 98
REMARK H PARENT 84 48 50 59
REMARK Flexibility Score: inf
ROOT
ATOM      1  C   UNL A   1      35.122  31.730  27.887  1.00  0.00     0.202 C 
ENDROOT
BRANCH   1   2
ATOM      2  O   UNL A   1      34.134  30.927  27.237  1.00  0.00    -0.374 OA
BRANCH   2   3
ATOM      3  C   UNL A   1      32.793  31.414  27.221  1.00  0.00     0.202 C 
BRANCH   3   4
ATOM      4  C   UNL A   1      31.769  30.593  26.432  1.00  0.00     0.261 C 
BRANCH   4   5
ATOM      5  O   UNL A   1      32.404  29.525  25.711  1.00  0.00    -0.460 OA
BRANCH   5   6
ATOM      6  C   UNL A   1      31.606  28.898  24.824  1.00  0.00     0.338 C 
ATOM      7  O   UNL A   1      30.614  29.364  24.284  1.00  0.00    -0.246 OA
BRANCH   6   8
ATOM      8  C   UNL A   1      32.173  27.588  24.463  1.00  0.00     0.087 C 
ATOM      9  C   UNL A   1      34.972  23.403  24.931  1.00  0.00    -0.020 A 
ATOM     10  C   UNL A   1      34.632  24.297  23.872  1.00  0.00     0.053 A 
ATOM     11  C   UNL A   1      34.284  23.596  26.147  1.00  0.00     0.045 A 
ATOM     12  C   UNL A   1      33.735  25.354  24.032  1.00  0.00     0.128 A 
ATOM     13  C   UNL A   1      33.376  24.659  26.300  1.00  0.00     0.032 A 
ATOM     14  Cl  UNL A   1      34.477  22.653  27.582  1.00  0.00    -0.084 Cl
ATOM     15  C   UNL A   1      33.133  25.554  25.262  1.00  0.00     0.019 A 
ATOM     16  O   UNL A   1      33.583  26.204  22.971  1.00  0.00    -0.475 OA
ATOM     17  C   UNL A   1      32.397  26.777  25.506  1.00  0.00     0.027 C 
ATOM     18  C   UNL A   1      32.532  27.220  23.048  1.00  0.00     0.316 C 
BRANCH   9  19
ATOM     19  C   UNL A   1      36.122  22.404  24.649  1.00  0.00    -0.012 C 
ATOM     20  C   UNL A   1      35.613  20.946  24.777  1.00  0.00     0.016 C 
ATOM     21  C   UNL A   1      37.380  22.480  25.538  1.00  0.00     0.016 C 
ATOM     22  C   UNL A   1      36.609  22.644  23.197  1.00  0.00     0.016 C 
ENDBRANCH   9  19
BRANCH  18  23
ATOM     23  C   UNL A   1      31.329  26.766  22.194  1.00  0.00     0.430 C 
ATOM     24  F   UNL A   1      30.565  25.862  22.855  1.00  0.00    -0.167 F 
ATOM     25  F   UNL A   1      30.518  27.801  21.864  1.00  0.00    -0.167 F 
ATOM     26  F   UNL A   1      31.713  26.170  21.042  1.00  0.00    -0.167 F 
ENDBRANCH  18  23
ENDBRANCH   6   8
ENDBRANCH   5   6
ENDBRANCH   4   5
ENDBRANCH   3   4
ENDBRANCH   2   3
ENDBRANCH   1   2
BRANCH   1  27
ATOM     27  C   UNL A   1      35.371  31.477  29.380  1.00  0.00     0.261 C 
BRANCH  27  28
ATOM     28  O   UNL A   1      36.028  30.216  29.601  1.00  0.00    -0.460 OA
BRANCH  28  29
ATOM     29  C   UNL A   1      36.813  30.157  30.703  1.00  0.00     0.338 C 
ATOM     30  O   UNL A   1      36.444  30.049  31.863  1.00  0.00    -0.246 OA
BRANCH  29  31
ATOM     31  C   UNL A   1      38.223  30.003  30.288  1.00  0.00     0.060 A 
ATOM     32  C   UNL A   1      39.246  29.806  31.218  1.00  0.00     0.016 A 
ATOM     33  C   UNL A   1      38.510  30.042  28.917  1.00  0.00     0.016 A 
ATOM     34  C   UNL A   1      40.553  29.608  30.763  1.00  0.00     0.010 A 
ATOM     35  C   UNL A   1      39.814  29.843  28.465  1.00  0.00     0.010 A 
ATOM     36  C   UNL A   1      40.842  29.597  29.384  1.00  0.00    -0.014 A 
BRANCH  36  37
ATOM     37  C   UNL A   1      42.185  29.179  28.907  1.00  0.00     0.031 A 
ATOM     38  C   UNL A   1      42.471  27.770  28.480  1.00  0.00     0.074 A 
ATOM     39  C   UNL A   1      43.167  30.103  28.884  1.00  0.00     0.049 A 
ATOM     40  N   UNL A   1      43.572  27.275  27.973  1.00  0.00    -0.248 NA
ATOM     41  C   UNL A   1      41.391  26.787  28.648  1.00  0.00     0.031 C 
ATOM     42  C   UNL A   1      43.017  31.492  29.323  1.00  0.00     0.029 A 
ATOM     43  N   UNL A   1      44.472  30.023  28.470  1.00  0.00    -0.354 N 
ATOM     44  C   UNL A   1      43.315  25.932  27.736  1.00  0.00     0.074 A 
ATOM     45  C   UNL A   1      41.969  25.675  28.209  1.00  0.00     0.031 C 
ATOM     46  C   UNL A   1      44.170  32.144  29.116  1.00  0.00     0.029 A 
ATOM     47  C   UNL A   1      45.151  31.216  28.562  1.00  0.00     0.049 A 
ATOM     48  H   UNL A   1      44.883  29.192  28.140  1.00  0.00     0.167 HD
ATOM     49  C   UNL A   1      44.119  25.008  27.156  1.00  0.00     0.037 A 
ATOM     50  C   UNL A   1      46.419  31.531  28.232  1.00  0.00     0.037 A 
ATOM     51  C   UNL A   1      45.465  25.270  26.708  1.00  0.00     0.049 A 
ATOM     52  C   UNL A   1      47.305  30.476  27.633  1.00  0.00     0.074 A 
ATOM     53  C   UNL A   1      46.346  24.405  26.082  1.00  0.00     0.029 A 
ATOM     54  N   UNL A   1      46.132  26.480  26.848  1.00  0.00    -0.354 N 
ATOM     55  N   UNL A   1      47.021  29.227  27.345  1.00  0.00    -0.248 NA
ATOM     56  C   UNL A   1      48.684  30.868  27.308  1.00  0.00     0.031 C 
ATOM     57  C   UNL A   1      47.560  25.072  25.895  1.00  0.00     0.029 A 
ATOM     58  C   UNL A   1      47.420  26.373  26.346  1.00  0.00     0.049 A 
ATOM     59  H   UNL A   1      45.746  27.294  27.246  1.00  0.00     0.167 HD
ATOM     60  C   UNL A   1      48.175  28.694  26.781  1.00  0.00     0.074 A 
ATOM     61  C   UNL A   1      49.158  29.757  26.758  1.00  0.00     0.031 C 
ATOM     62  C   UNL A   1      48.394  27.438  26.322  1.00  0.00     0.037 A 
BRANCH  49  63
ATOM     63  C   UNL A   1      43.569  23.621  26.951  1.00  0.00     0.058 A 
ATOM     64  C   UNL A   1      43.414  22.732  28.027  1.00  0.00     0.135 A 
ATOM     65  C   UNL A   1      43.113  23.204  25.690  1.00  0.00     0.135 A 
ATOM     66  F   UNL A   1      43.840  23.073  29.254  1.00  0.00    -0.206 F 
ATOM     67  C   UNL A   1      42.848  21.473  27.857  1.00  0.00     0.059 A 
ATOM     68  C   UNL A   1      42.517  21.959  25.501  1.00  0.00     0.059 A 
ATOM     69  F   UNL A   1      43.231  24.014  24.626  1.00  0.00    -0.206 F 
ATOM     70  C   UNL A   1      42.398  21.097  26.591  1.00  0.00     0.060 A 
BRANCH  70  71
ATOM     71  S   UNL A   1      41.657  19.462  26.396  1.00  0.00     0.124 S 
ATOM     72  O   UNL A   1      40.244  19.800  26.253  1.00  0.00    -0.237 OA
ATOM     73  O   UNL A   1      42.314  18.967  25.191  1.00  0.00    -0.237 OA
ATOM     74  O   UNL A   1      42.014  18.775  27.632  1.00  0.00    -0.744 OA
ENDBRANCH  70  71
ENDBRANCH  49  63
BRANCH  50  75
ATOM     75  C   UNL A   1      46.903  32.924  28.424  1.00  0.00     0.058 A 
ATOM     76  C   UNL A   1      46.769  33.879  27.406  1.00  0.00     0.135 A 
ATOM     77  C   UNL A   1      47.472  33.338  29.639  1.00  0.00     0.135 A 
ATOM     78  F   UNL A   1      46.235  33.531  26.225  1.00  0.00    -0.206 F 
ATOM     79  C   UNL A   1      47.191  35.192  27.580  1.00  0.00     0.059 A 
ATOM     80  C   UNL A   1      47.875  34.653  29.847  1.00  0.00     0.059 A 
ATOM     81  F   UNL A   1      47.607  32.466  30.650  1.00  0.00    -0.206 F 
ATOM     82  C   UNL A   1      47.736  35.572  28.808  1.00  0.00     0.060 A 
BRANCH  82  83
ATOM     83  S   UNL A   1      48.227  37.294  29.037  1.00  0.00     0.124 S 
ATOM     84  O   UNL A   1      47.906  37.507  30.443  1.00  0.00    -0.237 OA
ATOM     85  O   UNL A   1      49.647  37.251  28.704  1.00  0.00    -0.237 OA
ATOM     86  O   UNL A   1      47.387  38.014  28.084  1.00  0.00    -0.744 OA
ENDBRANCH  82  83
ENDBRANCH  50  75
BRANCH  62  87
ATOM     87  C   UNL A   1      49.743  27.131  25.729  1.00  0.00     0.058 A 
ATOM     88  C   UNL A   1      50.005  27.304  24.361  1.00  0.00     0.135 A 
ATOM     89  C   UNL A   1      50.812  26.742  26.555  1.00  0.00     0.135 A 
ATOM     90  F   UNL A   1      49.019  27.665  23.524  1.00  0.00    -0.206 F 
ATOM     91  C   UNL A   1      51.275  27.096  23.831  1.00  0.00     0.059 A 
ATOM     92  C   UNL A   1      52.096  26.557  26.052  1.00  0.00     0.059 A 
ATOM     93  F   UNL A   1      50.619  26.567  27.872  1.00  0.00    -0.206 F 
ATOM     94  C   UNL A   1      52.318  26.733  24.687  1.00  0.00     0.060 A 
BRANCH  94  95
ATOM     95  S   UNL A   1      53.971  26.530  23.993  1.00  0.00     0.124 S 
ATOM     96  O   UNL A   1      53.672  26.244  22.594  1.00  0.00    -0.237 OA
ATOM     97  O   UNL A   1      54.580  27.831  24.257  1.00  0.00    -0.237 OA
ATOM     98  O   UNL A   1      54.529  25.418  24.755  1.00  0.00    -0.744 OA
ENDBRANCH  94  95
ENDBRANCH  62  87
ENDBRANCH  36  37
ENDBRANCH  29  31
ENDBRANCH  28  29
ENDBRANCH  27  28
ENDBRANCH   1  27
TORSDOF 19
ENDMDL
