MODEL 1
REMARK VINA RESULT:      -9.5      0.000      0.000
REMARK SMILES C=CC[N@@H+](CC(=O)OCCOCCOC(=O)c1ccc(-c2c3nc(c(-c4c(F)cc(S(=O)(=O)[O-])cc4F)c4ccc([nH]4)c(-c4c(F)cc(S(=O)(=O)[O-])cc4F)c4nc(c(-c5c(F)cc(S(=O)(=O)[O-])cc5F)c5ccc2[nH]5)C=C4)C=C3)cc1)[C@@H]1CCCOC1
REMARK SMILES IDX 11 1 10 2 9 3 8 4 6 5 7 6 5 7 4 8 3 10 2 11 1 12 83 13 84 14
REMARK SMILES IDX 88 15 85 16 87 17 86 18 12 19 13 20 14 21 15 22 16 23 17 24
REMARK SMILES IDX 18 25 82 26 19 27 81 28 20 29 21 30 22 31 75 32 23 33 80 34
REMARK SMILES IDX 74 35 76 36 24 37 79 38 73 39 72 40 25 42 59 43 38 44 58 45
REMARK SMILES IDX 39 46 42 47 57 48 77 49 40 50 41 51 56 53 78 54 43 55 26 56
REMARK SMILES IDX 27 57 36 58 28 59 29 60 35 61 37 62 30 63 31 64 32 65 33 66
REMARK SMILES IDX 34 67 60 68 61 69 70 70 62 71 63 72 69 73 71 74 64 75 65 76
REMARK SMILES IDX 66 77 67 78 68 79 44 80 45 81 54 82 46 83 47 84 53 85 55 86
REMARK SMILES IDX 48 87 49 88 50 89 51 90 52 91
REMARK H PARENT 4 9 76 41 42 52
REMARK Flexibility Score: inf
ROOT
ATOM      1  O   UNL A   1      39.420  21.583  25.751  1.00  0.00    -0.374 OA
ENDROOT
BRANCH   1   2
ATOM      2  C   UNL A   1      38.101  22.118  25.947  1.00  0.00     0.202 C 
BRANCH   2   3
ATOM      3  C   UNL A   1      37.185  21.984  24.721  1.00  0.00     0.261 C 
BRANCH   3   4
ATOM      4  O   UNL A   1      35.848  22.484  24.982  1.00  0.00    -0.459 OA
BRANCH   4   5
ATOM      5  C   UNL A   1      34.815  21.601  24.895  1.00  0.00     0.361 C 
ATOM      6  O   UNL A   1      34.935  20.385  24.993  1.00  0.00    -0.245 OA
BRANCH   5   7
ATOM      7  C   UNL A   1      33.478  22.267  24.554  1.00  0.00     0.387 C 
BRANCH   7   8
ATOM      8  N   UNL A   1      33.344  23.733  24.729  1.00  0.00    -0.318 N 
ATOM      9  H   UNL A   1      34.244  24.006  25.124  1.00  0.00     0.349 HD
BRANCH   8  10
ATOM     10  C   UNL A   1      32.327  24.081  25.726  1.00  0.00     0.291 C 
BRANCH  10  11
ATOM     11  C   UNL A   1      31.577  22.890  26.251  1.00  0.00     0.025 C 
ATOM     12  C   UNL A   1      30.299  22.937  26.651  1.00  0.00     0.010 C 
ENDBRANCH  10  11
ENDBRANCH   8  10
BRANCH   8  13
ATOM     13  C   UNL A   1      33.369  24.579  23.516  1.00  0.00     0.211 C 
ATOM     14  C   UNL A   1      32.433  25.786  23.559  1.00  0.00     0.070 C 
ATOM     15  C   UNL A   1      33.127  23.809  22.196  1.00  0.00     0.225 C 
ATOM     16  C   UNL A   1      32.507  26.617  22.285  1.00  0.00     0.035 C 
ATOM     17  O   UNL A   1      33.254  24.671  21.055  1.00  0.00    -0.375 OA
ATOM     18  C   UNL A   1      32.299  25.731  21.069  1.00  0.00     0.160 C 
ENDBRANCH   8  13
ENDBRANCH   7   8
ENDBRANCH   5   7
ENDBRANCH   4   5
ENDBRANCH   3   4
ENDBRANCH   2   3
ENDBRANCH   1   2
BRANCH   1  19
ATOM     19  C   UNL A   1      40.315  21.804  26.839  1.00  0.00     0.202 C 
BRANCH  19  20
ATOM     20  C   UNL A   1      41.627  22.473  26.425  1.00  0.00     0.261 C 
BRANCH  20  21
ATOM     21  O   UNL A   1      41.444  23.894  26.338  1.00  0.00    -0.460 OA
BRANCH  21  22
ATOM     22  C   UNL A   1      42.432  24.605  26.924  1.00  0.00     0.338 C 
ATOM     23  O   UNL A   1      43.633  24.523  26.713  1.00  0.00    -0.246 OA
BRANCH  22  24
ATOM     24  C   UNL A   1      41.840  25.673  27.736  1.00  0.00     0.060 A 
ATOM     25  C   UNL A   1      42.626  26.810  27.944  1.00  0.00     0.016 A 
ATOM     26  C   UNL A   1      40.589  25.538  28.343  1.00  0.00     0.016 A 
ATOM     27  C   UNL A   1      42.198  27.786  28.831  1.00  0.00     0.010 A 
ATOM     28  C   UNL A   1      40.154  26.528  29.229  1.00  0.00     0.010 A 
ATOM     29  C   UNL A   1      40.985  27.625  29.515  1.00  0.00    -0.014 A 
BRANCH  29  30
ATOM     30  C   UNL A   1      40.712  28.517  30.664  1.00  0.00     0.031 A 
ATOM     31  C   UNL A   1      41.595  28.412  31.879  1.00  0.00     0.074 A 
ATOM     32  C   UNL A   1      39.767  29.468  30.568  1.00  0.00     0.049 A 
ATOM     33  N   UNL A   1      41.611  29.149  32.957  1.00  0.00    -0.248 NA
ATOM     34  C   UNL A   1      42.597  27.332  31.875  1.00  0.00     0.031 C 
ATOM     35  C   UNL A   1      38.884  29.663  29.417  1.00  0.00     0.029 A 
ATOM     36  N   UNL A   1      39.407  30.462  31.440  1.00  0.00    -0.354 N 
ATOM     37  C   UNL A   1      42.621  28.625  33.758  1.00  0.00     0.074 A 
ATOM     38  C   UNL A   1      43.170  27.484  33.060  1.00  0.00     0.031 C 
ATOM     39  C   UNL A   1      38.091  30.722  29.649  1.00  0.00     0.029 A 
ATOM     40  C   UNL A   1      38.397  31.266  30.970  1.00  0.00     0.049 A 
ATOM     41  H   UNL A   1      39.830  30.586  32.320  1.00  0.00     0.167 HD
ATOM     42  C   UNL A   1      43.061  29.069  34.958  1.00  0.00     0.037 A 
ATOM     43  C   UNL A   1      37.793  32.324  31.546  1.00  0.00     0.037 A 
ATOM     44  C   UNL A   1      42.505  30.212  35.632  1.00  0.00     0.049 A 
ATOM     45  C   UNL A   1      38.278  32.781  32.895  1.00  0.00     0.074 A 
ATOM     46  C   UNL A   1      42.870  30.762  36.847  1.00  0.00     0.029 A 
ATOM     47  N   UNL A   1      41.459  30.982  35.140  1.00  0.00    -0.354 N 
ATOM     48  N   UNL A   1      39.248  32.289  33.631  1.00  0.00    -0.248 NA
ATOM     49  C   UNL A   1      37.597  33.937  33.491  1.00  0.00     0.031 C 
ATOM     50  C   UNL A   1      42.017  31.840  37.109  1.00  0.00     0.029 A 
ATOM     51  C   UNL A   1      41.150  31.989  36.036  1.00  0.00     0.049 A 
ATOM     52  H   UNL A   1      41.004  30.833  34.280  1.00  0.00     0.167 HD
ATOM     53  C   UNL A   1      39.303  33.081  34.771  1.00  0.00     0.074 A 
ATOM     54  C   UNL A   1      38.279  34.098  34.618  1.00  0.00     0.031 C 
ATOM     55  C   UNL A   1      40.119  32.980  35.851  1.00  0.00     0.037 A 
BRANCH  42  56
ATOM     56  C   UNL A   1      44.172  28.300  35.622  1.00  0.00     0.058 A 
ATOM     57  C   UNL A   1      45.524  28.596  35.383  1.00  0.00     0.135 A 
ATOM     58  C   UNL A   1      43.881  27.257  36.517  1.00  0.00     0.135 A 
ATOM     59  F   UNL A   1      45.861  29.568  34.521  1.00  0.00    -0.206 F 
ATOM     60  C   UNL A   1      46.547  27.867  35.982  1.00  0.00     0.059 A 
ATOM     61  C   UNL A   1      44.889  26.531  37.147  1.00  0.00     0.059 A 
ATOM     62  F   UNL A   1      42.607  26.928  36.778  1.00  0.00    -0.206 F 
ATOM     63  C   UNL A   1      46.219  26.833  36.861  1.00  0.00     0.060 A 
BRANCH  63  64
ATOM     64  S   UNL A   1      47.555  25.892  37.629  1.00  0.00     0.124 S 
ATOM     65  O   UNL A   1      48.088  26.865  38.578  1.00  0.00    -0.237 OA
ATOM     66  O   UNL A   1      46.844  24.760  38.215  1.00  0.00    -0.237 OA
ATOM     67  O   UNL A   1      48.431  25.565  36.508  1.00  0.00    -0.744 OA
ENDBRANCH  63  64
ENDBRANCH  42  56
BRANCH  43  68
ATOM     68  C   UNL A   1      36.675  33.011  30.844  1.00  0.00     0.058 A 
ATOM     69  C   UNL A   1      35.342  32.834  31.242  1.00  0.00     0.135 A 
ATOM     70  C   UNL A   1      36.926  33.891  29.780  1.00  0.00     0.135 A 
ATOM     71  F   UNL A   1      35.047  31.999  32.249  1.00  0.00    -0.206 F 
ATOM     72  C   UNL A   1      34.297  33.501  30.607  1.00  0.00     0.059 A 
ATOM     73  C   UNL A   1      35.903  34.587  29.145  1.00  0.00     0.059 A 
ATOM     74  F   UNL A   1      38.185  34.107  29.369  1.00  0.00    -0.206 F 
ATOM     75  C   UNL A   1      34.588  34.381  29.563  1.00  0.00     0.060 A 
BRANCH  75  76
ATOM     76  S   UNL A   1      33.236  35.298  28.793  1.00  0.00     0.124 S 
ATOM     77  O   UNL A   1      33.962  36.288  28.007  1.00  0.00    -0.237 OA
ATOM     78  O   UNL A   1      32.551  34.256  28.034  1.00  0.00    -0.237 OA
ATOM     79  O   UNL A   1      32.491  35.820  29.936  1.00  0.00    -0.744 OA
ENDBRANCH  75  76
ENDBRANCH  43  68
BRANCH  55  80
ATOM     80  C   UNL A   1      39.936  33.997  36.940  1.00  0.00     0.058 A 
ATOM     81  C   UNL A   1      40.526  35.268  36.859  1.00  0.00     0.135 A 
ATOM     82  C   UNL A   1      39.121  33.716  38.047  1.00  0.00     0.135 A 
ATOM     83  F   UNL A   1      41.318  35.581  35.822  1.00  0.00    -0.206 F 
ATOM     84  C   UNL A   1      40.333  36.219  37.854  1.00  0.00     0.059 A 
ATOM     85  C   UNL A   1      38.893  34.662  39.041  1.00  0.00     0.059 A 
ATOM     86  F   UNL A   1      38.524  32.519  38.161  1.00  0.00    -0.206 F 
ATOM     87  C   UNL A   1      39.514  35.907  38.942  1.00  0.00     0.060 A 
BRANCH  87  88
ATOM     88  S   UNL A   1      39.248  37.160  40.212  1.00  0.00     0.124 S 
ATOM     89  O   UNL A   1      40.618  37.521  40.558  1.00  0.00    -0.237 OA
ATOM     90  O   UNL A   1      38.486  38.177  39.495  1.00  0.00    -0.237 OA
ATOM     91  O   UNL A   1      38.507  36.443  41.245  1.00  0.00    -0.744 OA
ENDBRANCH  87  88
ENDBRANCH  55  80
ENDBRANCH  29  30
ENDBRANCH  22  24
ENDBRANCH  21  22
ENDBRANCH  20  21
ENDBRANCH  19  20
ENDBRANCH   1  19
TORSDOF 21
ENDMDL
MODEL 2
REMARK VINA RESULT:      -9.4      1.130      2.407
REMARK SMILES C=CC[N@@H+](CC(=O)OCCOCCOC(=O)c1ccc(-c2c3nc(c(-c4c(F)cc(S(=O)(=O)[O-])cc4F)c4ccc([nH]4)c(-c4c(F)cc(S(=O)(=O)[O-])cc4F)c4nc(c(-c5c(F)cc(S(=O)(=O)[O-])cc5F)c5ccc2[nH]5)C=C4)C=C3)cc1)[C@@H]1CCCOC1
REMARK SMILES IDX 11 1 10 2 9 3 8 4 6 5 7 6 5 7 4 8 3 10 2 11 1 12 83 13 84 14
REMARK SMILES IDX 88 15 85 16 87 17 86 18 12 19 13 20 14 21 15 22 16 23 17 24
REMARK SMILES IDX 18 25 82 26 19 27 81 28 20 29 21 30 22 31 75 32 23 33 80 34
REMARK SMILES IDX 74 35 76 36 24 37 79 38 73 39 72 40 25 42 59 43 38 44 58 45
REMARK SMILES IDX 39 46 42 47 57 48 77 49 40 50 41 51 56 53 78 54 43 55 26 56
REMARK SMILES IDX 27 57 36 58 28 59 29 60 35 61 37 62 30 63 31 64 32 65 33 66
REMARK SMILES IDX 34 67 60 68 61 69 70 70 62 71 63 72 69 73 71 74 64 75 65 76
REMARK SMILES IDX 66 77 67 78 68 79 44 80 45 81 54 82 46 83 47 84 53 85 55 86
REMARK SMILES IDX 48 87 49 88 50 89 51 90 52 91
REMARK H PARENT 4 9 76 41 42 52
REMARK Flexibility Score: inf
ROOT
ATOM      1  O   UNL A   1      39.177  22.304  26.788  1.00  0.00    -0.374 OA
ENDROOT
BRANCH   1   2
ATOM      2  C   UNL A   1      38.745  21.847  25.497  1.00  0.00     0.202 C 
BRANCH   2   3
ATOM      3  C   UNL A   1      37.223  21.673  25.373  1.00  0.00     0.261 C 
BRANCH   3   4
ATOM      4  O   UNL A   1      36.759  21.876  24.014  1.00  0.00    -0.459 OA
BRANCH   4   5
ATOM      5  C   UNL A   1      35.594  22.558  23.839  1.00  0.00     0.361 C 
ATOM      6  O   UNL A   1      35.476  23.554  23.133  1.00  0.00    -0.245 OA
BRANCH   5   7
ATOM      7  C   UNL A   1      34.445  22.024  24.699  1.00  0.00     0.387 C 
BRANCH   7   8
ATOM      8  N   UNL A   1      33.159  21.686  24.044  1.00  0.00    -0.318 N 
ATOM      9  H   UNL A   1      33.415  21.576  23.063  1.00  0.00     0.349 HD
BRANCH   8  10
ATOM     10  C   UNL A   1      32.200  22.794  24.103  1.00  0.00     0.291 C 
BRANCH  10  11
ATOM     11  C   UNL A   1      31.991  23.326  25.492  1.00  0.00     0.025 C 
ATOM     12  C   UNL A   1      31.080  22.837  26.344  1.00  0.00     0.010 C 
ENDBRANCH  10  11
ENDBRANCH   8  10
BRANCH   8  13
ATOM     13  C   UNL A   1      32.597  20.339  24.278  1.00  0.00     0.211 C 
ATOM     14  C   UNL A   1      33.168  19.609  25.493  1.00  0.00     0.070 C 
ATOM     15  C   UNL A   1      32.668  19.396  23.052  1.00  0.00     0.225 C 
ATOM     16  C   UNL A   1      32.548  18.231  25.681  1.00  0.00     0.035 C 
ATOM     17  O   UNL A   1      32.026  18.140  23.319  1.00  0.00    -0.375 OA
ATOM     18  C   UNL A   1      32.646  17.433  24.392  1.00  0.00     0.160 C 
ENDBRANCH   8  13
ENDBRANCH   7   8
ENDBRANCH   5   7
ENDBRANCH   4   5
ENDBRANCH   3   4
ENDBRANCH   2   3
ENDBRANCH   1   2
BRANCH   1  19
ATOM     19  C   UNL A   1      40.396  21.721  27.243  1.00  0.00     0.202 C 
BRANCH  19  20
ATOM     20  C   UNL A   1      41.646  22.431  26.720  1.00  0.00     0.261 C 
BRANCH  20  21
ATOM     21  O   UNL A   1      41.948  23.564  27.546  1.00  0.00    -0.460 OA
BRANCH  21  22
ATOM     22  C   UNL A   1      42.013  24.730  26.868  1.00  0.00     0.338 C 
ATOM     23  O   UNL A   1      42.337  24.893  25.700  1.00  0.00    -0.246 OA
BRANCH  22  24
ATOM     24  C   UNL A   1      41.433  25.798  27.687  1.00  0.00     0.060 A 
ATOM     25  C   UNL A   1      42.191  26.963  27.827  1.00  0.00     0.016 A 
ATOM     26  C   UNL A   1      40.220  25.639  28.364  1.00  0.00     0.016 A 
ATOM     27  C   UNL A   1      41.781  27.946  28.715  1.00  0.00     0.010 A 
ATOM     28  C   UNL A   1      39.802  26.635  29.250  1.00  0.00     0.010 A 
ATOM     29  C   UNL A   1      40.611  27.764  29.467  1.00  0.00    -0.014 A 
BRANCH  29  30
ATOM     30  C   UNL A   1      40.372  28.674  30.609  1.00  0.00     0.031 A 
ATOM     31  C   UNL A   1      41.266  28.562  31.815  1.00  0.00     0.074 A 
ATOM     32  C   UNL A   1      39.447  29.646  30.514  1.00  0.00     0.049 A 
ATOM     33  N   UNL A   1      41.312  29.310  32.885  1.00  0.00    -0.248 NA
ATOM     34  C   UNL A   1      42.244  27.459  31.812  1.00  0.00     0.031 C 
ATOM     35  C   UNL A   1      38.556  29.848  29.370  1.00  0.00     0.029 A 
ATOM     36  N   UNL A   1      39.120  30.656  31.379  1.00  0.00    -0.354 N 
ATOM     37  C   UNL A   1      42.319  28.772  33.679  1.00  0.00     0.074 A 
ATOM     38  C   UNL A   1      42.833  27.612  32.988  1.00  0.00     0.031 C 
ATOM     39  C   UNL A   1      37.790  30.927  29.600  1.00  0.00     0.029 A 
ATOM     40  C   UNL A   1      38.123  31.478  30.911  1.00  0.00     0.049 A 
ATOM     41  H   UNL A   1      39.555  30.780  32.252  1.00  0.00     0.167 HD
ATOM     42  C   UNL A   1      42.782  29.218  34.870  1.00  0.00     0.037 A 
ATOM     43  C   UNL A   1      37.549  32.555  31.482  1.00  0.00     0.037 A 
ATOM     44  C   UNL A   1      42.260  30.380  35.537  1.00  0.00     0.049 A 
ATOM     45  C   UNL A   1      38.060  33.016  32.821  1.00  0.00     0.074 A 
ATOM     46  C   UNL A   1      42.651  30.935  36.743  1.00  0.00     0.029 A 
ATOM     47  N   UNL A   1      41.225  31.169  35.049  1.00  0.00    -0.354 N 
ATOM     48  N   UNL A   1      39.028  32.510  33.551  1.00  0.00    -0.248 NA
ATOM     49  C   UNL A   1      37.413  34.193  33.412  1.00  0.00     0.031 C 
ATOM     50  C   UNL A   1      41.825  32.035  37.002  1.00  0.00     0.029 A 
ATOM     51  C   UNL A   1      40.949  32.192  35.938  1.00  0.00     0.049 A 
ATOM     52  H   UNL A   1      40.757  31.020  34.196  1.00  0.00     0.167 HD
ATOM     53  C   UNL A   1      39.113  33.312  34.682  1.00  0.00     0.074 A 
ATOM     54  C   UNL A   1      38.111  34.350  34.530  1.00  0.00     0.031 C 
ATOM     55  C   UNL A   1      39.939  33.204  35.754  1.00  0.00     0.037 A 
BRANCH  42  56
ATOM     56  C   UNL A   1      43.883  28.431  35.530  1.00  0.00     0.058 A 
ATOM     57  C   UNL A   1      43.612  27.402  36.446  1.00  0.00     0.135 A 
ATOM     58  C   UNL A   1      45.229  28.706  35.236  1.00  0.00     0.135 A 
ATOM     59  F   UNL A   1      42.345  27.110  36.780  1.00  0.00    -0.206 F 
ATOM     60  C   UNL A   1      44.635  26.693  37.070  1.00  0.00     0.059 A 
ATOM     61  C   UNL A   1      46.268  27.992  35.830  1.00  0.00     0.059 A 
ATOM     62  F   UNL A   1      45.546  29.683  34.373  1.00  0.00    -0.206 F 
ATOM     63  C   UNL A   1      45.960  26.998  36.758  1.00  0.00     0.060 A 
BRANCH  63  64
ATOM     64  S   UNL A   1      47.279  26.075  37.577  1.00  0.00     0.124 S 
ATOM     65  O   UNL A   1      48.366  26.201  36.610  1.00  0.00    -0.237 OA
ATOM     66  O   UNL A   1      47.451  26.813  38.823  1.00  0.00    -0.237 OA
ATOM     67  O   UNL A   1      46.719  24.735  37.718  1.00  0.00    -0.744 OA
ENDBRANCH  63  64
ENDBRANCH  42  56
BRANCH  43  68
ATOM     68  C   UNL A   1      36.439  33.260  30.786  1.00  0.00     0.058 A 
ATOM     69  C   UNL A   1      35.100  33.051  31.145  1.00  0.00     0.135 A 
ATOM     70  C   UNL A   1      36.703  34.188  29.767  1.00  0.00     0.135 A 
ATOM     71  F   UNL A   1      34.793  32.169  32.108  1.00  0.00    -0.206 F 
ATOM     72  C   UNL A   1      34.062  33.734  30.516  1.00  0.00     0.059 A 
ATOM     73  C   UNL A   1      35.686  34.900  29.140  1.00  0.00     0.059 A 
ATOM     74  F   UNL A   1      37.969  34.436  29.395  1.00  0.00    -0.206 F 
ATOM     75  C   UNL A   1      34.365  34.661  29.519  1.00  0.00     0.060 A 
BRANCH  75  76
ATOM     76  S   UNL A   1      33.020  35.597  28.758  1.00  0.00     0.124 S 
ATOM     77  O   UNL A   1      33.753  36.581  27.971  1.00  0.00    -0.237 OA
ATOM     78  O   UNL A   1      32.319  34.565  28.000  1.00  0.00    -0.237 OA
ATOM     79  O   UNL A   1      32.287  36.124  29.907  1.00  0.00    -0.744 OA
ENDBRANCH  75  76
ENDBRANCH  43  68
BRANCH  55  80
ATOM     80  C   UNL A   1      39.792  34.236  36.834  1.00  0.00     0.058 A 
ATOM     81  C   UNL A   1      38.948  34.027  37.934  1.00  0.00     0.135 A 
ATOM     82  C   UNL A   1      40.544  35.421  36.793  1.00  0.00     0.135 A 
ATOM     83  F   UNL A   1      38.205  32.911  38.015  1.00  0.00    -0.206 F 
ATOM     84  C   UNL A   1      38.834  34.970  38.949  1.00  0.00     0.059 A 
ATOM     85  C   UNL A   1      40.465  36.367  37.810  1.00  0.00     0.059 A 
ATOM     86  F   UNL A   1      41.375  35.660  35.767  1.00  0.00    -0.206 F 
ATOM     87  C   UNL A   1      39.598  36.138  38.878  1.00  0.00     0.060 A 
BRANCH  87  88
ATOM     88  S   UNL A   1      39.464  37.342  40.215  1.00  0.00     0.124 S 
ATOM     89  O   UNL A   1      38.537  38.312  39.642  1.00  0.00    -0.237 OA
ATOM     90  O   UNL A   1      38.938  36.535  41.312  1.00  0.00    -0.237 OA
ATOM     91  O   UNL A   1      40.835  37.809  40.389  1.00  0.00    -0.744 OA
ENDBRANCH  87  88
ENDBRANCH  55  80
ENDBRANCH  29  30
ENDBRANCH  22  24
ENDBRANCH  21  22
ENDBRANCH  20  21
ENDBRANCH  19  20
ENDBRANCH   1  19
TORSDOF 21
ENDMDL
MODEL 3
REMARK VINA RESULT:      -9.4      3.185      9.784
REMARK SMILES C=CC[N@@H+](CC(=O)OCCOCCOC(=O)c1ccc(-c2c3nc(c(-c4c(F)cc(S(=O)(=O)[O-])cc4F)c4ccc([nH]4)c(-c4c(F)cc(S(=O)(=O)[O-])cc4F)c4nc(c(-c5c(F)cc(S(=O)(=O)[O-])cc5F)c5ccc2[nH]5)C=C4)C=C3)cc1)[C@@H]1CCCOC1
REMARK SMILES IDX 11 1 10 2 9 3 8 4 6 5 7 6 5 7 4 8 3 10 2 11 1 12 83 13 84 14
REMARK SMILES IDX 88 15 85 16 87 17 86 18 12 19 13 20 14 21 15 22 16 23 17 24
REMARK SMILES IDX 18 25 82 26 19 27 81 28 20 29 21 30 22 31 75 32 23 33 80 34
REMARK SMILES IDX 74 35 76 36 24 37 79 38 73 39 72 40 25 42 59 43 38 44 58 45
REMARK SMILES IDX 39 46 42 47 57 48 77 49 40 50 41 51 56 53 78 54 43 55 26 56
REMARK SMILES IDX 27 57 36 58 28 59 29 60 35 61 37 62 30 63 31 64 32 65 33 66
REMARK SMILES IDX 34 67 60 68 61 69 70 70 62 71 63 72 69 73 71 74 64 75 65 76
REMARK SMILES IDX 66 77 67 78 68 79 44 80 45 81 54 82 46 83 47 84 53 85 55 86
REMARK SMILES IDX 48 87 49 88 50 89 51 90 52 91
REMARK H PARENT 4 9 76 41 42 52
REMARK Flexibility Score: inf
ROOT
ATOM      1  O   UNL A   1      31.667  29.643  24.679  1.00  0.00    -0.374 OA
ENDROOT
BRANCH   1   2
ATOM      2  C   UNL A   1      31.211  28.600  23.803  1.00  0.00     0.202 C 
BRANCH   2   3
ATOM      3  C   UNL A   1      32.287  28.080  22.837  1.00  0.00     0.261 C 
BRANCH   3   4
ATOM      4  O   UNL A   1      31.881  26.854  22.176  1.00  0.00    -0.459 OA
BRANCH   4   5
ATOM      5  C   UNL A   1      32.858  25.975  21.819  1.00  0.00     0.361 C 
ATOM      6  O   UNL A   1      33.169  25.723  20.659  1.00  0.00    -0.245 OA
BRANCH   5   7
ATOM      7  C   UNL A   1      33.476  25.239  23.011  1.00  0.00     0.387 C 
BRANCH   7   8
ATOM      8  N   UNL A   1      32.667  24.218  23.718  1.00  0.00    -0.318 N 
ATOM      9  H   UNL A   1      31.875  24.069  23.091  1.00  0.00     0.349 HD
BRANCH   8  10
ATOM     10  C   UNL A   1      32.113  24.724  24.977  1.00  0.00     0.291 C 
BRANCH  10  11
ATOM     11  C   UNL A   1      30.658  25.088  24.883  1.00  0.00     0.025 C 
ATOM     12  C   UNL A   1      29.998  25.754  25.839  1.00  0.00     0.010 C 
ENDBRANCH  10  11
ENDBRANCH   8  10
BRANCH   8  13
ATOM     13  C   UNL A   1      33.183  22.833  23.755  1.00  0.00     0.211 C 
ATOM     14  C   UNL A   1      32.179  21.790  24.245  1.00  0.00     0.070 C 
ATOM     15  C   UNL A   1      34.502  22.664  24.547  1.00  0.00     0.225 C 
ATOM     16  C   UNL A   1      32.768  20.385  24.259  1.00  0.00     0.035 C 
ATOM     17  O   UNL A   1      34.993  21.317  24.468  1.00  0.00    -0.375 OA
ATOM     18  C   UNL A   1      34.079  20.375  25.027  1.00  0.00     0.160 C 
ENDBRANCH   8  13
ENDBRANCH   7   8
ENDBRANCH   5   7
ENDBRANCH   4   5
ENDBRANCH   3   4
ENDBRANCH   2   3
ENDBRANCH   1   2
BRANCH   1  19
ATOM     19  C   UNL A   1      31.844  29.239  26.036  1.00  0.00     0.202 C 
BRANCH  19  20
ATOM     20  C   UNL A   1      32.458  30.325  26.921  1.00  0.00     0.261 C 
BRANCH  20  21
ATOM     21  O   UNL A   1      33.889  30.287  26.820  1.00  0.00    -0.460 OA
BRANCH  21  22
ATOM     22  C   UNL A   1      34.521  30.973  27.796  1.00  0.00     0.338 C 
ATOM     23  O   UNL A   1      34.081  31.904  28.456  1.00  0.00    -0.246 OA
BRANCH  22  24
ATOM     24  C   UNL A   1      35.785  30.303  28.115  1.00  0.00     0.060 A 
ATOM     25  C   UNL A   1      35.852  29.643  29.346  1.00  0.00     0.016 A 
ATOM     26  C   UNL A   1      36.900  30.381  27.276  1.00  0.00     0.016 A 
ATOM     27  C   UNL A   1      37.062  29.128  29.783  1.00  0.00     0.010 A 
ATOM     28  C   UNL A   1      38.117  29.852  27.714  1.00  0.00     0.010 A 
ATOM     29  C   UNL A   1      38.211  29.274  28.991  1.00  0.00    -0.014 A 
BRANCH  29  30
ATOM     30  C   UNL A   1      39.523  28.993  29.614  1.00  0.00     0.031 A 
ATOM     31  C   UNL A   1      39.904  29.750  30.858  1.00  0.00     0.074 A 
ATOM     32  C   UNL A   1      40.298  28.005  29.135  1.00  0.00     0.049 A 
ATOM     33  N   UNL A   1      40.948  29.606  31.630  1.00  0.00    -0.248 NA
ATOM     34  C   UNL A   1      38.979  30.813  31.294  1.00  0.00     0.031 C 
ATOM     35  C   UNL A   1      39.995  27.198  27.952  1.00  0.00     0.029 A 
ATOM     36  N   UNL A   1      41.485  27.496  29.594  1.00  0.00    -0.354 N 
ATOM     37  C   UNL A   1      40.807  30.553  32.638  1.00  0.00     0.074 A 
ATOM     38  C   UNL A   1      39.597  31.294  32.362  1.00  0.00     0.031 C 
ATOM     39  C   UNL A   1      40.965  26.284  27.785  1.00  0.00     0.029 A 
ATOM     40  C   UNL A   1      41.965  26.455  28.837  1.00  0.00     0.049 A 
ATOM     41  H   UNL A   1      41.948  27.844  30.388  1.00  0.00     0.167 HD
ATOM     42  C   UNL A   1      41.608  30.772  33.708  1.00  0.00     0.037 A 
ATOM     43  C   UNL A   1      43.088  25.724  28.982  1.00  0.00     0.037 A 
ATOM     44  C   UNL A   1      42.804  30.017  33.968  1.00  0.00     0.049 A 
ATOM     45  C   UNL A   1      43.979  26.004  30.162  1.00  0.00     0.074 A 
ATOM     46  C   UNL A   1      43.693  30.140  35.020  1.00  0.00     0.029 A 
ATOM     47  N   UNL A   1      43.279  28.992  33.159  1.00  0.00    -0.354 N 
ATOM     48  N   UNL A   1      43.823  26.889  31.120  1.00  0.00    -0.248 NA
ATOM     49  C   UNL A   1      45.193  25.188  30.290  1.00  0.00     0.031 C 
ATOM     50  C   UNL A   1      44.727  29.217  34.825  1.00  0.00     0.029 A 
ATOM     51  C   UNL A   1      44.459  28.488  33.676  1.00  0.00     0.049 A 
ATOM     52  H   UNL A   1      42.840  28.672  32.338  1.00  0.00     0.167 HD
ATOM     53  C   UNL A   1      44.910  26.730  31.970  1.00  0.00     0.074 A 
ATOM     54  C   UNL A   1      45.707  25.648  31.423  1.00  0.00     0.031 C 
ATOM     55  C   UNL A   1      45.228  27.413  33.098  1.00  0.00     0.037 A 
BRANCH  42  56
ATOM     56  C   UNL A   1      41.227  31.883  34.649  1.00  0.00     0.058 A 
ATOM     57  C   UNL A   1      41.731  33.185  34.502  1.00  0.00     0.135 A 
ATOM     58  C   UNL A   1      40.338  31.643  35.710  1.00  0.00     0.135 A 
ATOM     59  F   UNL A   1      42.601  33.466  33.518  1.00  0.00    -0.206 F 
ATOM     60  C   UNL A   1      41.393  34.203  35.390  1.00  0.00     0.059 A 
ATOM     61  C   UNL A   1      39.967  32.653  36.595  1.00  0.00     0.059 A 
ATOM     62  F   UNL A   1      39.830  30.416  35.902  1.00  0.00    -0.206 F 
ATOM     63  C   UNL A   1      40.512  33.926  36.436  1.00  0.00     0.060 A 
BRANCH  63  64
ATOM     64  S   UNL A   1      40.084  35.253  37.583  1.00  0.00     0.124 S 
ATOM     65  O   UNL A   1      41.330  35.406  38.329  1.00  0.00    -0.237 OA
ATOM     66  O   UNL A   1      39.748  36.350  36.682  1.00  0.00    -0.237 OA
ATOM     67  O   UNL A   1      38.965  34.702  38.340  1.00  0.00    -0.744 OA
ENDBRANCH  63  64
ENDBRANCH  42  56
BRANCH  43  68
ATOM     68  C   UNL A   1      43.418  24.666  27.989  1.00  0.00     0.058 A 
ATOM     69  C   UNL A   1      44.260  24.924  26.898  1.00  0.00     0.135 A 
ATOM     70  C   UNL A   1      42.922  23.362  28.135  1.00  0.00     0.135 A 
ATOM     71  F   UNL A   1      44.755  26.156  26.708  1.00  0.00    -0.206 F 
ATOM     72  C   UNL A   1      44.596  23.928  25.985  1.00  0.00     0.059 A 
ATOM     73  C   UNL A   1      43.262  22.343  27.251  1.00  0.00     0.059 A 
ATOM     74  F   UNL A   1      42.123  23.059  29.171  1.00  0.00    -0.206 F 
ATOM     75  C   UNL A   1      44.096  22.638  26.174  1.00  0.00     0.060 A 
BRANCH  75  76
ATOM     76  S   UNL A   1      44.594  21.333  25.028  1.00  0.00     0.124 S 
ATOM     77  O   UNL A   1      45.951  21.048  25.477  1.00  0.00    -0.237 OA
ATOM     78  O   UNL A   1      43.601  20.296  25.293  1.00  0.00    -0.237 OA
ATOM     79  O   UNL A   1      44.482  21.974  23.720  1.00  0.00    -0.744 OA
ENDBRANCH  75  76
ENDBRANCH  43  68
BRANCH  55  80
ATOM     80  C   UNL A   1      46.485  27.005  33.811  1.00  0.00     0.058 A 
ATOM     81  C   UNL A   1      46.477  25.994  34.783  1.00  0.00     0.135 A 
ATOM     82  C   UNL A   1      47.714  27.594  33.478  1.00  0.00     0.135 A 
ATOM     83  F   UNL A   1      45.325  25.405  35.138  1.00  0.00    -0.206 F 
ATOM     84  C   UNL A   1      47.646  25.596  35.421  1.00  0.00     0.059 A 
ATOM     85  C   UNL A   1      48.900  27.194  34.087  1.00  0.00     0.059 A 
ATOM     86  F   UNL A   1      47.774  28.556  32.544  1.00  0.00    -0.206 F 
ATOM     87  C   UNL A   1      48.853  26.202  35.066  1.00  0.00     0.060 A 
BRANCH  87  88
ATOM     88  S   UNL A   1      50.368  25.657  35.881  1.00  0.00     0.124 S 
ATOM     89  O   UNL A   1      51.141  26.894  35.919  1.00  0.00    -0.237 OA
ATOM     90  O   UNL A   1      49.876  25.177  37.169  1.00  0.00    -0.237 OA
ATOM     91  O   UNL A   1      50.880  24.623  34.988  1.00  0.00    -0.744 OA
ENDBRANCH  87  88
ENDBRANCH  55  80
ENDBRANCH  29  30
ENDBRANCH  22  24
ENDBRANCH  21  22
ENDBRANCH  20  21
ENDBRANCH  19  20
ENDBRANCH   1  19
TORSDOF 21
ENDMDL
