MODEL 1
REMARK VINA RESULT:     -11.5      0.000      0.000
REMARK SMILES COc1ccc([C@@H]2[C@H](C(=O)OCCOCCOC(=O)c3ccc(-c4c5nc(c(-c6c(F)cc(S(=O)(=O)[O-])cc6F)c6ccc([nH]6)c(-c6c(F)cc(S(=O)(=O)[O-])cc6F)c6nc(c(-c7c(F)cc(S(=O)(=O)[O-])cc7F)c7ccc4[nH]7)C=C6)C=C5)cc3)c3ccccc3C(=O)N2C2CC2)cc1
REMARK SMILES IDX 15 1 14 2 13 3 12 4 11 5 9 6 10 7 8 8 7 9 94 10 86 11 92 12
REMARK SMILES IDX 87 13 91 14 93 15 88 16 90 17 89 18 6 19 3 20 4 21 99 22
REMARK SMILES IDX 5 23 98 24 2 25 1 26 95 27 96 28 97 29 16 30 17 31 18 32
REMARK SMILES IDX 19 33 20 34 21 35 85 36 22 37 84 38 23 39 24 40 25 41 78 42
REMARK SMILES IDX 26 43 83 44 77 45 79 46 27 47 82 48 76 49 75 50 28 52 62 53
REMARK SMILES IDX 41 54 61 55 42 56 45 57 60 58 80 59 43 60 44 61 59 63 81 64
REMARK SMILES IDX 46 65 29 66 30 67 39 68 31 69 32 70 38 71 40 72 33 73 34 74
REMARK SMILES IDX 35 75 36 76 37 77 63 78 64 79 73 80 65 81 66 82 72 83 74 84
REMARK SMILES IDX 67 85 68 86 69 87 70 88 71 89 47 90 48 91 57 92 49 93 50 94
REMARK SMILES IDX 56 95 58 96 51 97 52 98 53 99 54 100 55 101
REMARK H PARENT 79 51 45 62
REMARK Flexibility Score: inf
ROOT
ATOM      1  C   UNL A   1      34.555  32.009  28.116  1.00  0.00     0.202 C 
ENDROOT
BRANCH   1   2
ATOM      2  O   UNL A   1      34.603  30.755  27.446  1.00  0.00    -0.374 OA
BRANCH   2   3
ATOM      3  C   UNL A   1      33.423  30.380  26.721  1.00  0.00     0.202 C 
BRANCH   3   4
ATOM      4  C   UNL A   1      33.545  29.134  25.831  1.00  0.00     0.261 C 
BRANCH   4   5
ATOM      5  O   UNL A   1      32.377  28.973  24.990  1.00  0.00    -0.463 OA
BRANCH   5   6
ATOM      6  C   UNL A   1      32.642  28.807  23.666  1.00  0.00     0.316 C 
ATOM      7  O   UNL A   1      33.656  29.246  23.133  1.00  0.00    -0.251 OA
BRANCH   6   8
ATOM      8  C   UNL A   1      31.535  28.112  22.881  1.00  0.00     0.157 C 
ATOM      9  C   UNL A   1      31.337  26.596  23.183  1.00  0.00     0.135 C 
ATOM     10  N   UNL A   1      30.258  26.349  24.133  1.00  0.00    -0.327 N 
ATOM     11  C   UNL A   1      30.165  28.819  22.845  1.00  0.00    -0.019 A 
ATOM     12  C   UNL A   1      28.988  26.762  23.753  1.00  0.00     0.254 C 
ATOM     13  C   UNL A   1      30.064  30.166  22.459  1.00  0.00     0.005 A 
ATOM     14  C   UNL A   1      28.968  28.131  23.158  1.00  0.00     0.044 A 
ATOM     15  O   UNL A   1      27.956  26.175  24.055  1.00  0.00    -0.269 OA
ATOM     16  C   UNL A   1      28.825  30.816  22.442  1.00  0.00     0.000 A 
ATOM     17  C   UNL A   1      27.726  28.779  23.102  1.00  0.00     0.014 A 
ATOM     18  C   UNL A   1      27.658  30.125  22.757  1.00  0.00     0.001 A 
BRANCH   9  19
ATOM     19  C   UNL A   1      32.475  25.582  23.239  1.00  0.00    -0.024 A 
ATOM     20  C   UNL A   1      34.543  23.707  23.577  1.00  0.00     0.118 A 
ATOM     21  C   UNL A   1      33.604  23.526  22.571  1.00  0.00     0.047 A 
ATOM     22  C   UNL A   1      34.547  24.873  24.331  1.00  0.00     0.047 A 
ATOM     23  C   UNL A   1      32.572  24.456  22.411  1.00  0.00     0.010 A 
ATOM     24  C   UNL A   1      33.522  25.802  24.160  1.00  0.00     0.010 A 
BRANCH  20  25
ATOM     25  O   UNL A   1      35.428  22.693  23.826  1.00  0.00    -0.497 OA
ATOM     26  C   UNL A   1      36.653  22.954  23.132  1.00  0.00     0.278 C 
ENDBRANCH  20  25
ENDBRANCH   9  19
BRANCH  10  27
ATOM     27  C   UNL A   1      30.463  26.048  25.525  1.00  0.00     0.086 C 
ATOM     28  C   UNL A   1      29.485  25.317  26.404  1.00  0.00     0.027 C 
ATOM     29  C   UNL A   1      30.657  24.580  25.854  1.00  0.00     0.027 C 
ENDBRANCH  10  27
ENDBRANCH   6   8
ENDBRANCH   5   6
ENDBRANCH   4   5
ENDBRANCH   3   4
ENDBRANCH   2   3
ENDBRANCH   1   2
BRANCH   1  30
ATOM     30  C   UNL A   1      34.998  32.060  29.584  1.00  0.00     0.261 C 
BRANCH  30  31
ATOM     31  O   UNL A   1      36.410  32.134  29.728  1.00  0.00    -0.460 OA
BRANCH  31  32
ATOM     32  C   UNL A   1      36.867  31.301  30.693  1.00  0.00     0.338 C 
ATOM     33  O   UNL A   1      36.386  31.091  31.788  1.00  0.00    -0.246 OA
BRANCH  32  34
ATOM     34  C   UNL A   1      37.976  30.524  30.134  1.00  0.00     0.060 A 
ATOM     35  C   UNL A   1      38.895  30.004  31.049  1.00  0.00     0.016 A 
ATOM     36  C   UNL A   1      38.129  30.350  28.757  1.00  0.00     0.016 A 
ATOM     37  C   UNL A   1      40.034  29.373  30.579  1.00  0.00     0.010 A 
ATOM     38  C   UNL A   1      39.274  29.712  28.288  1.00  0.00     0.010 A 
ATOM     39  C   UNL A   1      40.249  29.273  29.199  1.00  0.00    -0.014 A 
BRANCH  39  40
ATOM     40  C   UNL A   1      41.586  28.876  28.720  1.00  0.00     0.031 A 
ATOM     41  C   UNL A   1      42.665  29.919  28.673  1.00  0.00     0.074 A 
ATOM     42  C   UNL A   1      41.829  27.595  28.398  1.00  0.00     0.049 A 
ATOM     43  N   UNL A   1      43.905  29.808  28.280  1.00  0.00    -0.248 NA
ATOM     44  C   UNL A   1      42.296  31.272  29.125  1.00  0.00     0.031 C 
ATOM     45  C   UNL A   1      40.849  26.510  28.464  1.00  0.00     0.029 A 
ATOM     46  N   UNL A   1      42.973  26.992  27.954  1.00  0.00    -0.354 N 
ATOM     47  C   UNL A   1      44.461  31.074  28.430  1.00  0.00     0.074 A 
ATOM     48  C   UNL A   1      43.417  31.946  28.914  1.00  0.00     0.031 C 
ATOM     49  C   UNL A   1      41.437  25.369  28.069  1.00  0.00     0.029 A 
ATOM     50  C   UNL A   1      42.819  25.654  27.688  1.00  0.00     0.049 A 
ATOM     51  H   UNL A   1      43.825  27.471  27.836  1.00  0.00     0.167 HD
ATOM     52  C   UNL A   1      45.734  31.462  28.191  1.00  0.00     0.037 A 
ATOM     53  C   UNL A   1      43.693  24.770  27.172  1.00  0.00     0.037 A 
ATOM     54  C   UNL A   1      46.756  30.569  27.712  1.00  0.00     0.049 A 
ATOM     55  C   UNL A   1      45.086  25.242  26.852  1.00  0.00     0.074 A 
ATOM     56  C   UNL A   1      48.085  30.842  27.447  1.00  0.00     0.029 A 
ATOM     57  N   UNL A   1      46.556  29.226  27.420  1.00  0.00    -0.354 N 
ATOM     58  N   UNL A   1      45.609  26.437  27.012  1.00  0.00    -0.248 NA
ATOM     59  C   UNL A   1      46.009  24.253  26.285  1.00  0.00     0.031 C 
ATOM     60  C   UNL A   1      48.673  29.682  26.936  1.00  0.00     0.029 A 
ATOM     61  C   UNL A   1      47.730  28.665  26.948  1.00  0.00     0.049 A 
ATOM     62  H   UNL A   1      45.705  28.744  27.532  1.00  0.00     0.167 HD
ATOM     63  C   UNL A   1      46.931  26.334  26.594  1.00  0.00     0.074 A 
ATOM     64  C   UNL A   1      47.128  24.957  26.185  1.00  0.00     0.031 C 
ATOM     65  C   UNL A   1      47.896  27.287  26.553  1.00  0.00     0.037 A 
BRANCH  52  66
ATOM     66  C   UNL A   1      46.080  32.910  28.408  1.00  0.00     0.058 A 
ATOM     67  C   UNL A   1      45.950  33.870  27.393  1.00  0.00     0.135 A 
ATOM     68  C   UNL A   1      46.526  33.348  29.667  1.00  0.00     0.135 A 
ATOM     69  F   UNL A   1      45.551  33.505  26.164  1.00  0.00    -0.206 F 
ATOM     70  C   UNL A   1      46.271  35.208  27.609  1.00  0.00     0.059 A 
ATOM     71  C   UNL A   1      46.822  34.686  29.914  1.00  0.00     0.059 A 
ATOM     72  F   UNL A   1      46.678  32.473  30.673  1.00  0.00    -0.206 F 
ATOM     73  C   UNL A   1      46.703  35.605  28.875  1.00  0.00     0.060 A 
BRANCH  73  74
ATOM     74  S   UNL A   1      47.101  37.347  29.143  1.00  0.00     0.124 S 
ATOM     75  O   UNL A   1      48.421  37.442  28.527  1.00  0.00    -0.237 OA
ATOM     76  O   UNL A   1      46.021  38.025  28.435  1.00  0.00    -0.237 OA
ATOM     77  O   UNL A   1      47.077  37.482  30.596  1.00  0.00    -0.744 OA
ENDBRANCH  73  74
ENDBRANCH  52  66
BRANCH  53  78
ATOM     78  C   UNL A   1      43.271  23.368  26.922  1.00  0.00     0.058 A 
ATOM     79  C   UNL A   1      43.041  22.898  25.621  1.00  0.00     0.135 A 
ATOM     80  C   UNL A   1      43.106  22.462  27.982  1.00  0.00     0.135 A 
ATOM     81  F   UNL A   1      43.180  23.725  24.575  1.00  0.00    -0.206 F 
ATOM     82  C   UNL A   1      42.647  21.585  25.381  1.00  0.00     0.059 A 
ATOM     83  C   UNL A   1      42.743  21.137  27.765  1.00  0.00     0.059 A 
ATOM     84  F   UNL A   1      43.330  22.855  29.247  1.00  0.00    -0.206 F 
ATOM     85  C   UNL A   1      42.504  20.711  26.460  1.00  0.00     0.060 A 
BRANCH  85  86
ATOM     86  S   UNL A   1      42.037  18.998  26.131  1.00  0.00     0.124 S 
ATOM     87  O   UNL A   1      42.953  18.646  25.053  1.00  0.00    -0.237 OA
ATOM     88  O   UNL A   1      42.290  18.362  27.420  1.00  0.00    -0.237 OA
ATOM     89  O   UNL A   1      40.630  19.099  25.757  1.00  0.00    -0.744 OA
ENDBRANCH  85  86
ENDBRANCH  53  78
BRANCH  65  90
ATOM     90  C   UNL A   1      49.263  26.865  26.088  1.00  0.00     0.058 A 
ATOM     91  C   UNL A   1      49.672  27.023  24.756  1.00  0.00     0.135 A 
ATOM     92  C   UNL A   1      50.194  26.353  27.006  1.00  0.00     0.135 A 
ATOM     93  F   UNL A   1      48.818  27.502  23.838  1.00  0.00    -0.206 F 
ATOM     94  C   UNL A   1      50.952  26.667  24.344  1.00  0.00     0.059 A 
ATOM     95  C   UNL A   1      51.490  26.022  26.624  1.00  0.00     0.059 A 
ATOM     96  F   UNL A   1      49.856  26.192  28.295  1.00  0.00    -0.206 F 
ATOM     97  C   UNL A   1      51.855  26.173  25.287  1.00  0.00     0.060 A 
BRANCH  97  98
ATOM     98  S   UNL A   1      53.524  25.754  24.746  1.00  0.00     0.124 S 
ATOM     99  O   UNL A   1      54.326  26.716  25.494  1.00  0.00    -0.237 OA
ATOM    100  O   UNL A   1      53.647  24.361  25.167  1.00  0.00    -0.237 OA
ATOM    101  O   UNL A   1      53.477  25.964  23.302  1.00  0.00    -0.744 OA
ENDBRANCH  97  98
ENDBRANCH  65  90
ENDBRANCH  39  40
ENDBRANCH  32  34
ENDBRANCH  31  32
ENDBRANCH  30  31
ENDBRANCH   1  30
TORSDOF 20
ENDMDL
MODEL 2
REMARK VINA RESULT:     -11.5      1.226      3.823
REMARK SMILES COc1ccc([C@@H]2[C@H](C(=O)OCCOCCOC(=O)c3ccc(-c4c5nc(c(-c6c(F)cc(S(=O)(=O)[O-])cc6F)c6ccc([nH]6)c(-c6c(F)cc(S(=O)(=O)[O-])cc6F)c6nc(c(-c7c(F)cc(S(=O)(=O)[O-])cc7F)c7ccc4[nH]7)C=C6)C=C5)cc3)c3ccccc3C(=O)N2C2CC2)cc1
REMARK SMILES IDX 15 1 14 2 13 3 12 4 11 5 9 6 10 7 8 8 7 9 94 10 86 11 92 12
REMARK SMILES IDX 87 13 91 14 93 15 88 16 90 17 89 18 6 19 3 20 4 21 99 22
REMARK SMILES IDX 5 23 98 24 2 25 1 26 95 27 96 28 97 29 16 30 17 31 18 32
REMARK SMILES IDX 19 33 20 34 21 35 85 36 22 37 84 38 23 39 24 40 25 41 78 42
REMARK SMILES IDX 26 43 83 44 77 45 79 46 27 47 82 48 76 49 75 50 28 52 62 53
REMARK SMILES IDX 41 54 61 55 42 56 45 57 60 58 80 59 43 60 44 61 59 63 81 64
REMARK SMILES IDX 46 65 29 66 30 67 39 68 31 69 32 70 38 71 40 72 33 73 34 74
REMARK SMILES IDX 35 75 36 76 37 77 63 78 64 79 73 80 65 81 66 82 72 83 74 84
REMARK SMILES IDX 67 85 68 86 69 87 70 88 71 89 47 90 48 91 57 92 49 93 50 94
REMARK SMILES IDX 56 95 58 96 51 97 52 98 53 99 54 100 55 101
REMARK H PARENT 79 51 45 62
REMARK Flexibility Score: inf
ROOT
ATOM      1  C   UNL A   1      34.142  30.129  27.028  1.00  0.00     0.202 C 
ENDROOT
BRANCH   1   2
ATOM      2  O   UNL A   1      32.888  29.546  26.691  1.00  0.00    -0.374 OA
BRANCH   2   3
ATOM      3  C   UNL A   1      32.591  28.285  27.307  1.00  0.00     0.202 C 
BRANCH   3   4
ATOM      4  C   UNL A   1      31.240  27.655  26.939  1.00  0.00     0.261 C 
BRANCH   4   5
ATOM      5  O   UNL A   1      31.405  26.300  26.458  1.00  0.00    -0.463 OA
BRANCH   5   6
ATOM      6  C   UNL A   1      30.308  25.766  25.854  1.00  0.00     0.316 C 
ATOM      7  O   UNL A   1      29.268  25.532  26.459  1.00  0.00    -0.251 OA
BRANCH   6   8
ATOM      8  C   UNL A   1      30.508  25.402  24.387  1.00  0.00     0.157 C 
ATOM      9  C   UNL A   1      30.633  26.601  23.399  1.00  0.00     0.135 C 
ATOM     10  N   UNL A   1      32.018  26.926  23.084  1.00  0.00    -0.327 N 
ATOM     11  C   UNL A   1      31.599  24.357  24.077  1.00  0.00    -0.019 A 
ATOM     12  C   UNL A   1      32.767  25.933  22.466  1.00  0.00     0.254 C 
ATOM     13  C   UNL A   1      31.615  23.120  24.743  1.00  0.00     0.005 A 
ATOM     14  C   UNL A   1      32.589  24.588  23.093  1.00  0.00     0.044 A 
ATOM     15  O   UNL A   1      33.642  26.146  21.636  1.00  0.00    -0.269 OA
ATOM     16  C   UNL A   1      32.614  22.176  24.478  1.00  0.00     0.000 A 
ATOM     17  C   UNL A   1      33.563  23.622  22.806  1.00  0.00     0.014 A 
ATOM     18  C   UNL A   1      33.582  22.423  23.509  1.00  0.00     0.001 A 
BRANCH   9  19
ATOM     19  C   UNL A   1      29.681  27.792  23.381  1.00  0.00    -0.024 A 
ATOM     20  C   UNL A   1      28.069  30.089  23.185  1.00  0.00     0.118 A 
ATOM     21  C   UNL A   1      27.483  28.830  23.180  1.00  0.00     0.047 A 
ATOM     22  C   UNL A   1      29.431  30.227  23.420  1.00  0.00     0.047 A 
ATOM     23  C   UNL A   1      28.288  27.691  23.269  1.00  0.00     0.010 A 
ATOM     24  C   UNL A   1      30.228  29.087  23.519  1.00  0.00     0.010 A 
BRANCH  20  25
ATOM     25  O   UNL A   1      27.279  31.172  22.914  1.00  0.00    -0.497 OA
ATOM     26  C   UNL A   1      28.086  32.220  22.365  1.00  0.00     0.278 C 
ENDBRANCH  20  25
ENDBRANCH   9  19
BRANCH  10  27
ATOM     27  C   UNL A   1      32.740  28.027  23.664  1.00  0.00     0.086 C 
ATOM     28  C   UNL A   1      34.231  28.216  23.594  1.00  0.00     0.027 C 
ATOM     29  C   UNL A   1      33.357  28.998  22.674  1.00  0.00     0.027 C 
ENDBRANCH  10  27
ENDBRANCH   6   8
ENDBRANCH   5   6
ENDBRANCH   4   5
ENDBRANCH   3   4
ENDBRANCH   2   3
ENDBRANCH   1   2
BRANCH   1  30
ATOM     30  C   UNL A   1      34.901  29.562  28.234  1.00  0.00     0.261 C 
BRANCH  30  31
ATOM     31  O   UNL A   1      35.955  30.412  28.666  1.00  0.00    -0.460 OA
BRANCH  31  32
ATOM     32  C   UNL A   1      36.601  29.913  29.746  1.00  0.00     0.338 C 
ATOM     33  O   UNL A   1      36.117  29.425  30.746  1.00  0.00    -0.246 OA
BRANCH  32  34
ATOM     34  C   UNL A   1      38.034  29.884  29.445  1.00  0.00     0.060 A 
ATOM     35  C   UNL A   1      38.386  29.804  28.095  1.00  0.00     0.016 A 
ATOM     36  C   UNL A   1      38.997  29.891  30.457  1.00  0.00     0.016 A 
ATOM     37  C   UNL A   1      39.717  29.642  27.751  1.00  0.00     0.010 A 
ATOM     38  C   UNL A   1      40.335  29.731  30.107  1.00  0.00     0.010 A 
ATOM     39  C   UNL A   1      40.685  29.552  28.759  1.00  0.00    -0.014 A 
BRANCH  39  40
ATOM     40  C   UNL A   1      42.037  29.085  28.399  1.00  0.00     0.031 A 
ATOM     41  C   UNL A   1      43.159  30.082  28.401  1.00  0.00     0.074 A 
ATOM     42  C   UNL A   1      42.249  27.784  28.140  1.00  0.00     0.049 A 
ATOM     43  N   UNL A   1      44.420  29.908  28.109  1.00  0.00    -0.248 NA
ATOM     44  C   UNL A   1      42.814  31.464  28.777  1.00  0.00     0.031 C 
ATOM     45  C   UNL A   1      41.222  26.742  28.166  1.00  0.00     0.029 A 
ATOM     46  N   UNL A   1      43.397  27.120  27.807  1.00  0.00    -0.354 N 
ATOM     47  C   UNL A   1      45.016  31.155  28.259  1.00  0.00     0.074 A 
ATOM     48  C   UNL A   1      43.975  32.085  28.631  1.00  0.00     0.031 C 
ATOM     49  C   UNL A   1      41.790  25.565  27.858  1.00  0.00     0.029 A 
ATOM     50  C   UNL A   1      43.207  25.781  27.575  1.00  0.00     0.049 A 
ATOM     51  H   UNL A   1      44.276  27.561  27.740  1.00  0.00     0.167 HD
ATOM     52  C   UNL A   1      46.319  31.484  28.106  1.00  0.00     0.037 A 
ATOM     53  C   UNL A   1      44.080  24.845  27.159  1.00  0.00     0.037 A 
ATOM     54  C   UNL A   1      47.335  30.534  27.738  1.00  0.00     0.049 A 
ATOM     55  C   UNL A   1      45.513  25.249  26.932  1.00  0.00     0.074 A 
ATOM     56  C   UNL A   1      48.691  30.745  27.568  1.00  0.00     0.029 A 
ATOM     57  N   UNL A   1      47.102  29.190  27.478  1.00  0.00    -0.354 N 
ATOM     58  N   UNL A   1      46.071  26.427  27.092  1.00  0.00    -0.248 NA
ATOM     59  C   UNL A   1      46.434  24.204  26.472  1.00  0.00     0.031 C 
ATOM     60  C   UNL A   1      49.267  29.544  27.144  1.00  0.00     0.029 A 
ATOM     61  C   UNL A   1      48.283  28.566  27.117  1.00  0.00     0.049 A 
ATOM     62  H   UNL A   1      46.225  28.747  27.540  1.00  0.00     0.167 HD
ATOM     63  C   UNL A   1      47.416  26.257  26.781  1.00  0.00     0.074 A 
ATOM     64  C   UNL A   1      47.586  24.859  26.436  1.00  0.00     0.031 C 
ATOM     65  C   UNL A   1      48.421  27.169  26.783  1.00  0.00     0.037 A 
BRANCH  52  66
ATOM     66  C   UNL A   1      46.708  32.924  28.301  1.00  0.00     0.058 A 
ATOM     67  C   UNL A   1      46.680  33.854  27.250  1.00  0.00     0.135 A 
ATOM     68  C   UNL A   1      47.091  33.386  29.571  1.00  0.00     0.135 A 
ATOM     69  F   UNL A   1      46.345  33.464  26.010  1.00  0.00    -0.206 F 
ATOM     70  C   UNL A   1      47.040  35.185  27.445  1.00  0.00     0.059 A 
ATOM     71  C   UNL A   1      47.424  34.719  29.796  1.00  0.00     0.059 A 
ATOM     72  F   UNL A   1      47.144  32.540  30.611  1.00  0.00    -0.206 F 
ATOM     73  C   UNL A   1      47.407  35.608  28.724  1.00  0.00     0.060 A 
BRANCH  73  74
ATOM     74  S   UNL A   1      47.857  37.340  28.963  1.00  0.00     0.124 S 
ATOM     75  O   UNL A   1      47.716  37.482  30.409  1.00  0.00    -0.237 OA
ATOM     76  O   UNL A   1      49.223  37.381  28.452  1.00  0.00    -0.237 OA
ATOM     77  O   UNL A   1      46.870  38.061  28.164  1.00  0.00    -0.744 OA
ENDBRANCH  73  74
ENDBRANCH  52  66
BRANCH  53  78
ATOM     78  C   UNL A   1      43.619  23.452  26.924  1.00  0.00     0.058 A 
ATOM     79  C   UNL A   1      43.353  22.583  27.991  1.00  0.00     0.135 A 
ATOM     80  C   UNL A   1      43.418  22.967  25.621  1.00  0.00     0.135 A 
ATOM     81  F   UNL A   1      43.533  22.997  29.254  1.00  0.00    -0.206 F 
ATOM     82  C   UNL A   1      42.919  21.278  27.777  1.00  0.00     0.059 A 
ATOM     83  C   UNL A   1      42.957  21.677  25.382  1.00  0.00     0.059 A 
ATOM     84  F   UNL A   1      43.642  23.763  24.563  1.00  0.00    -0.206 F 
ATOM     85  C   UNL A   1      42.721  20.835  26.468  1.00  0.00     0.060 A 
BRANCH  85  86
ATOM     86  S   UNL A   1      42.115  19.155  26.204  1.00  0.00     0.124 S 
ATOM     87  O   UNL A   1      42.375  18.542  27.501  1.00  0.00    -0.237 OA
ATOM     88  O   UNL A   1      40.712  19.387  25.875  1.00  0.00    -0.237 OA
ATOM     89  O   UNL A   1      42.938  18.671  25.100  1.00  0.00    -0.744 OA
ENDBRANCH  85  86
ENDBRANCH  53  78
BRANCH  65  90
ATOM     90  C   UNL A   1      49.800  26.676  26.440  1.00  0.00     0.058 A 
ATOM     91  C   UNL A   1      50.641  26.102  27.404  1.00  0.00     0.135 A 
ATOM     92  C   UNL A   1      50.257  26.726  25.113  1.00  0.00     0.135 A 
ATOM     93  F   UNL A   1      50.253  26.036  28.688  1.00  0.00    -0.206 F 
ATOM     94  C   UNL A   1      51.899  25.612  27.069  1.00  0.00     0.059 A 
ATOM     95  C   UNL A   1      51.497  26.212  24.749  1.00  0.00     0.059 A 
ATOM     96  F   UNL A   1      49.486  27.256  24.150  1.00  0.00    -0.206 F 
ATOM     97  C   UNL A   1      52.315  25.667  25.737  1.00  0.00     0.060 A 
BRANCH  97  98
ATOM     98  S   UNL A   1      53.933  24.992  25.311  1.00  0.00     0.124 S 
ATOM     99  O   UNL A   1      53.581  23.652  24.852  1.00  0.00    -0.237 OA
ATOM    100  O   UNL A   1      54.393  25.915  24.278  1.00  0.00    -0.237 OA
ATOM    101  O   UNL A   1      54.670  25.051  26.570  1.00  0.00    -0.744 OA
ENDBRANCH  97  98
ENDBRANCH  65  90
ENDBRANCH  39  40
ENDBRANCH  32  34
ENDBRANCH  31  32
ENDBRANCH  30  31
ENDBRANCH   1  30
TORSDOF 20
ENDMDL
MODEL 3
REMARK VINA RESULT:     -11.3      1.235      3.442
REMARK SMILES COc1ccc([C@@H]2[C@H](C(=O)OCCOCCOC(=O)c3ccc(-c4c5nc(c(-c6c(F)cc(S(=O)(=O)[O-])cc6F)c6ccc([nH]6)c(-c6c(F)cc(S(=O)(=O)[O-])cc6F)c6nc(c(-c7c(F)cc(S(=O)(=O)[O-])cc7F)c7ccc4[nH]7)C=C6)C=C5)cc3)c3ccccc3C(=O)N2C2CC2)cc1
REMARK SMILES IDX 15 1 14 2 13 3 12 4 11 5 9 6 10 7 8 8 7 9 94 10 86 11 92 12
REMARK SMILES IDX 87 13 91 14 93 15 88 16 90 17 89 18 6 19 3 20 4 21 99 22
REMARK SMILES IDX 5 23 98 24 2 25 1 26 95 27 96 28 97 29 16 30 17 31 18 32
REMARK SMILES IDX 19 33 20 34 21 35 85 36 22 37 84 38 23 39 24 40 25 41 78 42
REMARK SMILES IDX 26 43 83 44 77 45 79 46 27 47 82 48 76 49 75 50 28 52 62 53
REMARK SMILES IDX 41 54 61 55 42 56 45 57 60 58 80 59 43 60 44 61 59 63 81 64
REMARK SMILES IDX 46 65 29 66 30 67 39 68 31 69 32 70 38 71 40 72 33 73 34 74
REMARK SMILES IDX 35 75 36 76 37 77 63 78 64 79 73 80 65 81 66 82 72 83 74 84
REMARK SMILES IDX 67 85 68 86 69 87 70 88 71 89 47 90 48 91 57 92 49 93 50 94
REMARK SMILES IDX 56 95 58 96 51 97 52 98 53 99 54 100 55 101
REMARK H PARENT 79 51 45 62
REMARK Flexibility Score: inf
ROOT
ATOM      1  C   UNL A   1      34.518  31.399  27.647  1.00  0.00     0.202 C 
ENDROOT
BRANCH   1   2
ATOM      2  O   UNL A   1      33.107  31.341  27.471  1.00  0.00    -0.374 OA
BRANCH   2   3
ATOM      3  C   UNL A   1      32.593  30.146  26.866  1.00  0.00     0.202 C 
BRANCH   3   4
ATOM      4  C   UNL A   1      33.279  28.834  27.272  1.00  0.00     0.261 C 
BRANCH   4   5
ATOM      5  O   UNL A   1      32.380  27.707  27.141  1.00  0.00    -0.463 OA
BRANCH   5   6
ATOM      6  C   UNL A   1      32.755  26.777  26.222  1.00  0.00     0.316 C 
ATOM      7  O   UNL A   1      33.821  26.835  25.617  1.00  0.00    -0.251 OA
BRANCH   6   8
ATOM      8  C   UNL A   1      31.705  25.708  25.939  1.00  0.00     0.157 C 
ATOM      9  C   UNL A   1      30.937  25.850  24.590  1.00  0.00     0.135 C 
ATOM     10  N   UNL A   1      31.488  25.006  23.538  1.00  0.00    -0.327 N 
ATOM     11  C   UNL A   1      32.141  24.242  26.137  1.00  0.00    -0.019 A 
ATOM     12  C   UNL A   1      31.472  23.636  23.765  1.00  0.00     0.254 C 
ATOM     13  C   UNL A   1      32.735  23.828  27.342  1.00  0.00     0.005 A 
ATOM     14  C   UNL A   1      31.923  23.263  25.139  1.00  0.00     0.044 A 
ATOM     15  O   UNL A   1      31.312  22.796  22.889  1.00  0.00    -0.269 OA
ATOM     16  C   UNL A   1      33.147  22.503  27.520  1.00  0.00     0.000 A 
ATOM     17  C   UNL A   1      32.305  21.929  25.340  1.00  0.00     0.014 A 
ATOM     18  C   UNL A   1      32.928  21.554  26.524  1.00  0.00     0.001 A 
BRANCH   9  19
ATOM     19  C   UNL A   1      30.314  27.152  24.098  1.00  0.00    -0.024 A 
ATOM     20  C   UNL A   1      28.969  29.493  23.310  1.00  0.00     0.118 A 
ATOM     21  C   UNL A   1      30.278  29.569  23.765  1.00  0.00     0.047 A 
ATOM     22  C   UNL A   1      28.364  28.258  23.115  1.00  0.00     0.047 A 
ATOM     23  C   UNL A   1      30.941  28.404  24.164  1.00  0.00     0.010 A 
ATOM     24  C   UNL A   1      29.034  27.099  23.505  1.00  0.00     0.010 A 
BRANCH  20  25
ATOM     25  O   UNL A   1      28.287  30.661  23.101  1.00  0.00    -0.497 OA
ATOM     26  C   UNL A   1      28.592  31.159  21.793  1.00  0.00     0.278 C 
ENDBRANCH  20  25
ENDBRANCH   9  19
BRANCH  10  27
ATOM     27  C   UNL A   1      32.341  25.486  22.483  1.00  0.00     0.086 C 
ATOM     28  C   UNL A   1      33.344  26.599  22.621  1.00  0.00     0.027 C 
ATOM     29  C   UNL A   1      33.819  25.186  22.650  1.00  0.00     0.027 C 
ENDBRANCH  10  27
ENDBRANCH   6   8
ENDBRANCH   5   6
ENDBRANCH   4   5
ENDBRANCH   3   4
ENDBRANCH   2   3
ENDBRANCH   1   2
BRANCH   1  30
ATOM     30  C   UNL A   1      35.057  31.895  28.995  1.00  0.00     0.261 C 
BRANCH  30  31
ATOM     31  O   UNL A   1      36.476  31.975  29.020  1.00  0.00    -0.460 OA
BRANCH  31  32
ATOM     32  C   UNL A   1      37.001  31.372  30.113  1.00  0.00     0.338 C 
ATOM     33  O   UNL A   1      36.560  31.361  31.244  1.00  0.00    -0.246 OA
BRANCH  32  34
ATOM     34  C   UNL A   1      38.134  30.552  29.679  1.00  0.00     0.060 A 
ATOM     35  C   UNL A   1      39.085  30.237  30.654  1.00  0.00     0.016 A 
ATOM     36  C   UNL A   1      38.279  30.144  28.351  1.00  0.00     0.016 A 
ATOM     37  C   UNL A   1      40.244  29.577  30.281  1.00  0.00     0.010 A 
ATOM     38  C   UNL A   1      39.444  29.478  27.980  1.00  0.00     0.010 A 
ATOM     39  C   UNL A   1      40.447  29.245  28.936  1.00  0.00    -0.014 A 
BRANCH  39  40
ATOM     40  C   UNL A   1      41.793  28.821  28.510  1.00  0.00     0.031 A 
ATOM     41  C   UNL A   1      42.885  29.851  28.472  1.00  0.00     0.074 A 
ATOM     42  C   UNL A   1      42.031  27.530  28.226  1.00  0.00     0.049 A 
ATOM     43  N   UNL A   1      44.136  29.717  28.122  1.00  0.00    -0.248 NA
ATOM     44  C   UNL A   1      42.518  31.218  28.880  1.00  0.00     0.031 C 
ATOM     45  C   UNL A   1      41.036  26.458  28.286  1.00  0.00     0.029 A 
ATOM     46  N   UNL A   1      43.181  26.904  27.834  1.00  0.00    -0.354 N 
ATOM     47  C   UNL A   1      44.702  30.979  28.259  1.00  0.00     0.074 A 
ATOM     48  C   UNL A   1      43.653  31.875  28.689  1.00  0.00     0.031 C 
ATOM     49  C   UNL A   1      41.623  25.302  27.938  1.00  0.00     0.029 A 
ATOM     50  C   UNL A   1      43.020  25.562  27.595  1.00  0.00     0.049 A 
ATOM     51  H   UNL A   1      44.043  27.370  27.732  1.00  0.00     0.167 HD
ATOM     52  C   UNL A   1      45.987  31.348  28.052  1.00  0.00     0.037 A 
ATOM     53  C   UNL A   1      43.899  24.656  27.129  1.00  0.00     0.037 A 
ATOM     54  C   UNL A   1      47.012  30.432  27.627  1.00  0.00     0.049 A 
ATOM     55  C   UNL A   1      45.308  25.105  26.841  1.00  0.00     0.074 A 
ATOM     56  C   UNL A   1      48.352  30.684  27.398  1.00  0.00     0.029 A 
ATOM     57  N   UNL A   1      46.806  29.084  27.361  1.00  0.00    -0.354 N 
ATOM     58  N   UNL A   1      45.839  26.297  26.990  1.00  0.00    -0.248 NA
ATOM     59  C   UNL A   1      46.236  24.092  26.329  1.00  0.00     0.031 C 
ATOM     60  C   UNL A   1      48.942  29.505  26.934  1.00  0.00     0.029 A 
ATOM     61  C   UNL A   1      47.987  28.499  26.940  1.00  0.00     0.049 A 
ATOM     62  H   UNL A   1      45.946  28.615  27.458  1.00  0.00     0.167 HD
ATOM     63  C   UNL A   1      47.173  26.169  26.617  1.00  0.00     0.074 A 
ATOM     64  C   UNL A   1      47.366  24.781  26.248  1.00  0.00     0.031 C 
ATOM     65  C   UNL A   1      48.150  27.110  26.584  1.00  0.00     0.037 A 
BRANCH  52  66
ATOM     66  C   UNL A   1      46.342  32.796  28.246  1.00  0.00     0.058 A 
ATOM     67  C   UNL A   1      46.804  33.294  29.474  1.00  0.00     0.135 A 
ATOM     68  C   UNL A   1      46.243  33.698  27.173  1.00  0.00     0.135 A 
ATOM     69  F   UNL A   1      46.895  32.484  30.541  1.00  0.00    -0.206 F 
ATOM     70  C   UNL A   1      47.132  34.637  29.640  1.00  0.00     0.059 A 
ATOM     71  C   UNL A   1      46.597  35.038  27.307  1.00  0.00     0.059 A 
ATOM     72  F   UNL A   1      45.800  33.280  25.977  1.00  0.00    -0.206 F 
ATOM     73  C   UNL A   1      47.028  35.500  28.547  1.00  0.00     0.060 A 
BRANCH  73  74
ATOM     74  S   UNL A   1      47.473  37.236  28.775  1.00  0.00     0.124 S 
ATOM     75  O   UNL A   1      48.920  37.193  28.588  1.00  0.00    -0.237 OA
ATOM     76  O   UNL A   1      46.715  37.892  27.715  1.00  0.00    -0.237 OA
ATOM     77  O   UNL A   1      47.026  37.526  30.133  1.00  0.00    -0.744 OA
ENDBRANCH  73  74
ENDBRANCH  52  66
BRANCH  53  78
ATOM     78  C   UNL A   1      43.469  23.253  26.898  1.00  0.00     0.058 A 
ATOM     79  C   UNL A   1      43.292  22.748  25.602  1.00  0.00     0.135 A 
ATOM     80  C   UNL A   1      43.242  22.380  27.975  1.00  0.00     0.135 A 
ATOM     81  F   UNL A   1      43.491  23.543  24.541  1.00  0.00    -0.206 F 
ATOM     82  C   UNL A   1      42.891  21.434  25.381  1.00  0.00     0.059 A 
ATOM     83  C   UNL A   1      42.870  21.055  27.779  1.00  0.00     0.059 A 
ATOM     84  F   UNL A   1      43.413  22.806  29.237  1.00  0.00    -0.206 F 
ATOM     85  C   UNL A   1      42.685  20.594  26.476  1.00  0.00     0.060 A 
BRANCH  85  86
ATOM     86  S   UNL A   1      42.209  18.878  26.174  1.00  0.00     0.124 S 
ATOM     87  O   UNL A   1      43.167  18.484  25.149  1.00  0.00    -0.237 OA
ATOM     88  O   UNL A   1      42.395  18.276  27.490  1.00  0.00    -0.237 OA
ATOM     89  O   UNL A   1      40.821  18.988  25.734  1.00  0.00    -0.744 OA
ENDBRANCH  85  86
ENDBRANCH  53  78
BRANCH  65  90
ATOM     90  C   UNL A   1      49.525  26.662  26.173  1.00  0.00     0.058 A 
ATOM     91  C   UNL A   1      49.989  26.809  24.858  1.00  0.00     0.135 A 
ATOM     92  C   UNL A   1      50.411  26.135  27.128  1.00  0.00     0.135 A 
ATOM     93  F   UNL A   1      49.180  27.302  23.906  1.00  0.00    -0.206 F 
ATOM     94  C   UNL A   1      51.277  26.429  24.496  1.00  0.00     0.059 A 
ATOM     95  C   UNL A   1      51.714  25.779  26.797  1.00  0.00     0.059 A 
ATOM     96  F   UNL A   1      50.020  25.984  28.403  1.00  0.00    -0.206 F 
ATOM     97  C   UNL A   1      52.133  25.920  25.475  1.00  0.00     0.060 A 
BRANCH  97  98
ATOM     98  S   UNL A   1      53.814  25.469  24.999  1.00  0.00     0.124 S 
ATOM     99  O   UNL A   1      53.724  24.014  24.945  1.00  0.00    -0.237 OA
ATOM    100  O   UNL A   1      53.965  26.144  23.713  1.00  0.00    -0.237 OA
ATOM    101  O   UNL A   1      54.631  26.008  26.083  1.00  0.00    -0.744 OA
ENDBRANCH  97  98
ENDBRANCH  65  90
ENDBRANCH  39  40
ENDBRANCH  32  34
ENDBRANCH  31  32
ENDBRANCH  30  31
ENDBRANCH   1  30
TORSDOF 20
ENDMDL
