MODEL 1
REMARK VINA RESULT:      -9.2      0.000      0.000
REMARK SMILES [NH3+][C@H](CC[S@@](=O)[O-])C(=O)OCCOCCOC(=O)c1ccc(-c2c3nc(c(-c4c(F)cc(S(=O)(=O)[O-])cc4F)c4ccc([nH]4)c(-c4c(F)cc(S(=O)(=O)[O-])cc4F)c4nc(c(-c5c(F)cc(S(=O)(=O)[O-])cc5F)c5ccc2[nH]5)C=C4)C=C3)cc1
REMARK SMILES IDX 13 1 12 2 11 3 10 4 8 5 9 6 2 7 1 8 3 12 4 13 5 14 6 15 7 16
REMARK SMILES IDX 14 17 15 18 16 19 17 20 18 21 19 22 20 23 84 24 21 25 83 26
REMARK SMILES IDX 22 27 23 28 24 29 77 30 25 31 82 32 76 33 78 34 26 35 81 36
REMARK SMILES IDX 75 37 74 38 27 40 61 41 40 42 60 43 41 44 44 45 59 46 79 47
REMARK SMILES IDX 42 48 43 49 58 51 80 52 45 53 28 54 29 55 38 56 30 57 31 58
REMARK SMILES IDX 37 59 39 60 32 61 33 62 34 63 35 64 36 65 62 66 63 67 72 68
REMARK SMILES IDX 64 69 65 70 71 71 73 72 66 73 67 74 68 75 69 76 70 77 46 78
REMARK SMILES IDX 47 79 56 80 48 81 49 82 55 83 57 84 50 85 51 86 52 87 53 88
REMARK SMILES IDX 54 89
REMARK H PARENT 1 9 1 10 1 11 78 39 44 50
REMARK Flexibility Score: inf
ROOT
ATOM      1  O   UNL A   1      36.310  33.185  30.580  1.00  0.00    -0.374 OA
ENDROOT
BRANCH   1   2
ATOM      2  C   UNL A   1      36.059  33.437  29.196  1.00  0.00     0.202 C 
BRANCH   2   3
ATOM      3  C   UNL A   1      34.689  34.037  28.862  1.00  0.00     0.261 C 
BRANCH   3   4
ATOM      4  O   UNL A   1      34.368  35.106  29.771  1.00  0.00    -0.459 OA
BRANCH   4   5
ATOM      5  C   UNL A   1      33.147  35.683  29.643  1.00  0.00     0.364 C 
ATOM      6  O   UNL A   1      32.426  35.568  28.657  1.00  0.00    -0.245 OA
BRANCH   5   7
ATOM      7  C   UNL A   1      32.742  36.493  30.897  1.00  0.00     0.292 C 
BRANCH   7   8
ATOM      8  N   UNL A   1      33.695  37.590  31.133  1.00  0.00    -0.346 N 
ATOM      9  H   UNL A   1      34.367  37.309  31.847  1.00  0.00     0.345 HD
ATOM     10  H   UNL A   1      33.189  38.418  31.447  1.00  0.00     0.345 HD
ATOM     11  H   UNL A   1      34.189  37.802  30.265  1.00  0.00     0.345 HD
ENDBRANCH   7   8
BRANCH   7  12
ATOM     12  C   UNL A   1      32.370  35.724  32.189  1.00  0.00     0.090 C 
BRANCH  12  13
ATOM     13  C   UNL A   1      33.314  34.691  32.803  1.00  0.00     0.096 C 
BRANCH  13  14
ATOM     14  S   UNL A   1      34.731  35.356  33.721  1.00  0.00    -0.055 S 
ATOM     15  O   UNL A   1      35.798  35.651  32.714  1.00  0.00    -0.275 OA
ATOM     16  O   UNL A   1      34.058  36.780  34.011  1.00  0.00    -0.772 OA
ENDBRANCH  13  14
ENDBRANCH  12  13
ENDBRANCH   7  12
ENDBRANCH   5   7
ENDBRANCH   4   5
ENDBRANCH   3   4
ENDBRANCH   2   3
ENDBRANCH   1   2
BRANCH   1  17
ATOM     17  C   UNL A   1      35.578  32.119  31.181  1.00  0.00     0.202 C 
BRANCH  17  18
ATOM     18  C   UNL A   1      36.401  31.045  31.903  1.00  0.00     0.261 C 
BRANCH  18  19
ATOM     19  O   UNL A   1      36.248  29.745  31.301  1.00  0.00    -0.460 OA
BRANCH  19  20
ATOM     20  C   UNL A   1      36.406  29.722  29.954  1.00  0.00     0.338 C 
ATOM     21  O   UNL A   1      35.552  29.964  29.113  1.00  0.00    -0.246 OA
BRANCH  20  22
ATOM     22  C   UNL A   1      37.832  29.555  29.613  1.00  0.00     0.060 A 
ATOM     23  C   UNL A   1      38.194  29.683  28.264  1.00  0.00     0.016 A 
ATOM     24  C   UNL A   1      38.796  29.242  30.574  1.00  0.00     0.016 A 
ATOM     25  C   UNL A   1      39.515  29.477  27.869  1.00  0.00     0.010 A 
ATOM     26  C   UNL A   1      40.120  29.024  30.172  1.00  0.00     0.010 A 
ATOM     27  C   UNL A   1      40.486  29.123  28.817  1.00  0.00    -0.014 A 
BRANCH  27  28
ATOM     28  C   UNL A   1      41.866  28.793  28.378  1.00  0.00     0.031 A 
ATOM     29  C   UNL A   1      42.197  27.390  27.948  1.00  0.00     0.074 A 
ATOM     30  C   UNL A   1      42.817  29.747  28.358  1.00  0.00     0.049 A 
ATOM     31  N   UNL A   1      43.351  26.883  27.598  1.00  0.00    -0.248 NA
ATOM     32  C   UNL A   1      41.081  26.430  27.904  1.00  0.00     0.031 C 
ATOM     33  C   UNL A   1      42.613  31.148  28.726  1.00  0.00     0.029 A 
ATOM     34  N   UNL A   1      44.150  29.678  28.031  1.00  0.00    -0.354 N 
ATOM     35  C   UNL A   1      43.109  25.545  27.311  1.00  0.00     0.074 A 
ATOM     36  C   UNL A   1      41.698  25.314  27.537  1.00  0.00     0.031 C 
ATOM     37  C   UNL A   1      43.783  31.802  28.623  1.00  0.00     0.029 A 
ATOM     38  C   UNL A   1      44.827  30.859  28.229  1.00  0.00     0.049 A 
ATOM     39  H   UNL A   1      44.579  28.861  27.688  1.00  0.00     0.167 HD
ATOM     40  C   UNL A   1      43.984  24.598  26.898  1.00  0.00     0.037 A 
ATOM     41  C   UNL A   1      46.144  31.138  28.145  1.00  0.00     0.037 A 
ATOM     42  C   UNL A   1      45.386  24.840  26.661  1.00  0.00     0.049 A 
ATOM     43  C   UNL A   1      47.107  30.046  27.748  1.00  0.00     0.074 A 
ATOM     44  C   UNL A   1      46.340  23.954  26.188  1.00  0.00     0.029 A 
ATOM     45  N   UNL A   1      46.038  26.041  26.893  1.00  0.00    -0.354 N 
ATOM     46  N   UNL A   1      46.854  28.800  27.424  1.00  0.00    -0.248 NA
ATOM     47  C   UNL A   1      48.534  30.395  27.712  1.00  0.00     0.031 C 
ATOM     48  C   UNL A   1      47.580  24.599  26.199  1.00  0.00     0.029 A 
ATOM     49  C   UNL A   1      47.390  25.905  26.617  1.00  0.00     0.049 A 
ATOM     50  H   UNL A   1      45.606  26.867  27.207  1.00  0.00     0.167 HD
ATOM     51  C   UNL A   1      48.087  28.225  27.130  1.00  0.00     0.074 A 
ATOM     52  C   UNL A   1      49.082  29.264  27.287  1.00  0.00     0.031 C 
ATOM     53  C   UNL A   1      48.372  26.949  26.771  1.00  0.00     0.037 A 
BRANCH  40  54
ATOM     54  C   UNL A   1      43.479  23.197  26.690  1.00  0.00     0.058 A 
ATOM     55  C   UNL A   1      43.362  22.633  25.410  1.00  0.00     0.135 A 
ATOM     56  C   UNL A   1      43.216  22.372  27.797  1.00  0.00     0.135 A 
ATOM     57  F   UNL A   1      43.585  23.380  24.318  1.00  0.00    -0.206 F 
ATOM     58  C   UNL A   1      43.002  21.299  25.236  1.00  0.00     0.059 A 
ATOM     59  C   UNL A   1      42.882  21.030  27.646  1.00  0.00     0.059 A 
ATOM     60  F   UNL A   1      43.311  22.864  29.042  1.00  0.00    -0.206 F 
ATOM     61  C   UNL A   1      42.776  20.503  26.360  1.00  0.00     0.060 A 
BRANCH  61  62
ATOM     62  S   UNL A   1      42.370  18.761  26.115  1.00  0.00     0.124 S 
ATOM     63  O   UNL A   1      42.629  18.211  27.442  1.00  0.00    -0.237 OA
ATOM     64  O   UNL A   1      40.966  18.823  25.718  1.00  0.00    -0.237 OA
ATOM     65  O   UNL A   1      43.295  18.337  25.069  1.00  0.00    -0.744 OA
ENDBRANCH  61  62
ENDBRANCH  40  54
BRANCH  41  66
ATOM     66  C   UNL A   1      46.651  32.494  28.499  1.00  0.00     0.058 A 
ATOM     67  C   UNL A   1      47.019  32.816  29.814  1.00  0.00     0.135 A 
ATOM     68  C   UNL A   1      46.730  33.510  27.534  1.00  0.00     0.135 A 
ATOM     69  F   UNL A   1      46.949  31.884  30.777  1.00  0.00    -0.206 F 
ATOM     70  C   UNL A   1      47.417  34.102  30.166  1.00  0.00     0.059 A 
ATOM     71  C   UNL A   1      47.157  34.795  27.854  1.00  0.00     0.059 A 
ATOM     72  F   UNL A   1      46.398  33.256  26.258  1.00  0.00    -0.206 F 
ATOM     73  C   UNL A   1      47.481  35.086  29.178  1.00  0.00     0.060 A 
BRANCH  73  74
ATOM     74  S   UNL A   1      48.011  36.748  29.640  1.00  0.00     0.124 S 
ATOM     75  O   UNL A   1      49.292  36.849  28.950  1.00  0.00    -0.237 OA
ATOM     76  O   UNL A   1      46.931  37.572  29.106  1.00  0.00    -0.237 OA
ATOM     77  O   UNL A   1      48.081  36.686  31.097  1.00  0.00    -0.744 OA
ENDBRANCH  73  74
ENDBRANCH  41  66
BRANCH  53  78
ATOM     78  C   UNL A   1      49.812  26.602  26.503  1.00  0.00     0.058 A 
ATOM     79  C   UNL A   1      50.647  26.096  27.512  1.00  0.00     0.135 A 
ATOM     80  C   UNL A   1      50.347  26.716  25.209  1.00  0.00     0.135 A 
ATOM     81  F   UNL A   1      50.192  25.975  28.768  1.00  0.00    -0.206 F 
ATOM     82  C   UNL A   1      51.966  25.736  27.252  1.00  0.00     0.059 A 
ATOM     83  C   UNL A   1      51.653  26.331  24.920  1.00  0.00     0.059 A 
ATOM     84  F   UNL A   1      49.590  27.184  24.203  1.00  0.00    -0.206 F 
ATOM     85  C   UNL A   1      52.459  25.851  25.951  1.00  0.00     0.060 A 
BRANCH  85  86
ATOM     86  S   UNL A   1      54.157  25.336  25.622  1.00  0.00     0.124 S 
ATOM     87  O   UNL A   1      53.952  24.161  24.782  1.00  0.00    -0.237 OA
ATOM     88  O   UNL A   1      54.711  26.508  24.949  1.00  0.00    -0.237 OA
ATOM     89  O   UNL A   1      54.698  25.071  26.951  1.00  0.00    -0.744 OA
ENDBRANCH  85  86
ENDBRANCH  53  78
ENDBRANCH  27  28
ENDBRANCH  20  22
ENDBRANCH  19  20
ENDBRANCH  18  19
ENDBRANCH  17  18
ENDBRANCH   1  17
TORSDOF 21
ENDMDL
MODEL 2
REMARK VINA RESULT:      -9.1      4.685      9.512
REMARK SMILES [NH3+][C@H](CC[S@@](=O)[O-])C(=O)OCCOCCOC(=O)c1ccc(-c2c3nc(c(-c4c(F)cc(S(=O)(=O)[O-])cc4F)c4ccc([nH]4)c(-c4c(F)cc(S(=O)(=O)[O-])cc4F)c4nc(c(-c5c(F)cc(S(=O)(=O)[O-])cc5F)c5ccc2[nH]5)C=C4)C=C3)cc1
REMARK SMILES IDX 13 1 12 2 11 3 10 4 8 5 9 6 2 7 1 8 3 12 4 13 5 14 6 15 7 16
REMARK SMILES IDX 14 17 15 18 16 19 17 20 18 21 19 22 20 23 84 24 21 25 83 26
REMARK SMILES IDX 22 27 23 28 24 29 77 30 25 31 82 32 76 33 78 34 26 35 81 36
REMARK SMILES IDX 75 37 74 38 27 40 61 41 40 42 60 43 41 44 44 45 59 46 79 47
REMARK SMILES IDX 42 48 43 49 58 51 80 52 45 53 28 54 29 55 38 56 30 57 31 58
REMARK SMILES IDX 37 59 39 60 32 61 33 62 34 63 35 64 36 65 62 66 63 67 72 68
REMARK SMILES IDX 64 69 65 70 71 71 73 72 66 73 67 74 68 75 69 76 70 77 46 78
REMARK SMILES IDX 47 79 56 80 48 81 49 82 55 83 57 84 50 85 51 86 52 87 53 88
REMARK SMILES IDX 54 89
REMARK H PARENT 1 9 1 10 1 11 78 39 44 50
REMARK Flexibility Score: inf
ROOT
ATOM      1  O   UNL A   1      34.362  35.213  28.123  1.00  0.00    -0.374 OA
ENDROOT
BRANCH   1   2
ATOM      2  C   UNL A   1      33.315  35.496  29.054  1.00  0.00     0.202 C 
BRANCH   2   3
ATOM      3  C   UNL A   1      33.276  36.926  29.603  1.00  0.00     0.261 C 
BRANCH   3   4
ATOM      4  O   UNL A   1      32.527  36.979  30.831  1.00  0.00    -0.459 OA
BRANCH   4   5
ATOM      5  C   UNL A   1      33.234  37.066  31.985  1.00  0.00     0.364 C 
ATOM      6  O   UNL A   1      33.580  38.120  32.507  1.00  0.00    -0.245 OA
BRANCH   5   7
ATOM      7  C   UNL A   1      33.541  35.678  32.597  1.00  0.00     0.292 C 
BRANCH   7   8
ATOM      8  N   UNL A   1      32.293  34.947  32.871  1.00  0.00    -0.346 N 
ATOM      9  H   UNL A   1      32.380  33.988  32.534  1.00  0.00     0.345 HD
ATOM     10  H   UNL A   1      31.518  35.407  32.393  1.00  0.00     0.345 HD
ATOM     11  H   UNL A   1      32.117  34.941  33.875  1.00  0.00     0.345 HD
ENDBRANCH   7   8
BRANCH   7  12
ATOM     12  C   UNL A   1      34.564  35.589  33.755  1.00  0.00     0.090 C 
BRANCH  12  13
ATOM     13  C   UNL A   1      35.570  34.441  33.847  1.00  0.00     0.096 C 
BRANCH  13  14
ATOM     14  S   UNL A   1      37.031  34.578  32.780  1.00  0.00    -0.055 S 
ATOM     15  O   UNL A   1      38.210  34.168  33.606  1.00  0.00    -0.275 OA
ATOM     16  O   UNL A   1      36.691  33.280  31.905  1.00  0.00    -0.772 OA
ENDBRANCH  13  14
ENDBRANCH  12  13
ENDBRANCH   7  12
ENDBRANCH   5   7
ENDBRANCH   4   5
ENDBRANCH   3   4
ENDBRANCH   2   3
ENDBRANCH   1   2
BRANCH   1  17
ATOM     17  C   UNL A   1      35.114  34.023  28.345  1.00  0.00     0.202 C 
BRANCH  17  18
ATOM     18  C   UNL A   1      34.319  32.713  28.410  1.00  0.00     0.261 C 
BRANCH  18  19
ATOM     19  O   UNL A   1      34.554  31.875  27.262  1.00  0.00    -0.460 OA
BRANCH  19  20
ATOM     20  C   UNL A   1      34.489  30.543  27.509  1.00  0.00     0.338 C 
ATOM     21  O   UNL A   1      33.572  29.788  27.217  1.00  0.00    -0.246 OA
BRANCH  20  22
ATOM     22  C   UNL A   1      35.787  30.057  28.017  1.00  0.00     0.060 A 
ATOM     23  C   UNL A   1      35.824  29.564  29.329  1.00  0.00     0.016 A 
ATOM     24  C   UNL A   1      36.953  30.112  27.252  1.00  0.00     0.016 A 
ATOM     25  C   UNL A   1      37.032  29.146  29.887  1.00  0.00     0.010 A 
ATOM     26  C   UNL A   1      38.166  29.702  27.820  1.00  0.00     0.010 A 
ATOM     27  C   UNL A   1      38.218  29.233  29.145  1.00  0.00    -0.014 A 
BRANCH  27  28
ATOM     28  C   UNL A   1      39.517  28.895  29.780  1.00  0.00     0.031 A 
ATOM     29  C   UNL A   1      40.030  29.731  30.922  1.00  0.00     0.074 A 
ATOM     30  C   UNL A   1      40.232  27.841  29.341  1.00  0.00     0.049 A 
ATOM     31  N   UNL A   1      41.166  29.645  31.564  1.00  0.00    -0.248 NA
ATOM     32  C   UNL A   1      39.145  30.803  31.407  1.00  0.00     0.031 C 
ATOM     33  C   UNL A   1      39.830  26.941  28.261  1.00  0.00     0.029 A 
ATOM     34  N   UNL A   1      41.457  27.360  29.739  1.00  0.00    -0.354 N 
ATOM     35  C   UNL A   1      41.145  30.659  32.514  1.00  0.00     0.074 A 
ATOM     36  C   UNL A   1      39.886  31.356  32.359  1.00  0.00     0.031 C 
ATOM     37  C   UNL A   1      40.797  26.029  28.068  1.00  0.00     0.029 A 
ATOM     38  C   UNL A   1      41.907  26.307  28.976  1.00  0.00     0.049 A 
ATOM     39  H   UNL A   1      41.963  27.733  30.496  1.00  0.00     0.167 HD
ATOM     40  C   UNL A   1      42.090  30.978  33.430  1.00  0.00     0.037 A 
ATOM     41  C   UNL A   1      43.097  25.670  28.980  1.00  0.00     0.037 A 
ATOM     42  C   UNL A   1      43.336  30.270  33.587  1.00  0.00     0.049 A 
ATOM     43  C   UNL A   1      44.158  26.091  29.966  1.00  0.00     0.074 A 
ATOM     44  C   UNL A   1      44.332  30.487  34.525  1.00  0.00     0.029 A 
ATOM     45  N   UNL A   1      43.767  29.225  32.784  1.00  0.00    -0.354 N 
ATOM     46  N   UNL A   1      44.100  27.015  30.896  1.00  0.00    -0.248 NA
ATOM     47  C   UNL A   1      45.448  25.389  29.899  1.00  0.00     0.031 C 
ATOM     48  C   UNL A   1      45.393  29.620  34.246  1.00  0.00     0.029 A 
ATOM     49  C   UNL A   1      45.033  28.819  33.175  1.00  0.00     0.049 A 
ATOM     50  H   UNL A   1      43.250  28.831  32.045  1.00  0.00     0.167 HD
ATOM     51  C   UNL A   1      45.338  26.991  31.534  1.00  0.00     0.074 A 
ATOM     52  C   UNL A   1      46.113  25.945  30.903  1.00  0.00     0.031 C 
ATOM     53  C   UNL A   1      45.795  27.771  32.544  1.00  0.00     0.037 A 
BRANCH  40  54
ATOM     54  C   UNL A   1      41.846  32.158  34.331  1.00  0.00     0.058 A 
ATOM     55  C   UNL A   1      42.270  33.451  33.991  1.00  0.00     0.135 A 
ATOM     56  C   UNL A   1      41.077  32.005  35.497  1.00  0.00     0.135 A 
ATOM     57  F   UNL A   1      43.021  33.652  32.897  1.00  0.00    -0.206 F 
ATOM     58  C   UNL A   1      41.940  34.552  34.776  1.00  0.00     0.059 A 
ATOM     59  C   UNL A   1      40.713  33.095  36.281  1.00  0.00     0.059 A 
ATOM     60  F   UNL A   1      40.649  30.788  35.868  1.00  0.00    -0.206 F 
ATOM     61  C   UNL A   1      41.152  34.366  35.912  1.00  0.00     0.060 A 
BRANCH  61  62
ATOM     62  S   UNL A   1      40.683  35.813  36.884  1.00  0.00     0.124 S 
ATOM     63  O   UNL A   1      40.212  35.196  38.120  1.00  0.00    -0.237 OA
ATOM     64  O   UNL A   1      41.944  36.543  36.980  1.00  0.00    -0.237 OA
ATOM     65  O   UNL A   1      39.653  36.453  36.071  1.00  0.00    -0.744 OA
ENDBRANCH  61  62
ENDBRANCH  40  54
BRANCH  41  66
ATOM     66  C   UNL A   1      43.381  24.601  27.982  1.00  0.00     0.058 A 
ATOM     67  C   UNL A   1      42.972  23.276  28.193  1.00  0.00     0.135 A 
ATOM     68  C   UNL A   1      44.111  24.878  26.815  1.00  0.00     0.135 A 
ATOM     69  F   UNL A   1      42.282  22.956  29.299  1.00  0.00    -0.206 F 
ATOM     70  C   UNL A   1      43.302  22.259  27.303  1.00  0.00     0.059 A 
ATOM     71  C   UNL A   1      44.425  23.884  25.892  1.00  0.00     0.059 A 
ATOM     72  F   UNL A   1      44.522  26.129  26.557  1.00  0.00    -0.206 F 
ATOM     73  C   UNL A   1      44.032  22.573  26.156  1.00  0.00     0.060 A 
BRANCH  73  74
ATOM     74  S   UNL A   1      44.445  21.252  24.998  1.00  0.00     0.124 S 
ATOM     75  O   UNL A   1      43.419  20.262  25.305  1.00  0.00    -0.237 OA
ATOM     76  O   UNL A   1      44.320  21.924  23.709  1.00  0.00    -0.237 OA
ATOM     77  O   UNL A   1      45.808  20.888  25.377  1.00  0.00    -0.744 OA
ENDBRANCH  73  74
ENDBRANCH  41  66
BRANCH  53  78
ATOM     78  C   UNL A   1      47.190  27.516  33.049  1.00  0.00     0.058 A 
ATOM     79  C   UNL A   1      48.296  28.215  32.540  1.00  0.00     0.135 A 
ATOM     80  C   UNL A   1      47.417  26.610  34.099  1.00  0.00     0.135 A 
ATOM     81  F   UNL A   1      48.139  29.086  31.531  1.00  0.00    -0.206 F 
ATOM     82  C   UNL A   1      49.579  28.009  33.038  1.00  0.00     0.059 A 
ATOM     83  C   UNL A   1      48.687  26.413  34.633  1.00  0.00     0.059 A 
ATOM     84  F   UNL A   1      46.394  25.922  34.631  1.00  0.00    -0.206 F 
ATOM     85  C   UNL A   1      49.764  27.110  34.089  1.00  0.00     0.060 A 
BRANCH  85  86
ATOM     86  S   UNL A   1      51.428  26.889  34.754  1.00  0.00     0.124 S 
ATOM     87  O   UNL A   1      52.154  26.418  33.580  1.00  0.00    -0.237 OA
ATOM     88  O   UNL A   1      51.762  28.235  35.209  1.00  0.00    -0.237 OA
ATOM     89  O   UNL A   1      51.243  25.904  35.815  1.00  0.00    -0.744 OA
ENDBRANCH  85  86
ENDBRANCH  53  78
ENDBRANCH  27  28
ENDBRANCH  20  22
ENDBRANCH  19  20
ENDBRANCH  18  19
ENDBRANCH  17  18
ENDBRANCH   1  17
TORSDOF 21
ENDMDL
MODEL 3
REMARK VINA RESULT:      -9.1      1.329      8.829
REMARK SMILES [NH3+][C@H](CC[S@@](=O)[O-])C(=O)OCCOCCOC(=O)c1ccc(-c2c3nc(c(-c4c(F)cc(S(=O)(=O)[O-])cc4F)c4ccc([nH]4)c(-c4c(F)cc(S(=O)(=O)[O-])cc4F)c4nc(c(-c5c(F)cc(S(=O)(=O)[O-])cc5F)c5ccc2[nH]5)C=C4)C=C3)cc1
REMARK SMILES IDX 13 1 12 2 11 3 10 4 8 5 9 6 2 7 1 8 3 12 4 13 5 14 6 15 7 16
REMARK SMILES IDX 14 17 15 18 16 19 17 20 18 21 19 22 20 23 84 24 21 25 83 26
REMARK SMILES IDX 22 27 23 28 24 29 77 30 25 31 82 32 76 33 78 34 26 35 81 36
REMARK SMILES IDX 75 37 74 38 27 40 61 41 40 42 60 43 41 44 44 45 59 46 79 47
REMARK SMILES IDX 42 48 43 49 58 51 80 52 45 53 28 54 29 55 38 56 30 57 31 58
REMARK SMILES IDX 37 59 39 60 32 61 33 62 34 63 35 64 36 65 62 66 63 67 72 68
REMARK SMILES IDX 64 69 65 70 71 71 73 72 66 73 67 74 68 75 69 76 70 77 46 78
REMARK SMILES IDX 47 79 56 80 48 81 49 82 55 83 57 84 50 85 51 86 52 87 53 88
REMARK SMILES IDX 54 89
REMARK H PARENT 1 9 1 10 1 11 78 39 44 50
REMARK Flexibility Score: inf
ROOT
ATOM      1  O   UNL A   1      37.823  34.317  30.738  1.00  0.00    -0.374 OA
ENDROOT
BRANCH   1   2
ATOM      2  C   UNL A   1      38.098  33.573  31.926  1.00  0.00     0.202 C 
BRANCH   2   3
ATOM      3  C   UNL A   1      37.794  34.285  33.248  1.00  0.00     0.261 C 
BRANCH   3   4
ATOM      4  O   UNL A   1      36.536  34.982  33.172  1.00  0.00    -0.459 OA
BRANCH   4   5
ATOM      5  C   UNL A   1      35.466  34.394  33.762  1.00  0.00     0.364 C 
ATOM      6  O   UNL A   1      35.539  33.544  34.643  1.00  0.00    -0.245 OA
BRANCH   5   7
ATOM      7  C   UNL A   1      34.121  34.933  33.217  1.00  0.00     0.292 C 
BRANCH   7   8
ATOM      8  N   UNL A   1      33.126  33.851  33.140  1.00  0.00    -0.346 N 
ATOM      9  H   UNL A   1      32.566  33.843  33.992  1.00  0.00     0.345 HD
ATOM     10  H   UNL A   1      33.604  32.956  33.038  1.00  0.00     0.345 HD
ATOM     11  H   UNL A   1      32.518  34.005  32.335  1.00  0.00     0.345 HD
ENDBRANCH   7   8
BRANCH   7  12
ATOM     12  C   UNL A   1      34.139  35.832  31.957  1.00  0.00     0.090 C 
BRANCH  12  13
ATOM     13  C   UNL A   1      33.411  35.428  30.675  1.00  0.00     0.096 C 
BRANCH  13  14
ATOM     14  S   UNL A   1      33.546  36.588  29.286  1.00  0.00    -0.055 S 
ATOM     15  O   UNL A   1      34.385  35.918  28.243  1.00  0.00    -0.275 OA
ATOM     16  O   UNL A   1      32.042  36.377  28.778  1.00  0.00    -0.772 OA
ENDBRANCH  13  14
ENDBRANCH  12  13
ENDBRANCH   7  12
ENDBRANCH   5   7
ENDBRANCH   4   5
ENDBRANCH   3   4
ENDBRANCH   2   3
ENDBRANCH   1   2
BRANCH   1  17
ATOM     17  C   UNL A   1      36.979  33.695  29.772  1.00  0.00     0.202 C 
BRANCH  17  18
ATOM     18  C   UNL A   1      35.854  32.806  30.318  1.00  0.00     0.261 C 
BRANCH  18  19
ATOM     19  O   UNL A   1      35.974  31.441  29.875  1.00  0.00    -0.460 OA
BRANCH  19  20
ATOM     20  C   UNL A   1      36.527  30.597  30.783  1.00  0.00     0.338 C 
ATOM     21  O   UNL A   1      35.999  30.169  31.799  1.00  0.00    -0.246 OA
BRANCH  20  22
ATOM     22  C   UNL A   1      37.816  30.084  30.279  1.00  0.00     0.060 A 
ATOM     23  C   UNL A   1      38.754  29.652  31.227  1.00  0.00     0.016 A 
ATOM     24  C   UNL A   1      38.126  30.057  28.918  1.00  0.00     0.016 A 
ATOM     25  C   UNL A   1      40.013  29.213  30.819  1.00  0.00     0.010 A 
ATOM     26  C   UNL A   1      39.396  29.625  28.512  1.00  0.00     0.010 A 
ATOM     27  C   UNL A   1      40.353  29.218  29.459  1.00  0.00    -0.014 A 
BRANCH  27  28
ATOM     28  C   UNL A   1      41.731  28.858  29.037  1.00  0.00     0.031 A 
ATOM     29  C   UNL A   1      42.796  29.921  28.980  1.00  0.00     0.074 A 
ATOM     30  C   UNL A   1      42.030  27.586  28.712  1.00  0.00     0.049 A 
ATOM     31  N   UNL A   1      44.035  29.828  28.574  1.00  0.00    -0.248 NA
ATOM     32  C   UNL A   1      42.415  31.265  29.444  1.00  0.00     0.031 C 
ATOM     33  C   UNL A   1      41.093  26.463  28.752  1.00  0.00     0.029 A 
ATOM     34  N   UNL A   1      43.204  27.026  28.266  1.00  0.00    -0.354 N 
ATOM     35  C   UNL A   1      44.579  31.099  28.713  1.00  0.00     0.074 A 
ATOM     36  C   UNL A   1      43.530  31.951  29.233  1.00  0.00     0.031 C 
ATOM     37  C   UNL A   1      41.722  25.353  28.330  1.00  0.00     0.029 A 
ATOM     38  C   UNL A   1      43.089  25.693  27.944  1.00  0.00     0.049 A 
ATOM     39  H   UNL A   1      44.045  27.530  28.185  1.00  0.00     0.167 HD
ATOM     40  C   UNL A   1      45.837  31.515  28.433  1.00  0.00     0.037 A 
ATOM     41  C   UNL A   1      43.973  24.854  27.364  1.00  0.00     0.037 A 
ATOM     42  C   UNL A   1      46.880  30.657  27.929  1.00  0.00     0.049 A 
ATOM     43  C   UNL A   1      45.345  25.363  26.999  1.00  0.00     0.074 A 
ATOM     44  C   UNL A   1      48.201  30.978  27.666  1.00  0.00     0.029 A 
ATOM     45  N   UNL A   1      46.721  29.321  27.594  1.00  0.00    -0.354 N 
ATOM     46  N   UNL A   1      45.862  26.553  27.190  1.00  0.00    -0.248 NA
ATOM     47  C   UNL A   1      46.252  24.417  26.332  1.00  0.00     0.031 C 
ATOM     48  C   UNL A   1      48.822  29.856  27.110  1.00  0.00     0.029 A 
ATOM     49  C   UNL A   1      47.907  28.817  27.085  1.00  0.00     0.049 A 
ATOM     50  H   UNL A   1      45.889  28.806  27.703  1.00  0.00     0.167 HD
ATOM     51  C   UNL A   1      47.157  26.492  26.684  1.00  0.00     0.074 A 
ATOM     52  C   UNL A   1      47.356  25.141  26.204  1.00  0.00     0.031 C 
ATOM     53  C   UNL A   1      48.097  27.468  26.615  1.00  0.00     0.037 A 
BRANCH  40  54
ATOM     54  C   UNL A   1      46.173  32.967  28.635  1.00  0.00     0.058 A 
ATOM     55  C   UNL A   1      45.975  33.922  27.626  1.00  0.00     0.135 A 
ATOM     56  C   UNL A   1      46.593  33.423  29.896  1.00  0.00     0.135 A 
ATOM     57  F   UNL A   1      45.590  33.540  26.398  1.00  0.00    -0.206 F 
ATOM     58  C   UNL A   1      46.182  35.278  27.861  1.00  0.00     0.059 A 
ATOM     59  C   UNL A   1      46.780  34.777  30.159  1.00  0.00     0.059 A 
ATOM     60  F   UNL A   1      46.800  32.551  30.895  1.00  0.00    -0.206 F 
ATOM     61  C   UNL A   1      46.573  35.697  29.133  1.00  0.00     0.060 A 
BRANCH  61  62
ATOM     62  S   UNL A   1      46.777  37.465  29.435  1.00  0.00     0.124 S 
ATOM     63  O   UNL A   1      46.433  37.563  30.849  1.00  0.00    -0.237 OA
ATOM     64  O   UNL A   1      48.184  37.675  29.108  1.00  0.00    -0.237 OA
ATOM     65  O   UNL A   1      45.825  38.082  28.515  1.00  0.00    -0.744 OA
ENDBRANCH  61  62
ENDBRANCH  40  54
BRANCH  41  66
ATOM     66  C   UNL A   1      43.576  23.457  27.032  1.00  0.00     0.058 A 
ATOM     67  C   UNL A   1      43.260  23.079  25.719  1.00  0.00     0.135 A 
ATOM     68  C   UNL A   1      43.459  22.482  28.036  1.00  0.00     0.135 A 
ATOM     69  F   UNL A   1      43.344  23.976  24.725  1.00  0.00    -0.206 F 
ATOM     70  C   UNL A   1      42.814  21.796  25.416  1.00  0.00     0.059 A 
ATOM     71  C   UNL A   1      43.047  21.183  27.752  1.00  0.00     0.059 A 
ATOM     72  F   UNL A   1      43.755  22.784  29.309  1.00  0.00    -0.206 F 
ATOM     73  C   UNL A   1      42.708  20.855  26.441  1.00  0.00     0.060 A 
BRANCH  73  74
ATOM     74  S   UNL A   1      42.141  19.190  26.038  1.00  0.00     0.124 S 
ATOM     75  O   UNL A   1      42.921  18.896  24.841  1.00  0.00    -0.237 OA
ATOM     76  O   UNL A   1      42.506  18.444  27.238  1.00  0.00    -0.237 OA
ATOM     77  O   UNL A   1      40.706  19.366  25.830  1.00  0.00    -0.744 OA
ENDBRANCH  73  74
ENDBRANCH  41  66
BRANCH  53  78
ATOM     78  C   UNL A   1      49.431  27.114  26.016  1.00  0.00     0.058 A 
ATOM     79  C   UNL A   1      50.452  26.534  26.786  1.00  0.00     0.135 A 
ATOM     80  C   UNL A   1      49.672  27.298  24.644  1.00  0.00     0.135 A 
ATOM     81  F   UNL A   1      50.280  26.343  28.103  1.00  0.00    -0.206 F 
ATOM     82  C   UNL A   1      51.671  26.167  26.221  1.00  0.00     0.059 A 
ATOM     83  C   UNL A   1      50.871  26.910  24.053  1.00  0.00     0.059 A 
ATOM     84  F   UNL A   1      48.727  27.839  23.859  1.00  0.00    -0.206 F 
ATOM     85  C   UNL A   1      51.868  26.354  24.852  1.00  0.00     0.060 A 
BRANCH  85  86
ATOM     86  S   UNL A   1      53.437  25.832  24.127  1.00  0.00     0.124 S 
ATOM     87  O   UNL A   1      54.350  26.848  24.638  1.00  0.00    -0.237 OA
ATOM     88  O   UNL A   1      53.604  24.491  24.681  1.00  0.00    -0.237 OA
ATOM     89  O   UNL A   1      53.183  25.882  22.691  1.00  0.00    -0.744 OA
ENDBRANCH  85  86
ENDBRANCH  53  78
ENDBRANCH  27  28
ENDBRANCH  20  22
ENDBRANCH  19  20
ENDBRANCH  18  19
ENDBRANCH  17  18
ENDBRANCH   1  17
TORSDOF 21
ENDMDL
