MODEL 1
REMARK VINA RESULT:     -12.6      0.000      0.000
REMARK SMILES CC1(C)Cc2c(-c3ccccc3)c(-c3ccc(Cl)cc3)c(CC(=O)OCCOCCOC(=O)c3ccc(-c4c5nc(c(-c6c(F)cc(S(=O)(=O)[O-])cc6F)c6ccc([nH]6)c(-c6c(F)cc(S(=O)(=O)[O-])cc6F)c6nc(c(-c7c(F)cc(S(=O)(=O)[O-])cc7F)c7ccc4[nH]7)C=C6)C=C5)cc3)n2C1
REMARK SMILES IDX 29 1 28 2 27 3 26 4 25 5 23 6 24 7 22 8 21 9 1 10 2 11 3 12
REMARK SMILES IDX 4 13 101 14 5 15 100 16 6 17 13 18 7 19 8 20 12 21 9 22
REMARK SMILES IDX 11 23 10 24 14 25 15 26 20 27 16 28 19 29 17 30 18 31 30 32
REMARK SMILES IDX 31 33 32 34 33 35 34 36 35 37 99 38 36 39 98 40 37 41 38 42
REMARK SMILES IDX 39 43 92 44 40 45 97 46 91 47 93 48 41 49 96 50 90 51 89 52
REMARK SMILES IDX 42 54 76 55 55 56 75 57 56 58 59 59 74 60 94 61 57 62 58 63
REMARK SMILES IDX 73 65 95 66 60 67 43 68 44 69 53 70 45 71 46 72 52 73 54 74
REMARK SMILES IDX 47 75 48 76 49 77 50 78 51 79 77 80 78 81 87 82 79 83 80 84
REMARK SMILES IDX 86 85 88 86 81 87 82 88 83 89 84 90 85 91 61 92 62 93 71 94
REMARK SMILES IDX 63 95 64 96 70 97 72 98 65 99 66 100 67 101 68 102 69 103
REMARK H PARENT 93 53 59 64
REMARK Flexibility Score: inf
ROOT
ATOM      1  C   UNL A   1      31.529  28.508  27.413  1.00  0.00     0.202 C 
ENDROOT
BRANCH   1   2
ATOM      2  O   UNL A   1      31.035  27.793  26.285  1.00  0.00    -0.374 OA
BRANCH   2   3
ATOM      3  C   UNL A   1      30.717  26.427  26.464  1.00  0.00     0.202 C 
BRANCH   3   4
ATOM      4  C   UNL A   1      30.092  25.753  25.233  1.00  0.00     0.261 C 
BRANCH   4   5
ATOM      5  O   UNL A   1      30.542  24.390  25.010  1.00  0.00    -0.463 OA
BRANCH   5   6
ATOM      6  C   UNL A   1      30.623  23.967  23.727  1.00  0.00     0.311 C 
ATOM      7  O   UNL A   1      30.196  24.627  22.780  1.00  0.00    -0.252 OA
BRANCH   6   8
ATOM      8  C   UNL A   1      31.260  22.600  23.481  1.00  0.00     0.177 C 
BRANCH   8   9
ATOM      9  C   UNL A   1      32.560  22.181  24.137  1.00  0.00     0.037 A 
ATOM     10  C   UNL A   1      33.463  17.323  23.574  1.00  0.00     0.013 C 
ATOM     11  C   UNL A   1      33.302  18.530  24.506  1.00  0.00    -0.012 C 
ATOM     12  C   UNL A   1      32.849  18.041  25.891  1.00  0.00     0.013 C 
ATOM     13  C   UNL A   1      34.649  19.300  24.642  1.00  0.00     0.063 C 
ATOM     14  C   UNL A   1      32.296  19.580  23.934  1.00  0.00     0.129 C 
ATOM     15  C   UNL A   1      34.216  20.716  24.633  1.00  0.00     0.027 A 
ATOM     16  N   UNL A   1      32.912  20.861  24.267  1.00  0.00    -0.346 N 
ATOM     17  C   UNL A   1      34.754  21.953  24.843  1.00  0.00     0.011 A 
ATOM     18  C   UNL A   1      33.720  22.906  24.506  1.00  0.00     0.011 A 
BRANCH  17  19
ATOM     19  C   UNL A   1      36.124  22.164  25.277  1.00  0.00    -0.016 A 
ATOM     20  C   UNL A   1      36.517  23.331  25.944  1.00  0.00     0.009 A 
ATOM     21  C   UNL A   1      37.079  21.185  24.997  1.00  0.00     0.009 A 
ATOM     22  C   UNL A   1      37.858  23.530  26.283  1.00  0.00     0.001 A 
ATOM     23  C   UNL A   1      38.405  21.369  25.371  1.00  0.00     0.001 A 
ATOM     24  C   UNL A   1      38.802  22.551  25.986  1.00  0.00     0.000 A 
ENDBRANCH  17  19
BRANCH  18  25
ATOM     25  C   UNL A   1      33.959  24.353  24.398  1.00  0.00    -0.016 A 
ATOM     26  C   UNL A   1      33.971  25.148  25.550  1.00  0.00     0.010 A 
ATOM     27  C   UNL A   1      33.897  25.014  23.164  1.00  0.00     0.010 A 
ATOM     28  C   UNL A   1      33.969  26.551  25.454  1.00  0.00     0.021 A 
ATOM     29  C   UNL A   1      33.932  26.406  23.056  1.00  0.00     0.021 A 
ATOM     30  C   UNL A   1      33.966  27.173  24.207  1.00  0.00     0.041 A 
ATOM     31  Cl  UNL A   1      33.953  28.888  24.084  1.00  0.00    -0.084 Cl
ENDBRANCH  18  25
ENDBRANCH   8   9
ENDBRANCH   6   8
ENDBRANCH   5   6
ENDBRANCH   4   5
ENDBRANCH   3   4
ENDBRANCH   2   3
ENDBRANCH   1   2
BRANCH   1  32
ATOM     32  C   UNL A   1      32.341  29.796  27.227  1.00  0.00     0.261 C 
BRANCH  32  33
ATOM     33  O   UNL A   1      33.747  29.604  27.122  1.00  0.00    -0.460 OA
BRANCH  33  34
ATOM     34  C   UNL A   1      34.423  30.659  27.585  1.00  0.00     0.338 C 
ATOM     35  O   UNL A   1      33.938  31.784  27.745  1.00  0.00    -0.246 OA
BRANCH  34  36
ATOM     36  C   UNL A   1      35.808  30.293  27.897  1.00  0.00     0.060 A 
ATOM     37  C   UNL A   1      36.654  31.315  28.323  1.00  0.00     0.016 A 
ATOM     38  C   UNL A   1      36.287  28.984  27.703  1.00  0.00     0.016 A 
ATOM     39  C   UNL A   1      37.990  31.032  28.531  1.00  0.00     0.010 A 
ATOM     40  C   UNL A   1      37.631  28.718  27.839  1.00  0.00     0.010 A 
ATOM     41  C   UNL A   1      38.467  29.743  28.266  1.00  0.00    -0.014 A 
BRANCH  41  42
ATOM     42  C   UNL A   1      39.797  29.403  28.726  1.00  0.00     0.031 A 
ATOM     43  C   UNL A   1      39.935  29.486  30.197  1.00  0.00     0.074 A 
ATOM     44  C   UNL A   1      40.769  28.931  27.933  1.00  0.00     0.049 A 
ATOM     45  N   UNL A   1      40.612  30.362  30.860  1.00  0.00    -0.248 NA
ATOM     46  C   UNL A   1      39.088  28.621  31.035  1.00  0.00     0.031 C 
ATOM     47  C   UNL A   1      40.670  28.562  26.530  1.00  0.00     0.029 A 
ATOM     48  N   UNL A   1      42.037  28.575  28.260  1.00  0.00    -0.354 N 
ATOM     49  C   UNL A   1      40.475  30.000  32.193  1.00  0.00     0.074 A 
ATOM     50  C   UNL A   1      39.358  29.097  32.250  1.00  0.00     0.031 C 
ATOM     51  C   UNL A   1      41.738  27.808  26.190  1.00  0.00     0.029 A 
ATOM     52  C   UNL A   1      42.665  27.784  27.309  1.00  0.00     0.049 A 
ATOM     53  H   UNL A   1      42.474  28.854  29.098  1.00  0.00     0.167 HD
ATOM     54  C   UNL A   1      41.475  30.242  33.082  1.00  0.00     0.037 A 
ATOM     55  C   UNL A   1      43.840  27.125  27.461  1.00  0.00     0.037 A 
ATOM     56  C   UNL A   1      42.376  31.256  32.580  1.00  0.00     0.049 A 
ATOM     57  C   UNL A   1      44.582  27.803  28.556  1.00  0.00     0.074 A 
ATOM     58  C   UNL A   1      42.217  32.551  32.120  1.00  0.00     0.029 A 
ATOM     59  N   UNL A   1      43.614  30.856  32.135  1.00  0.00    -0.354 N 
ATOM     60  N   UNL A   1      45.062  29.014  28.466  1.00  0.00    -0.248 NA
ATOM     61  C   UNL A   1      44.428  27.299  29.913  1.00  0.00     0.031 C 
ATOM     62  C   UNL A   1      43.149  32.689  31.050  1.00  0.00     0.029 A 
ATOM     63  C   UNL A   1      43.864  31.496  30.949  1.00  0.00     0.049 A 
ATOM     64  H   UNL A   1      44.215  30.221  32.588  1.00  0.00     0.167 HD
ATOM     65  C   UNL A   1      44.846  29.573  29.718  1.00  0.00     0.074 A 
ATOM     66  C   UNL A   1      44.576  28.438  30.595  1.00  0.00     0.031 C 
ATOM     67  C   UNL A   1      44.624  30.914  29.861  1.00  0.00     0.037 A 
BRANCH  54  68
ATOM     68  C   UNL A   1      41.859  29.277  34.187  1.00  0.00     0.058 A 
ATOM     69  C   UNL A   1      42.196  27.952  33.841  1.00  0.00     0.135 A 
ATOM     70  C   UNL A   1      41.635  29.499  35.567  1.00  0.00     0.135 A 
ATOM     71  F   UNL A   1      42.447  27.622  32.564  1.00  0.00    -0.206 F 
ATOM     72  C   UNL A   1      42.192  26.911  34.770  1.00  0.00     0.059 A 
ATOM     73  C   UNL A   1      41.682  28.487  36.517  1.00  0.00     0.059 A 
ATOM     74  F   UNL A   1      41.262  30.682  36.066  1.00  0.00    -0.206 F 
ATOM     75  C   UNL A   1      41.906  27.189  36.102  1.00  0.00     0.060 A 
BRANCH  75  76
ATOM     76  S   UNL A   1      41.754  25.840  37.282  1.00  0.00     0.124 S 
ATOM     77  O   UNL A   1      40.375  26.005  37.726  1.00  0.00    -0.237 OA
ATOM     78  O   UNL A   1      42.025  24.676  36.446  1.00  0.00    -0.237 OA
ATOM     79  O   UNL A   1      42.781  26.146  38.273  1.00  0.00    -0.744 OA
ENDBRANCH  75  76
ENDBRANCH  54  68
BRANCH  55  80
ATOM     80  C   UNL A   1      44.235  25.801  26.917  1.00  0.00     0.058 A 
ATOM     81  C   UNL A   1      43.757  24.613  27.495  1.00  0.00     0.135 A 
ATOM     82  C   UNL A   1      44.852  25.676  25.656  1.00  0.00     0.135 A 
ATOM     83  F   UNL A   1      43.142  24.641  28.687  1.00  0.00    -0.206 F 
ATOM     84  C   UNL A   1      43.832  23.381  26.837  1.00  0.00     0.059 A 
ATOM     85  C   UNL A   1      44.950  24.457  24.986  1.00  0.00     0.059 A 
ATOM     86  F   UNL A   1      45.298  26.752  24.990  1.00  0.00    -0.206 F 
ATOM     87  C   UNL A   1      44.410  23.318  25.570  1.00  0.00     0.060 A 
BRANCH  87  88
ATOM     88  S   UNL A   1      44.334  21.771  24.636  1.00  0.00     0.124 S 
ATOM     89  O   UNL A   1      43.058  21.217  25.073  1.00  0.00    -0.237 OA
ATOM     90  O   UNL A   1      44.386  22.241  23.256  1.00  0.00    -0.237 OA
ATOM     91  O   UNL A   1      45.518  21.044  25.088  1.00  0.00    -0.744 OA
ENDBRANCH  87  88
ENDBRANCH  55  80
BRANCH  67  92
ATOM     92  C   UNL A   1      44.992  31.823  28.715  1.00  0.00     0.058 A 
ATOM     93  C   UNL A   1      44.255  31.958  27.525  1.00  0.00     0.135 A 
ATOM     94  C   UNL A   1      46.092  32.679  28.883  1.00  0.00     0.135 A 
ATOM     95  F   UNL A   1      43.124  31.265  27.329  1.00  0.00    -0.206 F 
ATOM     96  C   UNL A   1      44.635  32.852  26.522  1.00  0.00     0.059 A 
ATOM     97  C   UNL A   1      46.467  33.604  27.913  1.00  0.00     0.059 A 
ATOM     98  F   UNL A   1      46.800  32.650  30.025  1.00  0.00    -0.206 F 
ATOM     99  C   UNL A   1      45.747  33.669  26.722  1.00  0.00     0.060 A 
BRANCH  99 100
ATOM    100  S   UNL A   1      46.210  34.857  25.445  1.00  0.00     0.124 S 
ATOM    101  O   UNL A   1      47.614  34.534  25.219  1.00  0.00    -0.237 OA
ATOM    102  O   UNL A   1      45.299  34.523  24.354  1.00  0.00    -0.237 OA
ATOM    103  O   UNL A   1      45.961  36.152  26.077  1.00  0.00    -0.744 OA
ENDBRANCH  99 100
ENDBRANCH  67  92
ENDBRANCH  41  42
ENDBRANCH  34  36
ENDBRANCH  33  34
ENDBRANCH  32  33
ENDBRANCH   1  32
TORSDOF 20
ENDMDL
MODEL 2
REMARK VINA RESULT:     -12.0      4.755     10.441
REMARK SMILES CC1(C)Cc2c(-c3ccccc3)c(-c3ccc(Cl)cc3)c(CC(=O)OCCOCCOC(=O)c3ccc(-c4c5nc(c(-c6c(F)cc(S(=O)(=O)[O-])cc6F)c6ccc([nH]6)c(-c6c(F)cc(S(=O)(=O)[O-])cc6F)c6nc(c(-c7c(F)cc(S(=O)(=O)[O-])cc7F)c7ccc4[nH]7)C=C6)C=C5)cc3)n2C1
REMARK SMILES IDX 29 1 28 2 27 3 26 4 25 5 23 6 24 7 22 8 21 9 1 10 2 11 3 12
REMARK SMILES IDX 4 13 101 14 5 15 100 16 6 17 13 18 7 19 8 20 12 21 9 22
REMARK SMILES IDX 11 23 10 24 14 25 15 26 20 27 16 28 19 29 17 30 18 31 30 32
REMARK SMILES IDX 31 33 32 34 33 35 34 36 35 37 99 38 36 39 98 40 37 41 38 42
REMARK SMILES IDX 39 43 92 44 40 45 97 46 91 47 93 48 41 49 96 50 90 51 89 52
REMARK SMILES IDX 42 54 76 55 55 56 75 57 56 58 59 59 74 60 94 61 57 62 58 63
REMARK SMILES IDX 73 65 95 66 60 67 43 68 44 69 53 70 45 71 46 72 52 73 54 74
REMARK SMILES IDX 47 75 48 76 49 77 50 78 51 79 77 80 78 81 87 82 79 83 80 84
REMARK SMILES IDX 86 85 88 86 81 87 82 88 83 89 84 90 85 91 61 92 62 93 71 94
REMARK SMILES IDX 63 95 64 96 70 97 72 98 65 99 66 100 67 101 68 102 69 103
REMARK H PARENT 93 53 59 64
REMARK Flexibility Score: inf
ROOT
ATOM      1  C   UNL A   1      46.057  23.288  24.375  1.00  0.00     0.202 C 
ENDROOT
BRANCH   1   2
ATOM      2  O   UNL A   1      45.016  22.405  23.971  1.00  0.00    -0.374 OA
BRANCH   2   3
ATOM      3  C   UNL A   1      45.204  21.023  24.204  1.00  0.00     0.202 C 
BRANCH   3   4
ATOM      4  C   UNL A   1      44.369  20.454  25.361  1.00  0.00     0.261 C 
BRANCH   4   5
ATOM      5  O   UNL A   1      43.036  21.021  25.467  1.00  0.00    -0.463 OA
BRANCH   5   6
ATOM      6  C   UNL A   1      42.055  20.214  25.932  1.00  0.00     0.311 C 
ATOM      7  O   UNL A   1      41.911  19.053  25.549  1.00  0.00    -0.252 OA
BRANCH   6   8
ATOM      8  C   UNL A   1      41.091  20.805  26.959  1.00  0.00     0.177 C 
BRANCH   8   9
ATOM      9  C   UNL A   1      40.533  22.208  26.835  1.00  0.00     0.037 A 
ATOM     10  C   UNL A   1      35.657  22.207  25.853  1.00  0.00     0.013 C 
ATOM     11  C   UNL A   1      37.073  22.662  25.479  1.00  0.00    -0.012 C 
ATOM     12  C   UNL A   1      37.134  22.926  23.965  1.00  0.00     0.013 C 
ATOM     13  C   UNL A   1      37.451  23.962  26.249  1.00  0.00     0.063 C 
ATOM     14  C   UNL A   1      38.154  21.616  25.902  1.00  0.00     0.129 C 
ATOM     15  C   UNL A   1      38.869  23.730  26.601  1.00  0.00     0.027 A 
ATOM     16  N   UNL A   1      39.258  22.443  26.384  1.00  0.00    -0.346 N 
ATOM     17  C   UNL A   1      39.920  24.422  27.133  1.00  0.00     0.011 A 
ATOM     18  C   UNL A   1      40.985  23.461  27.315  1.00  0.00     0.011 A 
BRANCH  17  19
ATOM     19  C   UNL A   1      39.861  25.836  27.458  1.00  0.00    -0.016 A 
ATOM     20  C   UNL A   1      39.277  26.299  28.642  1.00  0.00     0.009 A 
ATOM     21  C   UNL A   1      40.379  26.759  26.548  1.00  0.00     0.009 A 
ATOM     22  C   UNL A   1      39.174  27.671  28.887  1.00  0.00     0.001 A 
ATOM     23  C   UNL A   1      40.312  28.121  26.813  1.00  0.00     0.001 A 
ATOM     24  C   UNL A   1      39.685  28.581  27.966  1.00  0.00     0.000 A 
ENDBRANCH  17  19
BRANCH  18  25
ATOM     25  C   UNL A   1      42.222  23.757  28.054  1.00  0.00    -0.016 A 
ATOM     26  C   UNL A   1      42.545  23.020  29.200  1.00  0.00     0.010 A 
ATOM     27  C   UNL A   1      42.951  24.930  27.820  1.00  0.00     0.010 A 
ATOM     28  C   UNL A   1      43.592  23.429  30.045  1.00  0.00     0.021 A 
ATOM     29  C   UNL A   1      44.017  25.325  28.631  1.00  0.00     0.021 A 
ATOM     30  C   UNL A   1      44.334  24.571  29.747  1.00  0.00     0.041 A 
ATOM     31  Cl  UNL A   1      45.609  25.082  30.782  1.00  0.00    -0.084 Cl
ENDBRANCH  18  25
ENDBRANCH   8   9
ENDBRANCH   6   8
ENDBRANCH   5   6
ENDBRANCH   4   5
ENDBRANCH   3   4
ENDBRANCH   2   3
ENDBRANCH   1   2
BRANCH   1  32
ATOM     32  C   UNL A   1      45.821  24.314  25.491  1.00  0.00     0.261 C 
BRANCH  32  33
ATOM     33  O   UNL A   1      45.097  25.472  25.092  1.00  0.00    -0.460 OA
BRANCH  33  34
ATOM     34  C   UNL A   1      45.891  26.543  25.007  1.00  0.00     0.338 C 
ATOM     35  O   UNL A   1      46.906  26.606  24.306  1.00  0.00    -0.246 OA
BRANCH  34  36
ATOM     36  C   UNL A   1      45.382  27.636  25.842  1.00  0.00     0.060 A 
ATOM     37  C   UNL A   1      46.299  28.286  26.665  1.00  0.00     0.016 A 
ATOM     38  C   UNL A   1      44.015  27.967  25.870  1.00  0.00     0.016 A 
ATOM     39  C   UNL A   1      45.843  29.253  27.539  1.00  0.00     0.010 A 
ATOM     40  C   UNL A   1      43.549  28.878  26.792  1.00  0.00     0.010 A 
ATOM     41  C   UNL A   1      44.472  29.523  27.607  1.00  0.00    -0.014 A 
BRANCH  41  42
ATOM     42  C   UNL A   1      44.046  30.700  28.334  1.00  0.00     0.031 A 
ATOM     43  C   UNL A   1      44.493  31.960  27.700  1.00  0.00     0.074 A 
ATOM     44  C   UNL A   1      43.223  30.675  29.392  1.00  0.00     0.049 A 
ATOM     45  N   UNL A   1      45.386  32.776  28.150  1.00  0.00    -0.248 NA
ATOM     46  C   UNL A   1      44.040  32.261  26.332  1.00  0.00     0.031 C 
ATOM     47  C   UNL A   1      42.515  29.528  29.939  1.00  0.00     0.029 A 
ATOM     48  N   UNL A   1      42.756  31.712  30.134  1.00  0.00    -0.354 N 
ATOM     49  C   UNL A   1      45.422  33.822  27.238  1.00  0.00     0.074 A 
ATOM     50  C   UNL A   1      44.770  33.341  26.051  1.00  0.00     0.031 C 
ATOM     51  C   UNL A   1      41.528  29.959  30.754  1.00  0.00     0.029 A 
ATOM     52  C   UNL A   1      41.646  31.400  30.905  1.00  0.00     0.049 A 
ATOM     53  H   UNL A   1      43.170  32.605  30.126  1.00  0.00     0.167 HD
ATOM     54  C   UNL A   1      45.719  35.085  27.646  1.00  0.00     0.037 A 
ATOM     55  C   UNL A   1      40.862  32.279  31.577  1.00  0.00     0.037 A 
ATOM     56  C   UNL A   1      46.394  35.068  28.924  1.00  0.00     0.049 A 
ATOM     57  C   UNL A   1      41.672  33.506  31.795  1.00  0.00     0.074 A 
ATOM     58  C   UNL A   1      47.528  34.443  29.413  1.00  0.00     0.029 A 
ATOM     59  N   UNL A   1      45.686  35.468  30.033  1.00  0.00    -0.354 N 
ATOM     60  N   UNL A   1      42.716  33.558  32.578  1.00  0.00    -0.248 NA
ATOM     61  C   UNL A   1      41.581  34.580  30.817  1.00  0.00     0.031 C 
ATOM     62  C   UNL A   1      47.215  34.093  30.760  1.00  0.00     0.029 A 
ATOM     63  C   UNL A   1      45.935  34.571  31.040  1.00  0.00     0.049 A 
ATOM     64  H   UNL A   1      45.102  36.259  30.094  1.00  0.00     0.167 HD
ATOM     65  C   UNL A   1      43.616  34.377  31.913  1.00  0.00     0.074 A 
ATOM     66  C   UNL A   1      42.818  35.075  30.908  1.00  0.00     0.031 C 
ATOM     67  C   UNL A   1      44.964  34.198  32.048  1.00  0.00     0.037 A 
BRANCH  54  68
ATOM     68  C   UNL A   1      45.032  36.320  27.096  1.00  0.00     0.058 A 
ATOM     69  C   UNL A   1      45.824  37.433  26.743  1.00  0.00     0.135 A 
ATOM     70  C   UNL A   1      43.641  36.572  27.171  1.00  0.00     0.135 A 
ATOM     71  F   UNL A   1      47.155  37.316  26.626  1.00  0.00    -0.206 F 
ATOM     72  C   UNL A   1      45.290  38.714  26.595  1.00  0.00     0.059 A 
ATOM     73  C   UNL A   1      43.084  37.828  26.970  1.00  0.00     0.059 A 
ATOM     74  F   UNL A   1      42.749  35.645  27.536  1.00  0.00    -0.206 F 
ATOM     75  C   UNL A   1      43.920  38.902  26.738  1.00  0.00     0.060 A 
BRANCH  75  76
ATOM     76  S   UNL A   1      43.238  40.566  26.695  1.00  0.00     0.124 S 
ATOM     77  O   UNL A   1      43.537  40.959  25.323  1.00  0.00    -0.237 OA
ATOM     78  O   UNL A   1      41.833  40.324  27.002  1.00  0.00    -0.237 OA
ATOM     79  O   UNL A   1      43.991  41.263  27.733  1.00  0.00    -0.744 OA
ENDBRANCH  75  76
ENDBRANCH  54  68
BRANCH  55  80
ATOM     80  C   UNL A   1      39.394  32.231  31.794  1.00  0.00     0.058 A 
ATOM     81  C   UNL A   1      38.858  32.158  33.090  1.00  0.00     0.135 A 
ATOM     82  C   UNL A   1      38.486  32.544  30.762  1.00  0.00     0.135 A 
ATOM     83  F   UNL A   1      39.654  31.882  34.135  1.00  0.00    -0.206 F 
ATOM     84  C   UNL A   1      37.514  32.436  33.360  1.00  0.00     0.059 A 
ATOM     85  C   UNL A   1      37.139  32.813  31.003  1.00  0.00     0.059 A 
ATOM     86  F   UNL A   1      38.898  32.690  29.494  1.00  0.00    -0.206 F 
ATOM     87  C   UNL A   1      36.667  32.786  32.310  1.00  0.00     0.060 A 
BRANCH  87  88
ATOM     88  S   UNL A   1      34.982  33.334  32.674  1.00  0.00     0.124 S 
ATOM     89  O   UNL A   1      35.006  34.714  32.203  1.00  0.00    -0.237 OA
ATOM     90  O   UNL A   1      34.178  32.405  31.888  1.00  0.00    -0.237 OA
ATOM     91  O   UNL A   1      34.880  33.171  34.123  1.00  0.00    -0.744 OA
ENDBRANCH  87  88
ENDBRANCH  55  80
BRANCH  67  92
ATOM     92  C   UNL A   1      45.458  33.368  33.206  1.00  0.00     0.058 A 
ATOM     93  C   UNL A   1      45.582  31.967  33.198  1.00  0.00     0.135 A 
ATOM     94  C   UNL A   1      45.932  34.042  34.344  1.00  0.00     0.135 A 
ATOM     95  F   UNL A   1      45.266  31.250  32.110  1.00  0.00    -0.206 F 
ATOM     96  C   UNL A   1      46.089  31.267  34.296  1.00  0.00     0.059 A 
ATOM     97  C   UNL A   1      46.474  33.368  35.434  1.00  0.00     0.059 A 
ATOM     98  F   UNL A   1      45.905  35.385  34.390  1.00  0.00    -0.206 F 
ATOM     99  C   UNL A   1      46.528  31.976  35.413  1.00  0.00     0.060 A 
BRANCH  99 100
ATOM    100  S   UNL A   1      47.224  31.074  36.812  1.00  0.00     0.124 S 
ATOM    101  O   UNL A   1      48.437  30.502  36.236  1.00  0.00    -0.237 OA
ATOM    102  O   UNL A   1      47.429  32.128  37.802  1.00  0.00    -0.237 OA
ATOM    103  O   UNL A   1      46.179  30.110  37.151  1.00  0.00    -0.744 OA
ENDBRANCH  99 100
ENDBRANCH  67  92
ENDBRANCH  41  42
ENDBRANCH  34  36
ENDBRANCH  33  34
ENDBRANCH  32  33
ENDBRANCH   1  32
TORSDOF 20
ENDMDL
MODEL 3
REMARK VINA RESULT:     -11.2      4.108     10.142
REMARK SMILES CC1(C)Cc2c(-c3ccccc3)c(-c3ccc(Cl)cc3)c(CC(=O)OCCOCCOC(=O)c3ccc(-c4c5nc(c(-c6c(F)cc(S(=O)(=O)[O-])cc6F)c6ccc([nH]6)c(-c6c(F)cc(S(=O)(=O)[O-])cc6F)c6nc(c(-c7c(F)cc(S(=O)(=O)[O-])cc7F)c7ccc4[nH]7)C=C6)C=C5)cc3)n2C1
REMARK SMILES IDX 29 1 28 2 27 3 26 4 25 5 23 6 24 7 22 8 21 9 1 10 2 11 3 12
REMARK SMILES IDX 4 13 101 14 5 15 100 16 6 17 13 18 7 19 8 20 12 21 9 22
REMARK SMILES IDX 11 23 10 24 14 25 15 26 20 27 16 28 19 29 17 30 18 31 30 32
REMARK SMILES IDX 31 33 32 34 33 35 34 36 35 37 99 38 36 39 98 40 37 41 38 42
REMARK SMILES IDX 39 43 92 44 40 45 97 46 91 47 93 48 41 49 96 50 90 51 89 52
REMARK SMILES IDX 42 54 76 55 55 56 75 57 56 58 59 59 74 60 94 61 57 62 58 63
REMARK SMILES IDX 73 65 95 66 60 67 43 68 44 69 53 70 45 71 46 72 52 73 54 74
REMARK SMILES IDX 47 75 48 76 49 77 50 78 51 79 77 80 78 81 87 82 79 83 80 84
REMARK SMILES IDX 86 85 88 86 81 87 82 88 83 89 84 90 85 91 61 92 62 93 71 94
REMARK SMILES IDX 63 95 64 96 70 97 72 98 65 99 66 100 67 101 68 102 69 103
REMARK H PARENT 93 53 59 64
REMARK Flexibility Score: inf
ROOT
ATOM      1  C   UNL A   1      46.073  21.210  24.237  1.00  0.00     0.202 C 
ENDROOT
BRANCH   1   2
ATOM      2  O   UNL A   1      44.839  20.560  23.955  1.00  0.00    -0.374 OA
BRANCH   2   3
ATOM      3  C   UNL A   1      44.740  19.182  24.258  1.00  0.00     0.202 C 
BRANCH   3   4
ATOM      4  C   UNL A   1      43.740  18.846  25.374  1.00  0.00     0.261 C 
BRANCH   4   5
ATOM      5  O   UNL A   1      42.501  19.601  25.309  1.00  0.00    -0.463 OA
BRANCH   5   6
ATOM      6  C   UNL A   1      41.801  19.744  26.458  1.00  0.00     0.311 C 
ATOM      7  O   UNL A   1      42.279  19.494  27.564  1.00  0.00    -0.252 OA
BRANCH   6   8
ATOM      8  C   UNL A   1      40.353  20.218  26.341  1.00  0.00     0.177 C 
BRANCH   8   9
ATOM      9  C   UNL A   1      39.985  21.685  26.252  1.00  0.00     0.037 A 
ATOM     10  C   UNL A   1      35.127  22.352  25.420  1.00  0.00     0.013 C 
ATOM     11  C   UNL A   1      36.580  22.621  25.009  1.00  0.00    -0.012 C 
ATOM     12  C   UNL A   1      36.633  22.900  23.498  1.00  0.00     0.013 C 
ATOM     13  C   UNL A   1      37.150  23.845  25.784  1.00  0.00     0.063 C 
ATOM     14  C   UNL A   1      37.523  21.432  25.385  1.00  0.00     0.129 C 
ATOM     15  C   UNL A   1      38.535  23.419  26.090  1.00  0.00     0.027 A 
ATOM     16  N   UNL A   1      38.741  22.095  25.844  1.00  0.00    -0.346 N 
ATOM     17  C   UNL A   1      39.683  23.955  26.598  1.00  0.00     0.011 A 
ATOM     18  C   UNL A   1      40.615  22.858  26.736  1.00  0.00     0.011 A 
BRANCH  17  19
ATOM     19  C   UNL A   1      39.823  25.359  26.944  1.00  0.00    -0.016 A 
ATOM     20  C   UNL A   1      40.605  26.234  26.181  1.00  0.00     0.009 A 
ATOM     21  C   UNL A   1      39.180  25.840  28.086  1.00  0.00     0.009 A 
ATOM     22  C   UNL A   1      40.775  27.561  26.585  1.00  0.00     0.001 A 
ATOM     23  C   UNL A   1      39.318  27.170  28.462  1.00  0.00     0.001 A 
ATOM     24  C   UNL A   1      40.137  28.024  27.732  1.00  0.00     0.000 A 
ENDBRANCH  17  19
BRANCH  18  25
ATOM     25  C   UNL A   1      41.900  22.973  27.441  1.00  0.00    -0.016 A 
ATOM     26  C   UNL A   1      41.949  22.840  28.834  1.00  0.00     0.010 A 
ATOM     27  C   UNL A   1      43.039  23.488  26.806  1.00  0.00     0.010 A 
ATOM     28  C   UNL A   1      43.116  23.169  29.546  1.00  0.00     0.021 A 
ATOM     29  C   UNL A   1      44.215  23.782  27.499  1.00  0.00     0.021 A 
ATOM     30  C   UNL A   1      44.249  23.623  28.873  1.00  0.00     0.041 A 
ATOM     31  Cl  UNL A   1      45.676  24.036  29.740  1.00  0.00    -0.084 Cl
ENDBRANCH  18  25
ENDBRANCH   8   9
ENDBRANCH   6   8
ENDBRANCH   5   6
ENDBRANCH   4   5
ENDBRANCH   3   4
ENDBRANCH   2   3
ENDBRANCH   1   2
BRANCH   1  32
ATOM     32  C   UNL A   1      46.097  22.564  24.957  1.00  0.00     0.261 C 
BRANCH  32  33
ATOM     33  O   UNL A   1      45.938  23.694  24.106  1.00  0.00    -0.460 OA
BRANCH  33  34
ATOM     34  C   UNL A   1      46.940  24.565  24.254  1.00  0.00     0.338 C 
ATOM     35  O   UNL A   1      47.903  24.660  23.485  1.00  0.00    -0.246 OA
BRANCH  34  36
ATOM     36  C   UNL A   1      46.731  25.402  25.438  1.00  0.00     0.060 A 
ATOM     37  C   UNL A   1      45.730  26.368  25.365  1.00  0.00     0.016 A 
ATOM     38  C   UNL A   1      47.553  25.290  26.576  1.00  0.00     0.016 A 
ATOM     39  C   UNL A   1      45.566  27.242  26.421  1.00  0.00     0.010 A 
ATOM     40  C   UNL A   1      47.438  26.207  27.597  1.00  0.00     0.010 A 
ATOM     41  C   UNL A   1      46.436  27.166  27.515  1.00  0.00    -0.014 A 
BRANCH  41  42
ATOM     42  C   UNL A   1      46.094  27.912  28.707  1.00  0.00     0.031 A 
ATOM     43  C   UNL A   1      47.079  28.970  29.025  1.00  0.00     0.074 A 
ATOM     44  C   UNL A   1      44.947  27.765  29.384  1.00  0.00     0.049 A 
ATOM     45  N   UNL A   1      47.906  28.982  30.015  1.00  0.00    -0.248 NA
ATOM     46  C   UNL A   1      47.303  30.043  28.043  1.00  0.00     0.031 C 
ATOM     47  C   UNL A   1      43.799  26.950  29.018  1.00  0.00     0.029 A 
ATOM     48  N   UNL A   1      44.525  28.415  30.499  1.00  0.00    -0.354 N 
ATOM     49  C   UNL A   1      48.581  30.191  29.916  1.00  0.00     0.074 A 
ATOM     50  C   UNL A   1      48.347  30.671  28.582  1.00  0.00     0.031 C 
ATOM     51  C   UNL A   1      42.726  27.337  29.745  1.00  0.00     0.029 A 
ATOM     52  C   UNL A   1      43.162  28.312  30.732  1.00  0.00     0.049 A 
ATOM     53  H   UNL A   1      45.134  28.914  31.090  1.00  0.00     0.167 HD
ATOM     54  C   UNL A   1      49.023  30.829  31.033  1.00  0.00     0.037 A 
ATOM     55  C   UNL A   1      42.446  29.016  31.643  1.00  0.00     0.037 A 
ATOM     56  C   UNL A   1      49.106  29.915  32.150  1.00  0.00     0.049 A 
ATOM     57  C   UNL A   1      43.403  29.488  32.678  1.00  0.00     0.074 A 
ATOM     58  C   UNL A   1      49.738  28.704  32.366  1.00  0.00     0.029 A 
ATOM     59  N   UNL A   1      48.154  30.016  33.138  1.00  0.00    -0.354 N 
ATOM     60  N   UNL A   1      44.024  28.694  33.508  1.00  0.00    -0.248 NA
ATOM     61  C   UNL A   1      44.001  30.805  32.520  1.00  0.00     0.031 C 
ATOM     62  C   UNL A   1      48.837  27.945  33.170  1.00  0.00     0.029 A 
ATOM     63  C   UNL A   1      47.732  28.749  33.449  1.00  0.00     0.049 A 
ATOM     64  H   UNL A   1      47.833  30.851  33.549  1.00  0.00     0.167 HD
ATOM     65  C   UNL A   1      45.299  29.228  33.622  1.00  0.00     0.074 A 
ATOM     66  C   UNL A   1      45.185  30.587  33.099  1.00  0.00     0.031 C 
ATOM     67  C   UNL A   1      46.381  28.426  33.858  1.00  0.00     0.037 A 
BRANCH  54  68
ATOM     68  C   UNL A   1      48.973  32.335  31.206  1.00  0.00     0.058 A 
ATOM     69  C   UNL A   1      47.745  32.999  31.003  1.00  0.00     0.135 A 
ATOM     70  C   UNL A   1      50.108  33.179  31.271  1.00  0.00     0.135 A 
ATOM     71  F   UNL A   1      46.596  32.307  30.938  1.00  0.00    -0.206 F 
ATOM     72  C   UNL A   1      47.666  34.371  30.765  1.00  0.00     0.059 A 
ATOM     73  C   UNL A   1      50.043  34.554  31.094  1.00  0.00     0.059 A 
ATOM     74  F   UNL A   1      51.355  32.717  31.412  1.00  0.00    -0.206 F 
ATOM     75  C   UNL A   1      48.828  35.134  30.787  1.00  0.00     0.060 A 
BRANCH  75  76
ATOM     76  S   UNL A   1      48.761  36.875  30.339  1.00  0.00     0.124 S 
ATOM     77  O   UNL A   1      49.839  37.420  31.157  1.00  0.00    -0.237 OA
ATOM     78  O   UNL A   1      49.006  36.827  28.902  1.00  0.00    -0.237 OA
ATOM     79  O   UNL A   1      47.410  37.267  30.727  1.00  0.00    -0.744 OA
ENDBRANCH  75  76
ENDBRANCH  54  68
BRANCH  55  80
ATOM     80  C   UNL A   1      41.059  29.534  31.530  1.00  0.00     0.058 A 
ATOM     81  C   UNL A   1      40.744  30.561  30.625  1.00  0.00     0.135 A 
ATOM     82  C   UNL A   1      39.967  28.843  32.094  1.00  0.00     0.135 A 
ATOM     83  F   UNL A   1      41.722  31.259  30.029  1.00  0.00    -0.206 F 
ATOM     84  C   UNL A   1      39.426  30.849  30.253  1.00  0.00     0.059 A 
ATOM     85  C   UNL A   1      38.645  29.121  31.749  1.00  0.00     0.059 A 
ATOM     86  F   UNL A   1      40.154  27.812  32.930  1.00  0.00    -0.206 F 
ATOM     87  C   UNL A   1      38.384  30.107  30.805  1.00  0.00     0.060 A 
BRANCH  87  88
ATOM     88  S   UNL A   1      36.701  30.342  30.184  1.00  0.00     0.124 S 
ATOM     89  O   UNL A   1      35.903  30.103  31.380  1.00  0.00    -0.237 OA
ATOM     90  O   UNL A   1      36.739  31.720  29.706  1.00  0.00    -0.237 OA
ATOM     91  O   UNL A   1      36.581  29.327  29.141  1.00  0.00    -0.744 OA
ENDBRANCH  87  88
ENDBRANCH  55  80
BRANCH  67  92
ATOM     92  C   UNL A   1      46.132  27.029  34.370  1.00  0.00     0.058 A 
ATOM     93  C   UNL A   1      45.812  25.921  33.566  1.00  0.00     0.135 A 
ATOM     94  C   UNL A   1      46.335  26.785  35.738  1.00  0.00     0.135 A 
ATOM     95  F   UNL A   1      45.715  26.038  32.234  1.00  0.00    -0.206 F 
ATOM     96  C   UNL A   1      45.636  24.646  34.107  1.00  0.00     0.059 A 
ATOM     97  C   UNL A   1      46.201  25.516  36.293  1.00  0.00     0.059 A 
ATOM     98  F   UNL A   1      46.708  27.787  36.552  1.00  0.00    -0.206 F 
ATOM     99  C   UNL A   1      45.828  24.453  35.474  1.00  0.00     0.060 A 
BRANCH  99 100
ATOM    100  S   UNL A   1      45.645  22.796  36.165  1.00  0.00     0.124 S 
ATOM    101  O   UNL A   1      44.524  22.264  35.398  1.00  0.00    -0.237 OA
ATOM    102  O   UNL A   1      46.945  22.190  35.890  1.00  0.00    -0.237 OA
ATOM    103  O   UNL A   1      45.372  23.044  37.580  1.00  0.00    -0.744 OA
ENDBRANCH  99 100
ENDBRANCH  67  92
ENDBRANCH  41  42
ENDBRANCH  34  36
ENDBRANCH  33  34
ENDBRANCH  32  33
ENDBRANCH   1  32
TORSDOF 20
ENDMDL
