MODEL 1
REMARK VINA RESULT:      -9.5      0.000      0.000
REMARK SMILES O=C(OCCOCCOC(=O)c1cnc(Nc2ccccc2)nc1)c1ccc(-c2c3nc(c(-c4c(F)cc(S(=O)(=O)[O-])cc4F)c4ccc([nH]4)c(-c4c(F)cc(S(=O)(=O)[O-])cc4F)c4nc(c(-c5c(F)cc(S(=O)(=O)[O-])cc5F)c5ccc2[nH]5)C=C4)C=C3)cc1
REMARK SMILES IDX 5 1 4 2 3 3 2 4 1 5 25 6 26 7 90 8 27 9 89 10 28 11 29 12
REMARK SMILES IDX 30 13 83 14 31 15 88 16 82 17 84 18 32 19 87 20 81 21 80 22
REMARK SMILES IDX 33 24 67 25 46 26 66 27 47 28 50 29 65 30 85 31 48 32 49 33
REMARK SMILES IDX 64 35 86 36 51 37 34 38 35 39 44 40 36 41 37 42 43 43 45 44
REMARK SMILES IDX 38 45 39 46 40 47 41 48 42 49 68 50 69 51 78 52 70 53 71 54
REMARK SMILES IDX 77 55 79 56 72 57 73 58 74 59 75 60 76 61 52 62 53 63 62 64
REMARK SMILES IDX 54 65 55 66 61 67 63 68 56 69 57 70 58 71 59 72 60 73 6 74
REMARK SMILES IDX 7 75 8 76 9 77 10 78 11 79 12 80 13 81 24 82 14 83 23 84
REMARK SMILES IDX 15 85 16 86 17 88 18 89 22 90 19 91 21 92 20 93
REMARK H PARENT 84 23 50 34 16 87
REMARK Flexibility Score: inf
ROOT
ATOM      1  C   UNL A   1      40.711  20.011  26.135  1.00  0.00     0.202 C 
ENDROOT
BRANCH   1   2
ATOM      2  C   UNL A   1      40.206  21.349  26.680  1.00  0.00     0.261 C 
BRANCH   2   3
ATOM      3  O   UNL A   1      39.067  21.787  25.920  1.00  0.00    -0.460 OA
BRANCH   3   4
ATOM      4  C   UNL A   1      38.447  22.990  25.950  1.00  0.00     0.338 C 
ATOM      5  O   UNL A   1      37.452  23.155  25.246  1.00  0.00    -0.246 OA
BRANCH   4   6
ATOM      6  C   UNL A   1      38.918  24.139  26.780  1.00  0.00     0.060 A 
ATOM      7  C   UNL A   1      38.630  24.311  28.136  1.00  0.00     0.016 A 
ATOM      8  C   UNL A   1      39.797  25.051  26.172  1.00  0.00     0.016 A 
ATOM      9  C   UNL A   1      39.127  25.391  28.852  1.00  0.00     0.010 A 
ATOM     10  C   UNL A   1      40.346  26.112  26.899  1.00  0.00     0.010 A 
ATOM     11  C   UNL A   1      39.994  26.292  28.241  1.00  0.00    -0.014 A 
BRANCH  11  12
ATOM     12  C   UNL A   1      40.463  27.448  29.026  1.00  0.00     0.031 A 
ATOM     13  C   UNL A   1      41.869  27.445  29.541  1.00  0.00     0.074 A 
ATOM     14  C   UNL A   1      39.663  28.522  29.159  1.00  0.00     0.049 A 
ATOM     15  N   UNL A   1      42.487  28.342  30.258  1.00  0.00    -0.248 NA
ATOM     16  C   UNL A   1      42.696  26.279  29.187  1.00  0.00     0.031 C 
ATOM     17  C   UNL A   1      38.313  28.639  28.598  1.00  0.00     0.029 A 
ATOM     18  N   UNL A   1      39.871  29.725  29.775  1.00  0.00    -0.354 N 
ATOM     19  C   UNL A   1      43.766  27.842  30.463  1.00  0.00     0.074 A 
ATOM     20  C   UNL A   1      43.837  26.560  29.798  1.00  0.00     0.031 C 
ATOM     21  C   UNL A   1      37.827  29.859  28.873  1.00  0.00     0.029 A 
ATOM     22  C   UNL A   1      38.800  30.584  29.682  1.00  0.00     0.049 A 
ATOM     23  H   UNL A   1      40.707  29.955  30.242  1.00  0.00     0.167 HD
ATOM     24  C   UNL A   1      44.783  28.408  31.153  1.00  0.00     0.037 A 
ATOM     25  C   UNL A   1      38.625  31.807  30.217  1.00  0.00     0.037 A 
ATOM     26  C   UNL A   1      44.675  29.682  31.810  1.00  0.00     0.049 A 
ATOM     27  C   UNL A   1      39.743  32.380  31.045  1.00  0.00     0.074 A 
ATOM     28  C   UNL A   1      45.606  30.334  32.596  1.00  0.00     0.029 A 
ATOM     29  N   UNL A   1      43.553  30.500  31.752  1.00  0.00    -0.354 N 
ATOM     30  N   UNL A   1      40.930  31.871  31.289  1.00  0.00    -0.248 NA
ATOM     31  C   UNL A   1      39.499  33.677  31.686  1.00  0.00     0.031 C 
ATOM     32  C   UNL A   1      45.033  31.530  33.043  1.00  0.00     0.029 A 
ATOM     33  C   UNL A   1      43.760  31.644  32.501  1.00  0.00     0.049 A 
ATOM     34  H   UNL A   1      42.731  30.296  31.251  1.00  0.00     0.167 HD
ATOM     35  C   UNL A   1      41.576  32.786  32.108  1.00  0.00     0.074 A 
ATOM     36  C   UNL A   1      40.657  33.891  32.299  1.00  0.00     0.031 C 
ATOM     37  C   UNL A   1      42.813  32.721  32.661  1.00  0.00     0.037 A 
BRANCH  24  38
ATOM     38  C   UNL A   1      46.050  27.610  31.278  1.00  0.00     0.058 A 
ATOM     39  C   UNL A   1      46.256  26.701  32.328  1.00  0.00     0.135 A 
ATOM     40  C   UNL A   1      47.094  27.795  30.357  1.00  0.00     0.135 A 
ATOM     41  F   UNL A   1      45.302  26.507  33.251  1.00  0.00    -0.206 F 
ATOM     42  C   UNL A   1      47.468  26.032  32.483  1.00  0.00     0.059 A 
ATOM     43  C   UNL A   1      48.306  27.121  30.481  1.00  0.00     0.059 A 
ATOM     44  F   UNL A   1      46.953  28.661  29.342  1.00  0.00    -0.206 F 
ATOM     45  C   UNL A   1      48.490  26.259  31.559  1.00  0.00     0.060 A 
BRANCH  45  46
ATOM     46  S   UNL A   1      50.073  25.422  31.797  1.00  0.00     0.124 S 
ATOM     47  O   UNL A   1      50.914  26.521  32.264  1.00  0.00    -0.237 OA
ATOM     48  O   UNL A   1      49.746  24.408  32.793  1.00  0.00    -0.237 OA
ATOM     49  O   UNL A   1      50.391  24.912  30.467  1.00  0.00    -0.744 OA
ENDBRANCH  45  46
ENDBRANCH  24  38
BRANCH  25  50
ATOM     50  C   UNL A   1      37.341  32.534  30.024  1.00  0.00     0.058 A 
ATOM     51  C   UNL A   1      36.212  32.247  30.803  1.00  0.00     0.135 A 
ATOM     52  C   UNL A   1      37.222  33.550  29.059  1.00  0.00     0.135 A 
ATOM     53  F   UNL A   1      36.267  31.280  31.733  1.00  0.00    -0.206 F 
ATOM     54  C   UNL A   1      35.010  32.932  30.631  1.00  0.00     0.059 A 
ATOM     55  C   UNL A   1      36.042  34.266  28.886  1.00  0.00     0.059 A 
ATOM     56  F   UNL A   1      38.274  33.873  28.290  1.00  0.00    -0.206 F 
ATOM     57  C   UNL A   1      34.937  33.942  29.670  1.00  0.00     0.060 A 
BRANCH  57  58
ATOM     58  S   UNL A   1      33.391  34.859  29.482  1.00  0.00     0.124 S 
ATOM     59  O   UNL A   1      32.636  33.982  28.595  1.00  0.00    -0.237 OA
ATOM     60  O   UNL A   1      32.912  34.942  30.858  1.00  0.00    -0.237 OA
ATOM     61  O   UNL A   1      33.823  36.127  28.900  1.00  0.00    -0.744 OA
ENDBRANCH  57  58
ENDBRANCH  25  50
BRANCH  37  62
ATOM     62  C   UNL A   1      43.238  33.883  33.509  1.00  0.00     0.058 A 
ATOM     63  C   UNL A   1      43.870  35.003  32.949  1.00  0.00     0.135 A 
ATOM     64  C   UNL A   1      42.951  33.901  34.883  1.00  0.00     0.135 A 
ATOM     65  F   UNL A   1      44.171  35.027  31.641  1.00  0.00    -0.206 F 
ATOM     66  C   UNL A   1      44.219  36.100  33.728  1.00  0.00     0.059 A 
ATOM     67  C   UNL A   1      43.270  34.996  35.676  1.00  0.00     0.059 A 
ATOM     68  F   UNL A   1      42.339  32.854  35.460  1.00  0.00    -0.206 F 
ATOM     69  C   UNL A   1      43.913  36.088  35.090  1.00  0.00     0.060 A 
BRANCH  69  70
ATOM     70  S   UNL A   1      44.326  37.536  36.084  1.00  0.00     0.124 S 
ATOM     71  O   UNL A   1      43.647  38.597  35.350  1.00  0.00    -0.237 OA
ATOM     72  O   UNL A   1      43.756  37.197  37.384  1.00  0.00    -0.237 OA
ATOM     73  O   UNL A   1      45.784  37.573  36.038  1.00  0.00    -0.744 OA
ENDBRANCH  69  70
ENDBRANCH  37  62
ENDBRANCH  11  12
ENDBRANCH   4   6
ENDBRANCH   3   4
ENDBRANCH   2   3
ENDBRANCH   1   2
BRANCH   1  74
ATOM     74  O   UNL A   1      42.069  20.021  25.695  1.00  0.00    -0.374 OA
BRANCH  74  75
ATOM     75  C   UNL A   1      42.775  18.775  25.791  1.00  0.00     0.202 C 
BRANCH  75  76
ATOM     76  C   UNL A   1      44.269  19.027  25.551  1.00  0.00     0.261 C 
BRANCH  76  77
ATOM     77  O   UNL A   1      44.434  20.415  25.225  1.00  0.00    -0.460 OA
BRANCH  77  78
ATOM     78  C   UNL A   1      45.725  20.833  25.208  1.00  0.00     0.341 C 
ATOM     79  O   UNL A   1      46.712  20.187  24.905  1.00  0.00    -0.246 OA
BRANCH  78  80
ATOM     80  C   UNL A   1      45.727  22.280  25.407  1.00  0.00     0.096 A 
ATOM     81  C   UNL A   1      45.317  22.870  26.573  1.00  0.00     0.132 A 
ATOM     82  C   UNL A   1      46.038  23.145  24.381  1.00  0.00     0.132 A 
ATOM     83  N   UNL A   1      45.262  24.201  26.733  1.00  0.00    -0.220 NA
ATOM     84  N   UNL A   1      45.981  24.495  24.493  1.00  0.00    -0.220 NA
ATOM     85  C   UNL A   1      45.630  24.977  25.695  1.00  0.00     0.227 A 
BRANCH  85  86
ATOM     86  N   UNL A   1      45.760  26.344  25.926  1.00  0.00    -0.324 N 
ATOM     87  H   UNL A   1      46.663  26.726  26.027  1.00  0.00     0.170 HD
BRANCH  86  88
ATOM     88  C   UNL A   1      44.649  27.196  26.021  1.00  0.00     0.041 A 
ATOM     89  C   UNL A   1      44.677  28.323  26.841  1.00  0.00     0.026 A 
ATOM     90  C   UNL A   1      43.486  26.924  25.281  1.00  0.00     0.026 A 
ATOM     91  C   UNL A   1      43.604  29.219  26.833  1.00  0.00     0.002 A 
ATOM     92  C   UNL A   1      42.413  27.810  25.277  1.00  0.00     0.002 A 
ATOM     93  C   UNL A   1      42.481  28.969  26.042  1.00  0.00     0.000 A 
ENDBRANCH  86  88
ENDBRANCH  85  86
ENDBRANCH  78  80
ENDBRANCH  77  78
ENDBRANCH  76  77
ENDBRANCH  75  76
ENDBRANCH  74  75
ENDBRANCH   1  74
TORSDOF 19
ENDMDL
MODEL 2
REMARK VINA RESULT:      -9.1      3.550      9.441
REMARK SMILES O=C(OCCOCCOC(=O)c1cnc(Nc2ccccc2)nc1)c1ccc(-c2c3nc(c(-c4c(F)cc(S(=O)(=O)[O-])cc4F)c4ccc([nH]4)c(-c4c(F)cc(S(=O)(=O)[O-])cc4F)c4nc(c(-c5c(F)cc(S(=O)(=O)[O-])cc5F)c5ccc2[nH]5)C=C4)C=C3)cc1
REMARK SMILES IDX 5 1 4 2 3 3 2 4 1 5 25 6 26 7 90 8 27 9 89 10 28 11 29 12
REMARK SMILES IDX 30 13 83 14 31 15 88 16 82 17 84 18 32 19 87 20 81 21 80 22
REMARK SMILES IDX 33 24 67 25 46 26 66 27 47 28 50 29 65 30 85 31 48 32 49 33
REMARK SMILES IDX 64 35 86 36 51 37 34 38 35 39 44 40 36 41 37 42 43 43 45 44
REMARK SMILES IDX 38 45 39 46 40 47 41 48 42 49 68 50 69 51 78 52 70 53 71 54
REMARK SMILES IDX 77 55 79 56 72 57 73 58 74 59 75 60 76 61 52 62 53 63 62 64
REMARK SMILES IDX 54 65 55 66 61 67 63 68 56 69 57 70 58 71 59 72 60 73 6 74
REMARK SMILES IDX 7 75 8 76 9 77 10 78 11 79 12 80 13 81 24 82 14 83 23 84
REMARK SMILES IDX 15 85 16 86 17 88 18 89 22 90 19 91 21 92 20 93
REMARK H PARENT 84 23 50 34 16 87
REMARK Flexibility Score: inf
ROOT
ATOM      1  C   UNL A   1      45.575  23.389  25.237  1.00  0.00     0.202 C 
ENDROOT
BRANCH   1   2
ATOM      2  C   UNL A   1      45.093  24.272  26.390  1.00  0.00     0.261 C 
BRANCH   2   3
ATOM      3  O   UNL A   1      43.701  24.586  26.217  1.00  0.00    -0.460 OA
BRANCH   3   4
ATOM      4  C   UNL A   1      43.113  25.804  26.155  1.00  0.00     0.338 C 
ATOM      5  O   UNL A   1      42.884  26.289  25.048  1.00  0.00    -0.246 OA
BRANCH   4   6
ATOM      6  C   UNL A   1      42.743  26.601  27.362  1.00  0.00     0.060 A 
ATOM      7  C   UNL A   1      41.956  26.131  28.415  1.00  0.00     0.016 A 
ATOM      8  C   UNL A   1      43.317  27.877  27.488  1.00  0.00     0.016 A 
ATOM      9  C   UNL A   1      41.675  26.921  29.521  1.00  0.00     0.010 A 
ATOM     10  C   UNL A   1      43.084  28.661  28.622  1.00  0.00     0.010 A 
ATOM     11  C   UNL A   1      42.245  28.186  29.635  1.00  0.00    -0.014 A 
BRANCH  11  12
ATOM     12  C   UNL A   1      41.885  29.008  30.805  1.00  0.00     0.031 A 
ATOM     13  C   UNL A   1      40.657  29.860  30.735  1.00  0.00     0.074 A 
ATOM     14  C   UNL A   1      42.596  28.883  31.941  1.00  0.00     0.049 A 
ATOM     15  N   UNL A   1      40.159  30.667  31.632  1.00  0.00    -0.248 NA
ATOM     16  C   UNL A   1      39.873  29.784  29.490  1.00  0.00     0.031 C 
ATOM     17  C   UNL A   1      43.749  27.994  32.118  1.00  0.00     0.029 A 
ATOM     18  N   UNL A   1      42.442  29.473  33.166  1.00  0.00    -0.354 N 
ATOM     19  C   UNL A   1      39.020  31.212  31.055  1.00  0.00     0.074 A 
ATOM     20  C   UNL A   1      38.899  30.649  29.729  1.00  0.00     0.031 C 
ATOM     21  C   UNL A   1      44.179  28.078  33.386  1.00  0.00     0.029 A 
ATOM     22  C   UNL A   1      43.376  29.071  34.092  1.00  0.00     0.049 A 
ATOM     23  H   UNL A   1      41.730  30.124  33.365  1.00  0.00     0.167 HD
ATOM     24  C   UNL A   1      38.160  32.108  31.591  1.00  0.00     0.037 A 
ATOM     25  C   UNL A   1      43.570  29.484  35.358  1.00  0.00     0.037 A 
ATOM     26  C   UNL A   1      38.315  32.655  32.912  1.00  0.00     0.049 A 
ATOM     27  C   UNL A   1      42.647  30.539  35.903  1.00  0.00     0.074 A 
ATOM     28  C   UNL A   1      37.554  33.618  33.546  1.00  0.00     0.029 A 
ATOM     29  N   UNL A   1      39.311  32.275  33.804  1.00  0.00    -0.354 N 
ATOM     30  N   UNL A   1      41.607  31.099  35.327  1.00  0.00    -0.248 NA
ATOM     31  C   UNL A   1      42.927  31.035  37.256  1.00  0.00     0.031 C 
ATOM     32  C   UNL A   1      38.113  33.848  34.809  1.00  0.00     0.029 A 
ATOM     33  C   UNL A   1      39.196  32.997  34.979  1.00  0.00     0.049 A 
ATOM     34  H   UNL A   1      39.998  31.594  33.626  1.00  0.00     0.167 HD
ATOM     35  C   UNL A   1      41.106  32.010  36.247  1.00  0.00     0.074 A 
ATOM     36  C   UNL A   1      41.943  31.909  37.427  1.00  0.00     0.031 C 
ATOM     37  C   UNL A   1      40.055  32.860  36.130  1.00  0.00     0.037 A 
BRANCH  24  38
ATOM     38  C   UNL A   1      37.039  32.587  30.713  1.00  0.00     0.058 A 
ATOM     39  C   UNL A   1      37.179  33.700  29.868  1.00  0.00     0.135 A 
ATOM     40  C   UNL A   1      35.788  31.951  30.756  1.00  0.00     0.135 A 
ATOM     41  F   UNL A   1      38.344  34.362  29.809  1.00  0.00    -0.206 F 
ATOM     42  C   UNL A   1      36.107  34.187  29.124  1.00  0.00     0.059 A 
ATOM     43  C   UNL A   1      34.708  32.409  30.006  1.00  0.00     0.059 A 
ATOM     44  F   UNL A   1      35.596  30.891  31.557  1.00  0.00    -0.206 F 
ATOM     45  C   UNL A   1      34.872  33.540  29.210  1.00  0.00     0.060 A 
BRANCH  45  46
ATOM     46  S   UNL A   1      33.477  34.210  28.279  1.00  0.00     0.124 S 
ATOM     47  O   UNL A   1      34.146  35.169  27.404  1.00  0.00    -0.237 OA
ATOM     48  O   UNL A   1      32.939  33.024  27.623  1.00  0.00    -0.237 OA
ATOM     49  O   UNL A   1      32.627  34.792  29.313  1.00  0.00    -0.744 OA
ENDBRANCH  45  46
ENDBRANCH  24  38
BRANCH  25  50
ATOM     50  C   UNL A   1      44.697  28.938  36.161  1.00  0.00     0.058 A 
ATOM     51  C   UNL A   1      44.539  27.806  36.972  1.00  0.00     0.135 A 
ATOM     52  C   UNL A   1      45.970  29.533  36.121  1.00  0.00     0.135 A 
ATOM     53  F   UNL A   1      43.342  27.203  37.056  1.00  0.00    -0.206 F 
ATOM     54  C   UNL A   1      45.595  27.286  37.719  1.00  0.00     0.059 A 
ATOM     55  C   UNL A   1      47.046  29.019  36.836  1.00  0.00     0.059 A 
ATOM     56  F   UNL A   1      46.183  30.615  35.354  1.00  0.00    -0.206 F 
ATOM     57  C   UNL A   1      46.846  27.900  37.642  1.00  0.00     0.060 A 
BRANCH  57  58
ATOM     58  S   UNL A   1      48.224  27.196  38.576  1.00  0.00     0.124 S 
ATOM     59  O   UNL A   1      49.371  27.681  37.817  1.00  0.00    -0.237 OA
ATOM     60  O   UNL A   1      48.036  27.788  39.897  1.00  0.00    -0.237 OA
ATOM     61  O   UNL A   1      47.979  25.759  38.502  1.00  0.00    -0.744 OA
ENDBRANCH  57  58
ENDBRANCH  25  50
BRANCH  37  62
ATOM     62  C   UNL A   1      39.753  33.731  37.313  1.00  0.00     0.058 A 
ATOM     63  C   UNL A   1      38.859  33.320  38.313  1.00  0.00     0.135 A 
ATOM     64  C   UNL A   1      40.414  34.958  37.478  1.00  0.00     0.135 A 
ATOM     65  F   UNL A   1      38.199  32.157  38.194  1.00  0.00    -0.206 F 
ATOM     66  C   UNL A   1      38.618  34.106  39.433  1.00  0.00     0.059 A 
ATOM     67  C   UNL A   1      40.205  35.749  38.600  1.00  0.00     0.059 A 
ATOM     68  F   UNL A   1      41.285  35.387  36.550  1.00  0.00    -0.206 F 
ATOM     69  C   UNL A   1      39.297  35.318  39.569  1.00  0.00     0.060 A 
BRANCH  69  70
ATOM     70  S   UNL A   1      39.014  36.309  41.050  1.00  0.00     0.124 S 
ATOM     71  O   UNL A   1      38.650  37.598  40.474  1.00  0.00    -0.237 OA
ATOM     72  O   UNL A   1      37.934  35.582  41.712  1.00  0.00    -0.237 OA
ATOM     73  O   UNL A   1      40.301  36.266  41.737  1.00  0.00    -0.744 OA
ENDBRANCH  69  70
ENDBRANCH  37  62
ENDBRANCH  11  12
ENDBRANCH   4   6
ENDBRANCH   3   4
ENDBRANCH   2   3
ENDBRANCH   1   2
BRANCH   1  74
ATOM     74  O   UNL A   1      46.013  22.087  25.625  1.00  0.00    -0.374 OA
BRANCH  74  75
ATOM     75  C   UNL A   1      46.292  21.169  24.558  1.00  0.00     0.202 C 
BRANCH  75  76
ATOM     76  C   UNL A   1      45.591  19.836  24.848  1.00  0.00     0.261 C 
BRANCH  76  77
ATOM     77  O   UNL A   1      44.498  20.099  25.742  1.00  0.00    -0.460 OA
BRANCH  77  78
ATOM     78  C   UNL A   1      43.416  19.304  25.547  1.00  0.00     0.341 C 
ATOM     79  O   UNL A   1      43.402  18.105  25.338  1.00  0.00    -0.246 OA
BRANCH  78  80
ATOM     80  C   UNL A   1      42.224  20.093  25.849  1.00  0.00     0.096 A 
ATOM     81  C   UNL A   1      40.990  19.532  26.040  1.00  0.00     0.132 A 
ATOM     82  C   UNL A   1      42.256  21.470  25.845  1.00  0.00     0.132 A 
ATOM     83  N   UNL A   1      39.886  20.262  26.257  1.00  0.00    -0.220 NA
ATOM     84  N   UNL A   1      41.164  22.248  26.044  1.00  0.00    -0.220 NA
ATOM     85  C   UNL A   1      40.013  21.603  26.288  1.00  0.00     0.227 A 
BRANCH  85  86
ATOM     86  N   UNL A   1      38.911  22.346  26.706  1.00  0.00    -0.324 N 
ATOM     87  H   UNL A   1      38.879  22.666  27.637  1.00  0.00     0.170 HD
BRANCH  86  88
ATOM     88  C   UNL A   1      37.845  22.653  25.846  1.00  0.00     0.041 A 
ATOM     89  C   UNL A   1      37.004  23.734  26.105  1.00  0.00     0.026 A 
ATOM     90  C   UNL A   1      37.614  21.871  24.703  1.00  0.00     0.026 A 
ATOM     91  C   UNL A   1      36.021  24.090  25.178  1.00  0.00     0.002 A 
ATOM     92  C   UNL A   1      36.630  22.219  23.782  1.00  0.00     0.002 A 
ATOM     93  C   UNL A   1      35.844  23.342  24.012  1.00  0.00     0.000 A 
ENDBRANCH  86  88
ENDBRANCH  85  86
ENDBRANCH  78  80
ENDBRANCH  77  78
ENDBRANCH  76  77
ENDBRANCH  75  76
ENDBRANCH  74  75
ENDBRANCH   1  74
TORSDOF 19
ENDMDL
MODEL 3
REMARK VINA RESULT:      -9.0      4.558     11.147
REMARK SMILES O=C(OCCOCCOC(=O)c1cnc(Nc2ccccc2)nc1)c1ccc(-c2c3nc(c(-c4c(F)cc(S(=O)(=O)[O-])cc4F)c4ccc([nH]4)c(-c4c(F)cc(S(=O)(=O)[O-])cc4F)c4nc(c(-c5c(F)cc(S(=O)(=O)[O-])cc5F)c5ccc2[nH]5)C=C4)C=C3)cc1
REMARK SMILES IDX 5 1 4 2 3 3 2 4 1 5 25 6 26 7 90 8 27 9 89 10 28 11 29 12
REMARK SMILES IDX 30 13 83 14 31 15 88 16 82 17 84 18 32 19 87 20 81 21 80 22
REMARK SMILES IDX 33 24 67 25 46 26 66 27 47 28 50 29 65 30 85 31 48 32 49 33
REMARK SMILES IDX 64 35 86 36 51 37 34 38 35 39 44 40 36 41 37 42 43 43 45 44
REMARK SMILES IDX 38 45 39 46 40 47 41 48 42 49 68 50 69 51 78 52 70 53 71 54
REMARK SMILES IDX 77 55 79 56 72 57 73 58 74 59 75 60 76 61 52 62 53 63 62 64
REMARK SMILES IDX 54 65 55 66 61 67 63 68 56 69 57 70 58 71 59 72 60 73 6 74
REMARK SMILES IDX 7 75 8 76 9 77 10 78 11 79 12 80 13 81 24 82 14 83 23 84
REMARK SMILES IDX 15 85 16 86 17 88 18 89 22 90 19 91 21 92 20 93
REMARK H PARENT 84 23 50 34 16 87
REMARK Flexibility Score: inf
ROOT
ATOM      1  C   UNL A   1      31.856  29.327  25.601  1.00  0.00     0.202 C 
ENDROOT
BRANCH   1   2
ATOM      2  C   UNL A   1      32.165  29.725  27.046  1.00  0.00     0.261 C 
BRANCH   2   3
ATOM      3  O   UNL A   1      33.564  29.531  27.318  1.00  0.00    -0.460 OA
BRANCH   3   4
ATOM      4  C   UNL A   1      34.418  30.357  27.966  1.00  0.00     0.338 C 
ATOM      5  O   UNL A   1      34.004  31.453  28.340  1.00  0.00    -0.246 OA
BRANCH   4   6
ATOM      6  C   UNL A   1      35.848  30.017  28.234  1.00  0.00     0.060 A 
ATOM      7  C   UNL A   1      36.333  29.527  29.448  1.00  0.00     0.016 A 
ATOM      8  C   UNL A   1      36.740  30.102  27.153  1.00  0.00     0.016 A 
ATOM      9  C   UNL A   1      37.673  29.205  29.616  1.00  0.00     0.010 A 
ATOM     10  C   UNL A   1      38.080  29.729  27.297  1.00  0.00     0.010 A 
ATOM     11  C   UNL A   1      38.552  29.296  28.541  1.00  0.00    -0.014 A 
BRANCH  11  12
ATOM     12  C   UNL A   1      39.974  28.986  28.776  1.00  0.00     0.031 A 
ATOM     13  C   UNL A   1      40.832  30.013  29.446  1.00  0.00     0.074 A 
ATOM     14  C   UNL A   1      40.435  27.754  28.493  1.00  0.00     0.049 A 
ATOM     15  N   UNL A   1      42.102  29.962  29.741  1.00  0.00    -0.248 NA
ATOM     16  C   UNL A   1      40.166  31.262  29.854  1.00  0.00     0.031 C 
ATOM     17  C   UNL A   1      39.630  26.664  27.929  1.00  0.00     0.029 A 
ATOM     18  N   UNL A   1      41.672  27.197  28.665  1.00  0.00    -0.354 N 
ATOM     19  C   UNL A   1      42.395  31.177  30.346  1.00  0.00     0.074 A 
ATOM     20  C   UNL A   1      41.173  31.948  30.375  1.00  0.00     0.031 C 
ATOM     21  C   UNL A   1      40.390  25.563  27.830  1.00  0.00     0.029 A 
ATOM     22  C   UNL A   1      41.747  25.884  28.260  1.00  0.00     0.049 A 
ATOM     23  H   UNL A   1      42.437  27.689  29.043  1.00  0.00     0.167 HD
ATOM     24  C   UNL A   1      43.585  31.605  30.826  1.00  0.00     0.037 A 
ATOM     25  C   UNL A   1      42.804  25.052  28.219  1.00  0.00     0.037 A 
ATOM     26  C   UNL A   1      44.785  30.814  30.774  1.00  0.00     0.049 A 
ATOM     27  C   UNL A   1      44.133  25.579  28.687  1.00  0.00     0.074 A 
ATOM     28  C   UNL A   1      46.066  31.155  31.164  1.00  0.00     0.029 A 
ATOM     29  N   UNL A   1      44.843  29.510  30.297  1.00  0.00    -0.354 N 
ATOM     30  N   UNL A   1      44.417  26.755  29.200  1.00  0.00    -0.248 NA
ATOM     31  C   UNL A   1      45.288  24.682  28.557  1.00  0.00     0.031 C 
ATOM     32  C   UNL A   1      46.906  30.070  30.887  1.00  0.00     0.029 A 
ATOM     33  C   UNL A   1      46.141  29.036  30.366  1.00  0.00     0.049 A 
ATOM     34  H   UNL A   1      44.073  28.998  29.959  1.00  0.00     0.167 HD
ATOM     35  C   UNL A   1      45.781  26.739  29.457  1.00  0.00     0.074 A 
ATOM     36  C   UNL A   1      46.261  25.428  29.065  1.00  0.00     0.031 C 
ATOM     37  C   UNL A   1      46.571  27.719  29.963  1.00  0.00     0.037 A 
BRANCH  24  38
ATOM     38  C   UNL A   1      43.638  33.004  31.371  1.00  0.00     0.058 A 
ATOM     39  C   UNL A   1      43.832  34.119  30.541  1.00  0.00     0.135 A 
ATOM     40  C   UNL A   1      43.542  33.226  32.755  1.00  0.00     0.135 A 
ATOM     41  F   UNL A   1      43.960  33.960  29.214  1.00  0.00    -0.206 F 
ATOM     42  C   UNL A   1      43.967  35.402  31.066  1.00  0.00     0.059 A 
ATOM     43  C   UNL A   1      43.652  34.502  33.299  1.00  0.00     0.059 A 
ATOM     44  F   UNL A   1      43.368  32.194  33.594  1.00  0.00    -0.206 F 
ATOM     45  C   UNL A   1      43.887  35.581  32.449  1.00  0.00     0.060 A 
BRANCH  45  46
ATOM     46  S   UNL A   1      44.110  37.241  33.122  1.00  0.00     0.124 S 
ATOM     47  O   UNL A   1      42.999  37.324  34.065  1.00  0.00    -0.237 OA
ATOM     48  O   UNL A   1      45.440  37.163  33.716  1.00  0.00    -0.237 OA
ATOM     49  O   UNL A   1      44.001  38.101  31.947  1.00  0.00    -0.744 OA
ENDBRANCH  45  46
ENDBRANCH  24  38
BRANCH  25  50
ATOM     50  C   UNL A   1      42.653  23.673  27.680  1.00  0.00     0.058 A 
ATOM     51  C   UNL A   1      42.467  22.571  28.526  1.00  0.00     0.135 A 
ATOM     52  C   UNL A   1      42.676  23.431  26.296  1.00  0.00     0.135 A 
ATOM     53  F   UNL A   1      42.445  22.744  29.858  1.00  0.00    -0.206 F 
ATOM     54  C   UNL A   1      42.316  21.280  28.025  1.00  0.00     0.059 A 
ATOM     55  C   UNL A   1      42.502  22.155  25.769  1.00  0.00     0.059 A 
ATOM     56  F   UNL A   1      42.842  24.449  25.437  1.00  0.00    -0.206 F 
ATOM     57  C   UNL A   1      42.333  21.083  26.643  1.00  0.00     0.060 A 
BRANCH  57  58
ATOM     58  S   UNL A   1      42.091  19.413  25.994  1.00  0.00     0.124 S 
ATOM     59  O   UNL A   1      42.944  19.432  24.811  1.00  0.00    -0.237 OA
ATOM     60  O   UNL A   1      42.554  18.583  27.101  1.00  0.00    -0.237 OA
ATOM     61  O   UNL A   1      40.655  19.358  25.738  1.00  0.00    -0.744 OA
ENDBRANCH  57  58
ENDBRANCH  25  50
BRANCH  37  62
ATOM     62  C   UNL A   1      48.026  27.396  30.130  1.00  0.00     0.058 A 
ATOM     63  C   UNL A   1      48.968  27.741  29.149  1.00  0.00     0.135 A 
ATOM     64  C   UNL A   1      48.489  26.795  31.311  1.00  0.00     0.135 A 
ATOM     65  F   UNL A   1      48.570  28.310  28.000  1.00  0.00    -0.206 F 
ATOM     66  C   UNL A   1      50.322  27.485  29.327  1.00  0.00     0.059 A 
ATOM     67  C   UNL A   1      49.840  26.551  31.519  1.00  0.00     0.059 A 
ATOM     68  F   UNL A   1      47.624  26.457  32.281  1.00  0.00    -0.206 F 
ATOM     69  C   UNL A   1      50.749  26.892  30.517  1.00  0.00     0.060 A 
BRANCH  69  70
ATOM     70  S   UNL A   1      52.514  26.609  30.759  1.00  0.00     0.124 S 
ATOM     71  O   UNL A   1      52.958  26.343  29.396  1.00  0.00    -0.237 OA
ATOM     72  O   UNL A   1      52.959  27.874  31.336  1.00  0.00    -0.237 OA
ATOM     73  O   UNL A   1      52.552  25.467  31.667  1.00  0.00    -0.744 OA
ENDBRANCH  69  70
ENDBRANCH  37  62
ENDBRANCH  11  12
ENDBRANCH   4   6
ENDBRANCH   3   4
ENDBRANCH   2   3
ENDBRANCH   1   2
BRANCH   1  74
ATOM     74  O   UNL A   1      32.869  28.545  24.968  1.00  0.00    -0.374 OA
BRANCH  74  75
ATOM     75  C   UNL A   1      32.792  28.447  23.538  1.00  0.00     0.202 C 
BRANCH  75  76
ATOM     76  C   UNL A   1      31.368  28.801  23.089  1.00  0.00     0.261 C 
BRANCH  76  77
ATOM     77  O   UNL A   1      30.735  27.593  22.642  1.00  0.00    -0.460 OA
BRANCH  77  78
ATOM     78  C   UNL A   1      29.705  27.182  23.423  1.00  0.00     0.341 C 
ATOM     79  O   UNL A   1      28.553  27.577  23.404  1.00  0.00    -0.246 OA
BRANCH  78  80
ATOM     80  C   UNL A   1      30.152  26.006  24.166  1.00  0.00     0.096 A 
ATOM     81  C   UNL A   1      30.596  24.866  23.554  1.00  0.00     0.132 A 
ATOM     82  C   UNL A   1      30.041  25.940  25.537  1.00  0.00     0.132 A 
ATOM     83  N   UNL A   1      30.949  23.766  24.235  1.00  0.00    -0.220 NA
ATOM     84  N   UNL A   1      30.371  24.845  26.265  1.00  0.00    -0.220 NA
ATOM     85  C   UNL A   1      30.858  23.800  25.579  1.00  0.00     0.227 A 
BRANCH  85  86
ATOM     86  N   UNL A   1      31.407  22.736  26.290  1.00  0.00    -0.324 N 
ATOM     87  H   UNL A   1      30.896  22.349  27.038  1.00  0.00     0.170 HD
BRANCH  86  88
ATOM     88  C   UNL A   1      32.665  22.196  25.978  1.00  0.00     0.041 A 
ATOM     89  C   UNL A   1      33.837  22.878  26.300  1.00  0.00     0.026 A 
ATOM     90  C   UNL A   1      32.758  20.950  25.337  1.00  0.00     0.026 A 
ATOM     91  C   UNL A   1      35.078  22.272  26.084  1.00  0.00     0.002 A 
ATOM     92  C   UNL A   1      33.992  20.348  25.114  1.00  0.00     0.002 A 
ATOM     93  C   UNL A   1      35.154  21.003  25.505  1.00  0.00     0.000 A 
ENDBRANCH  86  88
ENDBRANCH  85  86
ENDBRANCH  78  80
ENDBRANCH  77  78
ENDBRANCH  76  77
ENDBRANCH  75  76
ENDBRANCH  74  75
ENDBRANCH   1  74
TORSDOF 19
ENDMDL
