MODEL 1
REMARK VINA RESULT:     -11.4      0.000      0.000
REMARK SMILES O=C(C[C@@H]([NH2+]Cc1cccnc1)C(=O)OCCOCCOC(=O)c1ccc(-c2c3nc(c(-c4c(F)cc(S(=O)(=O)[O-])cc4F)c4ccc([nH]4)c(-c4c(F)cc(S(=O)(=O)[O-])cc4F)c4nc(c(-c5c(F)cc(S(=O)(=O)[O-])cc5F)c5ccc2[nH]5)C=C4)C=C3)cc1)Nc1ccc2ccccc2c1
REMARK SMILES IDX 18 1 17 2 16 3 15 4 13 5 14 6 4 7 3 8 2 9 1 10 90 11 91 13
REMARK SMILES IDX 92 14 100 15 93 16 99 17 94 18 98 19 95 20 97 21 96 22 5 23
REMARK SMILES IDX 6 26 7 27 8 28 12 29 9 30 11 31 10 32 19 33 20 34 21 35
REMARK SMILES IDX 22 36 23 37 24 38 25 39 89 40 26 41 88 42 27 43 28 44 29 45
REMARK SMILES IDX 82 46 30 47 87 48 81 49 83 50 31 51 86 52 80 53 79 54 32 56
REMARK SMILES IDX 66 57 45 58 65 59 46 60 49 61 64 62 84 63 47 64 48 65 63 67
REMARK SMILES IDX 85 68 50 69 33 70 34 71 43 72 35 73 36 74 42 75 44 76 37 77
REMARK SMILES IDX 38 78 39 79 40 80 41 81 67 82 68 83 77 84 69 85 70 86 76 87
REMARK SMILES IDX 78 88 71 89 72 90 73 91 74 92 75 93 51 94 52 95 61 96 53 97
REMARK SMILES IDX 54 98 60 99 62 100 55 101 56 102 57 103 58 104 59 105
REMARK H PARENT 90 12 5 24 5 25 83 55 49 66
REMARK Flexibility Score: inf
ROOT
ATOM      1  O   UNL A   1      38.447  21.185  25.580  1.00  0.00    -0.374 OA
ENDROOT
BRANCH   1   2
ATOM      2  C   UNL A   1      37.452  22.184  25.776  1.00  0.00     0.202 C 
BRANCH   2   3
ATOM      3  C   UNL A   1      37.124  23.147  24.624  1.00  0.00     0.261 C 
BRANCH   3   4
ATOM      4  O   UNL A   1      35.778  23.641  24.615  1.00  0.00    -0.459 OA
BRANCH   4   5
ATOM      5  C   UNL A   1      35.120  23.376  23.455  1.00  0.00     0.365 C 
ATOM      6  O   UNL A   1      35.672  22.913  22.460  1.00  0.00    -0.245 OA
BRANCH   5   7
ATOM      7  C   UNL A   1      33.594  23.613  23.530  1.00  0.00     0.303 C 
BRANCH   7   8
ATOM      8  C   UNL A   1      33.073  24.568  22.423  1.00  0.00     0.177 C 
BRANCH   8   9
ATOM      9  C   UNL A   1      32.698  25.951  22.952  1.00  0.00     0.231 C 
ATOM     10  O   UNL A   1      32.339  26.860  22.213  1.00  0.00    -0.274 OA
ATOM     11  N   UNL A   1      32.908  26.039  24.315  1.00  0.00    -0.326 N 
ATOM     12  H   UNL A   1      33.087  25.193  24.785  1.00  0.00     0.169 HD
BRANCH  11  13
ATOM     13  C   UNL A   1      32.894  27.199  25.102  1.00  0.00     0.041 A 
ATOM     14  C   UNL A   1      31.744  27.986  25.016  1.00  0.00     0.027 A 
ATOM     15  C   UNL A   1      33.965  27.614  25.891  1.00  0.00     0.034 A 
ATOM     16  C   UNL A   1      31.639  29.169  25.739  1.00  0.00     0.011 A 
ATOM     17  C   UNL A   1      33.916  28.871  26.537  1.00  0.00    -0.016 A 
ATOM     18  C   UNL A   1      32.726  29.638  26.477  1.00  0.00    -0.018 A 
ATOM     19  C   UNL A   1      35.026  29.413  27.207  1.00  0.00     0.009 A 
ATOM     20  C   UNL A   1      32.656  30.881  27.124  1.00  0.00     0.009 A 
ATOM     21  C   UNL A   1      34.958  30.678  27.804  1.00  0.00     0.001 A 
ATOM     22  C   UNL A   1      33.771  31.404  27.774  1.00  0.00     0.001 A 
ENDBRANCH  11  13
ENDBRANCH   8   9
ENDBRANCH   7   8
BRANCH   7  23
ATOM     23  N   UNL A   1      32.808  22.339  23.543  1.00  0.00    -0.330 N 
ATOM     24  H   UNL A   1      33.014  21.847  22.675  1.00  0.00     0.347 HD
ATOM     25  H   UNL A   1      31.841  22.641  23.666  1.00  0.00     0.347 HD
BRANCH  23  26
ATOM     26  C   UNL A   1      33.038  21.394  24.646  1.00  0.00     0.299 C 
BRANCH  26  27
ATOM     27  C   UNL A   1      33.235  19.968  24.202  1.00  0.00     0.024 A 
ATOM     28  C   UNL A   1      34.277  19.159  24.663  1.00  0.00     0.013 A 
ATOM     29  C   UNL A   1      32.373  19.400  23.267  1.00  0.00     0.120 A 
ATOM     30  C   UNL A   1      34.401  17.849  24.213  1.00  0.00     0.021 A 
ATOM     31  N   UNL A   1      32.466  18.130  22.807  1.00  0.00    -0.264 NA
ATOM     32  C   UNL A   1      33.480  17.385  23.293  1.00  0.00     0.111 A 
ENDBRANCH  26  27
ENDBRANCH  23  26
ENDBRANCH   7  23
ENDBRANCH   5   7
ENDBRANCH   4   5
ENDBRANCH   3   4
ENDBRANCH   2   3
ENDBRANCH   1   2
BRANCH   1  33
ATOM     33  C   UNL A   1      39.797  21.463  25.948  1.00  0.00     0.202 C 
BRANCH  33  34
ATOM     34  C   UNL A   1      40.068  22.470  27.069  1.00  0.00     0.261 C 
BRANCH  34  35
ATOM     35  O   UNL A   1      40.341  23.790  26.562  1.00  0.00    -0.460 OA
BRANCH  35  36
ATOM     36  C   UNL A   1      41.422  24.383  27.130  1.00  0.00     0.338 C 
ATOM     37  O   UNL A   1      42.595  24.134  26.913  1.00  0.00    -0.246 OA
BRANCH  36  38
ATOM     38  C   UNL A   1      41.006  25.552  27.924  1.00  0.00     0.060 A 
ATOM     39  C   UNL A   1      41.974  26.533  28.174  1.00  0.00     0.016 A 
ATOM     40  C   UNL A   1      39.744  25.630  28.513  1.00  0.00     0.016 A 
ATOM     41  C   UNL A   1      41.700  27.567  29.061  1.00  0.00     0.010 A 
ATOM     42  C   UNL A   1      39.474  26.668  29.414  1.00  0.00     0.010 A 
ATOM     43  C   UNL A   1      40.466  27.616  29.722  1.00  0.00    -0.014 A 
BRANCH  43  44
ATOM     44  C   UNL A   1      40.294  28.584  30.833  1.00  0.00     0.031 A 
ATOM     45  C   UNL A   1      41.193  28.489  32.036  1.00  0.00     0.074 A 
ATOM     46  C   UNL A   1      39.402  29.586  30.729  1.00  0.00     0.049 A 
ATOM     47  N   UNL A   1      41.265  29.275  33.079  1.00  0.00    -0.248 NA
ATOM     48  C   UNL A   1      42.142  27.364  32.065  1.00  0.00     0.031 C 
ATOM     49  C   UNL A   1      38.499  29.796  29.597  1.00  0.00     0.029 A 
ATOM     50  N   UNL A   1      39.119  30.620  31.583  1.00  0.00    -0.354 N 
ATOM     51  C   UNL A   1      42.267  28.745  33.885  1.00  0.00     0.074 A 
ATOM     52  C   UNL A   1      42.750  27.550  33.227  1.00  0.00     0.031 C 
ATOM     53  C   UNL A   1      37.764  30.897  29.827  1.00  0.00     0.029 A 
ATOM     54  C   UNL A   1      38.130  31.457  31.127  1.00  0.00     0.049 A 
ATOM     55  H   UNL A   1      39.583  30.752  32.442  1.00  0.00     0.167 HD
ATOM     56  C   UNL A   1      42.749  29.220  35.058  1.00  0.00     0.037 A 
ATOM     57  C   UNL A   1      37.579  32.546  31.695  1.00  0.00     0.037 A 
ATOM     58  C   UNL A   1      42.265  30.409  35.711  1.00  0.00     0.049 A 
ATOM     59  C   UNL A   1      38.096  33.024  33.026  1.00  0.00     0.074 A 
ATOM     60  C   UNL A   1      42.700  30.982  36.892  1.00  0.00     0.029 A 
ATOM     61  N   UNL A   1      41.229  31.204  35.239  1.00  0.00    -0.354 N 
ATOM     62  N   UNL A   1      39.065  32.530  33.761  1.00  0.00    -0.248 NA
ATOM     63  C   UNL A   1      37.451  34.213  33.600  1.00  0.00     0.031 C 
ATOM     64  C   UNL A   1      41.898  32.098  37.159  1.00  0.00     0.029 A 
ATOM     65  C   UNL A   1      40.994  32.248  36.120  1.00  0.00     0.049 A 
ATOM     66  H   UNL A   1      40.734  31.049  34.403  1.00  0.00     0.167 HD
ATOM     67  C   UNL A   1      39.156  33.357  34.876  1.00  0.00     0.074 A 
ATOM     68  C   UNL A   1      38.158  34.394  34.708  1.00  0.00     0.031 C 
ATOM     69  C   UNL A   1      39.990  33.267  35.943  1.00  0.00     0.037 A 
BRANCH  56  70
ATOM     70  C   UNL A   1      43.848  28.438  35.724  1.00  0.00     0.058 A 
ATOM     71  C   UNL A   1      43.572  27.423  36.654  1.00  0.00     0.135 A 
ATOM     72  C   UNL A   1      45.192  28.686  35.407  1.00  0.00     0.135 A 
ATOM     73  F   UNL A   1      42.304  27.156  37.007  1.00  0.00    -0.206 F 
ATOM     74  C   UNL A   1      44.591  26.697  37.263  1.00  0.00     0.059 A 
ATOM     75  C   UNL A   1      46.228  27.957  35.986  1.00  0.00     0.059 A 
ATOM     76  F   UNL A   1      45.513  29.648  34.526  1.00  0.00    -0.206 F 
ATOM     77  C   UNL A   1      45.916  26.973  36.924  1.00  0.00     0.060 A 
BRANCH  77  78
ATOM     78  S   UNL A   1      47.229  26.022  37.720  1.00  0.00     0.124 S 
ATOM     79  O   UNL A   1      46.829  26.091  39.122  1.00  0.00    -0.237 OA
ATOM     80  O   UNL A   1      47.095  24.714  37.086  1.00  0.00    -0.237 OA
ATOM     81  O   UNL A   1      48.440  26.760  37.375  1.00  0.00    -0.744 OA
ENDBRANCH  77  78
ENDBRANCH  56  70
BRANCH  57  82
ATOM     82  C   UNL A   1      36.471  33.260  31.008  1.00  0.00     0.058 A 
ATOM     83  C   UNL A   1      35.162  33.225  31.508  1.00  0.00     0.135 A 
ATOM     84  C   UNL A   1      36.705  34.000  29.838  1.00  0.00     0.135 A 
ATOM     85  F   UNL A   1      34.886  32.522  32.618  1.00  0.00    -0.206 F 
ATOM     86  C   UNL A   1      34.120  33.887  30.867  1.00  0.00     0.059 A 
ATOM     87  C   UNL A   1      35.685  34.691  29.194  1.00  0.00     0.059 A 
ATOM     88  F   UNL A   1      37.944  34.074  29.326  1.00  0.00    -0.206 F 
ATOM     89  C   UNL A   1      34.393  34.621  29.711  1.00  0.00     0.060 A 
BRANCH  89  90
ATOM     90  S   UNL A   1      33.047  35.528  28.919  1.00  0.00     0.124 S 
ATOM     91  O   UNL A   1      32.209  35.870  30.062  1.00  0.00    -0.237 OA
ATOM     92  O   UNL A   1      33.753  36.639  28.289  1.00  0.00    -0.237 OA
ATOM     93  O   UNL A   1      32.486  34.549  27.993  1.00  0.00    -0.744 OA
ENDBRANCH  89  90
ENDBRANCH  57  82
BRANCH  69  94
ATOM     94  C   UNL A   1      39.864  34.326  37.004  1.00  0.00     0.058 A 
ATOM     95  C   UNL A   1      40.562  35.540  36.917  1.00  0.00     0.135 A 
ATOM     96  C   UNL A   1      39.016  34.134  38.107  1.00  0.00     0.135 A 
ATOM     97  F   UNL A   1      41.389  35.772  35.884  1.00  0.00    -0.206 F 
ATOM     98  C   UNL A   1      40.455  36.514  37.905  1.00  0.00     0.059 A 
ATOM     99  C   UNL A   1      38.872  35.105  39.093  1.00  0.00     0.059 A 
ATOM    100  F   UNL A   1      38.315  32.997  38.232  1.00  0.00    -0.206 F 
ATOM    101  C   UNL A   1      39.609  36.284  38.993  1.00  0.00     0.060 A 
BRANCH 101 102
ATOM    102  S   UNL A   1      39.474  37.555  40.268  1.00  0.00     0.124 S 
ATOM    103  O   UNL A   1      38.823  36.820  41.346  1.00  0.00    -0.237 OA
ATOM    104  O   UNL A   1      40.869  37.918  40.500  1.00  0.00    -0.237 OA
ATOM    105  O   UNL A   1      38.662  38.588  39.632  1.00  0.00    -0.744 OA
ENDBRANCH 101 102
ENDBRANCH  69  94
ENDBRANCH  43  44
ENDBRANCH  36  38
ENDBRANCH  35  36
ENDBRANCH  34  35
ENDBRANCH  33  34
ENDBRANCH   1  33
TORSDOF 23
ENDMDL
MODEL 2
REMARK VINA RESULT:     -11.2      5.119      6.640
REMARK SMILES O=C(C[C@@H]([NH2+]Cc1cccnc1)C(=O)OCCOCCOC(=O)c1ccc(-c2c3nc(c(-c4c(F)cc(S(=O)(=O)[O-])cc4F)c4ccc([nH]4)c(-c4c(F)cc(S(=O)(=O)[O-])cc4F)c4nc(c(-c5c(F)cc(S(=O)(=O)[O-])cc5F)c5ccc2[nH]5)C=C4)C=C3)cc1)Nc1ccc2ccccc2c1
REMARK SMILES IDX 18 1 17 2 16 3 15 4 13 5 14 6 4 7 3 8 2 9 1 10 90 11 91 13
REMARK SMILES IDX 92 14 100 15 93 16 99 17 94 18 98 19 95 20 97 21 96 22 5 23
REMARK SMILES IDX 6 26 7 27 8 28 12 29 9 30 11 31 10 32 19 33 20 34 21 35
REMARK SMILES IDX 22 36 23 37 24 38 25 39 89 40 26 41 88 42 27 43 28 44 29 45
REMARK SMILES IDX 82 46 30 47 87 48 81 49 83 50 31 51 86 52 80 53 79 54 32 56
REMARK SMILES IDX 66 57 45 58 65 59 46 60 49 61 64 62 84 63 47 64 48 65 63 67
REMARK SMILES IDX 85 68 50 69 33 70 34 71 43 72 35 73 36 74 42 75 44 76 37 77
REMARK SMILES IDX 38 78 39 79 40 80 41 81 67 82 68 83 77 84 69 85 70 86 76 87
REMARK SMILES IDX 78 88 71 89 72 90 73 91 74 92 75 93 51 94 52 95 61 96 53 97
REMARK SMILES IDX 54 98 60 99 62 100 55 101 56 102 57 103 58 104 59 105
REMARK H PARENT 90 12 5 24 5 25 83 55 49 66
REMARK Flexibility Score: inf
ROOT
ATOM      1  O   UNL A   1      36.970  23.440  24.432  1.00  0.00    -0.374 OA
ENDROOT
BRANCH   1   2
ATOM      2  C   UNL A   1      35.844  24.073  25.030  1.00  0.00     0.202 C 
BRANCH   2   3
ATOM      3  C   UNL A   1      34.466  23.930  24.364  1.00  0.00     0.261 C 
BRANCH   3   4
ATOM      4  O   UNL A   1      34.301  24.677  23.151  1.00  0.00    -0.459 OA
BRANCH   4   5
ATOM      5  C   UNL A   1      33.095  24.473  22.558  1.00  0.00     0.365 C 
ATOM      6  O   UNL A   1      32.905  24.625  21.353  1.00  0.00    -0.245 OA
BRANCH   5   7
ATOM      7  C   UNL A   1      32.007  23.935  23.514  1.00  0.00     0.303 C 
BRANCH   7   8
ATOM      8  C   UNL A   1      30.953  25.006  23.899  1.00  0.00     0.177 C 
BRANCH   8   9
ATOM      9  C   UNL A   1      31.355  25.832  25.119  1.00  0.00     0.231 C 
ATOM     10  O   UNL A   1      30.878  25.634  26.230  1.00  0.00    -0.274 OA
ATOM     11  N   UNL A   1      32.223  26.849  24.771  1.00  0.00    -0.326 N 
ATOM     12  H   UNL A   1      32.603  26.808  23.864  1.00  0.00     0.169 HD
BRANCH  11  13
ATOM     13  C   UNL A   1      32.623  27.932  25.565  1.00  0.00     0.041 A 
ATOM     14  C   UNL A   1      31.765  29.035  25.577  1.00  0.00     0.027 A 
ATOM     15  C   UNL A   1      33.826  27.979  26.268  1.00  0.00     0.034 A 
ATOM     16  C   UNL A   1      32.080  30.170  26.315  1.00  0.00     0.011 A 
ATOM     17  C   UNL A   1      34.210  29.170  26.924  1.00  0.00    -0.016 A 
ATOM     18  C   UNL A   1      33.311  30.264  26.967  1.00  0.00    -0.018 A 
ATOM     19  C   UNL A   1      35.480  29.328  27.506  1.00  0.00     0.009 A 
ATOM     20  C   UNL A   1      33.672  31.448  27.625  1.00  0.00     0.009 A 
ATOM     21  C   UNL A   1      35.847  30.534  28.115  1.00  0.00     0.001 A 
ATOM     22  C   UNL A   1      34.939  31.587  28.187  1.00  0.00     0.001 A 
ENDBRANCH  11  13
ENDBRANCH   8   9
ENDBRANCH   7   8
BRANCH   7  23
ATOM     23  N   UNL A   1      31.341  22.697  23.000  1.00  0.00    -0.330 N 
ATOM     24  H   UNL A   1      30.685  22.985  22.275  1.00  0.00     0.347 HD
ATOM     25  H   UNL A   1      30.928  22.269  23.829  1.00  0.00     0.347 HD
BRANCH  23  26
ATOM     26  C   UNL A   1      32.188  21.641  22.428  1.00  0.00     0.299 C 
BRANCH  26  27
ATOM     27  C   UNL A   1      32.332  20.425  23.306  1.00  0.00     0.024 A 
ATOM     28  C   UNL A   1      32.377  19.120  22.808  1.00  0.00     0.013 A 
ATOM     29  C   UNL A   1      32.400  20.565  24.690  1.00  0.00     0.120 A 
ATOM     30  C   UNL A   1      32.512  18.041  23.674  1.00  0.00     0.021 A 
ATOM     31  N   UNL A   1      32.530  19.537  25.562  1.00  0.00    -0.264 NA
ATOM     32  C   UNL A   1      32.583  18.298  25.031  1.00  0.00     0.111 A 
ENDBRANCH  26  27
ENDBRANCH  23  26
ENDBRANCH   7  23
ENDBRANCH   5   7
ENDBRANCH   4   5
ENDBRANCH   3   4
ENDBRANCH   2   3
ENDBRANCH   1   2
BRANCH   1  33
ATOM     33  C   UNL A   1      37.020  22.016  24.374  1.00  0.00     0.202 C 
BRANCH  33  34
ATOM     34  C   UNL A   1      38.054  21.274  25.226  1.00  0.00     0.261 C 
BRANCH  34  35
ATOM     35  O   UNL A   1      38.456  22.036  26.380  1.00  0.00    -0.460 OA
BRANCH  35  36
ATOM     36  C   UNL A   1      39.800  22.189  26.496  1.00  0.00     0.338 C 
ATOM     37  O   UNL A   1      40.665  21.488  26.000  1.00  0.00    -0.246 OA
BRANCH  36  38
ATOM     38  C   UNL A   1      40.114  23.470  27.152  1.00  0.00     0.060 A 
ATOM     39  C   UNL A   1      39.669  24.638  26.520  1.00  0.00     0.016 A 
ATOM     40  C   UNL A   1      40.927  23.536  28.285  1.00  0.00     0.016 A 
ATOM     41  C   UNL A   1      40.083  25.880  26.988  1.00  0.00     0.010 A 
ATOM     42  C   UNL A   1      41.349  24.788  28.748  1.00  0.00     0.010 A 
ATOM     43  C   UNL A   1      40.963  25.962  28.076  1.00  0.00    -0.014 A 
BRANCH  43  44
ATOM     44  C   UNL A   1      41.572  27.275  28.398  1.00  0.00     0.031 A 
ATOM     45  C   UNL A   1      43.006  27.533  28.018  1.00  0.00     0.074 A 
ATOM     46  C   UNL A   1      40.829  28.254  28.944  1.00  0.00     0.049 A 
ATOM     47  N   UNL A   1      43.708  28.630  28.135  1.00  0.00    -0.248 NA
ATOM     48  C   UNL A   1      43.744  26.408  27.421  1.00  0.00     0.031 C 
ATOM     49  C   UNL A   1      39.422  28.129  29.325  1.00  0.00     0.029 A 
ATOM     50  N   UNL A   1      41.152  29.547  29.262  1.00  0.00    -0.354 N 
ATOM     51  C   UNL A   1      44.967  28.331  27.624  1.00  0.00     0.074 A 
ATOM     52  C   UNL A   1      44.942  26.939  27.229  1.00  0.00     0.031 C 
ATOM     53  C   UNL A   1      39.001  29.304  29.823  1.00  0.00     0.029 A 
ATOM     54  C   UNL A   1      40.111  30.255  29.814  1.00  0.00     0.049 A 
ATOM     55  H   UNL A   1      42.044  29.933  29.109  1.00  0.00     0.167 HD
ATOM     56  C   UNL A   1      46.039  29.146  27.484  1.00  0.00     0.037 A 
ATOM     57  C   UNL A   1      40.062  31.524  30.264  1.00  0.00     0.037 A 
ATOM     58  C   UNL A   1      46.060  30.531  27.881  1.00  0.00     0.049 A 
ATOM     59  C   UNL A   1      41.284  32.396  30.146  1.00  0.00     0.074 A 
ATOM     60  C   UNL A   1      47.092  31.445  27.764  1.00  0.00     0.029 A 
ATOM     61  N   UNL A   1      45.001  31.199  28.478  1.00  0.00    -0.354 N 
ATOM     62  N   UNL A   1      42.457  32.107  29.633  1.00  0.00    -0.248 NA
ATOM     63  C   UNL A   1      41.173  33.767  30.661  1.00  0.00     0.031 C 
ATOM     64  C   UNL A   1      46.673  32.654  28.332  1.00  0.00     0.029 A 
ATOM     65  C   UNL A   1      45.363  32.506  28.760  1.00  0.00     0.049 A 
ATOM     66  H   UNL A   1      44.122  30.803  28.674  1.00  0.00     0.167 HD
ATOM     67  C   UNL A   1      43.218  33.266  29.748  1.00  0.00     0.074 A 
ATOM     68  C   UNL A   1      42.366  34.264  30.362  1.00  0.00     0.031 C 
ATOM     69  C   UNL A   1      44.506  33.485  29.380  1.00  0.00     0.037 A 
BRANCH  56  70
ATOM     70  C   UNL A   1      47.289  28.554  26.894  1.00  0.00     0.058 A 
ATOM     71  C   UNL A   1      48.370  28.158  27.699  1.00  0.00     0.135 A 
ATOM     72  C   UNL A   1      47.397  28.351  25.509  1.00  0.00     0.135 A 
ATOM     73  F   UNL A   1      48.327  28.346  29.028  1.00  0.00    -0.206 F 
ATOM     74  C   UNL A   1      49.522  27.604  27.149  1.00  0.00     0.059 A 
ATOM     75  C   UNL A   1      48.530  27.778  24.939  1.00  0.00     0.059 A 
ATOM     76  F   UNL A   1      46.394  28.714  24.693  1.00  0.00    -0.206 F 
ATOM     77  C   UNL A   1      49.594  27.420  25.768  1.00  0.00     0.060 A 
BRANCH  77  78
ATOM     78  S   UNL A   1      51.093  26.698  25.068  1.00  0.00     0.124 S 
ATOM     79  O   UNL A   1      51.092  25.374  25.681  1.00  0.00    -0.237 OA
ATOM     80  O   UNL A   1      50.817  26.733  23.635  1.00  0.00    -0.237 OA
ATOM     81  O   UNL A   1      52.148  27.599  25.521  1.00  0.00    -0.744 OA
ENDBRANCH  77  78
ENDBRANCH  56  70
BRANCH  57  82
ATOM     82  C   UNL A   1      38.810  32.046  30.871  1.00  0.00     0.058 A 
ATOM     83  C   UNL A   1      37.902  32.810  30.123  1.00  0.00     0.135 A 
ATOM     84  C   UNL A   1      38.493  31.782  32.213  1.00  0.00     0.135 A 
ATOM     85  F   UNL A   1      38.165  33.098  28.839  1.00  0.00    -0.206 F 
ATOM     86  C   UNL A   1      36.730  33.305  30.687  1.00  0.00     0.059 A 
ATOM     87  C   UNL A   1      37.316  32.244  32.791  1.00  0.00     0.059 A 
ATOM     88  F   UNL A   1      39.324  31.045  32.967  1.00  0.00    -0.206 F 
ATOM     89  C   UNL A   1      36.445  33.013  32.021  1.00  0.00     0.060 A 
BRANCH  89  90
ATOM     90  S   UNL A   1      34.893  33.608  32.729  1.00  0.00     0.124 S 
ATOM     91  O   UNL A   1      35.144  33.460  34.157  1.00  0.00    -0.237 OA
ATOM     92  O   UNL A   1      34.833  34.978  32.229  1.00  0.00    -0.237 OA
ATOM     93  O   UNL A   1      33.899  32.701  32.163  1.00  0.00    -0.744 OA
ENDBRANCH  89  90
ENDBRANCH  57  82
BRANCH  69  94
ATOM     94  C   UNL A   1      45.063  34.862  29.622  1.00  0.00     0.058 A 
ATOM     95  C   UNL A   1      44.939  35.883  28.667  1.00  0.00     0.135 A 
ATOM     96  C   UNL A   1      45.708  35.168  30.831  1.00  0.00     0.135 A 
ATOM     97  F   UNL A   1      44.335  35.641  27.493  1.00  0.00    -0.206 F 
ATOM     98  C   UNL A   1      45.467  37.152  28.887  1.00  0.00     0.059 A 
ATOM     99  C   UNL A   1      46.220  36.438  31.082  1.00  0.00     0.059 A 
ATOM    100  F   UNL A   1      45.842  34.232  31.782  1.00  0.00    -0.206 F 
ATOM    101  C   UNL A   1      46.110  37.418  30.097  1.00  0.00     0.060 A 
BRANCH 101 102
ATOM    102  S   UNL A   1      46.789  39.068  30.374  1.00  0.00     0.124 S 
ATOM    103  O   UNL A   1      48.207  38.777  30.543  1.00  0.00    -0.237 OA
ATOM    104  O   UNL A   1      46.426  39.767  29.145  1.00  0.00    -0.237 OA
ATOM    105  O   UNL A   1      46.093  39.523  31.574  1.00  0.00    -0.744 OA
ENDBRANCH 101 102
ENDBRANCH  69  94
ENDBRANCH  43  44
ENDBRANCH  36  38
ENDBRANCH  35  36
ENDBRANCH  34  35
ENDBRANCH  33  34
ENDBRANCH   1  33
TORSDOF 23
ENDMDL
MODEL 3
REMARK VINA RESULT:     -11.1      4.845      6.258
REMARK SMILES O=C(C[C@@H]([NH2+]Cc1cccnc1)C(=O)OCCOCCOC(=O)c1ccc(-c2c3nc(c(-c4c(F)cc(S(=O)(=O)[O-])cc4F)c4ccc([nH]4)c(-c4c(F)cc(S(=O)(=O)[O-])cc4F)c4nc(c(-c5c(F)cc(S(=O)(=O)[O-])cc5F)c5ccc2[nH]5)C=C4)C=C3)cc1)Nc1ccc2ccccc2c1
REMARK SMILES IDX 18 1 17 2 16 3 15 4 13 5 14 6 4 7 3 8 2 9 1 10 90 11 91 13
REMARK SMILES IDX 92 14 100 15 93 16 99 17 94 18 98 19 95 20 97 21 96 22 5 23
REMARK SMILES IDX 6 26 7 27 8 28 12 29 9 30 11 31 10 32 19 33 20 34 21 35
REMARK SMILES IDX 22 36 23 37 24 38 25 39 89 40 26 41 88 42 27 43 28 44 29 45
REMARK SMILES IDX 82 46 30 47 87 48 81 49 83 50 31 51 86 52 80 53 79 54 32 56
REMARK SMILES IDX 66 57 45 58 65 59 46 60 49 61 64 62 84 63 47 64 48 65 63 67
REMARK SMILES IDX 85 68 50 69 33 70 34 71 43 72 35 73 36 74 42 75 44 76 37 77
REMARK SMILES IDX 38 78 39 79 40 80 41 81 67 82 68 83 77 84 69 85 70 86 76 87
REMARK SMILES IDX 78 88 71 89 72 90 73 91 74 92 75 93 51 94 52 95 61 96 53 97
REMARK SMILES IDX 54 98 60 99 62 100 55 101 56 102 57 103 58 104 59 105
REMARK H PARENT 90 12 5 24 5 25 83 55 49 66
REMARK Flexibility Score: inf
ROOT
ATOM      1  O   UNL A   1      36.379  22.973  22.892  1.00  0.00    -0.374 OA
ENDROOT
BRANCH   1   2
ATOM      2  C   UNL A   1      34.960  22.994  22.791  1.00  0.00     0.202 C 
BRANCH   2   3
ATOM      3  C   UNL A   1      34.169  24.035  23.599  1.00  0.00     0.261 C 
BRANCH   3   4
ATOM      4  O   UNL A   1      33.001  23.528  24.258  1.00  0.00    -0.459 OA
BRANCH   4   5
ATOM      5  C   UNL A   1      33.168  23.374  25.599  1.00  0.00     0.365 C 
ATOM      6  O   UNL A   1      34.057  23.938  26.233  1.00  0.00    -0.245 OA
BRANCH   5   7
ATOM      7  C   UNL A   1      32.080  22.507  26.273  1.00  0.00     0.303 C 
BRANCH   7   8
ATOM      8  C   UNL A   1      30.657  23.111  26.143  1.00  0.00     0.177 C 
BRANCH   8   9
ATOM      9  C   UNL A   1      30.665  24.597  25.790  1.00  0.00     0.231 C 
ATOM     10  O   UNL A   1      30.794  25.470  26.640  1.00  0.00    -0.274 OA
ATOM     11  N   UNL A   1      30.420  24.794  24.445  1.00  0.00    -0.326 N 
ATOM     12  H   UNL A   1      30.452  23.993  23.873  1.00  0.00     0.169 HD
BRANCH  11  13
ATOM     13  C   UNL A   1      30.130  26.006  23.804  1.00  0.00     0.041 A 
ATOM     14  C   UNL A   1      31.215  26.668  23.223  1.00  0.00     0.027 A 
ATOM     15  C   UNL A   1      28.864  26.586  23.775  1.00  0.00     0.034 A 
ATOM     16  C   UNL A   1      31.039  27.888  22.582  1.00  0.00     0.011 A 
ATOM     17  C   UNL A   1      28.696  27.879  23.230  1.00  0.00    -0.016 A 
ATOM     18  C   UNL A   1      29.794  28.520  22.604  1.00  0.00    -0.018 A 
ATOM     19  C   UNL A   1      27.481  28.580  23.322  1.00  0.00     0.009 A 
ATOM     20  C   UNL A   1      29.641  29.797  22.047  1.00  0.00     0.009 A 
ATOM     21  C   UNL A   1      27.357  29.876  22.807  1.00  0.00     0.001 A 
ATOM     22  C   UNL A   1      28.431  30.477  22.158  1.00  0.00     0.001 A 
ENDBRANCH  11  13
ENDBRANCH   8   9
ENDBRANCH   7   8
BRANCH   7  23
ATOM     23  N   UNL A   1      32.098  21.085  25.807  1.00  0.00    -0.330 N 
ATOM     24  H   UNL A   1      31.607  21.053  24.914  1.00  0.00     0.347 HD
ATOM     25  H   UNL A   1      31.668  20.564  26.571  1.00  0.00     0.347 HD
BRANCH  23  26
ATOM     26  C   UNL A   1      33.403  20.436  25.611  1.00  0.00     0.299 C 
BRANCH  26  27
ATOM     27  C   UNL A   1      33.383  19.305  24.616  1.00  0.00     0.024 A 
ATOM     28  C   UNL A   1      32.427  19.191  23.603  1.00  0.00     0.013 A 
ATOM     29  C   UNL A   1      34.332  18.288  24.694  1.00  0.00     0.120 A 
ATOM     30  C   UNL A   1      32.467  18.121  22.717  1.00  0.00     0.021 A 
ATOM     31  N   UNL A   1      34.399  17.233  23.849  1.00  0.00    -0.264 NA
ATOM     32  C   UNL A   1      33.462  17.175  22.879  1.00  0.00     0.111 A 
ENDBRANCH  26  27
ENDBRANCH  23  26
ENDBRANCH   7  23
ENDBRANCH   5   7
ENDBRANCH   4   5
ENDBRANCH   3   4
ENDBRANCH   2   3
ENDBRANCH   1   2
BRANCH   1  33
ATOM     33  C   UNL A   1      36.988  22.353  24.024  1.00  0.00     0.202 C 
BRANCH  33  34
ATOM     34  C   UNL A   1      37.355  23.216  25.234  1.00  0.00     0.261 C 
BRANCH  34  35
ATOM     35  O   UNL A   1      38.007  22.456  26.268  1.00  0.00    -0.460 OA
BRANCH  35  36
ATOM     36  C   UNL A   1      39.334  22.718  26.389  1.00  0.00     0.338 C 
ATOM     37  O   UNL A   1      40.258  22.028  25.994  1.00  0.00    -0.246 OA
BRANCH  36  38
ATOM     38  C   UNL A   1      39.541  24.085  26.896  1.00  0.00     0.060 A 
ATOM     39  C   UNL A   1      40.111  25.014  26.016  1.00  0.00     0.016 A 
ATOM     40  C   UNL A   1      39.301  24.419  28.230  1.00  0.00     0.016 A 
ATOM     41  C   UNL A   1      40.497  26.265  26.484  1.00  0.00     0.010 A 
ATOM     42  C   UNL A   1      39.699  25.677  28.699  1.00  0.00     0.010 A 
ATOM     43  C   UNL A   1      40.336  26.588  27.838  1.00  0.00    -0.014 A 
BRANCH  43  44
ATOM     44  C   UNL A   1      40.972  27.826  28.352  1.00  0.00     0.031 A 
ATOM     45  C   UNL A   1      42.463  27.991  28.231  1.00  0.00     0.074 A 
ATOM     46  C   UNL A   1      40.216  28.825  28.842  1.00  0.00     0.049 A 
ATOM     47  N   UNL A   1      43.209  29.019  28.543  1.00  0.00    -0.248 NA
ATOM     48  C   UNL A   1      43.212  26.850  27.680  1.00  0.00     0.031 C 
ATOM     49  C   UNL A   1      38.760  28.790  28.979  1.00  0.00     0.029 A 
ATOM     50  N   UNL A   1      40.569  30.066  29.304  1.00  0.00    -0.354 N 
ATOM     51  C   UNL A   1      44.513  28.653  28.222  1.00  0.00     0.074 A 
ATOM     52  C   UNL A   1      44.459  27.294  27.725  1.00  0.00     0.031 C 
ATOM     53  C   UNL A   1      38.343  29.961  29.488  1.00  0.00     0.029 A 
ATOM     54  C   UNL A   1      39.502  30.819  29.730  1.00  0.00     0.049 A 
ATOM     55  H   UNL A   1      41.499  30.388  29.327  1.00  0.00     0.167 HD
ATOM     56  C   UNL A   1      45.647  29.386  28.321  1.00  0.00     0.037 A 
ATOM     57  C   UNL A   1      39.465  32.057  30.260  1.00  0.00     0.037 A 
ATOM     58  C   UNL A   1      45.696  30.738  28.818  1.00  0.00     0.049 A 
ATOM     59  C   UNL A   1      40.746  32.834  30.409  1.00  0.00     0.074 A 
ATOM     60  C   UNL A   1      46.793  31.572  28.939  1.00  0.00     0.029 A 
ATOM     61  N   UNL A   1      44.599  31.450  29.283  1.00  0.00    -0.354 N 
ATOM     62  N   UNL A   1      41.966  32.485  30.073  1.00  0.00    -0.248 NA
ATOM     63  C   UNL A   1      40.645  34.174  31.000  1.00  0.00     0.031 C 
ATOM     64  C   UNL A   1      46.368  32.772  29.521  1.00  0.00     0.029 A 
ATOM     65  C   UNL A   1      44.998  32.704  29.717  1.00  0.00     0.049 A 
ATOM     66  H   UNL A   1      43.675  31.114  29.302  1.00  0.00     0.167 HD
ATOM     67  C   UNL A   1      42.774  33.570  30.397  1.00  0.00     0.074 A 
ATOM     68  C   UNL A   1      41.902  34.593  30.937  1.00  0.00     0.031 C 
ATOM     69  C   UNL A   1      44.118  33.708  30.261  1.00  0.00     0.037 A 
BRANCH  56  70
ATOM     70  C   UNL A   1      46.934  28.734  27.899  1.00  0.00     0.058 A 
ATOM     71  C   UNL A   1      47.413  28.829  26.583  1.00  0.00     0.135 A 
ATOM     72  C   UNL A   1      47.715  28.030  28.830  1.00  0.00     0.135 A 
ATOM     73  F   UNL A   1      46.698  29.474  25.648  1.00  0.00    -0.206 F 
ATOM     74  C   UNL A   1      48.609  28.229  26.199  1.00  0.00     0.059 A 
ATOM     75  C   UNL A   1      48.925  27.442  28.474  1.00  0.00     0.059 A 
ATOM     76  F   UNL A   1      47.302  27.907  30.102  1.00  0.00    -0.206 F 
ATOM     77  C   UNL A   1      49.357  27.536  27.151  1.00  0.00     0.060 A 
BRANCH  77  78
ATOM     78  S   UNL A   1      50.907  26.764  26.640  1.00  0.00     0.124 S 
ATOM     79  O   UNL A   1      51.309  26.079  27.865  1.00  0.00    -0.237 OA
ATOM     80  O   UNL A   1      50.480  25.901  25.543  1.00  0.00    -0.237 OA
ATOM     81  O   UNL A   1      51.740  27.898  26.252  1.00  0.00    -0.744 OA
ENDBRANCH  77  78
ENDBRANCH  56  70
BRANCH  57  82
ATOM     82  C   UNL A   1      38.167  32.639  30.692  1.00  0.00     0.058 A 
ATOM     83  C   UNL A   1      37.723  32.523  32.018  1.00  0.00     0.135 A 
ATOM     84  C   UNL A   1      37.349  33.331  29.786  1.00  0.00     0.135 A 
ATOM     85  F   UNL A   1      38.466  31.862  32.919  1.00  0.00    -0.206 F 
ATOM     86  C   UNL A   1      36.508  33.062  32.428  1.00  0.00     0.059 A 
ATOM     87  C   UNL A   1      36.142  33.900  30.177  1.00  0.00     0.059 A 
ATOM     88  F   UNL A   1      37.735  33.478  28.509  1.00  0.00    -0.206 F 
ATOM     89  C   UNL A   1      35.726  33.752  31.500  1.00  0.00     0.060 A 
BRANCH  89  90
ATOM     90  S   UNL A   1      34.178  34.501  32.054  1.00  0.00     0.124 S 
ATOM     91  O   UNL A   1      34.651  35.736  32.666  1.00  0.00    -0.237 OA
ATOM     92  O   UNL A   1      33.443  34.649  30.801  1.00  0.00    -0.237 OA
ATOM     93  O   UNL A   1      33.636  33.505  32.973  1.00  0.00    -0.744 OA
ENDBRANCH  89  90
ENDBRANCH  57  82
BRANCH  69  94
ATOM     94  C   UNL A   1      44.720  35.017  30.692  1.00  0.00     0.058 A 
ATOM     95  C   UNL A   1      45.204  35.211  31.995  1.00  0.00     0.135 A 
ATOM     96  C   UNL A   1      44.835  36.082  29.785  1.00  0.00     0.135 A 
ATOM     97  F   UNL A   1      45.113  34.225  32.903  1.00  0.00    -0.206 F 
ATOM     98  C   UNL A   1      45.748  36.427  32.396  1.00  0.00     0.059 A 
ATOM     99  C   UNL A   1      45.401  37.298  30.156  1.00  0.00     0.059 A 
ATOM    100  F   UNL A   1      44.400  35.946  28.523  1.00  0.00    -0.206 F 
ATOM    101  C   UNL A   1      45.838  37.467  31.469  1.00  0.00     0.060 A 
BRANCH 101 102
ATOM    102  S   UNL A   1      46.549  39.040  31.998  1.00  0.00     0.124 S 
ATOM    103  O   UNL A   1      45.574  39.485  32.986  1.00  0.00    -0.237 OA
ATOM    104  O   UNL A   1      47.849  38.636  32.525  1.00  0.00    -0.237 OA
ATOM    105  O   UNL A   1      46.596  39.821  30.765  1.00  0.00    -0.744 OA
ENDBRANCH 101 102
ENDBRANCH  69  94
ENDBRANCH  43  44
ENDBRANCH  36  38
ENDBRANCH  35  36
ENDBRANCH  34  35
ENDBRANCH  33  34
ENDBRANCH   1  33
TORSDOF 23
ENDMDL
