MODEL 1
REMARK VINA RESULT:     -11.9      0.000      0.000
REMARK SMILES O=C(Cn1c2c(sc1=O)C[C@H](c1ccccc1)CC2)OCCOCCOC(=O)c1ccc(-c2c3nc(c(-c4c(F)cc(S(=O)(=O)[O-])cc4F)c4ccc([nH]4)c(-c4c(F)cc(S(=O)(=O)[O-])cc4F)c4nc(c(-c5c(F)cc(S(=O)(=O)[O-])cc5F)c5ccc2[nH]5)C=C4)C=C3)cc1
REMARK SMILES IDX 24 1 23 2 22 3 21 4 20 5 2 6 1 7 3 8 4 9 5 10 8 11 6 12
REMARK SMILES IDX 19 13 7 14 9 15 10 16 18 17 11 18 12 19 13 20 17 21 14 22
REMARK SMILES IDX 16 23 15 24 25 25 26 26 27 27 28 28 29 29 30 30 94 31 31 32
REMARK SMILES IDX 93 33 32 34 33 35 34 36 87 37 35 38 92 39 86 40 88 41 36 42
REMARK SMILES IDX 91 43 85 44 84 45 37 47 71 48 50 49 70 50 51 51 54 52 69 53
REMARK SMILES IDX 89 54 52 55 53 56 68 58 90 59 55 60 38 61 39 62 48 63 40 64
REMARK SMILES IDX 41 65 47 66 49 67 42 68 43 69 44 70 45 71 46 72 72 73 73 74
REMARK SMILES IDX 82 75 74 76 75 77 81 78 83 79 76 80 77 81 78 82 79 83 80 84
REMARK SMILES IDX 56 85 57 86 66 87 58 88 59 89 65 90 67 91 60 92 61 93 62 94
REMARK SMILES IDX 63 95 64 96
REMARK H PARENT 88 46 54 57
REMARK Flexibility Score: inf
ROOT
ATOM      1  C   UNL A   1      37.080  22.460  25.160  1.00  0.00     0.202 C 
ENDROOT
BRANCH   1   2
ATOM      2  O   UNL A   1      35.921  22.767  25.932  1.00  0.00    -0.374 OA
BRANCH   2   3
ATOM      3  C   UNL A   1      34.903  21.793  26.132  1.00  0.00     0.202 C 
BRANCH   3   4
ATOM      4  C   UNL A   1      33.713  22.161  27.012  1.00  0.00     0.261 C 
BRANCH   4   5
ATOM      5  O   UNL A   1      33.055  23.374  26.637  1.00  0.00    -0.462 OA
BRANCH   5   6
ATOM      6  C   UNL A   1      31.740  23.521  26.375  1.00  0.00     0.326 C 
ATOM      7  O   UNL A   1      30.982  23.802  27.308  1.00  0.00    -0.250 OA
BRANCH   6   8
ATOM      8  C   UNL A   1      31.137  23.109  25.033  1.00  0.00     0.249 C 
BRANCH   8   9
ATOM      9  N   UNL A   1      31.410  23.848  23.819  1.00  0.00    -0.292 N 
ATOM     10  C   UNL A   1      30.869  25.086  23.493  1.00  0.00     0.036 A 
ATOM     11  C   UNL A   1      32.554  23.508  23.110  1.00  0.00     0.308 A 
ATOM     12  C   UNL A   1      31.585  25.739  22.564  1.00  0.00     0.030 A 
ATOM     13  C   UNL A   1      29.697  25.720  24.195  1.00  0.00     0.056 C 
ATOM     14  S   UNL A   1      32.901  24.791  21.952  1.00  0.00    -0.079 S 
ATOM     15  O   UNL A   1      33.244  22.502  23.246  1.00  0.00    -0.257 OA
ATOM     16  C   UNL A   1      31.429  27.200  22.287  1.00  0.00     0.057 C 
ATOM     17  C   UNL A   1      29.496  27.207  23.832  1.00  0.00     0.015 C 
ATOM     18  C   UNL A   1      30.835  27.923  23.535  1.00  0.00     0.025 C 
BRANCH  18  19
ATOM     19  C   UNL A   1      31.794  27.984  24.738  1.00  0.00    -0.045 A 
ATOM     20  C   UNL A   1      31.327  27.733  26.038  1.00  0.00     0.004 A 
ATOM     21  C   UNL A   1      33.158  28.302  24.597  1.00  0.00     0.004 A 
ATOM     22  C   UNL A   1      32.159  27.894  27.152  1.00  0.00     0.000 A 
ATOM     23  C   UNL A   1      33.986  28.480  25.708  1.00  0.00     0.000 A 
ATOM     24  C   UNL A   1      33.481  28.290  26.989  1.00  0.00     0.000 A 
ENDBRANCH  18  19
ENDBRANCH   8   9
ENDBRANCH   6   8
ENDBRANCH   5   6
ENDBRANCH   4   5
ENDBRANCH   3   4
ENDBRANCH   2   3
ENDBRANCH   1   2
BRANCH   1  25
ATOM     25  C   UNL A   1      38.343  22.042  25.890  1.00  0.00     0.261 C 
BRANCH  25  26
ATOM     26  O   UNL A   1      38.791  23.123  26.686  1.00  0.00    -0.460 OA
BRANCH  26  27
ATOM     27  C   UNL A   1      40.022  22.983  27.205  1.00  0.00     0.338 C 
ATOM     28  O   UNL A   1      40.516  21.970  27.688  1.00  0.00    -0.246 OA
BRANCH  27  29
ATOM     29  C   UNL A   1      40.674  24.290  27.145  1.00  0.00     0.060 A 
ATOM     30  C   UNL A   1      41.744  24.463  28.018  1.00  0.00     0.016 A 
ATOM     31  C   UNL A   1      40.016  25.366  26.523  1.00  0.00     0.016 A 
ATOM     32  C   UNL A   1      41.936  25.720  28.528  1.00  0.00     0.010 A 
ATOM     33  C   UNL A   1      40.199  26.618  27.044  1.00  0.00     0.010 A 
ATOM     34  C   UNL A   1      41.072  26.739  28.118  1.00  0.00    -0.014 A 
BRANCH  34  35
ATOM     35  C   UNL A   1      41.107  27.966  28.871  1.00  0.00     0.031 A 
ATOM     36  C   UNL A   1      42.219  28.844  28.470  1.00  0.00     0.074 A 
ATOM     37  C   UNL A   1      40.172  28.254  29.792  1.00  0.00     0.049 A 
ATOM     38  N   UNL A   1      43.290  29.123  29.131  1.00  0.00    -0.248 NA
ATOM     39  C   UNL A   1      42.229  29.297  27.070  1.00  0.00     0.031 C 
ATOM     40  C   UNL A   1      38.889  27.593  30.048  1.00  0.00     0.029 A 
ATOM     41  N   UNL A   1      40.156  29.293  30.658  1.00  0.00    -0.354 N 
ATOM     42  C   UNL A   1      44.015  29.970  28.304  1.00  0.00     0.074 A 
ATOM     43  C   UNL A   1      43.426  29.873  26.994  1.00  0.00     0.031 C 
ATOM     44  C   UNL A   1      38.132  28.388  30.840  1.00  0.00     0.029 A 
ATOM     45  C   UNL A   1      38.927  29.532  31.252  1.00  0.00     0.049 A 
ATOM     46  H   UNL A   1      40.954  29.837  30.849  1.00  0.00     0.167 HD
ATOM     47  C   UNL A   1      44.893  30.878  28.804  1.00  0.00     0.037 A 
ATOM     48  C   UNL A   1      38.602  30.659  31.934  1.00  0.00     0.037 A 
ATOM     49  C   UNL A   1      45.279  30.558  30.153  1.00  0.00     0.049 A 
ATOM     50  C   UNL A   1      39.885  31.312  32.329  1.00  0.00     0.074 A 
ATOM     51  C   UNL A   1      45.933  29.484  30.730  1.00  0.00     0.029 A 
ATOM     52  N   UNL A   1      44.628  31.196  31.182  1.00  0.00    -0.354 N 
ATOM     53  N   UNL A   1      40.737  30.791  33.175  1.00  0.00    -0.248 NA
ATOM     54  C   UNL A   1      40.448  32.301  31.420  1.00  0.00     0.031 C 
ATOM     55  C   UNL A   1      45.262  29.259  31.968  1.00  0.00     0.029 A 
ATOM     56  C   UNL A   1      44.278  30.240  32.108  1.00  0.00     0.049 A 
ATOM     57  H   UNL A   1      44.445  32.161  31.246  1.00  0.00     0.167 HD
ATOM     58  C   UNL A   1      41.994  31.079  32.654  1.00  0.00     0.074 A 
ATOM     59  C   UNL A   1      41.751  32.070  31.608  1.00  0.00     0.031 C 
ATOM     60  C   UNL A   1      43.077  30.289  32.920  1.00  0.00     0.037 A 
BRANCH  47  61
ATOM     61  C   UNL A   1      45.133  32.210  28.154  1.00  0.00     0.058 A 
ATOM     62  C   UNL A   1      46.375  32.496  27.565  1.00  0.00     0.135 A 
ATOM     63  C   UNL A   1      44.248  33.307  28.287  1.00  0.00     0.135 A 
ATOM     64  F   UNL A   1      47.302  31.536  27.426  1.00  0.00    -0.206 F 
ATOM     65  C   UNL A   1      46.721  33.786  27.155  1.00  0.00     0.059 A 
ATOM     66  C   UNL A   1      44.544  34.582  27.828  1.00  0.00     0.059 A 
ATOM     67  F   UNL A   1      43.091  33.213  28.955  1.00  0.00    -0.206 F 
ATOM     68  C   UNL A   1      45.798  34.821  27.296  1.00  0.00     0.060 A 
BRANCH  68  69
ATOM     69  S   UNL A   1      46.267  36.500  26.850  1.00  0.00     0.124 S 
ATOM     70  O   UNL A   1      47.146  36.859  27.957  1.00  0.00    -0.237 OA
ATOM     71  O   UNL A   1      46.912  36.301  25.556  1.00  0.00    -0.237 OA
ATOM     72  O   UNL A   1      44.989  37.205  26.803  1.00  0.00    -0.744 OA
ENDBRANCH  68  69
ENDBRANCH  47  61
BRANCH  48  73
ATOM     73  C   UNL A   1      37.310  31.393  31.871  1.00  0.00     0.058 A 
ATOM     74  C   UNL A   1      36.631  31.772  33.042  1.00  0.00     0.135 A 
ATOM     75  C   UNL A   1      36.853  31.978  30.671  1.00  0.00     0.135 A 
ATOM     76  F   UNL A   1      37.017  31.285  34.231  1.00  0.00    -0.206 F 
ATOM     77  C   UNL A   1      35.587  32.706  33.029  1.00  0.00     0.059 A 
ATOM     78  C   UNL A   1      35.811  32.902  30.632  1.00  0.00     0.059 A 
ATOM     79  F   UNL A   1      37.469  31.739  29.504  1.00  0.00    -0.206 F 
ATOM     80  C   UNL A   1      35.197  33.281  31.820  1.00  0.00     0.060 A 
BRANCH  80  81
ATOM     81  S   UNL A   1      33.970  34.609  31.818  1.00  0.00     0.124 S 
ATOM     82  O   UNL A   1      33.506  34.589  30.436  1.00  0.00    -0.237 OA
ATOM     83  O   UNL A   1      33.015  34.145  32.818  1.00  0.00    -0.237 OA
ATOM     84  O   UNL A   1      34.745  35.787  32.199  1.00  0.00    -0.744 OA
ENDBRANCH  80  81
ENDBRANCH  48  73
BRANCH  60  85
ATOM     85  C   UNL A   1      42.938  29.228  33.989  1.00  0.00     0.058 A 
ATOM     86  C   UNL A   1      43.120  29.462  35.365  1.00  0.00     0.135 A 
ATOM     87  C   UNL A   1      42.441  27.970  33.621  1.00  0.00     0.135 A 
ATOM     88  F   UNL A   1      43.490  30.670  35.814  1.00  0.00    -0.206 F 
ATOM     89  C   UNL A   1      42.860  28.480  36.324  1.00  0.00     0.059 A 
ATOM     90  C   UNL A   1      42.144  26.985  34.561  1.00  0.00     0.059 A 
ATOM     91  F   UNL A   1      42.183  27.702  32.330  1.00  0.00    -0.206 F 
ATOM     92  C   UNL A   1      42.368  27.242  35.911  1.00  0.00     0.060 A 
BRANCH  92  93
ATOM     93  S   UNL A   1      41.951  25.999  37.156  1.00  0.00     0.124 S 
ATOM     94  O   UNL A   1      42.917  26.285  38.211  1.00  0.00    -0.237 OA
ATOM     95  O   UNL A   1      40.560  26.314  37.468  1.00  0.00    -0.237 OA
ATOM     96  O   UNL A   1      42.151  24.733  36.454  1.00  0.00    -0.744 OA
ENDBRANCH  92  93
ENDBRANCH  60  85
ENDBRANCH  34  35
ENDBRANCH  27  29
ENDBRANCH  26  27
ENDBRANCH  25  26
ENDBRANCH   1  25
TORSDOF 19
ENDMDL
MODEL 2
REMARK VINA RESULT:     -11.5      2.499      3.630
REMARK SMILES O=C(Cn1c2c(sc1=O)C[C@H](c1ccccc1)CC2)OCCOCCOC(=O)c1ccc(-c2c3nc(c(-c4c(F)cc(S(=O)(=O)[O-])cc4F)c4ccc([nH]4)c(-c4c(F)cc(S(=O)(=O)[O-])cc4F)c4nc(c(-c5c(F)cc(S(=O)(=O)[O-])cc5F)c5ccc2[nH]5)C=C4)C=C3)cc1
REMARK SMILES IDX 24 1 23 2 22 3 21 4 20 5 2 6 1 7 3 8 4 9 5 10 8 11 6 12
REMARK SMILES IDX 19 13 7 14 9 15 10 16 18 17 11 18 12 19 13 20 17 21 14 22
REMARK SMILES IDX 16 23 15 24 25 25 26 26 27 27 28 28 29 29 30 30 94 31 31 32
REMARK SMILES IDX 93 33 32 34 33 35 34 36 87 37 35 38 92 39 86 40 88 41 36 42
REMARK SMILES IDX 91 43 85 44 84 45 37 47 71 48 50 49 70 50 51 51 54 52 69 53
REMARK SMILES IDX 89 54 52 55 53 56 68 58 90 59 55 60 38 61 39 62 48 63 40 64
REMARK SMILES IDX 41 65 47 66 49 67 42 68 43 69 44 70 45 71 46 72 72 73 73 74
REMARK SMILES IDX 82 75 74 76 75 77 81 78 83 79 76 80 77 81 78 82 79 83 80 84
REMARK SMILES IDX 56 85 57 86 66 87 58 88 59 89 65 90 67 91 60 92 61 93 62 94
REMARK SMILES IDX 63 95 64 96
REMARK H PARENT 88 46 54 57
REMARK Flexibility Score: inf
ROOT
ATOM      1  C   UNL A   1      40.916  20.664  27.313  1.00  0.00     0.202 C 
ENDROOT
BRANCH   1   2
ATOM      2  O   UNL A   1      40.200  21.563  26.467  1.00  0.00    -0.374 OA
BRANCH   2   3
ATOM      3  C   UNL A   1      38.874  21.265  26.047  1.00  0.00     0.202 C 
BRANCH   3   4
ATOM      4  C   UNL A   1      38.100  22.334  25.282  1.00  0.00     0.261 C 
BRANCH   4   5
ATOM      5  O   UNL A   1      37.188  23.089  26.086  1.00  0.00    -0.462 OA
BRANCH   5   6
ATOM      6  C   UNL A   1      35.843  22.992  26.071  1.00  0.00     0.326 C 
ATOM      7  O   UNL A   1      35.326  21.916  26.384  1.00  0.00    -0.250 OA
BRANCH   6   8
ATOM      8  C   UNL A   1      34.967  24.078  25.447  1.00  0.00     0.249 C 
BRANCH   8   9
ATOM      9  N   UNL A   1      33.925  23.759  24.495  1.00  0.00    -0.292 N 
ATOM     10  C   UNL A   1      32.575  24.051  24.654  1.00  0.00     0.036 A 
ATOM     11  C   UNL A   1      34.314  23.499  23.188  1.00  0.00     0.308 A 
ATOM     12  C   UNL A   1      31.903  24.055  23.493  1.00  0.00     0.030 A 
ATOM     13  C   UNL A   1      31.936  24.469  25.952  1.00  0.00     0.056 C 
ATOM     14  S   UNL A   1      32.890  23.571  22.153  1.00  0.00    -0.079 S 
ATOM     15  O   UNL A   1      35.448  23.268  22.780  1.00  0.00    -0.257 OA
ATOM     16  C   UNL A   1      30.545  24.661  23.334  1.00  0.00     0.057 C 
ATOM     17  C   UNL A   1      30.502  25.012  25.783  1.00  0.00     0.015 C 
ATOM     18  C   UNL A   1      30.308  25.743  24.433  1.00  0.00     0.025 C 
BRANCH  18  19
ATOM     19  C   UNL A   1      31.179  27.001  24.270  1.00  0.00    -0.045 A 
ATOM     20  C   UNL A   1      31.878  27.238  23.075  1.00  0.00     0.004 A 
ATOM     21  C   UNL A   1      31.326  27.953  25.297  1.00  0.00     0.004 A 
ATOM     22  C   UNL A   1      32.761  28.316  22.951  1.00  0.00     0.000 A 
ATOM     23  C   UNL A   1      32.220  29.021  25.182  1.00  0.00     0.000 A 
ATOM     24  C   UNL A   1      32.949  29.194  24.012  1.00  0.00     0.000 A 
ENDBRANCH  18  19
ENDBRANCH   8   9
ENDBRANCH   6   8
ENDBRANCH   5   6
ENDBRANCH   4   5
ENDBRANCH   3   4
ENDBRANCH   2   3
ENDBRANCH   1   2
BRANCH   1  25
ATOM     25  C   UNL A   1      42.220  20.081  26.803  1.00  0.00     0.261 C 
BRANCH  25  26
ATOM     26  O   UNL A   1      42.589  20.752  25.614  1.00  0.00    -0.460 OA
BRANCH  26  27
ATOM     27  C   UNL A   1      43.911  20.852  25.396  1.00  0.00     0.338 C 
ATOM     28  O   UNL A   1      44.719  19.937  25.287  1.00  0.00    -0.246 OA
BRANCH  27  29
ATOM     29  C   UNL A   1      44.242  22.276  25.362  1.00  0.00     0.060 A 
ATOM     30  C   UNL A   1      45.167  22.696  26.314  1.00  0.00     0.016 A 
ATOM     31  C   UNL A   1      43.404  23.168  24.670  1.00  0.00     0.016 A 
ATOM     32  C   UNL A   1      45.019  23.962  26.813  1.00  0.00     0.010 A 
ATOM     33  C   UNL A   1      43.246  24.427  25.180  1.00  0.00     0.010 A 
ATOM     34  C   UNL A   1      43.975  24.751  26.317  1.00  0.00    -0.014 A 
BRANCH  34  35
ATOM     35  C   UNL A   1      43.662  25.951  27.046  1.00  0.00     0.031 A 
ATOM     36  C   UNL A   1      44.687  26.996  26.885  1.00  0.00     0.074 A 
ATOM     37  C   UNL A   1      42.518  26.074  27.741  1.00  0.00     0.049 A 
ATOM     38  N   UNL A   1      45.536  27.418  27.759  1.00  0.00    -0.248 NA
ATOM     39  C   UNL A   1      44.929  27.476  25.516  1.00  0.00     0.031 C 
ATOM     40  C   UNL A   1      41.326  25.222  27.721  1.00  0.00     0.029 A 
ATOM     41  N   UNL A   1      42.159  27.080  28.572  1.00  0.00    -0.354 N 
ATOM     42  C   UNL A   1      46.285  28.383  27.099  1.00  0.00     0.074 A 
ATOM     43  C   UNL A   1      46.013  28.227  25.693  1.00  0.00     0.031 C 
ATOM     44  C   UNL A   1      40.305  25.877  28.323  1.00  0.00     0.029 A 
ATOM     45  C   UNL A   1      40.810  27.118  28.884  1.00  0.00     0.049 A 
ATOM     46  H   UNL A   1      42.806  27.734  28.925  1.00  0.00     0.167 HD
ATOM     47  C   UNL A   1      46.887  29.400  27.767  1.00  0.00     0.037 A 
ATOM     48  C   UNL A   1      40.178  28.168  29.469  1.00  0.00     0.037 A 
ATOM     49  C   UNL A   1      47.018  29.112  29.170  1.00  0.00     0.049 A 
ATOM     50  C   UNL A   1      41.233  28.997  30.124  1.00  0.00     0.074 A 
ATOM     51  C   UNL A   1      47.688  28.136  29.887  1.00  0.00     0.029 A 
ATOM     52  N   UNL A   1      46.072  29.622  30.028  1.00  0.00    -0.354 N 
ATOM     53  N   UNL A   1      41.952  28.592  31.139  1.00  0.00    -0.248 NA
ATOM     54  C   UNL A   1      41.821  30.079  29.347  1.00  0.00     0.031 C 
ATOM     55  C   UNL A   1      46.810  27.785  30.953  1.00  0.00     0.029 A 
ATOM     56  C   UNL A   1      45.681  28.603  30.866  1.00  0.00     0.049 A 
ATOM     57  H   UNL A   1      45.736  30.546  30.041  1.00  0.00     0.167 HD
ATOM     58  C   UNL A   1      43.233  29.077  30.898  1.00  0.00     0.074 A 
ATOM     59  C   UNL A   1      43.072  30.043  29.814  1.00  0.00     0.031 C 
ATOM     60  C   UNL A   1      44.341  28.453  31.401  1.00  0.00     0.037 A 
BRANCH  47  61
ATOM     61  C   UNL A   1      47.056  30.768  27.169  1.00  0.00     0.058 A 
ATOM     62  C   UNL A   1      48.332  31.349  27.083  1.00  0.00     0.135 A 
ATOM     63  C   UNL A   1      45.968  31.625  26.878  1.00  0.00     0.135 A 
ATOM     64  F   UNL A   1      49.429  30.635  27.375  1.00  0.00    -0.206 F 
ATOM     65  C   UNL A   1      48.511  32.694  26.750  1.00  0.00     0.059 A 
ATOM     66  C   UNL A   1      46.126  32.945  26.483  1.00  0.00     0.059 A 
ATOM     67  F   UNL A   1      44.695  31.249  27.057  1.00  0.00    -0.206 F 
ATOM     68  C   UNL A   1      47.400  33.482  26.457  1.00  0.00     0.060 A 
BRANCH  68  69
ATOM     69  S   UNL A   1      47.616  35.235  26.112  1.00  0.00     0.124 S 
ATOM     70  O   UNL A   1      46.268  35.620  25.711  1.00  0.00    -0.237 OA
ATOM     71  O   UNL A   1      48.072  35.745  27.401  1.00  0.00    -0.237 OA
ATOM     72  O   UNL A   1      48.619  35.248  25.051  1.00  0.00    -0.744 OA
ENDBRANCH  68  69
ENDBRANCH  47  61
BRANCH  48  73
ATOM     73  C   UNL A   1      38.834  28.700  29.120  1.00  0.00     0.058 A 
ATOM     74  C   UNL A   1      37.841  28.866  30.101  1.00  0.00     0.135 A 
ATOM     75  C   UNL A   1      38.585  29.314  27.875  1.00  0.00     0.135 A 
ATOM     76  F   UNL A   1      38.009  28.340  31.324  1.00  0.00    -0.206 F 
ATOM     77  C   UNL A   1      36.689  29.629  29.874  1.00  0.00     0.059 A 
ATOM     78  C   UNL A   1      37.441  30.069  27.622  1.00  0.00     0.059 A 
ATOM     79  F   UNL A   1      39.493  29.275  26.888  1.00  0.00    -0.206 F 
ATOM     80  C   UNL A   1      36.508  30.243  28.635  1.00  0.00     0.060 A 
BRANCH  80  81
ATOM     81  S   UNL A   1      35.110  31.365  28.392  1.00  0.00     0.124 S 
ATOM     82  O   UNL A   1      35.698  32.400  27.549  1.00  0.00    -0.237 OA
ATOM     83  O   UNL A   1      34.130  30.498  27.747  1.00  0.00    -0.237 OA
ATOM     84  O   UNL A   1      34.770  31.783  29.749  1.00  0.00    -0.744 OA
ENDBRANCH  80  81
ENDBRANCH  48  73
BRANCH  60  85
ATOM     85  C   UNL A   1      44.138  27.360  32.425  1.00  0.00     0.058 A 
ATOM     86  C   UNL A   1      44.128  25.985  32.124  1.00  0.00     0.135 A 
ATOM     87  C   UNL A   1      44.121  27.711  33.783  1.00  0.00     0.135 A 
ATOM     88  F   UNL A   1      44.250  25.558  30.860  1.00  0.00    -0.206 F 
ATOM     89  C   UNL A   1      44.061  25.008  33.121  1.00  0.00     0.059 A 
ATOM     90  C   UNL A   1      44.087  26.754  34.797  1.00  0.00     0.059 A 
ATOM     91  F   UNL A   1      44.194  29.003  34.143  1.00  0.00    -0.206 F 
ATOM     92  C   UNL A   1      44.044  25.404  34.458  1.00  0.00     0.060 A 
BRANCH  92  93
ATOM     93  S   UNL A   1      44.042  24.141  35.751  1.00  0.00     0.124 S 
ATOM     94  O   UNL A   1      43.139  24.716  36.741  1.00  0.00    -0.237 OA
ATOM     95  O   UNL A   1      43.544  22.963  35.047  1.00  0.00    -0.237 OA
ATOM     96  O   UNL A   1      45.445  24.065  36.156  1.00  0.00    -0.744 OA
ENDBRANCH  92  93
ENDBRANCH  60  85
ENDBRANCH  34  35
ENDBRANCH  27  29
ENDBRANCH  26  27
ENDBRANCH  25  26
ENDBRANCH   1  25
TORSDOF 19
ENDMDL
MODEL 3
REMARK VINA RESULT:     -11.5      2.864      9.242
REMARK SMILES O=C(Cn1c2c(sc1=O)C[C@H](c1ccccc1)CC2)OCCOCCOC(=O)c1ccc(-c2c3nc(c(-c4c(F)cc(S(=O)(=O)[O-])cc4F)c4ccc([nH]4)c(-c4c(F)cc(S(=O)(=O)[O-])cc4F)c4nc(c(-c5c(F)cc(S(=O)(=O)[O-])cc5F)c5ccc2[nH]5)C=C4)C=C3)cc1
REMARK SMILES IDX 24 1 23 2 22 3 21 4 20 5 2 6 1 7 3 8 4 9 5 10 8 11 6 12
REMARK SMILES IDX 19 13 7 14 9 15 10 16 18 17 11 18 12 19 13 20 17 21 14 22
REMARK SMILES IDX 16 23 15 24 25 25 26 26 27 27 28 28 29 29 30 30 94 31 31 32
REMARK SMILES IDX 93 33 32 34 33 35 34 36 87 37 35 38 92 39 86 40 88 41 36 42
REMARK SMILES IDX 91 43 85 44 84 45 37 47 71 48 50 49 70 50 51 51 54 52 69 53
REMARK SMILES IDX 89 54 52 55 53 56 68 58 90 59 55 60 38 61 39 62 48 63 40 64
REMARK SMILES IDX 41 65 47 66 49 67 42 68 43 69 44 70 45 71 46 72 72 73 73 74
REMARK SMILES IDX 82 75 74 76 75 77 81 78 83 79 76 80 77 81 78 82 79 83 80 84
REMARK SMILES IDX 56 85 57 86 66 87 58 88 59 89 65 90 67 91 60 92 61 93 62 94
REMARK SMILES IDX 63 95 64 96
REMARK H PARENT 88 46 54 57
REMARK Flexibility Score: inf
ROOT
ATOM      1  C   UNL A   1      33.606  28.741  26.364  1.00  0.00     0.202 C 
ENDROOT
BRANCH   1   2
ATOM      2  O   UNL A   1      32.811  28.501  25.204  1.00  0.00    -0.374 OA
BRANCH   2   3
ATOM      3  C   UNL A   1      33.356  27.821  24.079  1.00  0.00     0.202 C 
BRANCH   3   4
ATOM      4  C   UNL A   1      33.986  26.450  24.299  1.00  0.00     0.261 C 
BRANCH   4   5
ATOM      5  O   UNL A   1      33.902  25.575  23.170  1.00  0.00    -0.462 OA
BRANCH   5   6
ATOM      6  C   UNL A   1      32.963  25.608  22.203  1.00  0.00     0.326 C 
ATOM      7  O   UNL A   1      33.265  26.085  21.105  1.00  0.00    -0.250 OA
BRANCH   6   8
ATOM      8  C   UNL A   1      31.494  25.310  22.499  1.00  0.00     0.249 C 
BRANCH   8   9
ATOM      9  N   UNL A   1      31.096  24.505  23.633  1.00  0.00    -0.292 N 
ATOM     10  C   UNL A   1      31.454  23.178  23.842  1.00  0.00     0.036 A 
ATOM     11  C   UNL A   1      30.657  25.175  24.767  1.00  0.00     0.308 A 
ATOM     12  C   UNL A   1      31.335  22.803  25.125  1.00  0.00     0.030 A 
ATOM     13  C   UNL A   1      32.057  22.279  22.795  1.00  0.00     0.056 C 
ATOM     14  S   UNL A   1      30.648  24.045  26.120  1.00  0.00    -0.079 S 
ATOM     15  O   UNL A   1      30.335  26.356  24.858  1.00  0.00    -0.257 OA
ATOM     16  C   UNL A   1      31.965  21.564  25.678  1.00  0.00     0.057 C 
ATOM     17  C   UNL A   1      32.626  20.965  23.370  1.00  0.00     0.015 C 
ATOM     18  C   UNL A   1      33.186  21.146  24.801  1.00  0.00     0.025 C 
BRANCH  18  19
ATOM     19  C   UNL A   1      34.381  22.112  24.890  1.00  0.00    -0.045 A 
ATOM     20  C   UNL A   1      35.224  22.310  23.785  1.00  0.00     0.004 A 
ATOM     21  C   UNL A   1      34.690  22.821  26.067  1.00  0.00     0.004 A 
ATOM     22  C   UNL A   1      36.377  23.096  23.883  1.00  0.00     0.000 A 
ATOM     23  C   UNL A   1      35.849  23.593  26.172  1.00  0.00     0.000 A 
ATOM     24  C   UNL A   1      36.702  23.719  25.083  1.00  0.00     0.000 A 
ENDBRANCH  18  19
ENDBRANCH   8   9
ENDBRANCH   6   8
ENDBRANCH   5   6
ENDBRANCH   4   5
ENDBRANCH   3   4
ENDBRANCH   2   3
ENDBRANCH   1   2
BRANCH   1  25
ATOM     25  C   UNL A   1      33.981  30.173  26.696  1.00  0.00     0.261 C 
BRANCH  25  26
ATOM     26  O   UNL A   1      34.705  30.188  27.912  1.00  0.00    -0.460 OA
BRANCH  26  27
ATOM     27  C   UNL A   1      35.537  31.230  28.073  1.00  0.00     0.338 C 
ATOM     28  O   UNL A   1      35.506  32.305  27.486  1.00  0.00    -0.246 OA
BRANCH  27  29
ATOM     29  C   UNL A   1      36.545  30.837  29.057  1.00  0.00     0.060 A 
ATOM     30  C   UNL A   1      37.641  31.689  29.160  1.00  0.00     0.016 A 
ATOM     31  C   UNL A   1      36.552  29.522  29.557  1.00  0.00     0.016 A 
ATOM     32  C   UNL A   1      38.849  31.118  29.461  1.00  0.00     0.010 A 
ATOM     33  C   UNL A   1      37.762  28.951  29.841  1.00  0.00     0.010 A 
ATOM     34  C   UNL A   1      38.894  29.736  29.669  1.00  0.00    -0.014 A 
BRANCH  34  35
ATOM     35  C   UNL A   1      40.196  29.123  29.697  1.00  0.00     0.031 A 
ATOM     36  C   UNL A   1      40.743  29.016  31.060  1.00  0.00     0.074 A 
ATOM     37  C   UNL A   1      40.784  28.667  28.577  1.00  0.00     0.049 A 
ATOM     38  N   UNL A   1      41.718  29.680  31.581  1.00  0.00    -0.248 NA
ATOM     39  C   UNL A   1      39.964  28.219  32.021  1.00  0.00     0.031 C 
ATOM     40  C   UNL A   1      40.208  28.465  27.245  1.00  0.00     0.029 A 
ATOM     41  N   UNL A   1      42.045  28.198  28.438  1.00  0.00    -0.354 N 
ATOM     42  C   UNL A   1      41.813  29.220  32.886  1.00  0.00     0.074 A 
ATOM     43  C   UNL A   1      40.600  28.493  33.158  1.00  0.00     0.031 C 
ATOM     44  C   UNL A   1      41.052  27.704  26.509  1.00  0.00     0.029 A 
ATOM     45  C   UNL A   1      42.273  27.490  27.269  1.00  0.00     0.049 A 
ATOM     46  H   UNL A   1      42.746  28.347  29.114  1.00  0.00     0.167 HD
ATOM     47  C   UNL A   1      42.984  29.258  33.574  1.00  0.00     0.037 A 
ATOM     48  C   UNL A   1      43.357  26.710  27.032  1.00  0.00     0.037 A 
ATOM     49  C   UNL A   1      43.918  30.179  32.984  1.00  0.00     0.049 A 
ATOM     50  C   UNL A   1      44.417  27.139  27.993  1.00  0.00     0.074 A 
ATOM     51  C   UNL A   1      43.906  31.545  32.768  1.00  0.00     0.029 A 
ATOM     52  N   UNL A   1      44.878  29.675  32.137  1.00  0.00    -0.354 N 
ATOM     53  N   UNL A   1      44.991  28.314  27.965  1.00  0.00    -0.248 NA
ATOM     54  C   UNL A   1      44.486  26.451  29.274  1.00  0.00     0.031 C 
ATOM     55  C   UNL A   1      44.504  31.726  31.487  1.00  0.00     0.029 A 
ATOM     56  C   UNL A   1      44.902  30.473  31.017  1.00  0.00     0.049 A 
ATOM     57  H   UNL A   1      45.444  28.888  32.303  1.00  0.00     0.167 HD
ATOM     58  C   UNL A   1      45.140  28.681  29.298  1.00  0.00     0.074 A 
ATOM     59  C   UNL A   1      44.872  27.462  30.058  1.00  0.00     0.031 C 
ATOM     60  C   UNL A   1      45.189  29.994  29.678  1.00  0.00     0.037 A 
BRANCH  47  61
ATOM     61  C   UNL A   1      43.356  28.215  34.588  1.00  0.00     0.058 A 
ATOM     62  C   UNL A   1      43.580  28.577  35.927  1.00  0.00     0.135 A 
ATOM     63  C   UNL A   1      43.721  26.891  34.240  1.00  0.00     0.135 A 
ATOM     64  F   UNL A   1      43.304  29.819  36.352  1.00  0.00    -0.206 F 
ATOM     65  C   UNL A   1      44.145  27.693  36.848  1.00  0.00     0.059 A 
ATOM     66  C   UNL A   1      44.223  25.977  35.153  1.00  0.00     0.059 A 
ATOM     67  F   UNL A   1      43.697  26.455  32.974  1.00  0.00    -0.206 F 
ATOM     68  C   UNL A   1      44.467  26.397  36.448  1.00  0.00     0.060 A 
BRANCH  68  69
ATOM     69  S   UNL A   1      45.273  25.281  37.606  1.00  0.00     0.124 S 
ATOM     70  O   UNL A   1      46.679  25.589  37.373  1.00  0.00    -0.237 OA
ATOM     71  O   UNL A   1      44.724  25.720  38.885  1.00  0.00    -0.237 OA
ATOM     72  O   UNL A   1      44.833  23.961  37.164  1.00  0.00    -0.744 OA
ENDBRANCH  68  69
ENDBRANCH  47  61
BRANCH  48  73
ATOM     73  C   UNL A   1      43.366  25.382  26.363  1.00  0.00     0.058 A 
ATOM     74  C   UNL A   1      44.208  25.127  25.266  1.00  0.00     0.135 A 
ATOM     75  C   UNL A   1      42.756  24.255  26.952  1.00  0.00     0.135 A 
ATOM     76  F   UNL A   1      44.852  26.137  24.662  1.00  0.00    -0.206 F 
ATOM     77  C   UNL A   1      44.461  23.828  24.806  1.00  0.00     0.059 A 
ATOM     78  C   UNL A   1      42.984  22.955  26.507  1.00  0.00     0.059 A 
ATOM     79  F   UNL A   1      41.986  24.375  28.044  1.00  0.00    -0.206 F 
ATOM     80  C   UNL A   1      43.858  22.746  25.447  1.00  0.00     0.060 A 
BRANCH  80  81
ATOM     81  S   UNL A   1      44.311  21.061  24.970  1.00  0.00     0.124 S 
ATOM     82  O   UNL A   1      43.153  20.299  25.421  1.00  0.00    -0.237 OA
ATOM     83  O   UNL A   1      44.470  21.184  23.525  1.00  0.00    -0.237 OA
ATOM     84  O   UNL A   1      45.546  20.819  25.711  1.00  0.00    -0.744 OA
ENDBRANCH  80  81
ENDBRANCH  48  73
BRANCH  60  85
ATOM     85  C   UNL A   1      45.320  31.043  28.597  1.00  0.00     0.058 A 
ATOM     86  C   UNL A   1      44.230  31.643  27.940  1.00  0.00     0.135 A 
ATOM     87  C   UNL A   1      46.590  31.578  28.335  1.00  0.00     0.135 A 
ATOM     88  F   UNL A   1      42.972  31.267  28.212  1.00  0.00    -0.206 F 
ATOM     89  C   UNL A   1      44.397  32.696  27.037  1.00  0.00     0.059 A 
ATOM     90  C   UNL A   1      46.779  32.648  27.462  1.00  0.00     0.059 A 
ATOM     91  F   UNL A   1      47.667  31.095  28.976  1.00  0.00    -0.206 F 
ATOM     92  C   UNL A   1      45.678  33.194  26.806  1.00  0.00     0.060 A 
BRANCH  92  93
ATOM     93  S   UNL A   1      45.888  34.610  25.702  1.00  0.00     0.124 S 
ATOM     94  O   UNL A   1      44.984  34.282  24.606  1.00  0.00    -0.237 OA
ATOM     95  O   UNL A   1      45.484  35.733  26.542  1.00  0.00    -0.237 OA
ATOM     96  O   UNL A   1      47.311  34.576  25.368  1.00  0.00    -0.744 OA
ENDBRANCH  92  93
ENDBRANCH  60  85
ENDBRANCH  34  35
ENDBRANCH  27  29
ENDBRANCH  26  27
ENDBRANCH  25  26
ENDBRANCH   1  25
TORSDOF 19
ENDMDL
