MODEL 1
REMARK VINA RESULT:     -10.5      0.000      0.000
REMARK SMILES O=C(C[C@H]1COCC[NH2+]1)Nc1cncc(C(=O)OCCOCCOC(=O)c2ccc(-c3c4nc(c(-c5c(F)cc(S(=O)(=O)[O-])cc5F)c5ccc([nH]5)c(-c5c(F)cc(S(=O)(=O)[O-])cc5F)c5nc(c(-c6c(F)cc(S(=O)(=O)[O-])cc6F)c6ccc3[nH]6)C=C5)C=C4)cc2)c1
REMARK SMILES IDX 21 1 20 2 19 3 18 4 16 5 17 6 15 7 11 8 12 9 93 10 13 11
REMARK SMILES IDX 14 12 10 13 1 14 2 15 3 17 4 18 5 19 9 20 6 21 8 22 7 25
REMARK SMILES IDX 22 26 23 27 24 28 25 29 26 30 27 31 28 32 92 33 29 34 91 35
REMARK SMILES IDX 30 36 31 37 32 38 85 39 33 40 90 41 84 42 86 43 34 44 89 45
REMARK SMILES IDX 83 46 82 47 35 49 69 50 48 51 68 52 49 53 52 54 67 55 87 56
REMARK SMILES IDX 50 57 51 58 66 60 88 61 53 62 36 63 37 64 46 65 38 66 39 67
REMARK SMILES IDX 45 68 47 69 40 70 41 71 42 72 43 73 44 74 70 75 71 76 80 77
REMARK SMILES IDX 72 78 73 79 79 80 81 81 74 82 75 83 76 84 77 85 78 86 54 87
REMARK SMILES IDX 55 88 64 89 56 90 57 91 63 92 65 93 58 94 59 95 60 96 61 97
REMARK SMILES IDX 62 98
REMARK H PARENT 10 16 9 23 9 24 86 48 52 59
REMARK Flexibility Score: inf
ROOT
ATOM      1  O   UNL A   1      31.844  29.736  25.216  1.00  0.00    -0.374 OA
ENDROOT
BRANCH   1   2
ATOM      2  C   UNL A   1      32.814  28.763  24.823  1.00  0.00     0.202 C 
BRANCH   2   3
ATOM      3  C   UNL A   1      32.639  28.124  23.439  1.00  0.00     0.261 C 
BRANCH   3   4
ATOM      4  O   UNL A   1      33.353  26.883  23.336  1.00  0.00    -0.460 OA
BRANCH   4   5
ATOM      5  C   UNL A   1      32.596  25.783  23.111  1.00  0.00     0.339 C 
ATOM      6  O   UNL A   1      31.922  25.534  22.124  1.00  0.00    -0.246 OA
BRANCH   5   7
ATOM      7  C   UNL A   1      32.879  24.792  24.160  1.00  0.00     0.080 A 
ATOM      8  C   UNL A   1      33.465  22.600  24.935  1.00  0.00     0.060 A 
ATOM      9  C   UNL A   1      33.134  23.028  26.220  1.00  0.00     0.137 A 
ATOM     10  C   UNL A   1      33.300  23.495  23.883  1.00  0.00     0.045 A 
ATOM     11  N   UNL A   1      32.729  24.285  26.523  1.00  0.00    -0.262 NA
ATOM     12  C   UNL A   1      32.630  25.147  25.481  1.00  0.00     0.126 A 
BRANCH   8  13
ATOM     13  N   UNL A   1      33.964  21.299  24.752  1.00  0.00    -0.324 N 
ATOM     14  O   UNL A   1      32.014  20.101  25.156  1.00  0.00    -0.274 OA
ATOM     15  C   UNL A   1      33.211  20.143  24.888  1.00  0.00     0.230 C 
ATOM     16  H   UNL A   1      34.912  21.201  24.508  1.00  0.00     0.169 HD
BRANCH  15  17
ATOM     17  C   UNL A   1      34.001  18.885  24.611  1.00  0.00     0.167 C 
BRANCH  17  18
ATOM     18  C   UNL A   1      33.229  17.802  23.824  1.00  0.00     0.218 C 
ATOM     19  C   UNL A   1      34.055  16.578  23.377  1.00  0.00     0.225 C 
ATOM     20  N   UNL A   1      32.070  17.329  24.631  1.00  0.00    -0.340 N 
ATOM     21  O   UNL A   1      34.608  15.921  24.529  1.00  0.00    -0.369 OA
ATOM     22  C   UNL A   1      32.529  16.475  25.748  1.00  0.00     0.289 C 
ATOM     23  H   UNL A   1      31.443  16.790  24.033  1.00  0.00     0.346 HD
ATOM     24  H   UNL A   1      31.582  18.138  25.014  1.00  0.00     0.346 HD
ATOM     25  C   UNL A   1      33.540  15.390  25.335  1.00  0.00     0.221 C 
ENDBRANCH  17  18
ENDBRANCH  15  17
ENDBRANCH   8  13
ENDBRANCH   5   7
ENDBRANCH   4   5
ENDBRANCH   3   4
ENDBRANCH   2   3
ENDBRANCH   1   2
BRANCH   1  26
ATOM     26  C   UNL A   1      31.964  30.293  26.524  1.00  0.00     0.202 C 
BRANCH  26  27
ATOM     27  C   UNL A   1      33.305  30.930  26.911  1.00  0.00     0.261 C 
BRANCH  27  28
ATOM     28  O   UNL A   1      34.135  30.054  27.691  1.00  0.00    -0.460 OA
BRANCH  28  29
ATOM     29  C   UNL A   1      34.988  30.702  28.521  1.00  0.00     0.338 C 
ATOM     30  O   UNL A   1      34.715  31.603  29.296  1.00  0.00    -0.246 OA
BRANCH  29  31
ATOM     31  C   UNL A   1      36.315  30.059  28.502  1.00  0.00     0.060 A 
ATOM     32  C   UNL A   1      36.771  29.509  29.706  1.00  0.00     0.016 A 
ATOM     33  C   UNL A   1      37.137  30.078  27.373  1.00  0.00     0.016 A 
ATOM     34  C   UNL A   1      38.078  29.047  29.807  1.00  0.00     0.010 A 
ATOM     35  C   UNL A   1      38.452  29.611  27.478  1.00  0.00     0.010 A 
ATOM     36  C   UNL A   1      38.944  29.137  28.709  1.00  0.00    -0.014 A 
BRANCH  36  37
ATOM     37  C   UNL A   1      40.387  28.856  28.909  1.00  0.00     0.031 A 
ATOM     38  C   UNL A   1      40.946  27.519  28.493  1.00  0.00     0.074 A 
ATOM     39  C   UNL A   1      41.203  29.810  29.395  1.00  0.00     0.049 A 
ATOM     40  N   UNL A   1      42.179  27.087  28.542  1.00  0.00    -0.248 NA
ATOM     41  C   UNL A   1      39.989  26.538  27.954  1.00  0.00     0.031 C 
ATOM     42  C   UNL A   1      40.780  31.145  29.820  1.00  0.00     0.029 A 
ATOM     43  N   UNL A   1      42.557  29.804  29.612  1.00  0.00    -0.354 N 
ATOM     44  C   UNL A   1      42.147  25.784  28.055  1.00  0.00     0.074 A 
ATOM     45  C   UNL A   1      40.766  25.486  27.741  1.00  0.00     0.031 C 
ATOM     46  C   UNL A   1      41.853  31.828  30.251  1.00  0.00     0.029 A 
ATOM     47  C   UNL A   1      43.034  30.971  30.159  1.00  0.00     0.049 A 
ATOM     48  H   UNL A   1      43.133  29.035  29.397  1.00  0.00     0.167 HD
ATOM     49  C   UNL A   1      43.175  24.921  27.879  1.00  0.00     0.037 A 
ATOM     50  C   UNL A   1      44.278  31.305  30.558  1.00  0.00     0.037 A 
ATOM     51  C   UNL A   1      44.551  25.234  28.173  1.00  0.00     0.049 A 
ATOM     52  C   UNL A   1      45.400  30.319  30.361  1.00  0.00     0.074 A 
ATOM     53  C   UNL A   1      45.672  24.445  27.980  1.00  0.00     0.029 A 
ATOM     54  N   UNL A   1      44.995  26.425  28.729  1.00  0.00    -0.354 N 
ATOM     55  N   UNL A   1      45.360  29.110  29.851  1.00  0.00    -0.248 NA
ATOM     56  C   UNL A   1      46.742  30.750  30.777  1.00  0.00     0.031 C 
ATOM     57  C   UNL A   1      46.783  25.132  28.477  1.00  0.00     0.029 A 
ATOM     58  C   UNL A   1      46.368  26.379  28.915  1.00  0.00     0.049 A 
ATOM     59  H   UNL A   1      44.420  27.190  28.959  1.00  0.00     0.167 HD
ATOM     60  C   UNL A   1      46.674  28.650  29.859  1.00  0.00     0.074 A 
ATOM     61  C   UNL A   1      47.485  29.719  30.400  1.00  0.00     0.031 C 
ATOM     62  C   UNL A   1      47.165  27.450  29.456  1.00  0.00     0.037 A 
BRANCH  49  63
ATOM     63  C   UNL A   1      42.867  23.540  27.366  1.00  0.00     0.058 A 
ATOM     64  C   UNL A   1      43.044  23.187  26.019  1.00  0.00     0.135 A 
ATOM     65  C   UNL A   1      42.469  22.530  28.258  1.00  0.00     0.135 A 
ATOM     66  F   UNL A   1      43.403  24.115  25.118  1.00  0.00    -0.206 F 
ATOM     67  C   UNL A   1      42.834  21.884  25.575  1.00  0.00     0.059 A 
ATOM     68  C   UNL A   1      42.281  21.216  27.842  1.00  0.00     0.059 A 
ATOM     69  F   UNL A   1      42.278  22.814  29.556  1.00  0.00    -0.206 F 
ATOM     70  C   UNL A   1      42.462  20.903  26.497  1.00  0.00     0.060 A 
BRANCH  70  71
ATOM     71  S   UNL A   1      42.247  19.208  25.914  1.00  0.00     0.124 S 
ATOM     72  O   UNL A   1      40.798  19.136  25.751  1.00  0.00    -0.237 OA
ATOM     73  O   UNL A   1      43.025  19.202  24.680  1.00  0.00    -0.237 OA
ATOM     74  O   UNL A   1      42.795  18.402  27.001  1.00  0.00    -0.744 OA
ENDBRANCH  70  71
ENDBRANCH  49  63
BRANCH  50  75
ATOM     75  C   UNL A   1      44.528  32.622  31.204  1.00  0.00     0.058 A 
ATOM     76  C   UNL A   1      44.423  32.793  32.593  1.00  0.00     0.135 A 
ATOM     77  C   UNL A   1      44.850  33.750  30.432  1.00  0.00     0.135 A 
ATOM     78  F   UNL A   1      44.111  31.749  33.375  1.00  0.00    -0.206 F 
ATOM     79  C   UNL A   1      44.591  34.039  33.190  1.00  0.00     0.059 A 
ATOM     80  C   UNL A   1      45.057  34.999  31.009  1.00  0.00     0.059 A 
ATOM     81  F   UNL A   1      44.978  33.641  29.101  1.00  0.00    -0.206 F 
ATOM     82  C   UNL A   1      44.907  35.137  32.387  1.00  0.00     0.060 A 
BRANCH  82  83
ATOM     83  S   UNL A   1      45.139  36.746  33.172  1.00  0.00     0.124 S 
ATOM     84  O   UNL A   1      44.795  37.656  32.085  1.00  0.00    -0.237 OA
ATOM     85  O   UNL A   1      44.193  36.687  34.280  1.00  0.00    -0.237 OA
ATOM     86  O   UNL A   1      46.547  36.730  33.559  1.00  0.00    -0.744 OA
ENDBRANCH  82  83
ENDBRANCH  50  75
BRANCH  62  87
ATOM     87  C   UNL A   1      48.656  27.252  29.544  1.00  0.00     0.058 A 
ATOM     88  C   UNL A   1      49.257  26.582  30.623  1.00  0.00     0.135 A 
ATOM     89  C   UNL A   1      49.497  27.742  28.531  1.00  0.00     0.135 A 
ATOM     90  F   UNL A   1      48.501  26.092  31.619  1.00  0.00    -0.206 F 
ATOM     91  C   UNL A   1      50.639  26.457  30.723  1.00  0.00     0.059 A 
ATOM     92  C   UNL A   1      50.880  27.594  28.592  1.00  0.00     0.059 A 
ATOM     93  F   UNL A   1      48.979  28.374  27.466  1.00  0.00    -0.206 F 
ATOM     94  C   UNL A   1      51.443  26.974  29.706  1.00  0.00     0.060 A 
BRANCH  94  95
ATOM     95  S   UNL A   1      53.235  26.829  29.859  1.00  0.00     0.124 S 
ATOM     96  O   UNL A   1      53.651  28.225  29.767  1.00  0.00    -0.237 OA
ATOM     97  O   UNL A   1      53.389  26.207  31.170  1.00  0.00    -0.237 OA
ATOM     98  O   UNL A   1      53.607  25.988  28.725  1.00  0.00    -0.744 OA
ENDBRANCH  94  95
ENDBRANCH  62  87
ENDBRANCH  36  37
ENDBRANCH  29  31
ENDBRANCH  28  29
ENDBRANCH  27  28
ENDBRANCH  26  27
ENDBRANCH   1  26
TORSDOF 20
ENDMDL
MODEL 2
REMARK VINA RESULT:     -10.4      2.265      8.529
REMARK SMILES O=C(C[C@H]1COCC[NH2+]1)Nc1cncc(C(=O)OCCOCCOC(=O)c2ccc(-c3c4nc(c(-c5c(F)cc(S(=O)(=O)[O-])cc5F)c5ccc([nH]5)c(-c5c(F)cc(S(=O)(=O)[O-])cc5F)c5nc(c(-c6c(F)cc(S(=O)(=O)[O-])cc6F)c6ccc3[nH]6)C=C5)C=C4)cc2)c1
REMARK SMILES IDX 21 1 20 2 19 3 18 4 16 5 17 6 15 7 11 8 12 9 93 10 13 11
REMARK SMILES IDX 14 12 10 13 1 14 2 15 3 17 4 18 5 19 9 20 6 21 8 22 7 25
REMARK SMILES IDX 22 26 23 27 24 28 25 29 26 30 27 31 28 32 92 33 29 34 91 35
REMARK SMILES IDX 30 36 31 37 32 38 85 39 33 40 90 41 84 42 86 43 34 44 89 45
REMARK SMILES IDX 83 46 82 47 35 49 69 50 48 51 68 52 49 53 52 54 67 55 87 56
REMARK SMILES IDX 50 57 51 58 66 60 88 61 53 62 36 63 37 64 46 65 38 66 39 67
REMARK SMILES IDX 45 68 47 69 40 70 41 71 42 72 43 73 44 74 70 75 71 76 80 77
REMARK SMILES IDX 72 78 73 79 79 80 81 81 74 82 75 83 76 84 77 85 78 86 54 87
REMARK SMILES IDX 55 88 64 89 56 90 57 91 63 92 65 93 58 94 59 95 60 96 61 97
REMARK SMILES IDX 62 98
REMARK H PARENT 10 16 9 23 9 24 86 48 52 59
REMARK Flexibility Score: inf
ROOT
ATOM      1  O   UNL A   1      33.746  30.861  26.882  1.00  0.00    -0.374 OA
ENDROOT
BRANCH   1   2
ATOM      2  C   UNL A   1      33.623  29.459  27.133  1.00  0.00     0.202 C 
BRANCH   2   3
ATOM      3  C   UNL A   1      33.843  28.516  25.943  1.00  0.00     0.261 C 
BRANCH   3   4
ATOM      4  O   UNL A   1      33.643  27.143  26.313  1.00  0.00    -0.460 OA
BRANCH   4   5
ATOM      5  C   UNL A   1      33.561  26.261  25.287  1.00  0.00     0.339 C 
ATOM      6  O   UNL A   1      34.007  26.392  24.158  1.00  0.00    -0.246 OA
BRANCH   5   7
ATOM      7  C   UNL A   1      33.034  24.988  25.800  1.00  0.00     0.080 A 
ATOM      8  C   UNL A   1      32.964  22.595  25.928  1.00  0.00     0.060 A 
ATOM      9  C   UNL A   1      31.787  22.726  26.664  1.00  0.00     0.137 A 
ATOM     10  C   UNL A   1      33.578  23.752  25.461  1.00  0.00     0.045 A 
ATOM     11  N   UNL A   1      31.238  23.913  27.017  1.00  0.00    -0.262 NA
ATOM     12  C   UNL A   1      31.891  25.022  26.591  1.00  0.00     0.126 A 
BRANCH   8  13
ATOM     13  N   UNL A   1      33.492  21.312  25.701  1.00  0.00    -0.324 N 
ATOM     14  O   UNL A   1      32.201  20.707  23.865  1.00  0.00    -0.274 OA
ATOM     15  C   UNL A   1      33.067  20.455  24.698  1.00  0.00     0.230 C 
ATOM     16  H   UNL A   1      34.214  21.002  26.293  1.00  0.00     0.169 HD
BRANCH  15  17
ATOM     17  C   UNL A   1      33.827  19.149  24.673  1.00  0.00     0.167 C 
BRANCH  17  18
ATOM     18  C   UNL A   1      33.149  18.027  23.854  1.00  0.00     0.218 C 
ATOM     19  C   UNL A   1      34.084  16.916  23.334  1.00  0.00     0.225 C 
ATOM     20  N   UNL A   1      32.067  17.402  24.665  1.00  0.00    -0.340 N 
ATOM     21  O   UNL A   1      34.732  16.270  24.442  1.00  0.00    -0.369 OA
ATOM     22  C   UNL A   1      32.641  16.553  25.732  1.00  0.00     0.289 C 
ATOM     23  H   UNL A   1      31.482  16.828  24.057  1.00  0.00     0.346 HD
ATOM     24  H   UNL A   1      31.509  18.139  25.095  1.00  0.00     0.346 HD
ATOM     25  C   UNL A   1      33.746  15.597  25.247  1.00  0.00     0.221 C 
ENDBRANCH  17  18
ENDBRANCH  15  17
ENDBRANCH   8  13
ENDBRANCH   5   7
ENDBRANCH   4   5
ENDBRANCH   3   4
ENDBRANCH   2   3
ENDBRANCH   1   2
BRANCH   1  26
ATOM     26  C   UNL A   1      34.247  31.676  27.939  1.00  0.00     0.202 C 
BRANCH  26  27
ATOM     27  C   UNL A   1      35.106  31.004  29.018  1.00  0.00     0.261 C 
BRANCH  27  28
ATOM     28  O   UNL A   1      36.150  31.858  29.512  1.00  0.00    -0.460 OA
BRANCH  28  29
ATOM     29  C   UNL A   1      36.871  31.314  30.523  1.00  0.00     0.338 C 
ATOM     30  O   UNL A   1      36.591  31.319  31.710  1.00  0.00    -0.246 OA
BRANCH  29  31
ATOM     31  C   UNL A   1      38.004  30.536  29.988  1.00  0.00     0.060 A 
ATOM     32  C   UNL A   1      38.973  30.115  30.905  1.00  0.00     0.016 A 
ATOM     33  C   UNL A   1      38.173  30.310  28.620  1.00  0.00     0.016 A 
ATOM     34  C   UNL A   1      40.153  29.535  30.452  1.00  0.00     0.010 A 
ATOM     35  C   UNL A   1      39.361  29.724  28.167  1.00  0.00     0.010 A 
ATOM     36  C   UNL A   1      40.377  29.377  29.078  1.00  0.00    -0.014 A 
BRANCH  36  37
ATOM     37  C   UNL A   1      41.728  28.975  28.613  1.00  0.00     0.031 A 
ATOM     38  C   UNL A   1      42.826  30.006  28.546  1.00  0.00     0.074 A 
ATOM     39  C   UNL A   1      41.989  27.687  28.320  1.00  0.00     0.049 A 
ATOM     40  N   UNL A   1      44.081  29.857  28.211  1.00  0.00    -0.248 NA
ATOM     41  C   UNL A   1      42.462  31.388  28.901  1.00  0.00     0.031 C 
ATOM     42  C   UNL A   1      41.012  26.599  28.361  1.00  0.00     0.029 A 
ATOM     43  N   UNL A   1      43.154  27.076  27.932  1.00  0.00    -0.354 N 
ATOM     44  C   UNL A   1      44.653  31.122  28.299  1.00  0.00     0.074 A 
ATOM     45  C   UNL A   1      43.600  32.033  28.695  1.00  0.00     0.031 C 
ATOM     46  C   UNL A   1      41.617  25.453  28.006  1.00  0.00     0.029 A 
ATOM     47  C   UNL A   1      43.017  25.730  27.688  1.00  0.00     0.049 A 
ATOM     48  H   UNL A   1      44.008  27.557  27.837  1.00  0.00     0.167 HD
ATOM     49  C   UNL A   1      45.938  31.487  28.079  1.00  0.00     0.037 A 
ATOM     50  C   UNL A   1      43.912  24.828  27.241  1.00  0.00     0.037 A 
ATOM     51  C   UNL A   1      46.985  30.569  27.707  1.00  0.00     0.049 A 
ATOM     52  C   UNL A   1      45.333  25.266  26.992  1.00  0.00     0.074 A 
ATOM     53  C   UNL A   1      48.330  30.834  27.512  1.00  0.00     0.029 A 
ATOM     54  N   UNL A   1      46.808  29.215  27.465  1.00  0.00    -0.354 N 
ATOM     55  N   UNL A   1      45.869  26.457  27.131  1.00  0.00    -0.248 NA
ATOM     56  C   UNL A   1      46.277  24.233  26.544  1.00  0.00     0.031 C 
ATOM     57  C   UNL A   1      48.952  29.655  27.091  1.00  0.00     0.029 A 
ATOM     58  C   UNL A   1      48.012  28.638  27.093  1.00  0.00     0.049 A 
ATOM     59  H   UNL A   1      45.952  28.734  27.546  1.00  0.00     0.167 HD
ATOM     60  C   UNL A   1      47.216  26.307  26.814  1.00  0.00     0.074 A 
ATOM     61  C   UNL A   1      47.416  24.908  26.503  1.00  0.00     0.031 C 
ATOM     62  C   UNL A   1      48.199  27.243  26.784  1.00  0.00     0.037 A 
BRANCH  49  63
ATOM     63  C   UNL A   1      46.297  32.943  28.207  1.00  0.00     0.058 A 
ATOM     64  C   UNL A   1      46.760  33.495  29.411  1.00  0.00     0.135 A 
ATOM     65  C   UNL A   1      46.258  33.780  27.078  1.00  0.00     0.135 A 
ATOM     66  F   UNL A   1      46.800  32.749  30.526  1.00  0.00    -0.206 F 
ATOM     67  C   UNL A   1      47.168  34.824  29.493  1.00  0.00     0.059 A 
ATOM     68  C   UNL A   1      46.687  35.102  27.129  1.00  0.00     0.059 A 
ATOM     69  F   UNL A   1      45.817  33.306  25.902  1.00  0.00    -0.206 F 
ATOM     70  C   UNL A   1      47.137  35.617  28.343  1.00  0.00     0.060 A 
BRANCH  70  71
ATOM     71  S   UNL A   1      47.719  37.322  28.454  1.00  0.00     0.124 S 
ATOM     72  O   UNL A   1      47.000  37.802  29.631  1.00  0.00    -0.237 OA
ATOM     73  O   UNL A   1      49.159  37.149  28.618  1.00  0.00    -0.237 OA
ATOM     74  O   UNL A   1      47.302  37.908  27.184  1.00  0.00    -0.744 OA
ENDBRANCH  70  71
ENDBRANCH  49  63
BRANCH  50  75
ATOM     75  C   UNL A   1      43.493  23.425  26.976  1.00  0.00     0.058 A 
ATOM     76  C   UNL A   1      43.226  22.969  25.676  1.00  0.00     0.135 A 
ATOM     77  C   UNL A   1      43.321  22.516  28.033  1.00  0.00     0.135 A 
ATOM     78  F   UNL A   1      43.367  23.799  24.633  1.00  0.00    -0.206 F 
ATOM     79  C   UNL A   1      42.769  21.677  25.436  1.00  0.00     0.059 A 
ATOM     80  C   UNL A   1      42.899  21.208  27.815  1.00  0.00     0.059 A 
ATOM     81  F   UNL A   1      43.578  22.894  29.295  1.00  0.00    -0.206 F 
ATOM     82  C   UNL A   1      42.607  20.804  26.515  1.00  0.00     0.060 A 
BRANCH  82  83
ATOM     83  S   UNL A   1      42.029  19.124  26.192  1.00  0.00     0.124 S 
ATOM     84  O   UNL A   1      40.639  19.358  25.819  1.00  0.00    -0.237 OA
ATOM     85  O   UNL A   1      42.916  18.696  25.116  1.00  0.00    -0.237 OA
ATOM     86  O   UNL A   1      42.236  18.448  27.469  1.00  0.00    -0.744 OA
ENDBRANCH  82  83
ENDBRANCH  50  75
BRANCH  62  87
ATOM     87  C   UNL A   1      49.588  26.771  26.444  1.00  0.00     0.058 A 
ATOM     88  C   UNL A   1      50.100  26.837  25.138  1.00  0.00     0.135 A 
ATOM     89  C   UNL A   1      50.422  26.242  27.444  1.00  0.00     0.135 A 
ATOM     90  F   UNL A   1      49.349  27.335  24.142  1.00  0.00    -0.206 F 
ATOM     91  C   UNL A   1      51.363  26.344  24.824  1.00  0.00     0.059 A 
ATOM     92  C   UNL A   1      51.703  25.778  27.160  1.00  0.00     0.059 A 
ATOM     93  F   UNL A   1      49.995  26.171  28.715  1.00  0.00    -0.206 F 
ATOM     94  C   UNL A   1      52.154  25.808  25.842  1.00  0.00     0.060 A 
BRANCH  94  95
ATOM     95  S   UNL A   1      53.779  25.148  25.420  1.00  0.00     0.124 S 
ATOM     96  O   UNL A   1      54.602  25.682  26.500  1.00  0.00    -0.237 OA
ATOM     97  O   UNL A   1      53.550  23.707  25.451  1.00  0.00    -0.237 OA
ATOM     98  O   UNL A   1      54.041  25.707  24.097  1.00  0.00    -0.744 OA
ENDBRANCH  94  95
ENDBRANCH  62  87
ENDBRANCH  36  37
ENDBRANCH  29  31
ENDBRANCH  28  29
ENDBRANCH  27  28
ENDBRANCH  26  27
ENDBRANCH   1  26
TORSDOF 20
ENDMDL
MODEL 3
REMARK VINA RESULT:     -10.4      5.178     10.749
REMARK SMILES O=C(C[C@H]1COCC[NH2+]1)Nc1cncc(C(=O)OCCOCCOC(=O)c2ccc(-c3c4nc(c(-c5c(F)cc(S(=O)(=O)[O-])cc5F)c5ccc([nH]5)c(-c5c(F)cc(S(=O)(=O)[O-])cc5F)c5nc(c(-c6c(F)cc(S(=O)(=O)[O-])cc6F)c6ccc3[nH]6)C=C5)C=C4)cc2)c1
REMARK SMILES IDX 21 1 20 2 19 3 18 4 16 5 17 6 15 7 11 8 12 9 93 10 13 11
REMARK SMILES IDX 14 12 10 13 1 14 2 15 3 17 4 18 5 19 9 20 6 21 8 22 7 25
REMARK SMILES IDX 22 26 23 27 24 28 25 29 26 30 27 31 28 32 92 33 29 34 91 35
REMARK SMILES IDX 30 36 31 37 32 38 85 39 33 40 90 41 84 42 86 43 34 44 89 45
REMARK SMILES IDX 83 46 82 47 35 49 69 50 48 51 68 52 49 53 52 54 67 55 87 56
REMARK SMILES IDX 50 57 51 58 66 60 88 61 53 62 36 63 37 64 46 65 38 66 39 67
REMARK SMILES IDX 45 68 47 69 40 70 41 71 42 72 43 73 44 74 70 75 71 76 80 77
REMARK SMILES IDX 72 78 73 79 79 80 81 81 74 82 75 83 76 84 77 85 78 86 54 87
REMARK SMILES IDX 55 88 64 89 56 90 57 91 63 92 65 93 58 94 59 95 60 96 61 97
REMARK SMILES IDX 62 98
REMARK H PARENT 10 16 9 23 9 24 86 48 52 59
REMARK Flexibility Score: inf
ROOT
ATOM      1  O   UNL A   1      42.785  21.215  25.686  1.00  0.00    -0.374 OA
ENDROOT
BRANCH   1   2
ATOM      2  C   UNL A   1      41.681  20.435  26.148  1.00  0.00     0.202 C 
BRANCH   2   3
ATOM      3  C   UNL A   1      40.549  21.184  26.863  1.00  0.00     0.261 C 
BRANCH   3   4
ATOM      4  O   UNL A   1      39.375  21.279  26.041  1.00  0.00    -0.460 OA
BRANCH   4   5
ATOM      5  C   UNL A   1      38.691  22.446  26.120  1.00  0.00     0.339 C 
ATOM      6  O   UNL A   1      39.132  23.546  26.412  1.00  0.00    -0.246 OA
BRANCH   5   7
ATOM      7  C   UNL A   1      37.342  22.241  25.574  1.00  0.00     0.080 A 
ATOM      8  C   UNL A   1      35.138  22.972  24.978  1.00  0.00     0.060 A 
ATOM      9  C   UNL A   1      34.815  21.633  24.758  1.00  0.00     0.137 A 
ATOM     10  C   UNL A   1      36.419  23.272  25.427  1.00  0.00     0.045 A 
ATOM     11  N   UNL A   1      35.692  20.608  24.885  1.00  0.00    -0.262 NA
ATOM     12  C   UNL A   1      36.947  20.942  25.272  1.00  0.00     0.126 A 
BRANCH   8  13
ATOM     13  N   UNL A   1      34.172  23.961  24.725  1.00  0.00    -0.324 N 
ATOM     14  O   UNL A   1      34.528  24.247  22.447  1.00  0.00    -0.274 OA
ATOM     15  C   UNL A   1      33.944  24.537  23.486  1.00  0.00     0.230 C 
ATOM     16  H   UNL A   1      33.618  24.264  25.480  1.00  0.00     0.169 HD
BRANCH  15  17
ATOM     17  C   UNL A   1      32.829  25.557  23.503  1.00  0.00     0.167 C 
BRANCH  17  18
ATOM     18  C   UNL A   1      32.676  26.319  24.839  1.00  0.00     0.218 C 
ATOM     19  C   UNL A   1      33.326  27.717  24.895  1.00  0.00     0.225 C 
ATOM     20  N   UNL A   1      31.230  26.449  25.176  1.00  0.00    -0.340 N 
ATOM     21  O   UNL A   1      32.750  28.560  23.883  1.00  0.00    -0.369 OA
ATOM     22  C   UNL A   1      30.580  27.448  24.300  1.00  0.00     0.289 C 
ATOM     23  H   UNL A   1      31.138  26.745  26.148  1.00  0.00     0.346 HD
ATOM     24  H   UNL A   1      30.777  25.546  25.039  1.00  0.00     0.346 HD
ATOM     25  C   UNL A   1      31.357  28.772  24.174  1.00  0.00     0.221 C 
ENDBRANCH  17  18
ENDBRANCH  15  17
ENDBRANCH   8  13
ENDBRANCH   5   7
ENDBRANCH   4   5
ENDBRANCH   3   4
ENDBRANCH   2   3
ENDBRANCH   1   2
BRANCH   1  26
ATOM     26  C   UNL A   1      42.540  22.589  25.388  1.00  0.00     0.202 C 
BRANCH  26  27
ATOM     27  C   UNL A   1      43.206  23.646  26.278  1.00  0.00     0.261 C 
BRANCH  27  28
ATOM     28  O   UNL A   1      43.274  24.938  25.654  1.00  0.00    -0.460 OA
BRANCH  28  29
ATOM     29  C   UNL A   1      42.152  25.682  25.810  1.00  0.00     0.338 C 
ATOM     30  O   UNL A   1      41.198  25.739  25.052  1.00  0.00    -0.246 OA
BRANCH  29  31
ATOM     31  C   UNL A   1      42.137  26.321  27.139  1.00  0.00     0.060 A 
ATOM     32  C   UNL A   1      41.056  26.020  27.975  1.00  0.00     0.016 A 
ATOM     33  C   UNL A   1      43.093  27.265  27.522  1.00  0.00     0.016 A 
ATOM     34  C   UNL A   1      40.883  26.718  29.165  1.00  0.00     0.010 A 
ATOM     35  C   UNL A   1      42.917  27.965  28.722  1.00  0.00     0.010 A 
ATOM     36  C   UNL A   1      41.786  27.729  29.525  1.00  0.00    -0.014 A 
BRANCH  36  37
ATOM     37  C   UNL A   1      41.453  28.610  30.672  1.00  0.00     0.031 A 
ATOM     38  C   UNL A   1      42.265  28.516  31.939  1.00  0.00     0.074 A 
ATOM     39  C   UNL A   1      40.479  29.532  30.559  1.00  0.00     0.049 A 
ATOM     40  N   UNL A   1      42.169  29.220  33.037  1.00  0.00    -0.248 NA
ATOM     41  C   UNL A   1      43.325  27.494  31.974  1.00  0.00     0.031 C 
ATOM     42  C   UNL A   1      39.634  29.726  29.380  1.00  0.00     0.029 A 
ATOM     43  N   UNL A   1      40.036  30.480  31.447  1.00  0.00    -0.354 N 
ATOM     44  C   UNL A   1      43.141  28.719  33.898  1.00  0.00     0.074 A 
ATOM     45  C   UNL A   1      43.799  27.633  33.203  1.00  0.00     0.031 C 
ATOM     46  C   UNL A   1      38.771  30.727  29.619  1.00  0.00     0.029 A 
ATOM     47  C   UNL A   1      38.983  31.227  30.976  1.00  0.00     0.049 A 
ATOM     48  H   UNL A   1      40.435  30.611  32.337  1.00  0.00     0.167 HD
ATOM     49  C   UNL A   1      43.459  29.132  35.147  1.00  0.00     0.037 A 
ATOM     50  C   UNL A   1      38.260  32.193  31.577  1.00  0.00     0.037 A 
ATOM     51  C   UNL A   1      42.813  30.229  35.823  1.00  0.00     0.049 A 
ATOM     52  C   UNL A   1      38.629  32.624  32.973  1.00  0.00     0.074 A 
ATOM     53  C   UNL A   1      43.099  30.758  37.070  1.00  0.00     0.029 A 
ATOM     54  N   UNL A   1      41.749  30.961  35.316  1.00  0.00    -0.354 N 
ATOM     55  N   UNL A   1      39.585  32.175  33.753  1.00  0.00    -0.248 NA
ATOM     56  C   UNL A   1      37.833  33.709  33.565  1.00  0.00     0.031 C 
ATOM     57  C   UNL A   1      42.169  31.765  37.343  1.00  0.00     0.029 A 
ATOM     58  C   UNL A   1      41.347  31.914  36.238  1.00  0.00     0.049 A 
ATOM     59  H   UNL A   1      41.339  30.822  34.432  1.00  0.00     0.167 HD
ATOM     60  C   UNL A   1      39.521  32.940  34.914  1.00  0.00     0.074 A 
ATOM     61  C   UNL A   1      38.451  33.896  34.721  1.00  0.00     0.031 C 
ATOM     62  C   UNL A   1      40.279  32.860  36.037  1.00  0.00     0.037 A 
BRANCH  49  63
ATOM     63  C   UNL A   1      44.537  28.391  35.890  1.00  0.00     0.058 A 
ATOM     64  C   UNL A   1      45.891  28.752  35.800  1.00  0.00     0.135 A 
ATOM     65  C   UNL A   1      44.197  27.354  36.776  1.00  0.00     0.135 A 
ATOM     66  F   UNL A   1      46.278  29.721  34.955  1.00  0.00    -0.206 F 
ATOM     67  C   UNL A   1      46.867  28.110  36.558  1.00  0.00     0.059 A 
ATOM     68  C   UNL A   1      45.151  26.718  37.564  1.00  0.00     0.059 A 
ATOM     69  F   UNL A   1      42.918  26.963  36.897  1.00  0.00    -0.206 F 
ATOM     70  C   UNL A   1      46.485  27.101  37.444  1.00  0.00     0.060 A 
BRANCH  70  71
ATOM     71  S   UNL A   1      47.757  26.316  38.458  1.00  0.00     0.124 S 
ATOM     72  O   UNL A   1      48.833  27.300  38.393  1.00  0.00    -0.237 OA
ATOM     73  O   UNL A   1      47.090  26.190  39.750  1.00  0.00    -0.237 OA
ATOM     74  O   UNL A   1      48.017  25.058  37.765  1.00  0.00    -0.744 OA
ENDBRANCH  70  71
ENDBRANCH  49  63
BRANCH  50  75
ATOM     75  C   UNL A   1      37.099  32.806  30.874  1.00  0.00     0.058 A 
ATOM     76  C   UNL A   1      37.270  33.802  29.901  1.00  0.00     0.135 A 
ATOM     77  C   UNL A   1      35.785  32.421  31.190  1.00  0.00     0.135 A 
ATOM     78  F   UNL A   1      38.503  34.209  29.569  1.00  0.00    -0.206 F 
ATOM     79  C   UNL A   1      36.182  34.421  29.293  1.00  0.00     0.059 A 
ATOM     80  C   UNL A   1      34.683  33.002  30.570  1.00  0.00     0.059 A 
ATOM     81  F   UNL A   1      35.565  31.462  32.102  1.00  0.00    -0.206 F 
ATOM     82  C   UNL A   1      34.891  34.014  29.637  1.00  0.00     0.060 A 
BRANCH  82  83
ATOM     83  S   UNL A   1      33.487  34.813  28.831  1.00  0.00     0.124 S 
ATOM     84  O   UNL A   1      33.157  33.846  27.789  1.00  0.00    -0.237 OA
ATOM     85  O   UNL A   1      32.529  34.926  29.925  1.00  0.00    -0.237 OA
ATOM     86  O   UNL A   1      34.044  36.079  28.364  1.00  0.00    -0.744 OA
ENDBRANCH  82  83
ENDBRANCH  50  75
BRANCH  62  87
ATOM     87  C   UNL A   1      40.004  33.864  37.125  1.00  0.00     0.058 A 
ATOM     88  C   UNL A   1      39.171  33.571  38.218  1.00  0.00     0.135 A 
ATOM     89  C   UNL A   1      40.585  35.143  37.074  1.00  0.00     0.135 A 
ATOM     90  F   UNL A   1      38.590  32.365  38.319  1.00  0.00    -0.206 F 
ATOM     91  C   UNL A   1      38.877  34.525  39.186  1.00  0.00     0.059 A 
ATOM     92  C   UNL A   1      40.336  36.101  38.053  1.00  0.00     0.059 A 
ATOM     93  F   UNL A   1      41.406  35.474  36.065  1.00  0.00    -0.206 F 
ATOM     94  C   UNL A   1      39.459  35.791  39.090  1.00  0.00     0.060 A 
BRANCH  94  95
ATOM     95  S   UNL A   1      39.050  37.030  40.337  1.00  0.00     0.124 S 
ATOM     96  O   UNL A   1      38.481  38.095  39.518  1.00  0.00    -0.237 OA
ATOM     97  O   UNL A   1      38.107  36.316  41.192  1.00  0.00    -0.237 OA
ATOM     98  O   UNL A   1      40.339  37.332  40.952  1.00  0.00    -0.744 OA
ENDBRANCH  94  95
ENDBRANCH  62  87
ENDBRANCH  36  37
ENDBRANCH  29  31
ENDBRANCH  28  29
ENDBRANCH  27  28
ENDBRANCH  26  27
ENDBRANCH   1  26
TORSDOF 20
ENDMDL
