MODEL 1
REMARK VINA RESULT:     -11.5      0.000      0.000
REMARK SMILES CC(C)(C)c1ccc(OCC(=O)NNC(=O)[C@H]2[C@@H](C(=O)OCCOCCOC(=O)c3ccc(-c4c5nc(c(-c6c(F)cc(S(=O)(=O)[O-])cc6F)c6ccc([nH]6)c(-c6c(F)cc(S(=O)(=O)[O-])cc6F)c6nc(c(-c7c(F)cc(S(=O)(=O)[O-])cc7F)c7ccc4[nH]7)C=C6)C=C5)cc3)[C@@H]3C=C[C@H]2C3)cc1
REMARK SMILES IDX 22 1 21 2 19 3 20 4 18 5 17 6 99 7 96 8 98 9 100 10 97 11
REMARK SMILES IDX 15 12 14 13 16 15 13 16 11 17 12 18 10 20 9 21 8 22 5 23
REMARK SMILES IDX 6 24 102 25 7 26 101 27 2 28 1 29 3 30 4 31 23 32 24 33
REMARK SMILES IDX 25 34 26 35 27 36 28 37 29 38 30 39 31 40 95 41 32 42 94 43
REMARK SMILES IDX 33 44 34 45 35 46 88 47 36 48 93 49 87 50 89 51 37 52 92 53
REMARK SMILES IDX 86 54 85 55 38 57 72 58 51 59 71 60 52 61 55 62 70 63 90 64
REMARK SMILES IDX 53 65 54 66 69 68 91 69 56 70 39 71 40 72 49 73 41 74 42 75
REMARK SMILES IDX 48 76 50 77 43 78 44 79 45 80 46 81 47 82 73 83 74 84 83 85
REMARK SMILES IDX 75 86 76 87 82 88 84 89 77 90 78 91 79 92 80 93 81 94 57 95
REMARK SMILES IDX 58 96 67 97 59 98 60 99 66 100 68 101 61 102 62 103 63 104
REMARK SMILES IDX 64 105 65 106
REMARK H PARENT 14 14 13 19 89 56 55 67
REMARK Flexibility Score: inf
ROOT
ATOM      1  C   UNL A   1      33.511  28.271  26.094  1.00  0.00     0.261 C 
ENDROOT
BRANCH   1   2
ATOM      2  O   UNL A   1      32.279  27.997  25.404  1.00  0.00    -0.463 OA
BRANCH   2   3
ATOM      3  C   UNL A   1      31.987  28.816  24.359  1.00  0.00     0.310 C 
ATOM      4  O   UNL A   1      32.809  29.318  23.601  1.00  0.00    -0.252 OA
BRANCH   3   5
ATOM      5  C   UNL A   1      30.499  29.037  24.187  1.00  0.00     0.119 C 
ATOM      6  C   UNL A   1      29.660  27.951  23.422  1.00  0.00     0.102 C 
ATOM      7  C   UNL A   1      28.921  28.820  22.360  1.00  0.00     0.025 C 
ATOM      8  C   UNL A   1      30.158  30.344  23.426  1.00  0.00     0.027 C 
ATOM      9  C   UNL A   1      27.966  29.740  23.096  1.00  0.00    -0.027 C 
ATOM     10  C   UNL A   1      29.985  29.853  21.986  1.00  0.00     0.017 C 
ATOM     11  C   UNL A   1      28.708  30.662  23.726  1.00  0.00    -0.027 C 
BRANCH   6  12
ATOM     12  C   UNL A   1      30.436  26.777  22.827  1.00  0.00     0.242 C 
ATOM     13  N   UNL A   1      30.411  25.563  23.454  1.00  0.00    -0.267 N 
ATOM     14  H   UNL A   1      30.758  24.792  22.953  1.00  0.00     0.191 HD
ATOM     15  O   UNL A   1      31.172  26.878  21.848  1.00  0.00    -0.273 OA
BRANCH  13  16
ATOM     16  N   UNL A   1      29.940  25.325  24.734  1.00  0.00    -0.265 N 
ATOM     17  C   UNL A   1      30.740  24.862  25.753  1.00  0.00     0.276 C 
ATOM     18  O   UNL A   1      30.266  24.745  26.885  1.00  0.00    -0.269 OA
ATOM     19  H   UNL A   1      28.989  25.493  24.924  1.00  0.00     0.191 HD
BRANCH  17  20
ATOM     20  C   UNL A   1      32.216  24.563  25.452  1.00  0.00     0.331 C 
BRANCH  20  21
ATOM     21  O   UNL A   1      32.481  23.909  24.219  1.00  0.00    -0.484 OA
BRANCH  21  22
ATOM     22  C   UNL A   1      32.762  22.571  24.261  1.00  0.00     0.120 A 
ATOM     23  C   UNL A   1      33.124  19.751  24.166  1.00  0.00    -0.042 A 
ATOM     24  C   UNL A   1      32.328  20.415  23.221  1.00  0.00     0.008 A 
ATOM     25  C   UNL A   1      33.744  20.545  25.147  1.00  0.00     0.008 A 
ATOM     26  C   UNL A   1      32.148  21.804  23.272  1.00  0.00     0.047 A 
ATOM     27  C   UNL A   1      33.575  21.933  25.191  1.00  0.00     0.047 A 
BRANCH  23  28
ATOM     28  C   UNL A   1      33.329  18.227  24.169  1.00  0.00    -0.013 C 
ATOM     29  C   UNL A   1      32.498  17.582  25.299  1.00  0.00     0.016 C 
ATOM     30  C   UNL A   1      34.794  17.791  24.379  1.00  0.00     0.016 C 
ATOM     31  C   UNL A   1      32.868  17.658  22.810  1.00  0.00     0.016 C 
ENDBRANCH  23  28
ENDBRANCH  21  22
ENDBRANCH  20  21
ENDBRANCH  17  20
ENDBRANCH  13  16
ENDBRANCH   6  12
ENDBRANCH   3   5
ENDBRANCH   2   3
ENDBRANCH   1   2
BRANCH   1  32
ATOM     32  C   UNL A   1      33.324  29.340  27.170  1.00  0.00     0.202 C 
BRANCH  32  33
ATOM     33  O   UNL A   1      34.519  29.908  27.707  1.00  0.00    -0.374 OA
BRANCH  33  34
ATOM     34  C   UNL A   1      34.686  31.318  27.579  1.00  0.00     0.202 C 
BRANCH  34  35
ATOM     35  C   UNL A   1      33.414  32.172  27.659  1.00  0.00     0.261 C 
BRANCH  35  36
ATOM     36  O   UNL A   1      33.646  33.566  27.383  1.00  0.00    -0.460 OA
BRANCH  36  37
ATOM     37  C   UNL A   1      33.520  34.371  28.465  1.00  0.00     0.338 C 
ATOM     38  O   UNL A   1      32.582  35.124  28.714  1.00  0.00    -0.246 OA
BRANCH  37  39
ATOM     39  C   UNL A   1      34.608  34.150  29.432  1.00  0.00     0.060 A 
ATOM     40  C   UNL A   1      35.916  34.389  28.992  1.00  0.00     0.016 A 
ATOM     41  C   UNL A   1      34.378  33.588  30.690  1.00  0.00     0.016 A 
ATOM     42  C   UNL A   1      37.001  33.995  29.770  1.00  0.00     0.010 A 
ATOM     43  C   UNL A   1      35.472  33.185  31.469  1.00  0.00     0.010 A 
ATOM     44  C   UNL A   1      36.786  33.341  30.990  1.00  0.00    -0.014 A 
BRANCH  44  45
ATOM     45  C   UNL A   1      37.928  32.660  31.651  1.00  0.00     0.031 A 
ATOM     46  C   UNL A   1      38.385  33.151  33.001  1.00  0.00     0.074 A 
ATOM     47  C   UNL A   1      38.506  31.580  31.096  1.00  0.00     0.049 A 
ATOM     48  N   UNL A   1      39.338  32.691  33.772  1.00  0.00    -0.248 NA
ATOM     49  C   UNL A   1      37.669  34.311  33.558  1.00  0.00     0.031 C 
ATOM     50  C   UNL A   1      38.126  30.981  29.819  1.00  0.00     0.029 A 
ATOM     51  N   UNL A   1      39.536  30.791  31.545  1.00  0.00    -0.354 N 
ATOM     52  C   UNL A   1      39.335  33.503  34.901  1.00  0.00     0.074 A 
ATOM     53  C   UNL A   1      38.312  34.506  34.699  1.00  0.00     0.031 C 
ATOM     54  C   UNL A   1      38.924  29.925  29.578  1.00  0.00     0.029 A 
ATOM     55  C   UNL A   1      39.874  29.779  30.679  1.00  0.00     0.049 A 
ATOM     56  H   UNL A   1      39.990  30.937  32.406  1.00  0.00     0.167 HD
ATOM     57  C   UNL A   1      40.103  33.414  36.014  1.00  0.00     0.037 A 
ATOM     58  C   UNL A   1      40.842  28.845  30.764  1.00  0.00     0.037 A 
ATOM     59  C   UNL A   1      41.114  32.411  36.220  1.00  0.00     0.049 A 
ATOM     60  C   UNL A   1      41.716  28.791  31.990  1.00  0.00     0.074 A 
ATOM     61  C   UNL A   1      41.938  32.232  37.318  1.00  0.00     0.029 A 
ATOM     62  N   UNL A   1      41.439  31.415  35.311  1.00  0.00    -0.354 N 
ATOM     63  N   UNL A   1      41.688  29.555  33.056  1.00  0.00    -0.248 NA
ATOM     64  C   UNL A   1      42.742  27.739  32.031  1.00  0.00     0.031 C 
ATOM     65  C   UNL A   1      42.787  31.150  37.056  1.00  0.00     0.029 A 
ATOM     66  C   UNL A   1      42.462  30.629  35.814  1.00  0.00     0.049 A 
ATOM     67  H   UNL A   1      41.005  31.287  34.436  1.00  0.00     0.167 HD
ATOM     68  C   UNL A   1      42.672  29.058  33.906  1.00  0.00     0.074 A 
ATOM     69  C   UNL A   1      43.272  27.924  33.233  1.00  0.00     0.031 C 
ATOM     70  C   UNL A   1      43.042  29.497  35.136  1.00  0.00     0.037 A 
BRANCH  57  71
ATOM     71  C   UNL A   1      39.891  34.445  37.087  1.00  0.00     0.058 A 
ATOM     72  C   UNL A   1      38.912  34.287  38.080  1.00  0.00     0.135 A 
ATOM     73  C   UNL A   1      40.692  35.597  37.134  1.00  0.00     0.135 A 
ATOM     74  F   UNL A   1      38.107  33.212  38.069  1.00  0.00    -0.206 F 
ATOM     75  C   UNL A   1      38.716  35.247  39.068  1.00  0.00     0.059 A 
ATOM     76  C   UNL A   1      40.531  36.559  38.127  1.00  0.00     0.059 A 
ATOM     77  F   UNL A   1      41.641  35.799  36.207  1.00  0.00    -0.206 F 
ATOM     78  C   UNL A   1      39.529  36.382  39.080  1.00  0.00     0.060 A 
BRANCH  78  79
ATOM     79  S   UNL A   1      39.264  37.623  40.364  1.00  0.00     0.124 S 
ATOM     80  O   UNL A   1      38.995  36.784  41.528  1.00  0.00    -0.237 OA
ATOM     81  O   UNL A   1      40.537  38.337  40.379  1.00  0.00    -0.237 OA
ATOM     82  O   UNL A   1      38.125  38.388  39.867  1.00  0.00    -0.744 OA
ENDBRANCH  78  79
ENDBRANCH  57  71
BRANCH  58  83
ATOM     83  C   UNL A   1      41.034  27.877  29.651  1.00  0.00     0.058 A 
ATOM     84  C   UNL A   1      42.139  27.964  28.792  1.00  0.00     0.135 A 
ATOM     85  C   UNL A   1      40.112  26.843  29.430  1.00  0.00     0.135 A 
ATOM     86  F   UNL A   1      43.041  28.942  28.958  1.00  0.00    -0.206 F 
ATOM     87  C   UNL A   1      42.319  27.066  27.745  1.00  0.00     0.059 A 
ATOM     88  C   UNL A   1      40.282  25.919  28.404  1.00  0.00     0.059 A 
ATOM     89  F   UNL A   1      39.042  26.713  30.231  1.00  0.00    -0.206 F 
ATOM     90  C   UNL A   1      41.385  26.044  27.560  1.00  0.00     0.060 A 
BRANCH  90  91
ATOM     91  S   UNL A   1      41.654  24.850  26.233  1.00  0.00     0.124 S 
ATOM     92  O   UNL A   1      40.754  23.770  26.621  1.00  0.00    -0.237 OA
ATOM     93  O   UNL A   1      41.264  25.611  25.050  1.00  0.00    -0.237 OA
ATOM     94  O   UNL A   1      43.080  24.552  26.333  1.00  0.00    -0.744 OA
ENDBRANCH  90  91
ENDBRANCH  58  83
BRANCH  70  95
ATOM     95  C   UNL A   1      44.117  28.730  35.853  1.00  0.00     0.058 A 
ATOM     96  C   UNL A   1      45.473  29.069  35.728  1.00  0.00     0.135 A 
ATOM     97  C   UNL A   1      43.781  27.674  36.715  1.00  0.00     0.135 A 
ATOM     98  F   UNL A   1      45.848  30.068  34.915  1.00  0.00    -0.206 F 
ATOM     99  C   UNL A   1      46.462  28.370  36.415  1.00  0.00     0.059 A 
ATOM    100  C   UNL A   1      44.750  26.976  37.429  1.00  0.00     0.059 A 
ATOM    101  F   UNL A   1      42.496  27.317  36.879  1.00  0.00    -0.206 F 
ATOM    102  C   UNL A   1      46.090  27.324  37.262  1.00  0.00     0.060 A 
BRANCH 102 103
ATOM    103  S   UNL A   1      47.378  26.439  38.168  1.00  0.00     0.124 S 
ATOM    104  O   UNL A   1      46.840  25.084  38.195  1.00  0.00    -0.237 OA
ATOM    105  O   UNL A   1      48.552  26.639  37.322  1.00  0.00    -0.237 OA
ATOM    106  O   UNL A   1      47.419  27.127  39.456  1.00  0.00    -0.744 OA
ENDBRANCH 102 103
ENDBRANCH  70  95
ENDBRANCH  44  45
ENDBRANCH  37  39
ENDBRANCH  36  37
ENDBRANCH  35  36
ENDBRANCH  34  35
ENDBRANCH  33  34
ENDBRANCH  32  33
ENDBRANCH   1  32
TORSDOF 23
ENDMDL
MODEL 2
REMARK VINA RESULT:     -10.6      4.803      9.368
REMARK SMILES CC(C)(C)c1ccc(OCC(=O)NNC(=O)[C@H]2[C@@H](C(=O)OCCOCCOC(=O)c3ccc(-c4c5nc(c(-c6c(F)cc(S(=O)(=O)[O-])cc6F)c6ccc([nH]6)c(-c6c(F)cc(S(=O)(=O)[O-])cc6F)c6nc(c(-c7c(F)cc(S(=O)(=O)[O-])cc7F)c7ccc4[nH]7)C=C6)C=C5)cc3)[C@@H]3C=C[C@H]2C3)cc1
REMARK SMILES IDX 22 1 21 2 19 3 20 4 18 5 17 6 99 7 96 8 98 9 100 10 97 11
REMARK SMILES IDX 15 12 14 13 16 15 13 16 11 17 12 18 10 20 9 21 8 22 5 23
REMARK SMILES IDX 6 24 102 25 7 26 101 27 2 28 1 29 3 30 4 31 23 32 24 33
REMARK SMILES IDX 25 34 26 35 27 36 28 37 29 38 30 39 31 40 95 41 32 42 94 43
REMARK SMILES IDX 33 44 34 45 35 46 88 47 36 48 93 49 87 50 89 51 37 52 92 53
REMARK SMILES IDX 86 54 85 55 38 57 72 58 51 59 71 60 52 61 55 62 70 63 90 64
REMARK SMILES IDX 53 65 54 66 69 68 91 69 56 70 39 71 40 72 49 73 41 74 42 75
REMARK SMILES IDX 48 76 50 77 43 78 44 79 45 80 46 81 47 82 73 83 74 84 83 85
REMARK SMILES IDX 75 86 76 87 82 88 84 89 77 90 78 91 79 92 80 93 81 94 57 95
REMARK SMILES IDX 58 96 67 97 59 98 60 99 66 100 68 101 61 102 62 103 63 104
REMARK SMILES IDX 64 105 65 106
REMARK H PARENT 14 14 13 19 89 56 55 67
REMARK Flexibility Score: inf
ROOT
ATOM      1  C   UNL A   1      33.991  25.729  25.687  1.00  0.00     0.261 C 
ENDROOT
BRANCH   1   2
ATOM      2  O   UNL A   1      32.723  26.399  25.572  1.00  0.00    -0.463 OA
BRANCH   2   3
ATOM      3  C   UNL A   1      32.707  27.514  24.795  1.00  0.00     0.310 C 
ATOM      4  O   UNL A   1      33.694  28.056  24.312  1.00  0.00    -0.252 OA
BRANCH   3   5
ATOM      5  C   UNL A   1      31.305  28.029  24.540  1.00  0.00     0.119 C 
ATOM      6  C   UNL A   1      30.270  27.079  23.839  1.00  0.00     0.102 C 
ATOM      7  C   UNL A   1      29.760  27.980  22.673  1.00  0.00     0.025 C 
ATOM      8  C   UNL A   1      31.273  29.300  23.652  1.00  0.00     0.027 C 
ATOM      9  C   UNL A   1      29.010  29.149  23.283  1.00  0.00    -0.027 C 
ATOM     10  C   UNL A   1      31.031  28.722  22.256  1.00  0.00     0.017 C 
ATOM     11  C   UNL A   1      29.920  29.947  23.861  1.00  0.00    -0.027 C 
BRANCH   6  12
ATOM     12  C   UNL A   1      30.787  25.715  23.384  1.00  0.00     0.242 C 
ATOM     13  N   UNL A   1      30.651  24.632  24.206  1.00  0.00    -0.267 N 
ATOM     14  H   UNL A   1      30.819  23.746  23.812  1.00  0.00     0.191 HD
ATOM     15  O   UNL A   1      31.414  25.542  22.341  1.00  0.00    -0.273 OA
BRANCH  13  16
ATOM     16  N   UNL A   1      30.297  24.673  25.544  1.00  0.00    -0.265 N 
ATOM     17  C   UNL A   1      30.234  23.550  26.337  1.00  0.00     0.276 C 
ATOM     18  O   UNL A   1      29.986  23.674  27.537  1.00  0.00    -0.269 OA
ATOM     19  H   UNL A   1      30.082  25.544  25.947  1.00  0.00     0.191 HD
BRANCH  17  20
ATOM     20  C   UNL A   1      30.535  22.183  25.702  1.00  0.00     0.331 C 
BRANCH  20  21
ATOM     21  O   UNL A   1      31.772  22.074  25.012  1.00  0.00    -0.484 OA
BRANCH  21  22
ATOM     22  C   UNL A   1      32.250  20.816  24.768  1.00  0.00     0.120 A 
ATOM     23  C   UNL A   1      33.340  18.199  24.535  1.00  0.00    -0.042 A 
ATOM     24  C   UNL A   1      33.160  18.803  25.788  1.00  0.00     0.008 A 
ATOM     25  C   UNL A   1      32.941  18.938  23.407  1.00  0.00     0.008 A 
ATOM     26  C   UNL A   1      32.627  20.094  25.900  1.00  0.00     0.047 A 
ATOM     27  C   UNL A   1      32.396  20.222  23.520  1.00  0.00     0.047 A 
BRANCH  23  28
ATOM     28  C   UNL A   1      33.947  16.797  24.358  1.00  0.00    -0.013 C 
ATOM     29  C   UNL A   1      32.974  15.726  24.895  1.00  0.00     0.016 C 
ATOM     30  C   UNL A   1      35.291  16.598  25.090  1.00  0.00     0.016 C 
ATOM     31  C   UNL A   1      34.200  16.549  22.854  1.00  0.00     0.016 C 
ENDBRANCH  23  28
ENDBRANCH  21  22
ENDBRANCH  20  21
ENDBRANCH  17  20
ENDBRANCH  13  16
ENDBRANCH   6  12
ENDBRANCH   3   5
ENDBRANCH   2   3
ENDBRANCH   1   2
BRANCH   1  32
ATOM     32  C   UNL A   1      34.183  24.700  24.574  1.00  0.00     0.202 C 
BRANCH  32  33
ATOM     33  O   UNL A   1      34.762  23.454  24.962  1.00  0.00    -0.374 OA
BRANCH  33  34
ATOM     34  C   UNL A   1      36.146  23.262  24.682  1.00  0.00     0.202 C 
BRANCH  34  35
ATOM     35  C   UNL A   1      37.074  23.072  25.888  1.00  0.00     0.261 C 
BRANCH  35  36
ATOM     36  O   UNL A   1      38.206  23.962  25.883  1.00  0.00    -0.460 OA
BRANCH  36  37
ATOM     37  C   UNL A   1      39.270  23.507  26.587  1.00  0.00     0.338 C 
ATOM     38  O   UNL A   1      39.540  22.334  26.832  1.00  0.00    -0.246 OA
BRANCH  37  39
ATOM     39  C   UNL A   1      40.193  24.601  26.936  1.00  0.00     0.060 A 
ATOM     40  C   UNL A   1      40.705  24.615  28.239  1.00  0.00     0.016 A 
ATOM     41  C   UNL A   1      40.444  25.664  26.066  1.00  0.00     0.016 A 
ATOM     42  C   UNL A   1      41.402  25.727  28.705  1.00  0.00     0.010 A 
ATOM     43  C   UNL A   1      41.139  26.785  26.540  1.00  0.00     0.010 A 
ATOM     44  C   UNL A   1      41.577  26.842  27.876  1.00  0.00    -0.014 A 
BRANCH  44  45
ATOM     45  C   UNL A   1      42.040  28.118  28.476  1.00  0.00     0.031 A 
ATOM     46  C   UNL A   1      43.519  28.411  28.512  1.00  0.00     0.074 A 
ATOM     47  C   UNL A   1      41.162  29.035  28.919  1.00  0.00     0.049 A 
ATOM     48  N   UNL A   1      44.145  29.470  28.959  1.00  0.00    -0.248 NA
ATOM     49  C   UNL A   1      44.409  27.373  27.965  1.00  0.00     0.031 C 
ATOM     50  C   UNL A   1      39.708  28.892  28.899  1.00  0.00     0.029 A 
ATOM     51  N   UNL A   1      41.370  30.275  29.471  1.00  0.00    -0.354 N 
ATOM     52  C   UNL A   1      45.498  29.226  28.748  1.00  0.00     0.074 A 
ATOM     53  C   UNL A   1      45.605  27.906  28.167  1.00  0.00     0.031 C 
ATOM     54  C   UNL A   1      39.153  29.996  29.428  1.00  0.00     0.029 A 
ATOM     55  C   UNL A   1      40.212  30.919  29.832  1.00  0.00     0.049 A 
ATOM     56  H   UNL A   1      42.265  30.666  29.596  1.00  0.00     0.167 HD
ATOM     57  C   UNL A   1      46.555  30.034  29.000  1.00  0.00     0.037 A 
ATOM     58  C   UNL A   1      40.027  32.116  30.425  1.00  0.00     0.037 A 
ATOM     59  C   UNL A   1      46.450  31.352  29.569  1.00  0.00     0.049 A 
ATOM     60  C   UNL A   1      41.221  32.981  30.738  1.00  0.00     0.074 A 
ATOM     61  C   UNL A   1      47.463  32.252  29.853  1.00  0.00     0.029 A 
ATOM     62  N   UNL A   1      45.260  31.961  29.939  1.00  0.00    -0.354 N 
ATOM     63  N   UNL A   1      42.492  32.743  30.516  1.00  0.00    -0.248 NA
ATOM     64  C   UNL A   1      40.954  34.282  31.369  1.00  0.00     0.031 C 
ATOM     65  C   UNL A   1      46.888  33.390  30.429  1.00  0.00     0.029 A 
ATOM     66  C   UNL A   1      45.513  33.217  30.465  1.00  0.00     0.049 A 
ATOM     67  H   UNL A   1      44.366  31.559  29.842  1.00  0.00     0.167 HD
ATOM     68  C   UNL A   1      43.173  33.876  30.953  1.00  0.00     0.074 A 
ATOM     69  C   UNL A   1      42.173  34.801  31.446  1.00  0.00     0.031 C 
ATOM     70  C   UNL A   1      44.506  34.131  30.941  1.00  0.00     0.037 A 
BRANCH  57  71
ATOM     71  C   UNL A   1      47.925  29.503  28.679  1.00  0.00     0.058 A 
ATOM     72  C   UNL A   1      48.507  29.677  27.414  1.00  0.00     0.135 A 
ATOM     73  C   UNL A   1      48.674  28.830  29.658  1.00  0.00     0.135 A 
ATOM     74  F   UNL A   1      47.826  30.298  26.438  1.00  0.00    -0.206 F 
ATOM     75  C   UNL A   1      49.772  29.179  27.121  1.00  0.00     0.059 A 
ATOM     76  C   UNL A   1      49.951  28.344  29.395  1.00  0.00     0.059 A 
ATOM     77  F   UNL A   1      48.163  28.634  30.884  1.00  0.00    -0.206 F 
ATOM     78  C   UNL A   1      50.485  28.511  28.118  1.00  0.00     0.060 A 
BRANCH  78  79
ATOM     79  S   UNL A   1      52.125  27.865  27.725  1.00  0.00     0.124 S 
ATOM     80  O   UNL A   1      52.522  27.283  29.004  1.00  0.00    -0.237 OA
ATOM     81  O   UNL A   1      51.840  26.912  26.657  1.00  0.00    -0.237 OA
ATOM     82  O   UNL A   1      52.869  29.053  27.319  1.00  0.00    -0.744 OA
ENDBRANCH  78  79
ENDBRANCH  57  71
BRANCH  58  83
ATOM     83  C   UNL A   1      38.651  32.571  30.759  1.00  0.00     0.058 A 
ATOM     84  C   UNL A   1      37.908  33.359  29.868  1.00  0.00     0.135 A 
ATOM     85  C   UNL A   1      38.054  32.221  31.980  1.00  0.00     0.135 A 
ATOM     86  F   UNL A   1      38.441  33.727  28.694  1.00  0.00    -0.206 F 
ATOM     87  C   UNL A   1      36.624  33.793  30.179  1.00  0.00     0.059 A 
ATOM     88  C   UNL A   1      36.763  32.625  32.304  1.00  0.00     0.059 A 
ATOM     89  F   UNL A   1      38.723  31.462  32.862  1.00  0.00    -0.206 F 
ATOM     90  C   UNL A   1      36.058  33.418  31.400  1.00  0.00     0.060 A 
BRANCH  90  91
ATOM     91  S   UNL A   1      34.370  33.941  31.773  1.00  0.00     0.124 S 
ATOM     92  O   UNL A   1      34.603  35.127  32.588  1.00  0.00    -0.237 OA
ATOM     93  O   UNL A   1      33.820  34.179  30.442  1.00  0.00    -0.237 OA
ATOM     94  O   UNL A   1      33.810  32.790  32.475  1.00  0.00    -0.744 OA
ENDBRANCH  90  91
ENDBRANCH  58  83
BRANCH  70  95
ATOM     95  C   UNL A   1      44.961  35.473  31.440  1.00  0.00     0.058 A 
ATOM     96  C   UNL A   1      45.084  36.577  30.581  1.00  0.00     0.135 A 
ATOM     97  C   UNL A   1      45.231  35.670  32.804  1.00  0.00     0.135 A 
ATOM     98  F   UNL A   1      44.840  36.441  29.268  1.00  0.00    -0.206 F 
ATOM     99  C   UNL A   1      45.482  37.823  31.054  1.00  0.00     0.059 A 
ATOM    100  C   UNL A   1      45.609  36.913  33.302  1.00  0.00     0.059 A 
ATOM    101  F   UNL A   1      45.118  34.650  33.669  1.00  0.00    -0.206 F 
ATOM    102  C   UNL A   1      45.744  37.981  32.416  1.00  0.00     0.060 A 
BRANCH 102 103
ATOM    103  S   UNL A   1      46.236  39.609  33.024  1.00  0.00     0.124 S 
ATOM    104  O   UNL A   1      46.763  40.228  31.814  1.00  0.00    -0.237 OA
ATOM    105  O   UNL A   1      44.975  40.155  33.518  1.00  0.00    -0.237 OA
ATOM    106  O   UNL A   1      47.223  39.301  34.055  1.00  0.00    -0.744 OA
ENDBRANCH 102 103
ENDBRANCH  70  95
ENDBRANCH  44  45
ENDBRANCH  37  39
ENDBRANCH  36  37
ENDBRANCH  35  36
ENDBRANCH  34  35
ENDBRANCH  33  34
ENDBRANCH  32  33
ENDBRANCH   1  32
TORSDOF 23
ENDMDL
MODEL 3
REMARK VINA RESULT:     -10.4      5.818     10.532
REMARK SMILES CC(C)(C)c1ccc(OCC(=O)NNC(=O)[C@H]2[C@@H](C(=O)OCCOCCOC(=O)c3ccc(-c4c5nc(c(-c6c(F)cc(S(=O)(=O)[O-])cc6F)c6ccc([nH]6)c(-c6c(F)cc(S(=O)(=O)[O-])cc6F)c6nc(c(-c7c(F)cc(S(=O)(=O)[O-])cc7F)c7ccc4[nH]7)C=C6)C=C5)cc3)[C@@H]3C=C[C@H]2C3)cc1
REMARK SMILES IDX 22 1 21 2 19 3 20 4 18 5 17 6 99 7 96 8 98 9 100 10 97 11
REMARK SMILES IDX 15 12 14 13 16 15 13 16 11 17 12 18 10 20 9 21 8 22 5 23
REMARK SMILES IDX 6 24 102 25 7 26 101 27 2 28 1 29 3 30 4 31 23 32 24 33
REMARK SMILES IDX 25 34 26 35 27 36 28 37 29 38 30 39 31 40 95 41 32 42 94 43
REMARK SMILES IDX 33 44 34 45 35 46 88 47 36 48 93 49 87 50 89 51 37 52 92 53
REMARK SMILES IDX 86 54 85 55 38 57 72 58 51 59 71 60 52 61 55 62 70 63 90 64
REMARK SMILES IDX 53 65 54 66 69 68 91 69 56 70 39 71 40 72 49 73 41 74 42 75
REMARK SMILES IDX 48 76 50 77 43 78 44 79 45 80 46 81 47 82 73 83 74 84 83 85
REMARK SMILES IDX 75 86 76 87 82 88 84 89 77 90 78 91 79 92 80 93 81 94 57 95
REMARK SMILES IDX 58 96 67 97 59 98 60 99 66 100 68 101 61 102 62 103 63 104
REMARK SMILES IDX 64 105 65 106
REMARK H PARENT 14 14 13 19 89 56 55 67
REMARK Flexibility Score: inf
ROOT
ATOM      1  C   UNL A   1      34.255  31.461  27.671  1.00  0.00     0.261 C 
ENDROOT
BRANCH   1   2
ATOM      2  O   UNL A   1      33.211  30.640  27.116  1.00  0.00    -0.463 OA
BRANCH   2   3
ATOM      3  C   UNL A   1      33.612  29.470  26.554  1.00  0.00     0.310 C 
ATOM      4  O   UNL A   1      34.432  28.695  27.034  1.00  0.00    -0.252 OA
BRANCH   3   5
ATOM      5  C   UNL A   1      32.905  29.177  25.246  1.00  0.00     0.119 C 
ATOM      6  C   UNL A   1      31.694  28.176  25.252  1.00  0.00     0.102 C 
ATOM      7  C   UNL A   1      32.106  27.182  24.125  1.00  0.00     0.025 C 
ATOM      8  C   UNL A   1      33.843  28.586  24.162  1.00  0.00     0.027 C 
ATOM      9  C   UNL A   1      32.100  27.942  22.811  1.00  0.00    -0.027 C 
ATOM     10  C   UNL A   1      33.620  27.080  24.317  1.00  0.00     0.017 C 
ATOM     11  C   UNL A   1      33.150  28.776  22.830  1.00  0.00    -0.027 C 
BRANCH   6  12
ATOM     12  C   UNL A   1      31.370  27.498  26.583  1.00  0.00     0.242 C 
ATOM     13  N   UNL A   1      31.136  26.153  26.617  1.00  0.00    -0.267 N 
ATOM     14  H   UNL A   1      31.119  25.722  27.501  1.00  0.00     0.191 HD
ATOM     15  O   UNL A   1      31.212  28.113  27.636  1.00  0.00    -0.273 OA
BRANCH  13  16
ATOM     16  N   UNL A   1      30.921  25.342  25.515  1.00  0.00    -0.265 N 
ATOM     17  C   UNL A   1      30.760  23.979  25.608  1.00  0.00     0.276 C 
ATOM     18  O   UNL A   1      30.497  23.333  24.592  1.00  0.00    -0.269 OA
ATOM     19  H   UNL A   1      30.881  25.760  24.625  1.00  0.00     0.191 HD
BRANCH  17  20
ATOM     20  C   UNL A   1      30.858  23.319  26.992  1.00  0.00     0.331 C 
BRANCH  20  21
ATOM     21  O   UNL A   1      31.690  22.170  27.078  1.00  0.00    -0.484 OA
BRANCH  21  22
ATOM     22  C   UNL A   1      32.952  22.265  26.560  1.00  0.00     0.120 A 
ATOM     23  C   UNL A   1      35.533  22.200  25.365  1.00  0.00    -0.042 A 
ATOM     24  C   UNL A   1      34.528  21.302  24.976  1.00  0.00     0.008 A 
ATOM     25  C   UNL A   1      35.199  23.140  26.356  1.00  0.00     0.008 A 
ATOM     26  C   UNL A   1      33.259  21.333  25.569  1.00  0.00     0.047 A 
ATOM     27  C   UNL A   1      33.927  23.180  26.939  1.00  0.00     0.047 A 
BRANCH  23  28
ATOM     28  C   UNL A   1      36.949  22.187  24.766  1.00  0.00    -0.013 C 
ATOM     29  C   UNL A   1      37.460  20.735  24.642  1.00  0.00     0.016 C 
ATOM     30  C   UNL A   1      37.990  22.965  25.598  1.00  0.00     0.016 C 
ATOM     31  C   UNL A   1      36.903  22.832  23.363  1.00  0.00     0.016 C 
ENDBRANCH  23  28
ENDBRANCH  21  22
ENDBRANCH  20  21
ENDBRANCH  17  20
ENDBRANCH  13  16
ENDBRANCH   6  12
ENDBRANCH   3   5
ENDBRANCH   2   3
ENDBRANCH   1   2
BRANCH   1  32
ATOM     32  C   UNL A   1      33.704  32.785  28.200  1.00  0.00     0.202 C 
BRANCH  32  33
ATOM     33  O   UNL A   1      34.415  33.372  29.289  1.00  0.00    -0.374 OA
BRANCH  33  34
ATOM     34  C   UNL A   1      35.626  32.740  29.695  1.00  0.00     0.202 C 
BRANCH  34  35
ATOM     35  C   UNL A   1      35.505  31.629  30.746  1.00  0.00     0.261 C 
BRANCH  35  36
ATOM     36  O   UNL A   1      36.135  30.397  30.349  1.00  0.00    -0.460 OA
BRANCH  36  37
ATOM     37  C   UNL A   1      37.000  29.899  31.265  1.00  0.00     0.338 C 
ATOM     38  O   UNL A   1      36.713  29.271  32.280  1.00  0.00    -0.246 OA
BRANCH  37  39
ATOM     39  C   UNL A   1      38.399  30.075  30.837  1.00  0.00     0.060 A 
ATOM     40  C   UNL A   1      38.645  30.136  29.459  1.00  0.00     0.016 A 
ATOM     41  C   UNL A   1      39.461  30.039  31.743  1.00  0.00     0.016 A 
ATOM     42  C   UNL A   1      39.949  30.079  28.977  1.00  0.00     0.010 A 
ATOM     43  C   UNL A   1      40.773  29.975  31.255  1.00  0.00     0.010 A 
ATOM     44  C   UNL A   1      41.020  29.944  29.870  1.00  0.00    -0.014 A 
BRANCH  44  45
ATOM     45  C   UNL A   1      42.357  29.578  29.338  1.00  0.00     0.031 A 
ATOM     46  C   UNL A   1      42.579  28.176  28.830  1.00  0.00     0.074 A 
ATOM     47  C   UNL A   1      43.339  30.492  29.241  1.00  0.00     0.049 A 
ATOM     48  N   UNL A   1      43.651  27.646  28.298  1.00  0.00    -0.248 NA
ATOM     49  C   UNL A   1      41.439  27.250  28.931  1.00  0.00     0.031 C 
ATOM     50  C   UNL A   1      43.235  31.890  29.655  1.00  0.00     0.029 A 
ATOM     51  N   UNL A   1      44.618  30.378  28.758  1.00  0.00    -0.354 N 
ATOM     52  C   UNL A   1      43.315  26.330  28.001  1.00  0.00     0.074 A 
ATOM     53  C   UNL A   1      41.953  26.130  28.446  1.00  0.00     0.031 C 
ATOM     54  C   UNL A   1      44.410  32.502  29.420  1.00  0.00     0.029 A 
ATOM     55  C   UNL A   1      45.348  31.538  28.849  1.00  0.00     0.049 A 
ATOM     56  H   UNL A   1      44.979  29.542  28.381  1.00  0.00     0.167 HD
ATOM     57  C   UNL A   1      44.066  25.376  27.399  1.00  0.00     0.037 A 
ATOM     58  C   UNL A   1      46.629  31.793  28.513  1.00  0.00     0.037 A 
ATOM     59  C   UNL A   1      45.417  25.576  26.947  1.00  0.00     0.049 A 
ATOM     60  C   UNL A   1      47.462  30.705  27.885  1.00  0.00     0.074 A 
ATOM     61  C   UNL A   1      46.258  24.674  26.317  1.00  0.00     0.029 A 
ATOM     62  N   UNL A   1      46.127  26.760  27.076  1.00  0.00    -0.354 N 
ATOM     63  N   UNL A   1      47.123  29.470  27.596  1.00  0.00    -0.248 NA
ATOM     64  C   UNL A   1      48.845  31.048  27.526  1.00  0.00     0.031 C 
ATOM     65  C   UNL A   1      47.488  25.303  26.098  1.00  0.00     0.029 A 
ATOM     66  C   UNL A   1      47.401  26.609  26.553  1.00  0.00     0.049 A 
ATOM     67  H   UNL A   1      45.777  27.587  27.479  1.00  0.00     0.167 HD
ATOM     68  C   UNL A   1      48.241  28.900  26.994  1.00  0.00     0.074 A 
ATOM     69  C   UNL A   1      49.263  29.925  26.956  1.00  0.00     0.031 C 
ATOM     70  C   UNL A   1      48.405  27.642  26.512  1.00  0.00     0.037 A 
BRANCH  57  71
ATOM     71  C   UNL A   1      43.444  24.020  27.213  1.00  0.00     0.058 A 
ATOM     72  C   UNL A   1      42.861  23.635  25.996  1.00  0.00     0.135 A 
ATOM     73  C   UNL A   1      43.451  23.085  28.261  1.00  0.00     0.135 A 
ATOM     74  F   UNL A   1      42.812  24.499  24.969  1.00  0.00    -0.206 F 
ATOM     75  C   UNL A   1      42.282  22.381  25.830  1.00  0.00     0.059 A 
ATOM     76  C   UNL A   1      42.900  21.815  28.110  1.00  0.00     0.059 A 
ATOM     77  F   UNL A   1      43.994  23.402  29.447  1.00  0.00    -0.206 F 
ATOM     78  C   UNL A   1      42.304  21.479  26.895  1.00  0.00     0.060 A 
BRANCH  78  79
ATOM     79  S   UNL A   1      41.547  19.855  26.671  1.00  0.00     0.124 S 
ATOM     80  O   UNL A   1      42.141  19.104  27.773  1.00  0.00    -0.237 OA
ATOM     81  O   UNL A   1      40.124  20.151  26.802  1.00  0.00    -0.237 OA
ATOM     82  O   UNL A   1      41.982  19.460  25.336  1.00  0.00    -0.744 OA
ENDBRANCH  78  79
ENDBRANCH  57  71
BRANCH  58  83
ATOM     83  C   UNL A   1      47.204  33.141  28.761  1.00  0.00     0.058 A 
ATOM     84  C   UNL A   1      46.961  34.209  27.884  1.00  0.00     0.135 A 
ATOM     85  C   UNL A   1      48.007  33.386  29.886  1.00  0.00     0.135 A 
ATOM     86  F   UNL A   1      46.209  34.021  26.791  1.00  0.00    -0.206 F 
ATOM     87  C   UNL A   1      47.503  35.471  28.108  1.00  0.00     0.059 A 
ATOM     88  C   UNL A   1      48.542  34.644  30.142  1.00  0.00     0.059 A 
ATOM     89  F   UNL A   1      48.262  32.398  30.758  1.00  0.00    -0.206 F 
ATOM     90  C   UNL A   1      48.291  35.679  29.242  1.00  0.00     0.060 A 
BRANCH  90  91
ATOM     91  S   UNL A   1      48.946  37.333  29.554  1.00  0.00     0.124 S 
ATOM     92  O   UNL A   1      50.020  37.414  28.571  1.00  0.00    -0.237 OA
ATOM     93  O   UNL A   1      47.784  38.178  29.300  1.00  0.00    -0.237 OA
ATOM     94  O   UNL A   1      49.370  37.268  30.949  1.00  0.00    -0.744 OA
ENDBRANCH  90  91
ENDBRANCH  58  83
BRANCH  70  95
ATOM     95  C   UNL A   1      49.720  27.312  25.865  1.00  0.00     0.058 A 
ATOM     96  C   UNL A   1      50.828  26.891  26.618  1.00  0.00     0.135 A 
ATOM     97  C   UNL A   1      49.859  27.371  24.469  1.00  0.00     0.135 A 
ATOM     98  F   UNL A   1      50.748  26.820  27.955  1.00  0.00    -0.206 F 
ATOM     99  C   UNL A   1      52.035  26.563  26.009  1.00  0.00     0.059 A 
ATOM    100  C   UNL A   1      51.051  27.026  23.838  1.00  0.00     0.059 A 
ATOM    101  F   UNL A   1      48.827  27.757  23.702  1.00  0.00    -0.206 F 
ATOM    102  C   UNL A   1      52.138  26.635  24.619  1.00  0.00     0.060 A 
BRANCH 102 103
ATOM    103  S   UNL A   1      53.701  26.183  23.837  1.00  0.00     0.124 S 
ATOM    104  O   UNL A   1      54.496  27.387  24.051  1.00  0.00    -0.237 OA
ATOM    105  O   UNL A   1      54.110  25.009  24.605  1.00  0.00    -0.237 OA
ATOM    106  O   UNL A   1      53.323  25.915  22.453  1.00  0.00    -0.744 OA
ENDBRANCH 102 103
ENDBRANCH  70  95
ENDBRANCH  44  45
ENDBRANCH  37  39
ENDBRANCH  36  37
ENDBRANCH  35  36
ENDBRANCH  34  35
ENDBRANCH  33  34
ENDBRANCH  32  33
ENDBRANCH   1  32
TORSDOF 23
ENDMDL
