MODEL 1
REMARK VINA RESULT:     -10.6      0.000      0.000
REMARK SMILES CC(C)(C)OC(=O)N1CCN(N[C@@H](C(=O)OCCOCCOC(=O)c2ccc(-c3c4nc(c(-c5c(F)cc(S(=O)(=O)[O-])cc5F)c5ccc([nH]5)c(-c5c(F)cc(S(=O)(=O)[O-])cc5F)c5nc(c(-c6c(F)cc(S(=O)(=O)[O-])cc6F)c6ccc3[nH]6)C=C5)C=C4)cc2)c2ccccc2Cl)CC1
REMARK SMILES IDX 18 1 17 2 16 3 14 4 15 5 13 6 12 7 11 9 6 10 7 11 8 12 9 13
REMARK SMILES IDX 99 14 10 15 98 16 5 17 2 18 1 19 3 20 4 21 91 22 92 23 96 24
REMARK SMILES IDX 93 25 95 26 97 27 94 28 19 29 20 30 21 31 22 32 23 33 24 34
REMARK SMILES IDX 25 35 26 36 90 37 27 38 89 39 28 40 29 41 30 42 83 43 31 44
REMARK SMILES IDX 88 45 82 46 84 47 32 48 87 49 81 50 80 51 33 53 67 54 46 55
REMARK SMILES IDX 66 56 47 57 50 58 65 59 85 60 48 61 49 62 64 64 86 65 51 66
REMARK SMILES IDX 34 67 35 68 44 69 36 70 37 71 43 72 45 73 38 74 39 75 40 76
REMARK SMILES IDX 41 77 42 78 68 79 69 80 78 81 70 82 71 83 77 84 79 85 72 86
REMARK SMILES IDX 73 87 74 88 75 89 76 90 52 91 53 92 62 93 54 94 55 95 61 96
REMARK SMILES IDX 63 97 56 98 57 99 58 100 59 101 60 102
REMARK H PARENT 12 8 84 52 50 63
REMARK Flexibility Score: inf
ROOT
ATOM      1  C   UNL A   1      36.554  23.463  24.734  1.00  0.00     0.202 C 
ENDROOT
BRANCH   1   2
ATOM      2  C   UNL A   1      35.751  23.414  23.434  1.00  0.00     0.261 C 
BRANCH   2   3
ATOM      3  O   UNL A   1      34.612  24.282  23.546  1.00  0.00    -0.462 OA
BRANCH   3   4
ATOM      4  C   UNL A   1      33.522  23.965  22.804  1.00  0.00     0.329 C 
ATOM      5  O   UNL A   1      33.504  24.025  21.576  1.00  0.00    -0.250 OA
BRANCH   4   6
ATOM      6  C   UNL A   1      32.296  23.501  23.636  1.00  0.00     0.211 C 
BRANCH   6   7
ATOM      7  N   UNL A   1      31.813  24.420  24.725  1.00  0.00    -0.237 NA
ATOM      8  H   UNL A   1      31.818  23.900  25.603  1.00  0.00     0.143 HD
BRANCH   7   9
ATOM      9  N   UNL A   1      30.458  24.969  24.526  1.00  0.00    -0.240 NA
ATOM     10  C   UNL A   1      30.525  29.173  23.768  1.00  0.00     0.410 C 
ATOM     11  O   UNL A   1      30.803  30.001  24.628  1.00  0.00    -0.224 OA
ATOM     12  N   UNL A   1      30.787  27.831  23.918  1.00  0.00    -0.306 N 
ATOM     13  C   UNL A   1      31.005  27.314  25.256  1.00  0.00     0.140 C 
ATOM     14  C   UNL A   1      30.956  26.865  22.835  1.00  0.00     0.140 C 
ATOM     15  C   UNL A   1      30.138  26.068  25.467  1.00  0.00     0.124 C 
ATOM     16  C   UNL A   1      30.310  25.488  23.134  1.00  0.00     0.124 C 
BRANCH  10  17
ATOM     17  O   UNL A   1      29.852  29.451  22.623  1.00  0.00    -0.444 OA
BRANCH  17  18
ATOM     18  C   UNL A   1      28.471  29.902  22.694  1.00  0.00     0.106 C 
ATOM     19  C   UNL A   1      28.113  30.333  21.263  1.00  0.00     0.056 C 
ATOM     20  C   UNL A   1      28.373  31.112  23.625  1.00  0.00     0.056 C 
ATOM     21  C   UNL A   1      27.482  28.793  23.100  1.00  0.00     0.056 C 
ENDBRANCH  17  18
ENDBRANCH  10  17
ENDBRANCH   7   9
ENDBRANCH   6   7
BRANCH   6  22
ATOM     22  C   UNL A   1      32.550  22.108  24.231  1.00  0.00     0.000 A 
ATOM     23  C   UNL A   1      32.976  21.974  25.572  1.00  0.00     0.007 A 
ATOM     24  C   UNL A   1      32.402  20.932  23.476  1.00  0.00     0.046 A 
ATOM     25  C   UNL A   1      33.285  20.727  26.118  1.00  0.00     0.000 A 
ATOM     26  C   UNL A   1      32.710  19.683  24.030  1.00  0.00     0.021 A 
ATOM     27  Cl  UNL A   1      31.859  20.940  21.836  1.00  0.00    -0.084 Cl
ATOM     28  C   UNL A   1      33.159  19.581  25.345  1.00  0.00     0.002 A 
ENDBRANCH   6  22
ENDBRANCH   4   6
ENDBRANCH   3   4
ENDBRANCH   2   3
ENDBRANCH   1   2
BRANCH   1  29
ATOM     29  O   UNL A   1      36.457  22.298  25.561  1.00  0.00    -0.374 OA
BRANCH  29  30
ATOM     30  C   UNL A   1      37.078  21.111  25.076  1.00  0.00     0.202 C 
BRANCH  30  31
ATOM     31  C   UNL A   1      38.567  20.922  25.384  1.00  0.00     0.261 C 
BRANCH  31  32
ATOM     32  O   UNL A   1      38.992  21.710  26.504  1.00  0.00    -0.460 OA
BRANCH  32  33
ATOM     33  C   UNL A   1      40.311  22.024  26.489  1.00  0.00     0.338 C 
ATOM     34  O   UNL A   1      41.206  21.407  25.936  1.00  0.00    -0.246 OA
BRANCH  33  35
ATOM     35  C   UNL A   1      40.515  23.353  27.096  1.00  0.00     0.060 A 
ATOM     36  C   UNL A   1      39.933  24.450  26.446  1.00  0.00     0.016 A 
ATOM     37  C   UNL A   1      41.303  23.532  28.235  1.00  0.00     0.016 A 
ATOM     38  C   UNL A   1      40.196  25.742  26.890  1.00  0.00     0.010 A 
ATOM     39  C   UNL A   1      41.574  24.830  28.672  1.00  0.00     0.010 A 
ATOM     40  C   UNL A   1      41.062  25.938  27.972  1.00  0.00    -0.014 A 
BRANCH  40  41
ATOM     41  C   UNL A   1      41.610  27.288  28.238  1.00  0.00     0.031 A 
ATOM     42  C   UNL A   1      43.060  27.534  27.919  1.00  0.00     0.074 A 
ATOM     43  C   UNL A   1      40.840  28.267  28.737  1.00  0.00     0.049 A 
ATOM     44  N   UNL A   1      43.796  28.584  28.167  1.00  0.00    -0.248 NA
ATOM     45  C   UNL A   1      43.776  26.443  27.235  1.00  0.00     0.031 C 
ATOM     46  C   UNL A   1      39.411  28.157  29.024  1.00  0.00     0.029 A 
ATOM     47  N   UNL A   1      41.160  29.549  29.107  1.00  0.00    -0.354 N 
ATOM     48  C   UNL A   1      45.065  28.273  27.691  1.00  0.00     0.074 A 
ATOM     49  C   UNL A   1      45.005  26.931  27.157  1.00  0.00     0.031 C 
ATOM     50  C   UNL A   1      38.981  29.318  29.549  1.00  0.00     0.029 A 
ATOM     51  C   UNL A   1      40.112  30.236  29.670  1.00  0.00     0.049 A 
ATOM     52  H   UNL A   1      42.055  29.939  28.980  1.00  0.00     0.167 HD
ATOM     53  C   UNL A   1      46.178  29.042  27.697  1.00  0.00     0.037 A 
ATOM     54  C   UNL A   1      40.084  31.454  30.248  1.00  0.00     0.037 A 
ATOM     55  C   UNL A   1      46.221  30.380  28.224  1.00  0.00     0.049 A 
ATOM     56  C   UNL A   1      41.350  32.270  30.302  1.00  0.00     0.074 A 
ATOM     57  C   UNL A   1      47.296  31.249  28.278  1.00  0.00     0.029 A 
ATOM     58  N   UNL A   1      45.140  31.040  28.790  1.00  0.00    -0.354 N 
ATOM     59  N   UNL A   1      42.545  31.967  29.852  1.00  0.00    -0.248 NA
ATOM     60  C   UNL A   1      41.268  33.593  30.940  1.00  0.00     0.031 C 
ATOM     61  C   UNL A   1      46.875  32.419  28.918  1.00  0.00     0.029 A 
ATOM     62  C   UNL A   1      45.525  32.299  29.210  1.00  0.00     0.049 A 
ATOM     63  H   UNL A   1      44.234  30.666  28.880  1.00  0.00     0.167 HD
ATOM     64  C   UNL A   1      43.345  33.076  30.114  1.00  0.00     0.074 A 
ATOM     65  C   UNL A   1      42.500  34.053  30.769  1.00  0.00     0.031 C 
ATOM     66  C   UNL A   1      44.657  33.270  29.831  1.00  0.00     0.037 A 
BRANCH  53  67
ATOM     67  C   UNL A   1      47.444  28.444  27.149  1.00  0.00     0.058 A 
ATOM     68  C   UNL A   1      47.729  28.439  25.775  1.00  0.00     0.135 A 
ATOM     69  C   UNL A   1      48.397  27.888  28.018  1.00  0.00     0.135 A 
ATOM     70  F   UNL A   1      46.842  28.938  24.899  1.00  0.00    -0.206 F 
ATOM     71  C   UNL A   1      48.903  27.882  25.277  1.00  0.00     0.059 A 
ATOM     72  C   UNL A   1      49.591  27.350  27.545  1.00  0.00     0.059 A 
ATOM     73  F   UNL A   1      48.173  27.861  29.341  1.00  0.00    -0.206 F 
ATOM     74  C   UNL A   1      49.827  27.339  26.171  1.00  0.00     0.060 A 
BRANCH  74  75
ATOM     75  S   UNL A   1      51.347  26.621  25.512  1.00  0.00     0.124 S 
ATOM     76  O   UNL A   1      51.425  25.370  26.260  1.00  0.00    -0.237 OA
ATOM     77  O   UNL A   1      51.040  26.490  24.091  1.00  0.00    -0.237 OA
ATOM     78  O   UNL A   1      52.364  27.615  25.843  1.00  0.00    -0.744 OA
ENDBRANCH  74  75
ENDBRANCH  53  67
BRANCH  54  79
ATOM     79  C   UNL A   1      38.818  31.967  30.836  1.00  0.00     0.058 A 
ATOM     80  C   UNL A   1      38.488  31.720  32.177  1.00  0.00     0.135 A 
ATOM     81  C   UNL A   1      37.915  32.723  30.071  1.00  0.00     0.135 A 
ATOM     82  F   UNL A   1      39.313  30.995  32.947  1.00  0.00    -0.206 F 
ATOM     83  C   UNL A   1      37.305  32.193  32.736  1.00  0.00     0.059 A 
ATOM     84  C   UNL A   1      36.738  33.227  30.613  1.00  0.00     0.059 A 
ATOM     85  F   UNL A   1      38.188  32.997  28.785  1.00  0.00    -0.206 F 
ATOM     86  C   UNL A   1      36.437  32.948  31.945  1.00  0.00     0.060 A 
BRANCH  86  87
ATOM     87  S   UNL A   1      34.927  33.597  32.695  1.00  0.00     0.124 S 
ATOM     88  O   UNL A   1      35.154  35.034  32.616  1.00  0.00    -0.237 OA
ATOM     89  O   UNL A   1      33.893  33.063  31.813  1.00  0.00    -0.237 OA
ATOM     90  O   UNL A   1      34.948  33.026  34.038  1.00  0.00    -0.744 OA
ENDBRANCH  86  87
ENDBRANCH  54  79
BRANCH  66  91
ATOM     91  C   UNL A   1      45.258  34.607  30.156  1.00  0.00     0.058 A 
ATOM     92  C   UNL A   1      45.220  35.679  29.252  1.00  0.00     0.135 A 
ATOM     93  C   UNL A   1      45.781  34.847  31.439  1.00  0.00     0.135 A 
ATOM     94  F   UNL A   1      44.737  35.500  28.013  1.00  0.00    -0.206 F 
ATOM     95  C   UNL A   1      45.678  36.944  29.609  1.00  0.00     0.059 A 
ATOM     96  C   UNL A   1      46.220  36.108  31.824  1.00  0.00     0.059 A 
ATOM     97  F   UNL A   1      45.831  33.855  32.343  1.00  0.00    -0.206 F 
ATOM     98  C   UNL A   1      46.166  37.151  30.901  1.00  0.00     0.060 A 
BRANCH  98  99
ATOM     99  S   UNL A   1      46.681  38.815  31.376  1.00  0.00     0.124 S 
ATOM    100  O   UNL A   1      45.723  39.130  32.431  1.00  0.00    -0.237 OA
ATOM    101  O   UNL A   1      48.057  38.603  31.811  1.00  0.00    -0.237 OA
ATOM    102  O   UNL A   1      46.532  39.582  30.143  1.00  0.00    -0.744 OA
ENDBRANCH  98  99
ENDBRANCH  66  91
ENDBRANCH  40  41
ENDBRANCH  33  35
ENDBRANCH  32  33
ENDBRANCH  31  32
ENDBRANCH  30  31
ENDBRANCH  29  30
ENDBRANCH   1  29
TORSDOF 22
ENDMDL
MODEL 2
REMARK VINA RESULT:     -10.1      2.436      8.522
REMARK SMILES CC(C)(C)OC(=O)N1CCN(N[C@@H](C(=O)OCCOCCOC(=O)c2ccc(-c3c4nc(c(-c5c(F)cc(S(=O)(=O)[O-])cc5F)c5ccc([nH]5)c(-c5c(F)cc(S(=O)(=O)[O-])cc5F)c5nc(c(-c6c(F)cc(S(=O)(=O)[O-])cc6F)c6ccc3[nH]6)C=C5)C=C4)cc2)c2ccccc2Cl)CC1
REMARK SMILES IDX 18 1 17 2 16 3 14 4 15 5 13 6 12 7 11 9 6 10 7 11 8 12 9 13
REMARK SMILES IDX 99 14 10 15 98 16 5 17 2 18 1 19 3 20 4 21 91 22 92 23 96 24
REMARK SMILES IDX 93 25 95 26 97 27 94 28 19 29 20 30 21 31 22 32 23 33 24 34
REMARK SMILES IDX 25 35 26 36 90 37 27 38 89 39 28 40 29 41 30 42 83 43 31 44
REMARK SMILES IDX 88 45 82 46 84 47 32 48 87 49 81 50 80 51 33 53 67 54 46 55
REMARK SMILES IDX 66 56 47 57 50 58 65 59 85 60 48 61 49 62 64 64 86 65 51 66
REMARK SMILES IDX 34 67 35 68 44 69 36 70 37 71 43 72 45 73 38 74 39 75 40 76
REMARK SMILES IDX 41 77 42 78 68 79 69 80 78 81 70 82 71 83 77 84 79 85 72 86
REMARK SMILES IDX 73 87 74 88 75 89 76 90 52 91 53 92 62 93 54 94 55 95 61 96
REMARK SMILES IDX 63 97 56 98 57 99 58 100 59 101 60 102
REMARK H PARENT 12 8 84 52 50 63
REMARK Flexibility Score: inf
ROOT
ATOM      1  C   UNL A   1      35.753  22.283  26.225  1.00  0.00     0.202 C 
ENDROOT
BRANCH   1   2
ATOM      2  C   UNL A   1      36.454  23.622  25.999  1.00  0.00     0.261 C 
BRANCH   2   3
ATOM      3  O   UNL A   1      35.867  24.279  24.864  1.00  0.00    -0.462 OA
BRANCH   3   4
ATOM      4  C   UNL A   1      34.753  25.019  25.091  1.00  0.00     0.329 C 
ATOM      5  O   UNL A   1      34.606  25.725  26.087  1.00  0.00    -0.250 OA
BRANCH   4   6
ATOM      6  C   UNL A   1      33.678  24.913  23.977  1.00  0.00     0.211 C 
BRANCH   6   7
ATOM      7  N   UNL A   1      32.611  25.973  23.944  1.00  0.00    -0.237 NA
ATOM      8  H   UNL A   1      31.706  25.514  24.052  1.00  0.00     0.143 HD
BRANCH   7   9
ATOM      9  N   UNL A   1      32.569  26.781  22.710  1.00  0.00    -0.240 NA
ATOM     10  C   UNL A   1      29.185  29.386  22.609  1.00  0.00     0.410 C 
ATOM     11  O   UNL A   1      28.037  28.984  22.460  1.00  0.00    -0.224 OA
ATOM     12  N   UNL A   1      30.228  28.552  22.937  1.00  0.00    -0.306 N 
ATOM     13  C   UNL A   1      30.077  27.128  22.696  1.00  0.00     0.140 C 
ATOM     14  C   UNL A   1      31.469  28.950  23.598  1.00  0.00     0.140 C 
ATOM     15  C   UNL A   1      31.309  26.607  21.949  1.00  0.00     0.124 C 
ATOM     16  C   UNL A   1      32.722  28.230  23.035  1.00  0.00     0.124 C 
BRANCH  10  17
ATOM     17  O   UNL A   1      29.587  30.663  22.385  1.00  0.00    -0.444 OA
BRANCH  17  18
ATOM     18  C   UNL A   1      28.659  31.758  22.623  1.00  0.00     0.106 C 
ATOM     19  C   UNL A   1      27.585  31.180  23.558  1.00  0.00     0.056 C 
ATOM     20  C   UNL A   1      28.008  32.176  21.303  1.00  0.00     0.056 C 
ATOM     21  C   UNL A   1      29.298  32.959  23.344  1.00  0.00     0.056 C 
ENDBRANCH  17  18
ENDBRANCH  10  17
ENDBRANCH   7   9
ENDBRANCH   6   7
BRANCH   6  22
ATOM     22  C   UNL A   1      33.009  23.530  24.010  1.00  0.00     0.000 A 
ATOM     23  C   UNL A   1      32.590  22.971  25.238  1.00  0.00     0.007 A 
ATOM     24  C   UNL A   1      32.816  22.763  22.848  1.00  0.00     0.046 A 
ATOM     25  C   UNL A   1      32.046  21.687  25.309  1.00  0.00     0.000 A 
ATOM     26  C   UNL A   1      32.267  21.477  22.923  1.00  0.00     0.021 A 
ATOM     27  Cl  UNL A   1      33.250  23.329  21.275  1.00  0.00    -0.084 Cl
ATOM     28  C   UNL A   1      31.891  20.936  24.152  1.00  0.00     0.002 A 
ENDBRANCH   6  22
ENDBRANCH   4   6
ENDBRANCH   3   4
ENDBRANCH   2   3
ENDBRANCH   1   2
BRANCH   1  29
ATOM     29  O   UNL A   1      36.256  21.186  25.454  1.00  0.00    -0.374 OA
BRANCH  29  30
ATOM     30  C   UNL A   1      37.599  21.290  24.987  1.00  0.00     0.202 C 
BRANCH  30  31
ATOM     31  C   UNL A   1      38.586  20.213  25.447  1.00  0.00     0.261 C 
BRANCH  31  32
ATOM     32  O   UNL A   1      39.561  20.727  26.364  1.00  0.00    -0.460 OA
BRANCH  32  33
ATOM     33  C   UNL A   1      40.805  20.215  26.193  1.00  0.00     0.338 C 
ATOM     34  O   UNL A   1      41.090  19.114  25.752  1.00  0.00    -0.246 OA
BRANCH  33  35
ATOM     35  C   UNL A   1      41.815  21.259  26.448  1.00  0.00     0.060 A 
ATOM     36  C   UNL A   1      42.051  21.610  27.784  1.00  0.00     0.016 A 
ATOM     37  C   UNL A   1      42.471  21.921  25.408  1.00  0.00     0.016 A 
ATOM     38  C   UNL A   1      42.891  22.677  28.086  1.00  0.00     0.010 A 
ATOM     39  C   UNL A   1      43.306  22.998  25.713  1.00  0.00     0.010 A 
ATOM     40  C   UNL A   1      43.479  23.408  27.048  1.00  0.00    -0.014 A 
BRANCH  40  41
ATOM     41  C   UNL A   1      44.090  24.726  27.334  1.00  0.00     0.031 A 
ATOM     42  C   UNL A   1      43.183  25.840  27.785  1.00  0.00     0.074 A 
ATOM     43  C   UNL A   1      45.411  24.925  27.208  1.00  0.00     0.049 A 
ATOM     44  N   UNL A   1      43.455  27.101  27.983  1.00  0.00    -0.248 NA
ATOM     45  C   UNL A   1      41.777  25.479  28.038  1.00  0.00     0.031 C 
ATOM     46  C   UNL A   1      46.389  23.903  26.838  1.00  0.00     0.029 A 
ATOM     47  N   UNL A   1      46.157  26.066  27.362  1.00  0.00    -0.354 N 
ATOM     48  C   UNL A   1      42.253  27.689  28.362  1.00  0.00     0.074 A 
ATOM     49  C   UNL A   1      41.247  26.652  28.348  1.00  0.00     0.031 C 
ATOM     50  C   UNL A   1      47.607  24.470  26.771  1.00  0.00     0.029 A 
ATOM     51  C   UNL A   1      47.486  25.899  27.054  1.00  0.00     0.049 A 
ATOM     52  H   UNL A   1      45.778  26.922  27.666  1.00  0.00     0.167 HD
ATOM     53  C   UNL A   1      42.015  28.979  28.695  1.00  0.00     0.037 A 
ATOM     54  C   UNL A   1      48.480  26.807  26.977  1.00  0.00     0.037 A 
ATOM     55  C   UNL A   1      43.028  29.999  28.713  1.00  0.00     0.049 A 
ATOM     56  C   UNL A   1      48.180  28.251  27.290  1.00  0.00     0.074 A 
ATOM     57  C   UNL A   1      42.897  31.337  29.037  1.00  0.00     0.029 A 
ATOM     58  N   UNL A   1      44.362  29.791  28.391  1.00  0.00    -0.354 N 
ATOM     59  N   UNL A   1      47.041  28.798  27.644  1.00  0.00    -0.248 NA
ATOM     60  C   UNL A   1      49.297  29.202  27.194  1.00  0.00     0.031 C 
ATOM     61  C   UNL A   1      44.143  31.949  28.867  1.00  0.00     0.029 A 
ATOM     62  C   UNL A   1      45.061  30.980  28.493  1.00  0.00     0.049 A 
ATOM     63  H   UNL A   1      44.751  28.927  28.127  1.00  0.00     0.167 HD
ATOM     64  C   UNL A   1      47.313  30.146  27.855  1.00  0.00     0.074 A 
ATOM     65  C   UNL A   1      48.722  30.334  27.579  1.00  0.00     0.031 C 
ATOM     66  C   UNL A   1      46.474  31.137  28.247  1.00  0.00     0.037 A 
BRANCH  53  67
ATOM     67  C   UNL A   1      40.601  29.364  29.031  1.00  0.00     0.058 A 
ATOM     68  C   UNL A   1      39.629  29.563  28.039  1.00  0.00     0.135 A 
ATOM     69  C   UNL A   1      40.209  29.512  30.372  1.00  0.00     0.135 A 
ATOM     70  F   UNL A   1      39.956  29.456  26.741  1.00  0.00    -0.206 F 
ATOM     71  C   UNL A   1      38.323  29.920  28.361  1.00  0.00     0.059 A 
ATOM     72  C   UNL A   1      38.902  29.841  30.719  1.00  0.00     0.059 A 
ATOM     73  F   UNL A   1      41.099  29.339  31.361  1.00  0.00    -0.206 F 
ATOM     74  C   UNL A   1      37.970  30.058  29.704  1.00  0.00     0.060 A 
BRANCH  74  75
ATOM     75  S   UNL A   1      36.272  30.519  30.107  1.00  0.00     0.124 S 
ATOM     76  O   UNL A   1      36.041  29.745  31.323  1.00  0.00    -0.237 OA
ATOM     77  O   UNL A   1      36.375  31.964  30.287  1.00  0.00    -0.237 OA
ATOM     78  O   UNL A   1      35.515  30.088  28.936  1.00  0.00    -0.744 OA
ENDBRANCH  74  75
ENDBRANCH  53  67
BRANCH  54  79
ATOM     79  C   UNL A   1      49.845  26.380  26.571  1.00  0.00     0.058 A 
ATOM     80  C   UNL A   1      50.774  25.921  27.517  1.00  0.00     0.135 A 
ATOM     81  C   UNL A   1      50.247  26.412  25.226  1.00  0.00     0.135 A 
ATOM     82  F   UNL A   1      50.441  25.880  28.817  1.00  0.00    -0.206 F 
ATOM     83  C   UNL A   1      52.054  25.523  27.149  1.00  0.00     0.059 A 
ATOM     84  C   UNL A   1      51.513  25.995  24.829  1.00  0.00     0.059 A 
ATOM     85  F   UNL A   1      49.393  26.832  24.279  1.00  0.00    -0.206 F 
ATOM     86  C   UNL A   1      52.414  25.561  25.800  1.00  0.00     0.060 A 
BRANCH  86  87
ATOM     87  S   UNL A   1      54.063  24.995  25.327  1.00  0.00     0.124 S 
ATOM     88  O   UNL A   1      54.800  25.166  26.573  1.00  0.00    -0.237 OA
ATOM     89  O   UNL A   1      53.809  23.618  24.918  1.00  0.00    -0.237 OA
ATOM     90  O   UNL A   1      54.431  25.904  24.246  1.00  0.00    -0.744 OA
ENDBRANCH  86  87
ENDBRANCH  54  79
BRANCH  66  91
ATOM     91  C   UNL A   1      47.054  32.503  28.475  1.00  0.00     0.058 A 
ATOM     92  C   UNL A   1      47.677  32.853  29.683  1.00  0.00     0.135 A 
ATOM     93  C   UNL A   1      47.084  33.436  27.425  1.00  0.00     0.135 A 
ATOM     94  F   UNL A   1      47.670  32.000  30.718  1.00  0.00    -0.206 F 
ATOM     95  C   UNL A   1      48.311  34.082  29.840  1.00  0.00     0.059 A 
ATOM     96  C   UNL A   1      47.733  34.659  27.553  1.00  0.00     0.059 A 
ATOM     97  F   UNL A   1      46.510  33.145  26.246  1.00  0.00    -0.206 F 
ATOM     98  C   UNL A   1      48.343  34.973  28.766  1.00  0.00     0.060 A 
BRANCH  98  99
ATOM     99  S   UNL A   1      49.238  36.530  28.958  1.00  0.00     0.124 S 
ATOM    100  O   UNL A   1      49.802  36.382  30.296  1.00  0.00    -0.237 OA
ATOM    101  O   UNL A   1      50.194  36.477  27.857  1.00  0.00    -0.237 OA
ATOM    102  O   UNL A   1      48.194  37.541  28.825  1.00  0.00    -0.744 OA
ENDBRANCH  98  99
ENDBRANCH  66  91
ENDBRANCH  40  41
ENDBRANCH  33  35
ENDBRANCH  32  33
ENDBRANCH  31  32
ENDBRANCH  30  31
ENDBRANCH  29  30
ENDBRANCH   1  29
TORSDOF 22
ENDMDL
MODEL 3
REMARK VINA RESULT:     -10.0      2.682      9.432
REMARK SMILES CC(C)(C)OC(=O)N1CCN(N[C@@H](C(=O)OCCOCCOC(=O)c2ccc(-c3c4nc(c(-c5c(F)cc(S(=O)(=O)[O-])cc5F)c5ccc([nH]5)c(-c5c(F)cc(S(=O)(=O)[O-])cc5F)c5nc(c(-c6c(F)cc(S(=O)(=O)[O-])cc6F)c6ccc3[nH]6)C=C5)C=C4)cc2)c2ccccc2Cl)CC1
REMARK SMILES IDX 18 1 17 2 16 3 14 4 15 5 13 6 12 7 11 9 6 10 7 11 8 12 9 13
REMARK SMILES IDX 99 14 10 15 98 16 5 17 2 18 1 19 3 20 4 21 91 22 92 23 96 24
REMARK SMILES IDX 93 25 95 26 97 27 94 28 19 29 20 30 21 31 22 32 23 33 24 34
REMARK SMILES IDX 25 35 26 36 90 37 27 38 89 39 28 40 29 41 30 42 83 43 31 44
REMARK SMILES IDX 88 45 82 46 84 47 32 48 87 49 81 50 80 51 33 53 67 54 46 55
REMARK SMILES IDX 66 56 47 57 50 58 65 59 85 60 48 61 49 62 64 64 86 65 51 66
REMARK SMILES IDX 34 67 35 68 44 69 36 70 37 71 43 72 45 73 38 74 39 75 40 76
REMARK SMILES IDX 41 77 42 78 68 79 69 80 78 81 70 82 71 83 77 84 79 85 72 86
REMARK SMILES IDX 73 87 74 88 75 89 76 90 52 91 53 92 62 93 54 94 55 95 61 96
REMARK SMILES IDX 63 97 56 98 57 99 58 100 59 101 60 102
REMARK H PARENT 12 8 84 52 50 63
REMARK Flexibility Score: inf
ROOT
ATOM      1  C   UNL A   1      35.945  22.661  25.593  1.00  0.00     0.202 C 
ENDROOT
BRANCH   1   2
ATOM      2  C   UNL A   1      35.987  24.179  25.765  1.00  0.00     0.261 C 
BRANCH   2   3
ATOM      3  O   UNL A   1      35.085  24.788  24.827  1.00  0.00    -0.462 OA
BRANCH   3   4
ATOM      4  C   UNL A   1      34.106  25.575  25.338  1.00  0.00     0.329 C 
ATOM      5  O   UNL A   1      34.321  26.475  26.149  1.00  0.00    -0.250 OA
BRANCH   4   6
ATOM      6  C   UNL A   1      32.685  25.257  24.802  1.00  0.00     0.211 C 
BRANCH   6   7
ATOM      7  N   UNL A   1      32.536  24.054  23.911  1.00  0.00    -0.237 NA
ATOM      8  H   UNL A   1      32.301  24.382  22.974  1.00  0.00     0.143 HD
BRANCH   7   9
ATOM      9  N   UNL A   1      31.502  23.089  24.330  1.00  0.00    -0.240 NA
ATOM     10  C   UNL A   1      32.429  19.106  23.094  1.00  0.00     0.410 C 
ATOM     11  O   UNL A   1      32.384  18.743  21.924  1.00  0.00    -0.224 OA
ATOM     12  N   UNL A   1      32.425  20.431  23.460  1.00  0.00    -0.306 N 
ATOM     13  C   UNL A   1      31.941  21.412  22.506  1.00  0.00     0.140 C 
ATOM     14  C   UNL A   1      32.950  20.976  24.711  1.00  0.00     0.140 C 
ATOM     15  C   UNL A   1      30.926  22.331  23.194  1.00  0.00     0.124 C 
ATOM     16  C   UNL A   1      32.073  22.109  25.302  1.00  0.00     0.124 C 
BRANCH  10  17
ATOM     17  O   UNL A   1      32.395  18.267  24.160  1.00  0.00    -0.444 OA
BRANCH  17  18
ATOM     18  C   UNL A   1      33.550  17.430  24.451  1.00  0.00     0.106 C 
ATOM     19  C   UNL A   1      33.742  16.560  23.199  1.00  0.00     0.056 C 
ATOM     20  C   UNL A   1      33.243  16.530  25.649  1.00  0.00     0.056 C 
ATOM     21  C   UNL A   1      34.849  18.229  24.659  1.00  0.00     0.056 C 
ENDBRANCH  17  18
ENDBRANCH  10  17
ENDBRANCH   7   9
ENDBRANCH   6   7
BRANCH   6  22
ATOM     22  C   UNL A   1      32.096  26.485  24.090  1.00  0.00     0.000 A 
ATOM     23  C   UNL A   1      32.911  27.282  23.255  1.00  0.00     0.007 A 
ATOM     24  C   UNL A   1      30.757  26.877  24.255  1.00  0.00     0.046 A 
ATOM     25  C   UNL A   1      32.424  28.444  22.653  1.00  0.00     0.000 A 
ATOM     26  C   UNL A   1      30.272  28.041  23.646  1.00  0.00     0.021 A 
ATOM     27  Cl  UNL A   1      29.637  25.982  25.219  1.00  0.00    -0.084 Cl
ATOM     28  C   UNL A   1      31.106  28.828  22.854  1.00  0.00     0.002 A 
ENDBRANCH   6  22
ENDBRANCH   4   6
ENDBRANCH   3   4
ENDBRANCH   2   3
ENDBRANCH   1   2
BRANCH   1  29
ATOM     29  O   UNL A   1      37.179  22.051  25.201  1.00  0.00    -0.374 OA
BRANCH  29  30
ATOM     30  C   UNL A   1      38.273  22.171  26.107  1.00  0.00     0.202 C 
BRANCH  30  31
ATOM     31  C   UNL A   1      39.608  21.552  25.681  1.00  0.00     0.261 C 
BRANCH  31  32
ATOM     32  O   UNL A   1      39.955  20.411  26.478  1.00  0.00    -0.460 OA
BRANCH  32  33
ATOM     33  C   UNL A   1      41.218  19.961  26.278  1.00  0.00     0.338 C 
ATOM     34  O   UNL A   1      41.548  18.885  25.808  1.00  0.00    -0.246 OA
BRANCH  33  35
ATOM     35  C   UNL A   1      42.182  21.046  26.540  1.00  0.00     0.060 A 
ATOM     36  C   UNL A   1      42.309  21.484  27.866  1.00  0.00     0.016 A 
ATOM     37  C   UNL A   1      42.899  21.662  25.513  1.00  0.00     0.016 A 
ATOM     38  C   UNL A   1      43.100  22.589  28.162  1.00  0.00     0.010 A 
ATOM     39  C   UNL A   1      43.684  22.778  25.810  1.00  0.00     0.010 A 
ATOM     40  C   UNL A   1      43.747  23.272  27.126  1.00  0.00    -0.014 A 
BRANCH  40  41
ATOM     41  C   UNL A   1      44.304  24.622  27.375  1.00  0.00     0.031 A 
ATOM     42  C   UNL A   1      43.353  25.712  27.789  1.00  0.00     0.074 A 
ATOM     43  C   UNL A   1      45.618  24.869  27.245  1.00  0.00     0.049 A 
ATOM     44  N   UNL A   1      43.574  26.988  27.950  1.00  0.00    -0.248 NA
ATOM     45  C   UNL A   1      41.961  25.303  28.050  1.00  0.00     0.031 C 
ATOM     46  C   UNL A   1      46.636  23.875  26.909  1.00  0.00     0.029 A 
ATOM     47  N   UNL A   1      46.318  26.042  27.367  1.00  0.00    -0.354 N 
ATOM     48  C   UNL A   1      42.349  27.539  28.309  1.00  0.00     0.074 A 
ATOM     49  C   UNL A   1      41.384  26.463  28.324  1.00  0.00     0.031 C 
ATOM     50  C   UNL A   1      47.831  24.487  26.828  1.00  0.00     0.029 A 
ATOM     51  C   UNL A   1      47.653  25.919  27.067  1.00  0.00     0.049 A 
ATOM     52  H   UNL A   1      45.903  26.891  27.644  1.00  0.00     0.167 HD
ATOM     53  C   UNL A   1      42.059  28.828  28.601  1.00  0.00     0.037 A 
ATOM     54  C   UNL A   1      48.611  26.862  26.965  1.00  0.00     0.037 A 
ATOM     55  C   UNL A   1      43.031  29.887  28.591  1.00  0.00     0.049 A 
ATOM     56  C   UNL A   1      48.253  28.302  27.233  1.00  0.00     0.074 A 
ATOM     57  C   UNL A   1      42.846  31.228  28.875  1.00  0.00     0.029 A 
ATOM     58  N   UNL A   1      44.373  29.723  28.279  1.00  0.00    -0.354 N 
ATOM     59  N   UNL A   1      47.092  28.814  27.569  1.00  0.00    -0.248 NA
ATOM     60  C   UNL A   1      49.332  29.294  27.112  1.00  0.00     0.031 C 
ATOM     61  C   UNL A   1      44.068  31.883  28.690  1.00  0.00     0.029 A 
ATOM     62  C   UNL A   1      45.025  30.941  28.347  1.00  0.00     0.049 A 
ATOM     63  H   UNL A   1      44.797  28.867  28.042  1.00  0.00     0.167 HD
ATOM     64  C   UNL A   1      47.310  30.178  27.739  1.00  0.00     0.074 A 
ATOM     65  C   UNL A   1      48.711  30.413  27.462  1.00  0.00     0.031 C 
ATOM     66  C   UNL A   1      46.431  31.146  28.099  1.00  0.00     0.037 A 
BRANCH  53  67
ATOM     67  C   UNL A   1      40.630  29.167  28.923  1.00  0.00     0.058 A 
ATOM     68  C   UNL A   1      40.184  29.326  30.244  1.00  0.00     0.135 A 
ATOM     69  C   UNL A   1      39.698  29.358  27.889  1.00  0.00     0.135 A 
ATOM     70  F   UNL A   1      41.027  29.133  31.271  1.00  0.00    -0.206 F 
ATOM     71  C   UNL A   1      38.858  29.638  30.532  1.00  0.00     0.059 A 
ATOM     72  C   UNL A   1      38.375  29.699  28.152  1.00  0.00     0.059 A 
ATOM     73  F   UNL A   1      40.070  29.213  26.608  1.00  0.00    -0.206 F 
ATOM     74  C   UNL A   1      37.962  29.822  29.478  1.00  0.00     0.060 A 
BRANCH  74  75
ATOM     75  S   UNL A   1      36.246  30.229  29.866  1.00  0.00     0.124 S 
ATOM     76  O   UNL A   1      36.296  31.687  29.909  1.00  0.00    -0.237 OA
ATOM     77  O   UNL A   1      35.525  29.654  28.735  1.00  0.00    -0.237 OA
ATOM     78  O   UNL A   1      36.022  29.571  31.150  1.00  0.00    -0.744 OA
ENDBRANCH  74  75
ENDBRANCH  53  67
BRANCH  54  79
ATOM     79  C   UNL A   1      49.993  26.477  26.575  1.00  0.00     0.058 A 
ATOM     80  C   UNL A   1      50.965  26.184  27.543  1.00  0.00     0.135 A 
ATOM     81  C   UNL A   1      50.368  26.386  25.225  1.00  0.00     0.135 A 
ATOM     82  F   UNL A   1      50.657  26.266  28.847  1.00  0.00    -0.206 F 
ATOM     83  C   UNL A   1      52.261  25.826  27.190  1.00  0.00     0.059 A 
ATOM     84  C   UNL A   1      51.652  26.006  24.846  1.00  0.00     0.059 A 
ATOM     85  F   UNL A   1      49.474  26.646  24.259  1.00  0.00    -0.206 F 
ATOM     86  C   UNL A   1      52.595  25.737  25.837  1.00  0.00     0.060 A 
BRANCH  86  87
ATOM     87  S   UNL A   1      54.268  25.225  25.389  1.00  0.00     0.124 S 
ATOM     88  O   UNL A   1      54.043  23.864  24.920  1.00  0.00    -0.237 OA
ATOM     89  O   UNL A   1      54.625  26.204  24.366  1.00  0.00    -0.237 OA
ATOM     90  O   UNL A   1      55.003  25.348  26.645  1.00  0.00    -0.744 OA
ENDBRANCH  86  87
ENDBRANCH  54  79
BRANCH  66  91
ATOM     91  C   UNL A   1      46.956  32.540  28.288  1.00  0.00     0.058 A 
ATOM     92  C   UNL A   1      46.869  33.510  27.279  1.00  0.00     0.135 A 
ATOM     93  C   UNL A   1      47.452  32.938  29.542  1.00  0.00     0.135 A 
ATOM     94  F   UNL A   1      46.409  33.179  26.062  1.00  0.00    -0.206 F 
ATOM     95  C   UNL A   1      47.255  34.828  27.505  1.00  0.00     0.059 A 
ATOM     96  C   UNL A   1      47.819  34.255  29.798  1.00  0.00     0.059 A 
ATOM     97  F   UNL A   1      47.546  32.049  30.544  1.00  0.00    -0.206 F 
ATOM     98  C   UNL A   1      47.718  35.192  28.771  1.00  0.00     0.060 A 
BRANCH  98  99
ATOM     99  S   UNL A   1      48.138  36.922  29.075  1.00  0.00     0.124 S 
ATOM    100  O   UNL A   1      46.968  37.384  29.815  1.00  0.00    -0.237 OA
ATOM    101  O   UNL A   1      49.372  36.812  29.845  1.00  0.00    -0.237 OA
ATOM    102  O   UNL A   1      48.291  37.476  27.733  1.00  0.00    -0.744 OA
ENDBRANCH  98  99
ENDBRANCH  66  91
ENDBRANCH  40  41
ENDBRANCH  33  35
ENDBRANCH  32  33
ENDBRANCH  31  32
ENDBRANCH  30  31
ENDBRANCH  29  30
ENDBRANCH   1  29
TORSDOF 22
ENDMDL
