MODEL 1
REMARK VINA RESULT:     -11.2      0.000      0.000
REMARK SMILES O=C(OCCOCCOC(=O)C1(Cc2ccccc2Cl)CCN(c2ncnc3[nH]ccc23)CC1)c1ccc(-c2c3nc(c(-c4c(F)cc(S(=O)(=O)[O-])cc4F)c4ccc([nH]4)c(-c4c(F)cc(S(=O)(=O)[O-])cc4F)c4nc(c(-c5c(F)cc(S(=O)(=O)[O-])cc5F)c5ccc2[nH]5)C=C4)C=C3)cc1
REMARK SMILES IDX 5 1 4 2 3 3 2 4 1 5 35 6 36 7 100 8 37 9 99 10 38 11 39 12
REMARK SMILES IDX 40 13 93 14 41 15 98 16 92 17 94 18 42 19 97 20 91 21 90 22
REMARK SMILES IDX 43 24 77 25 56 26 76 27 57 28 60 29 75 30 95 31 58 32 59 33
REMARK SMILES IDX 74 35 96 36 61 37 44 38 45 39 54 40 46 41 47 42 53 43 55 44
REMARK SMILES IDX 48 45 49 46 50 47 51 48 52 49 78 50 79 51 88 52 80 53 81 54
REMARK SMILES IDX 87 55 89 56 82 57 83 58 84 59 85 60 86 61 62 62 63 63 72 64
REMARK SMILES IDX 64 65 65 66 71 67 73 68 66 69 67 70 68 71 69 72 70 73 6 74
REMARK SMILES IDX 7 75 8 76 9 77 10 78 11 79 12 80 21 81 34 82 22 83 33 84
REMARK SMILES IDX 23 85 13 86 14 87 15 88 19 89 16 90 18 91 20 92 17 93 24 94
REMARK SMILES IDX 25 95 32 96 26 97 28 98 31 99 27 100 29 101 30 102
REMARK H PARENT 94 23 60 34 29 103
REMARK Flexibility Score: inf
ROOT
ATOM      1  C   UNL A   1      32.848  28.940  25.747  1.00  0.00     0.202 C 
ENDROOT
BRANCH   1   2
ATOM      2  C   UNL A   1      34.111  28.472  26.480  1.00  0.00     0.261 C 
BRANCH   2   3
ATOM      3  O   UNL A   1      34.237  29.013  27.817  1.00  0.00    -0.460 OA
BRANCH   3   4
ATOM      4  C   UNL A   1      35.003  30.093  28.159  1.00  0.00     0.338 C 
ATOM      5  O   UNL A   1      34.533  31.217  28.224  1.00  0.00    -0.246 OA
BRANCH   4   6
ATOM      6  C   UNL A   1      36.430  29.857  28.466  1.00  0.00     0.060 A 
ATOM      7  C   UNL A   1      37.374  30.168  27.509  1.00  0.00     0.016 A 
ATOM      8  C   UNL A   1      36.865  29.326  29.669  1.00  0.00     0.016 A 
ATOM      9  C   UNL A   1      38.615  29.609  27.511  1.00  0.00     0.010 A 
ATOM     10  C   UNL A   1      38.231  29.054  29.821  1.00  0.00     0.010 A 
ATOM     11  C   UNL A   1      39.101  29.165  28.718  1.00  0.00    -0.014 A 
BRANCH  11  12
ATOM     12  C   UNL A   1      40.532  28.832  28.749  1.00  0.00     0.031 A 
ATOM     13  C   UNL A   1      41.473  29.888  29.212  1.00  0.00     0.074 A 
ATOM     14  C   UNL A   1      40.929  27.569  28.477  1.00  0.00     0.049 A 
ATOM     15  N   UNL A   1      42.766  29.930  29.094  1.00  0.00    -0.248 NA
ATOM     16  C   UNL A   1      40.880  31.063  29.876  1.00  0.00     0.031 C 
ATOM     17  C   UNL A   1      40.041  26.431  28.178  1.00  0.00     0.029 A 
ATOM     18  N   UNL A   1      42.176  27.009  28.439  1.00  0.00    -0.354 N 
ATOM     19  C   UNL A   1      43.135  31.174  29.583  1.00  0.00     0.074 A 
ATOM     20  C   UNL A   1      41.937  31.847  30.026  1.00  0.00     0.031 C 
ATOM     21  C   UNL A   1      40.766  25.313  28.046  1.00  0.00     0.029 A 
ATOM     22  C   UNL A   1      42.168  25.678  28.082  1.00  0.00     0.049 A 
ATOM     23  H   UNL A   1      42.999  27.508  28.645  1.00  0.00     0.167 HD
ATOM     24  C   UNL A   1      44.378  31.694  29.614  1.00  0.00     0.037 A 
ATOM     25  C   UNL A   1      43.186  24.873  27.732  1.00  0.00     0.037 A 
ATOM     26  C   UNL A   1      45.530  30.945  29.191  1.00  0.00     0.049 A 
ATOM     27  C   UNL A   1      44.550  25.500  27.706  1.00  0.00     0.074 A 
ATOM     28  C   UNL A   1      46.846  31.350  29.113  1.00  0.00     0.029 A 
ATOM     29  N   UNL A   1      45.488  29.614  28.785  1.00  0.00    -0.354 N 
ATOM     30  N   UNL A   1      44.897  26.723  28.045  1.00  0.00    -0.248 NA
ATOM     31  C   UNL A   1      45.654  24.669  27.221  1.00  0.00     0.031 C 
ATOM     32  C   UNL A   1      47.594  30.275  28.618  1.00  0.00     0.029 A 
ATOM     33  C   UNL A   1      46.754  29.183  28.443  1.00  0.00     0.049 A 
ATOM     34  H   UNL A   1      44.675  29.060  28.749  1.00  0.00     0.167 HD
ATOM     35  C   UNL A   1      46.263  26.804  27.830  1.00  0.00     0.074 A 
ATOM     36  C   UNL A   1      46.680  25.498  27.353  1.00  0.00     0.031 C 
ATOM     37  C   UNL A   1      47.101  27.857  27.995  1.00  0.00     0.037 A 
BRANCH  24  38
ATOM     38  C   UNL A   1      44.521  33.128  30.021  1.00  0.00     0.058 A 
ATOM     39  C   UNL A   1      44.293  34.191  29.134  1.00  0.00     0.135 A 
ATOM     40  C   UNL A   1      44.918  33.441  31.331  1.00  0.00     0.135 A 
ATOM     41  F   UNL A   1      43.963  33.947  27.856  1.00  0.00    -0.206 F 
ATOM     42  C   UNL A   1      44.456  35.515  29.531  1.00  0.00     0.059 A 
ATOM     43  C   UNL A   1      45.062  34.758  31.758  1.00  0.00     0.059 A 
ATOM     44  F   UNL A   1      45.182  32.462  32.210  1.00  0.00    -0.206 F 
ATOM     45  C   UNL A   1      44.833  35.788  30.849  1.00  0.00     0.060 A 
BRANCH  45  46
ATOM     46  S   UNL A   1      44.999  37.510  31.359  1.00  0.00     0.124 S 
ATOM     47  O   UNL A   1      45.424  38.145  30.115  1.00  0.00    -0.237 OA
ATOM     48  O   UNL A   1      43.649  37.833  31.806  1.00  0.00    -0.237 OA
ATOM     49  O   UNL A   1      46.010  37.457  32.412  1.00  0.00    -0.744 OA
ENDBRANCH  45  46
ENDBRANCH  24  38
BRANCH  25  50
ATOM     50  C   UNL A   1      42.946  23.473  27.276  1.00  0.00     0.058 A 
ATOM     51  C   UNL A   1      42.635  22.454  28.187  1.00  0.00     0.135 A 
ATOM     52  C   UNL A   1      43.045  23.116  25.918  1.00  0.00     0.135 A 
ATOM     53  F   UNL A   1      42.526  22.734  29.495  1.00  0.00    -0.206 F 
ATOM     54  C   UNL A   1      42.469  21.132  27.780  1.00  0.00     0.059 A 
ATOM     55  C   UNL A   1      42.847  21.808  25.482  1.00  0.00     0.059 A 
ATOM     56  F   UNL A   1      43.325  24.046  24.993  1.00  0.00    -0.206 F 
ATOM     57  C   UNL A   1      42.583  20.818  26.425  1.00  0.00     0.060 A 
BRANCH  57  58
ATOM     58  S   UNL A   1      42.387  19.098  25.908  1.00  0.00     0.124 S 
ATOM     59  O   UNL A   1      43.096  19.094  24.633  1.00  0.00    -0.237 OA
ATOM     60  O   UNL A   1      43.030  18.373  26.998  1.00  0.00    -0.237 OA
ATOM     61  O   UNL A   1      40.938  18.935  25.823  1.00  0.00    -0.744 OA
ENDBRANCH  57  58
ENDBRANCH  25  50
BRANCH  37  62
ATOM     62  C   UNL A   1      48.548  27.604  27.708  1.00  0.00     0.058 A 
ATOM     63  C   UNL A   1      49.093  27.822  26.435  1.00  0.00     0.135 A 
ATOM     64  C   UNL A   1      49.404  27.202  28.744  1.00  0.00     0.135 A 
ATOM     65  F   UNL A   1      48.305  28.195  25.415  1.00  0.00    -0.206 F 
ATOM     66  C   UNL A   1      50.446  27.629  26.193  1.00  0.00     0.059 A 
ATOM     67  C   UNL A   1      50.765  27.036  28.532  1.00  0.00     0.059 A 
ATOM     68  F   UNL A   1      48.922  26.992  29.980  1.00  0.00    -0.206 F 
ATOM     69  C   UNL A   1      51.273  27.243  27.251  1.00  0.00     0.060 A 
BRANCH  69  70
ATOM     70  S   UNL A   1      53.037  27.049  26.935  1.00  0.00     0.124 S 
ATOM     71  O   UNL A   1      53.187  27.753  25.665  1.00  0.00    -0.237 OA
ATOM     72  O   UNL A   1      53.635  27.700  28.097  1.00  0.00    -0.237 OA
ATOM     73  O   UNL A   1      53.213  25.601  26.875  1.00  0.00    -0.744 OA
ENDBRANCH  69  70
ENDBRANCH  37  62
ENDBRANCH  11  12
ENDBRANCH   4   6
ENDBRANCH   3   4
ENDBRANCH   2   3
ENDBRANCH   1   2
BRANCH   1  74
ATOM     74  O   UNL A   1      32.239  28.064  24.815  1.00  0.00    -0.374 OA
BRANCH  74  75
ATOM     75  C   UNL A   1      31.861  28.622  23.553  1.00  0.00     0.202 C 
BRANCH  75  76
ATOM     76  C   UNL A   1      32.223  27.633  22.478  1.00  0.00     0.261 C 
BRANCH  76  77
ATOM     77  O   UNL A   1      33.255  26.813  23.035  1.00  0.00    -0.463 OA
BRANCH  77  78
ATOM     78  C   UNL A   1      33.402  25.579  22.487  1.00  0.00     0.312 C 
ATOM     79  O   UNL A   1      33.569  25.343  21.297  1.00  0.00    -0.252 OA
BRANCH  78  80
ATOM     80  C   UNL A   1      33.194  24.503  23.544  1.00  0.00     0.075 C 
ATOM     81  C   UNL A   1      33.669  24.903  24.973  1.00  0.00     0.040 C 
ATOM     82  C   UNL A   1      33.968  23.238  23.087  1.00  0.00     0.040 C 
ATOM     83  C   UNL A   1      35.155  24.831  25.296  1.00  0.00     0.119 C 
ATOM     84  C   UNL A   1      35.485  23.382  23.252  1.00  0.00     0.119 C 
ATOM     85  N   UNL A   1      35.767  23.712  24.631  1.00  0.00    -0.356 N 
BRANCH  80  86
ATOM     86  C   UNL A   1      31.638  24.238  23.529  1.00  0.00     0.056 C 
BRANCH  86  87
ATOM     87  C   UNL A   1      31.030  24.029  24.920  1.00  0.00    -0.028 A 
ATOM     88  C   UNL A   1      30.287  25.081  25.487  1.00  0.00     0.005 A 
ATOM     89  C   UNL A   1      30.990  22.779  25.566  1.00  0.00     0.044 A 
ATOM     90  C   UNL A   1      29.388  24.850  26.529  1.00  0.00     0.000 A 
ATOM     91  C   UNL A   1      30.084  22.548  26.610  1.00  0.00     0.021 A 
ATOM     92  Cl  UNL A   1      31.975  21.449  25.070  1.00  0.00    -0.084 Cl
ATOM     93  C   UNL A   1      29.256  23.573  27.063  1.00  0.00     0.002 A 
ENDBRANCH  86  87
ENDBRANCH  80  86
BRANCH  85  94
ATOM     94  C   UNL A   1      36.906  23.194  25.205  1.00  0.00     0.141 A 
ATOM     95  N   UNL A   1      37.835  23.980  25.794  1.00  0.00    -0.219 NA
ATOM     96  C   UNL A   1      37.135  21.816  25.146  1.00  0.00     0.061 A 
ATOM     97  C   UNL A   1      38.944  23.385  26.288  1.00  0.00     0.226 A 
ATOM     98  C   UNL A   1      38.324  21.347  25.671  1.00  0.00     0.142 A 
ATOM     99  C   UNL A   1      36.431  20.695  24.626  1.00  0.00     0.033 A 
ATOM    100  N   UNL A   1      39.277  22.076  26.268  1.00  0.00    -0.218 NA
ATOM    101  N   UNL A   1      38.371  19.997  25.451  1.00  0.00    -0.346 N 
ATOM    102  C   UNL A   1      37.221  19.586  24.819  1.00  0.00     0.085 A 
ATOM    103  H   UNL A   1      39.116  19.408  25.709  1.00  0.00     0.167 HD
ENDBRANCH  85  94
ENDBRANCH  78  80
ENDBRANCH  77  78
ENDBRANCH  76  77
ENDBRANCH  75  76
ENDBRANCH  74  75
ENDBRANCH   1  74
TORSDOF 20
ENDMDL
MODEL 2
REMARK VINA RESULT:     -10.8      1.687      2.930
REMARK SMILES O=C(OCCOCCOC(=O)C1(Cc2ccccc2Cl)CCN(c2ncnc3[nH]ccc23)CC1)c1ccc(-c2c3nc(c(-c4c(F)cc(S(=O)(=O)[O-])cc4F)c4ccc([nH]4)c(-c4c(F)cc(S(=O)(=O)[O-])cc4F)c4nc(c(-c5c(F)cc(S(=O)(=O)[O-])cc5F)c5ccc2[nH]5)C=C4)C=C3)cc1
REMARK SMILES IDX 5 1 4 2 3 3 2 4 1 5 35 6 36 7 100 8 37 9 99 10 38 11 39 12
REMARK SMILES IDX 40 13 93 14 41 15 98 16 92 17 94 18 42 19 97 20 91 21 90 22
REMARK SMILES IDX 43 24 77 25 56 26 76 27 57 28 60 29 75 30 95 31 58 32 59 33
REMARK SMILES IDX 74 35 96 36 61 37 44 38 45 39 54 40 46 41 47 42 53 43 55 44
REMARK SMILES IDX 48 45 49 46 50 47 51 48 52 49 78 50 79 51 88 52 80 53 81 54
REMARK SMILES IDX 87 55 89 56 82 57 83 58 84 59 85 60 86 61 62 62 63 63 72 64
REMARK SMILES IDX 64 65 65 66 71 67 73 68 66 69 67 70 68 71 69 72 70 73 6 74
REMARK SMILES IDX 7 75 8 76 9 77 10 78 11 79 12 80 21 81 34 82 22 83 33 84
REMARK SMILES IDX 23 85 13 86 14 87 15 88 19 89 16 90 18 91 20 92 17 93 24 94
REMARK SMILES IDX 25 95 32 96 26 97 28 98 31 99 27 100 29 101 30 102
REMARK H PARENT 94 23 60 34 29 103
REMARK Flexibility Score: inf
ROOT
ATOM      1  C   UNL A   1      34.511  29.009  26.936  1.00  0.00     0.202 C 
ENDROOT
BRANCH   1   2
ATOM      2  C   UNL A   1      34.240  30.341  27.647  1.00  0.00     0.261 C 
BRANCH   2   3
ATOM      3  O   UNL A   1      35.445  31.036  28.051  1.00  0.00    -0.460 OA
BRANCH   3   4
ATOM      4  C   UNL A   1      36.252  30.670  29.093  1.00  0.00     0.338 C 
ATOM      5  O   UNL A   1      35.911  30.829  30.253  1.00  0.00    -0.246 OA
BRANCH   4   6
ATOM      6  C   UNL A   1      37.557  30.055  28.771  1.00  0.00     0.060 A 
ATOM      7  C   UNL A   1      38.361  29.624  29.806  1.00  0.00     0.016 A 
ATOM      8  C   UNL A   1      38.019  29.901  27.474  1.00  0.00     0.016 A 
ATOM      9  C   UNL A   1      39.703  29.457  29.656  1.00  0.00     0.010 A 
ATOM     10  C   UNL A   1      39.310  29.393  27.283  1.00  0.00     0.010 A 
ATOM     11  C   UNL A   1      40.166  29.206  28.386  1.00  0.00    -0.014 A 
BRANCH  11  12
ATOM     12  C   UNL A   1      41.561  28.752  28.291  1.00  0.00     0.031 A 
ATOM     13  C   UNL A   1      42.630  29.752  28.560  1.00  0.00     0.074 A 
ATOM     14  C   UNL A   1      41.823  27.442  28.084  1.00  0.00     0.049 A 
ATOM     15  N   UNL A   1      43.900  29.672  28.301  1.00  0.00    -0.248 NA
ATOM     16  C   UNL A   1      42.211  31.021  29.184  1.00  0.00     0.031 C 
ATOM     17  C   UNL A   1      40.820  26.367  27.979  1.00  0.00     0.029 A 
ATOM     18  N   UNL A   1      43.009  26.773  27.959  1.00  0.00    -0.354 N 
ATOM     19  C   UNL A   1      44.419  30.911  28.642  1.00  0.00     0.074 A 
ATOM     20  C   UNL A   1      43.337  31.717  29.153  1.00  0.00     0.031 C 
ATOM     21  C   UNL A   1      41.434  25.184  27.863  1.00  0.00     0.029 A 
ATOM     22  C   UNL A   1      42.855  25.426  27.718  1.00  0.00     0.049 A 
ATOM     23  H   UNL A   1      43.887  27.212  28.033  1.00  0.00     0.167 HD
ATOM     24  C   UNL A   1      45.695  31.321  28.495  1.00  0.00     0.037 A 
ATOM     25  C   UNL A   1      43.759  24.510  27.329  1.00  0.00     0.037 A 
ATOM     26  C   UNL A   1      46.728  30.444  28.015  1.00  0.00     0.049 A 
ATOM     27  C   UNL A   1      45.157  25.011  27.104  1.00  0.00     0.074 A 
ATOM     28  C   UNL A   1      48.055  30.724  27.762  1.00  0.00     0.029 A 
ATOM     29  N   UNL A   1      46.535  29.095  27.728  1.00  0.00    -0.354 N 
ATOM     30  N   UNL A   1      45.636  26.220  27.301  1.00  0.00    -0.248 NA
ATOM     31  C   UNL A   1      46.129  24.053  26.574  1.00  0.00     0.031 C 
ATOM     32  C   UNL A   1      48.653  29.554  27.281  1.00  0.00     0.029 A 
ATOM     33  C   UNL A   1      47.715  28.530  27.289  1.00  0.00     0.049 A 
ATOM     34  H   UNL A   1      45.682  28.614  27.826  1.00  0.00     0.167 HD
ATOM     35  C   UNL A   1      46.970  26.165  26.933  1.00  0.00     0.074 A 
ATOM     36  C   UNL A   1      47.226  24.795  26.525  1.00  0.00     0.031 C 
ATOM     37  C   UNL A   1      47.903  27.149  26.919  1.00  0.00     0.037 A 
BRANCH  24  38
ATOM     38  C   UNL A   1      45.997  32.763  28.763  1.00  0.00     0.058 A 
ATOM     39  C   UNL A   1      45.878  33.754  27.779  1.00  0.00     0.135 A 
ATOM     40  C   UNL A   1      46.437  33.154  30.038  1.00  0.00     0.135 A 
ATOM     41  F   UNL A   1      45.511  33.427  26.529  1.00  0.00    -0.206 F 
ATOM     42  C   UNL A   1      46.187  35.085  28.047  1.00  0.00     0.059 A 
ATOM     43  C   UNL A   1      46.727  34.482  30.337  1.00  0.00     0.059 A 
ATOM     44  F   UNL A   1      46.601  32.240  31.007  1.00  0.00    -0.206 F 
ATOM     45  C   UNL A   1      46.603  35.439  29.333  1.00  0.00     0.060 A 
BRANCH  45  46
ATOM     46  S   UNL A   1      46.960  37.174  29.676  1.00  0.00     0.124 S 
ATOM     47  O   UNL A   1      47.143  37.156  31.124  1.00  0.00    -0.237 OA
ATOM     48  O   UNL A   1      48.166  37.404  28.887  1.00  0.00    -0.237 OA
ATOM     49  O   UNL A   1      45.765  37.868  29.204  1.00  0.00    -0.744 OA
ENDBRANCH  45  46
ENDBRANCH  24  38
BRANCH  25  50
ATOM     50  C   UNL A   1      43.359  23.107  27.019  1.00  0.00     0.058 A 
ATOM     51  C   UNL A   1      43.031  22.202  28.040  1.00  0.00     0.135 A 
ATOM     52  C   UNL A   1      43.317  22.629  25.696  1.00  0.00     0.135 A 
ATOM     53  F   UNL A   1      43.053  22.600  29.320  1.00  0.00    -0.206 F 
ATOM     54  C   UNL A   1      42.715  20.872  27.766  1.00  0.00     0.059 A 
ATOM     55  C   UNL A   1      42.968  21.315  25.396  1.00  0.00     0.059 A 
ATOM     56  F   UNL A   1      43.605  23.447  24.673  1.00  0.00    -0.206 F 
ATOM     57  C   UNL A   1      42.692  20.437  26.441  1.00  0.00     0.060 A 
BRANCH  57  58
ATOM     58  S   UNL A   1      42.301  18.708  26.097  1.00  0.00     0.124 S 
ATOM     59  O   UNL A   1      42.587  18.082  27.382  1.00  0.00    -0.237 OA
ATOM     60  O   UNL A   1      40.893  18.779  25.720  1.00  0.00    -0.237 OA
ATOM     61  O   UNL A   1      43.217  18.365  25.011  1.00  0.00    -0.744 OA
ENDBRANCH  57  58
ENDBRANCH  25  50
BRANCH  37  62
ATOM     62  C   UNL A   1      49.283  26.749  26.500  1.00  0.00     0.058 A 
ATOM     63  C   UNL A   1      50.180  26.157  27.399  1.00  0.00     0.135 A 
ATOM     64  C   UNL A   1      49.679  26.904  25.163  1.00  0.00     0.135 A 
ATOM     65  F   UNL A   1      49.843  26.002  28.689  1.00  0.00    -0.206 F 
ATOM     66  C   UNL A   1      51.440  25.746  26.988  1.00  0.00     0.059 A 
ATOM     67  C   UNL A   1      50.920  26.470  24.723  1.00  0.00     0.059 A 
ATOM     68  F   UNL A   1      48.844  27.458  24.268  1.00  0.00    -0.206 F 
ATOM     69  C   UNL A   1      51.797  25.901  25.646  1.00  0.00     0.060 A 
BRANCH  69  70
ATOM     70  S   UNL A   1      53.416  25.315  25.114  1.00  0.00     0.124 S 
ATOM     71  O   UNL A   1      53.335  23.895  25.440  1.00  0.00    -0.237 OA
ATOM     72  O   UNL A   1      53.412  25.641  23.691  1.00  0.00    -0.237 OA
ATOM     73  O   UNL A   1      54.343  26.095  25.928  1.00  0.00    -0.744 OA
ENDBRANCH  69  70
ENDBRANCH  37  62
ENDBRANCH  11  12
ENDBRANCH   4   6
ENDBRANCH   3   4
ENDBRANCH   2   3
ENDBRANCH   1   2
BRANCH   1  74
ATOM     74  O   UNL A   1      33.451  28.076  26.814  1.00  0.00    -0.374 OA
BRANCH  74  75
ATOM     75  C   UNL A   1      32.280  28.322  27.596  1.00  0.00     0.202 C 
BRANCH  75  76
ATOM     76  C   UNL A   1      31.240  27.305  27.210  1.00  0.00     0.261 C 
BRANCH  76  77
ATOM     77  O   UNL A   1      31.965  26.144  26.796  1.00  0.00    -0.463 OA
BRANCH  77  78
ATOM     78  C   UNL A   1      31.234  25.152  26.226  1.00  0.00     0.312 C 
ATOM     79  O   UNL A   1      30.324  24.536  26.765  1.00  0.00    -0.252 OA
BRANCH  78  80
ATOM     80  C   UNL A   1      31.792  24.807  24.851  1.00  0.00     0.075 C 
ATOM     81  C   UNL A   1      31.696  23.298  24.477  1.00  0.00     0.040 C 
ATOM     82  C   UNL A   1      33.281  25.242  24.825  1.00  0.00     0.040 C 
ATOM     83  C   UNL A   1      32.723  22.334  25.055  1.00  0.00     0.119 C 
ATOM     84  C   UNL A   1      34.184  24.310  25.642  1.00  0.00     0.119 C 
ATOM     85  N   UNL A   1      34.014  22.961  25.150  1.00  0.00    -0.356 N 
BRANCH  80  86
ATOM     86  C   UNL A   1      30.940  25.684  23.853  1.00  0.00     0.056 C 
BRANCH  86  87
ATOM     87  C   UNL A   1      31.706  26.869  23.256  1.00  0.00    -0.028 A 
ATOM     88  C   UNL A   1      31.607  28.117  23.899  1.00  0.00     0.005 A 
ATOM     89  C   UNL A   1      32.667  26.733  22.237  1.00  0.00     0.044 A 
ATOM     90  C   UNL A   1      32.553  29.119  23.677  1.00  0.00     0.000 A 
ATOM     91  C   UNL A   1      33.618  27.739  22.019  1.00  0.00     0.021 A 
ATOM     92  Cl  UNL A   1      32.788  25.312  21.262  1.00  0.00    -0.084 Cl
ATOM     93  C   UNL A   1      33.584  28.914  22.768  1.00  0.00     0.002 A 
ENDBRANCH  86  87
ENDBRANCH  80  86
BRANCH  85  94
ATOM     94  C   UNL A   1      35.112  22.132  25.130  1.00  0.00     0.141 A 
ATOM     95  N   UNL A   1      35.010  20.811  24.860  1.00  0.00    -0.219 NA
ATOM     96  C   UNL A   1      36.371  22.658  25.436  1.00  0.00     0.061 A 
ATOM     97  C   UNL A   1      36.138  20.067  24.910  1.00  0.00     0.226 A 
ATOM     98  C   UNL A   1      37.434  21.776  25.474  1.00  0.00     0.142 A 
ATOM     99  C   UNL A   1      36.875  23.945  25.770  1.00  0.00     0.033 A 
ATOM    100  N   UNL A   1      37.394  20.462  25.213  1.00  0.00    -0.218 NA
ATOM    101  N   UNL A   1      38.544  22.482  25.852  1.00  0.00    -0.346 N 
ATOM    102  C   UNL A   1      38.219  23.806  26.031  1.00  0.00     0.085 A 
ATOM    103  H   UNL A   1      39.443  22.099  25.977  1.00  0.00     0.167 HD
ENDBRANCH  85  94
ENDBRANCH  78  80
ENDBRANCH  77  78
ENDBRANCH  76  77
ENDBRANCH  75  76
ENDBRANCH  74  75
ENDBRANCH   1  74
TORSDOF 20
ENDMDL
MODEL 3
REMARK VINA RESULT:     -10.7      2.264      8.549
REMARK SMILES O=C(OCCOCCOC(=O)C1(Cc2ccccc2Cl)CCN(c2ncnc3[nH]ccc23)CC1)c1ccc(-c2c3nc(c(-c4c(F)cc(S(=O)(=O)[O-])cc4F)c4ccc([nH]4)c(-c4c(F)cc(S(=O)(=O)[O-])cc4F)c4nc(c(-c5c(F)cc(S(=O)(=O)[O-])cc5F)c5ccc2[nH]5)C=C4)C=C3)cc1
REMARK SMILES IDX 5 1 4 2 3 3 2 4 1 5 35 6 36 7 100 8 37 9 99 10 38 11 39 12
REMARK SMILES IDX 40 13 93 14 41 15 98 16 92 17 94 18 42 19 97 20 91 21 90 22
REMARK SMILES IDX 43 24 77 25 56 26 76 27 57 28 60 29 75 30 95 31 58 32 59 33
REMARK SMILES IDX 74 35 96 36 61 37 44 38 45 39 54 40 46 41 47 42 53 43 55 44
REMARK SMILES IDX 48 45 49 46 50 47 51 48 52 49 78 50 79 51 88 52 80 53 81 54
REMARK SMILES IDX 87 55 89 56 82 57 83 58 84 59 85 60 86 61 62 62 63 63 72 64
REMARK SMILES IDX 64 65 65 66 71 67 73 68 66 69 67 70 68 71 69 72 70 73 6 74
REMARK SMILES IDX 7 75 8 76 9 77 10 78 11 79 12 80 21 81 34 82 22 83 33 84
REMARK SMILES IDX 23 85 13 86 14 87 15 88 19 89 16 90 18 91 20 92 17 93 24 94
REMARK SMILES IDX 25 95 32 96 26 97 28 98 31 99 27 100 29 101 30 102
REMARK H PARENT 94 23 60 34 29 103
REMARK Flexibility Score: inf
ROOT
ATOM      1  C   UNL A   1      34.478  31.440  27.626  1.00  0.00     0.202 C 
ENDROOT
BRANCH   1   2
ATOM      2  C   UNL A   1      35.160  31.302  28.993  1.00  0.00     0.261 C 
BRANCH   2   3
ATOM      3  O   UNL A   1      35.842  30.037  29.173  1.00  0.00    -0.460 OA
BRANCH   3   4
ATOM      4  C   UNL A   1      36.688  29.740  30.206  1.00  0.00     0.338 C 
ATOM      5  O   UNL A   1      36.278  29.581  31.344  1.00  0.00    -0.246 OA
BRANCH   4   6
ATOM      6  C   UNL A   1      38.127  29.600  29.900  1.00  0.00     0.060 A 
ATOM      7  C   UNL A   1      38.575  29.953  28.643  1.00  0.00     0.016 A 
ATOM      8  C   UNL A   1      39.050  29.120  30.814  1.00  0.00     0.016 A 
ATOM      9  C   UNL A   1      39.742  29.474  28.132  1.00  0.00     0.010 A 
ATOM     10  C   UNL A   1      40.374  28.939  30.391  1.00  0.00     0.010 A 
ATOM     11  C   UNL A   1      40.707  29.084  29.030  1.00  0.00    -0.014 A 
BRANCH  11  12
ATOM     12  C   UNL A   1      42.044  28.843  28.470  1.00  0.00     0.031 A 
ATOM     13  C   UNL A   1      42.333  27.482  27.941  1.00  0.00     0.074 A 
ATOM     14  C   UNL A   1      42.911  29.873  28.345  1.00  0.00     0.049 A 
ATOM     15  N   UNL A   1      43.481  26.957  27.637  1.00  0.00    -0.248 NA
ATOM     16  C   UNL A   1      41.179  26.584  27.749  1.00  0.00     0.031 C 
ATOM     17  C   UNL A   1      42.634  31.280  28.688  1.00  0.00     0.029 A 
ATOM     18  N   UNL A   1      44.190  29.916  27.865  1.00  0.00    -0.354 N 
ATOM     19  C   UNL A   1      43.203  25.640  27.307  1.00  0.00     0.074 A 
ATOM     20  C   UNL A   1      41.776  25.449  27.419  1.00  0.00     0.031 C 
ATOM     21  C   UNL A   1      43.683  32.042  28.356  1.00  0.00     0.029 A 
ATOM     22  C   UNL A   1      44.760  31.168  27.937  1.00  0.00     0.049 A 
ATOM     23  H   UNL A   1      44.658  29.130  27.503  1.00  0.00     0.167 HD
ATOM     24  C   UNL A   1      44.094  24.684  26.975  1.00  0.00     0.037 A 
ATOM     25  C   UNL A   1      46.040  31.545  27.772  1.00  0.00     0.037 A 
ATOM     26  C   UNL A   1      45.498  24.962  26.845  1.00  0.00     0.049 A 
ATOM     27  C   UNL A   1      47.021  30.447  27.474  1.00  0.00     0.074 A 
ATOM     28  C   UNL A   1      46.531  24.090  26.566  1.00  0.00     0.029 A 
ATOM     29  N   UNL A   1      46.058  26.229  26.973  1.00  0.00    -0.354 N 
ATOM     30  N   UNL A   1      46.786  29.167  27.286  1.00  0.00    -0.248 NA
ATOM     31  C   UNL A   1      48.435  30.822  27.400  1.00  0.00     0.031 C 
ATOM     32  C   UNL A   1      47.722  24.827  26.571  1.00  0.00     0.029 A 
ATOM     33  C   UNL A   1      47.424  26.165  26.793  1.00  0.00     0.049 A 
ATOM     34  H   UNL A   1      45.552  27.053  27.164  1.00  0.00     0.167 HD
ATOM     35  C   UNL A   1      48.022  28.584  27.056  1.00  0.00     0.074 A 
ATOM     36  C   UNL A   1      48.997  29.658  27.105  1.00  0.00     0.031 C 
ATOM     37  C   UNL A   1      48.335  27.283  26.835  1.00  0.00     0.037 A 
BRANCH  24  38
ATOM     38  C   UNL A   1      43.587  23.282  26.832  1.00  0.00     0.058 A 
ATOM     39  C   UNL A   1      43.181  22.510  27.931  1.00  0.00     0.135 A 
ATOM     40  C   UNL A   1      43.528  22.692  25.559  1.00  0.00     0.135 A 
ATOM     41  F   UNL A   1      43.266  23.007  29.175  1.00  0.00    -0.206 F 
ATOM     42  C   UNL A   1      42.736  21.201  27.773  1.00  0.00     0.059 A 
ATOM     43  C   UNL A   1      43.062  21.394  25.375  1.00  0.00     0.059 A 
ATOM     44  F   UNL A   1      43.936  23.374  24.478  1.00  0.00    -0.206 F 
ATOM     45  C   UNL A   1      42.672  20.655  26.489  1.00  0.00     0.060 A 
BRANCH  45  46
ATOM     46  S   UNL A   1      42.055  18.970  26.298  1.00  0.00     0.124 S 
ATOM     47  O   UNL A   1      40.722  19.207  25.751  1.00  0.00    -0.237 OA
ATOM     48  O   UNL A   1      43.024  18.388  25.376  1.00  0.00    -0.237 OA
ATOM     49  O   UNL A   1      42.089  18.439  27.657  1.00  0.00    -0.744 OA
ENDBRANCH  45  46
ENDBRANCH  24  38
BRANCH  25  50
ATOM     50  C   UNL A   1      46.470  32.954  27.998  1.00  0.00     0.058 A 
ATOM     51  C   UNL A   1      46.943  33.378  29.248  1.00  0.00     0.135 A 
ATOM     52  C   UNL A   1      46.397  33.919  26.976  1.00  0.00     0.135 A 
ATOM     53  F   UNL A   1      47.036  32.504  30.262  1.00  0.00    -0.206 F 
ATOM     54  C   UNL A   1      47.290  34.707  29.489  1.00  0.00     0.059 A 
ATOM     55  C   UNL A   1      46.773  35.243  27.182  1.00  0.00     0.059 A 
ATOM     56  F   UNL A   1      45.967  33.576  25.752  1.00  0.00    -0.206 F 
ATOM     57  C   UNL A   1      47.196  35.633  28.450  1.00  0.00     0.060 A 
BRANCH  57  58
ATOM     58  S   UNL A   1      47.628  37.357  28.775  1.00  0.00     0.124 S 
ATOM     59  O   UNL A   1      47.018  37.569  30.082  1.00  0.00    -0.237 OA
ATOM     60  O   UNL A   1      49.086  37.319  28.750  1.00  0.00    -0.237 OA
ATOM     61  O   UNL A   1      47.007  38.075  27.665  1.00  0.00    -0.744 OA
ENDBRANCH  57  58
ENDBRANCH  25  50
BRANCH  37  62
ATOM     62  C   UNL A   1      49.778  26.982  26.579  1.00  0.00     0.058 A 
ATOM     63  C   UNL A   1      50.651  26.635  27.619  1.00  0.00     0.135 A 
ATOM     64  C   UNL A   1      50.267  26.978  25.265  1.00  0.00     0.135 A 
ATOM     65  F   UNL A   1      50.224  26.639  28.892  1.00  0.00    -0.206 F 
ATOM     66  C   UNL A   1      51.976  26.312  27.364  1.00  0.00     0.059 A 
ATOM     67  C   UNL A   1      51.578  26.625  24.983  1.00  0.00     0.059 A 
ATOM     68  F   UNL A   1      49.460  27.295  24.239  1.00  0.00    -0.206 F 
ATOM     69  C   UNL A   1      52.427  26.303  26.042  1.00  0.00     0.060 A 
BRANCH  69  70
ATOM     70  S   UNL A   1      54.136  25.830  25.720  1.00  0.00     0.124 S 
ATOM     71  O   UNL A   1      54.772  27.131  25.545  1.00  0.00    -0.237 OA
ATOM     72  O   UNL A   1      54.493  25.106  26.937  1.00  0.00    -0.237 OA
ATOM     73  O   UNL A   1      54.039  25.010  24.516  1.00  0.00    -0.744 OA
ENDBRANCH  69  70
ENDBRANCH  37  62
ENDBRANCH  11  12
ENDBRANCH   4   6
ENDBRANCH   3   4
ENDBRANCH   2   3
ENDBRANCH   1   2
BRANCH   1  74
ATOM     74  O   UNL A   1      33.109  31.092  27.511  1.00  0.00    -0.374 OA
BRANCH  74  75
ATOM     75  C   UNL A   1      32.813  29.799  26.977  1.00  0.00     0.202 C 
BRANCH  75  76
ATOM     76  C   UNL A   1      32.106  29.989  25.662  1.00  0.00     0.261 C 
BRANCH  76  77
ATOM     77  O   UNL A   1      31.736  28.678  25.226  1.00  0.00    -0.463 OA
BRANCH  77  78
ATOM     78  C   UNL A   1      32.267  28.266  24.046  1.00  0.00     0.312 C 
ATOM     79  O   UNL A   1      33.085  28.885  23.378  1.00  0.00    -0.252 OA
BRANCH  78  80
ATOM     80  C   UNL A   1      31.601  26.976  23.588  1.00  0.00     0.075 C 
ATOM     81  C   UNL A   1      30.752  26.265  24.685  1.00  0.00     0.040 C 
ATOM     82  C   UNL A   1      32.719  26.013  23.108  1.00  0.00     0.040 C 
ATOM     83  C   UNL A   1      31.469  25.434  25.740  1.00  0.00     0.119 C 
ATOM     84  C   UNL A   1      33.523  25.415  24.269  1.00  0.00     0.119 C 
ATOM     85  N   UNL A   1      32.605  24.759  25.172  1.00  0.00    -0.356 N 
BRANCH  80  86
ATOM     86  C   UNL A   1      30.689  27.416  22.377  1.00  0.00     0.056 C 
BRANCH  86  87
ATOM     87  C   UNL A   1      29.676  28.511  22.728  1.00  0.00    -0.028 A 
ATOM     88  C   UNL A   1      29.964  29.832  22.342  1.00  0.00     0.005 A 
ATOM     89  C   UNL A   1      28.385  28.240  23.220  1.00  0.00     0.044 A 
ATOM     90  C   UNL A   1      28.957  30.795  22.258  1.00  0.00     0.000 A 
ATOM     91  C   UNL A   1      27.375  29.207  23.131  1.00  0.00     0.021 A 
ATOM     92  Cl  UNL A   1      27.948  26.703  23.875  1.00  0.00    -0.084 Cl
ATOM     93  C   UNL A   1      27.653  30.471  22.613  1.00  0.00     0.002 A 
ENDBRANCH  86  87
ENDBRANCH  80  86
BRANCH  85  94
ATOM     94  C   UNL A   1      33.020  23.605  25.797  1.00  0.00     0.141 A 
ATOM     95  N   UNL A   1      33.609  23.619  27.014  1.00  0.00    -0.219 NA
ATOM     96  C   UNL A   1      32.866  22.379  25.142  1.00  0.00     0.061 A 
ATOM     97  C   UNL A   1      34.026  22.439  27.527  1.00  0.00     0.226 A 
ATOM     98  C   UNL A   1      33.360  21.255  25.774  1.00  0.00     0.142 A 
ATOM     99  C   UNL A   1      32.323  21.961  23.896  1.00  0.00     0.033 A 
ATOM    100  N   UNL A   1      33.948  21.207  26.978  1.00  0.00    -0.218 NA
ATOM    101  N   UNL A   1      33.165  20.189  24.939  1.00  0.00    -0.346 N 
ATOM    102  C   UNL A   1      32.529  20.605  23.792  1.00  0.00     0.085 A 
ATOM    103  H   UNL A   1      33.438  19.263  25.130  1.00  0.00     0.167 HD
ENDBRANCH  85  94
ENDBRANCH  78  80
ENDBRANCH  77  78
ENDBRANCH  76  77
ENDBRANCH  75  76
ENDBRANCH  74  75
ENDBRANCH   1  74
TORSDOF 20
ENDMDL
