MODEL 1
REMARK VINA RESULT:      -9.2      0.000      0.000
REMARK SMILES Cc1ccc(C(=O)N2CCCC[C@@H]2C(=O)OCCOCCOC(=O)c2ccc(-c3c4nc(c(-c5c(F)cc(S(=O)(=O)[O-])cc5F)c5ccc([nH]5)c(-c5c(F)cc(S(=O)(=O)[O-])cc5F)c5nc(c(-c6c(F)cc(S(=O)(=O)[O-])cc6F)c6ccc3[nH]6)C=C5)C=C4)cc2)cc1S(=O)(=O)N1CCCCC1
REMARK SMILES IDX 18 1 17 2 16 3 14 4 15 5 13 6 8 7 9 8 10 9 12 10 11 11 6 12
REMARK SMILES IDX 7 13 5 14 1 15 2 16 3 17 92 18 4 19 91 20 93 21 94 22 95 23
REMARK SMILES IDX 96 24 97 25 101 26 98 27 100 28 99 29 19 30 20 31 21 32
REMARK SMILES IDX 22 33 23 34 24 35 25 36 26 37 90 38 27 39 89 40 28 41 29 42
REMARK SMILES IDX 30 43 83 44 31 45 88 46 82 47 84 48 32 49 87 50 81 51 80 52
REMARK SMILES IDX 33 54 67 55 46 56 66 57 47 58 50 59 65 60 85 61 48 62 49 63
REMARK SMILES IDX 64 65 86 66 51 67 34 68 35 69 44 70 36 71 37 72 43 73 45 74
REMARK SMILES IDX 38 75 39 76 40 77 41 78 42 79 68 80 69 81 78 82 70 83 71 84
REMARK SMILES IDX 77 85 79 86 72 87 73 88 74 89 75 90 76 91 52 92 53 93 62 94
REMARK SMILES IDX 54 95 55 96 61 97 63 98 56 99 57 100 58 101 59 102 60 103
REMARK H PARENT 84 53 50 64
REMARK Flexibility Score: inf
ROOT
ATOM      1  C   UNL A   1      40.584  22.023  27.500  1.00  0.00     0.202 C 
ENDROOT
BRANCH   1   2
ATOM      2  C   UNL A   1      39.970  23.181  26.707  1.00  0.00     0.261 C 
BRANCH   2   3
ATOM      3  O   UNL A   1      40.545  24.468  27.061  1.00  0.00    -0.462 OA
BRANCH   3   4
ATOM      4  C   UNL A   1      39.862  25.298  27.906  1.00  0.00     0.328 C 
ATOM      5  O   UNL A   1      38.921  24.981  28.620  1.00  0.00    -0.250 OA
BRANCH   4   6
ATOM      6  C   UNL A   1      40.554  26.683  28.013  1.00  0.00     0.195 C 
ATOM      7  N   UNL A   1      39.799  27.971  28.215  1.00  0.00    -0.325 N 
ATOM      8  C   UNL A   1      39.953  29.079  27.278  1.00  0.00     0.121 C 
ATOM      9  C   UNL A   1      40.724  28.802  26.011  1.00  0.00     0.022 C 
ATOM     10  C   UNL A   1      41.573  26.683  26.841  1.00  0.00     0.037 C 
ATOM     11  C   UNL A   1      41.990  28.053  26.372  1.00  0.00     0.005 C 
BRANCH   7  12
ATOM     12  C   UNL A   1      39.263  28.418  29.447  1.00  0.00     0.254 C 
ATOM     13  O   UNL A   1      38.513  27.728  30.143  1.00  0.00    -0.269 OA
BRANCH  12  14
ATOM     14  C   UNL A   1      39.812  29.604  30.098  1.00  0.00     0.041 A 
ATOM     15  C   UNL A   1      42.086  32.785  29.978  1.00  0.00     0.046 C 
ATOM     16  C   UNL A   1      41.300  31.725  30.598  1.00  0.00    -0.031 A 
ATOM     17  C   UNL A   1      41.900  30.464  30.696  1.00  0.00     0.005 A 
ATOM     18  C   UNL A   1      39.946  31.957  30.625  1.00  0.00     0.086 A 
ATOM     19  C   UNL A   1      41.132  29.370  30.480  1.00  0.00     0.014 A 
ATOM     20  C   UNL A   1      39.164  30.858  30.273  1.00  0.00     0.035 A 
BRANCH  18  21
ATOM     21  S   UNL A   1      39.369  33.683  30.848  1.00  0.00     0.243 S 
ATOM     22  O   UNL A   1      40.336  34.339  31.707  1.00  0.00    -0.207 OA
ATOM     23  O   UNL A   1      39.122  34.159  29.501  1.00  0.00    -0.207 OA
BRANCH  21  24
ATOM     24  N   UNL A   1      37.805  33.698  31.691  1.00  0.00    -0.198 NA
ATOM     25  C   UNL A   1      36.369  32.953  30.795  1.00  0.00     0.102 C 
ATOM     26  C   UNL A   1      37.694  34.287  33.462  1.00  0.00     0.102 C 
ATOM     27  C   UNL A   1      34.599  32.717  31.762  1.00  0.00     0.017 C 
ATOM     28  C   UNL A   1      35.925  34.173  34.412  1.00  0.00     0.017 C 
ATOM     29  C   UNL A   1      34.397  33.399  33.551  1.00  0.00     0.003 C 
ENDBRANCH  21  24
ENDBRANCH  18  21
ENDBRANCH  12  14
ENDBRANCH   7  12
ENDBRANCH   4   6
ENDBRANCH   3   4
ENDBRANCH   2   3
ENDBRANCH   1   2
BRANCH   1  30
ATOM     30  O   UNL A   1      41.884  21.794  26.960  1.00  0.00    -0.374 OA
BRANCH  30  31
ATOM     31  C   UNL A   1      42.064  20.655  26.139  1.00  0.00     0.202 C 
BRANCH  31  32
ATOM     32  C   UNL A   1      43.489  20.463  25.605  1.00  0.00     0.261 C 
BRANCH  32  33
ATOM     33  O   UNL A   1      43.961  21.670  24.978  1.00  0.00    -0.460 OA
BRANCH  33  34
ATOM     34  C   UNL A   1      45.253  21.987  25.268  1.00  0.00     0.338 C 
ATOM     35  O   UNL A   1      46.217  21.373  24.846  1.00  0.00    -0.246 OA
BRANCH  34  36
ATOM     36  C   UNL A   1      45.299  23.151  26.196  1.00  0.00     0.060 A 
ATOM     37  C   UNL A   1      46.418  23.377  27.010  1.00  0.00     0.016 A 
ATOM     38  C   UNL A   1      44.148  23.913  26.385  1.00  0.00     0.016 A 
ATOM     39  C   UNL A   1      46.361  24.310  28.060  1.00  0.00     0.010 A 
ATOM     40  C   UNL A   1      44.061  24.751  27.477  1.00  0.00     0.010 A 
ATOM     41  C   UNL A   1      45.165  24.983  28.320  1.00  0.00    -0.014 A 
BRANCH  41  42
ATOM     42  C   UNL A   1      44.907  25.885  29.489  1.00  0.00     0.031 A 
ATOM     43  C   UNL A   1      44.448  25.150  30.783  1.00  0.00     0.074 A 
ATOM     44  C   UNL A   1      45.713  26.976  29.404  1.00  0.00     0.049 A 
ATOM     45  N   UNL A   1      44.458  25.475  32.048  1.00  0.00    -0.248 NA
ATOM     46  C   UNL A   1      43.851  23.836  30.610  1.00  0.00     0.031 C 
ATOM     47  C   UNL A   1      46.979  27.222  30.068  1.00  0.00     0.029 A 
ATOM     48  N   UNL A   1      45.784  27.946  28.423  1.00  0.00    -0.354 N 
ATOM     49  C   UNL A   1      44.423  24.304  32.882  1.00  0.00     0.074 A 
ATOM     50  C   UNL A   1      43.872  23.358  31.850  1.00  0.00     0.031 C 
ATOM     51  C   UNL A   1      47.504  28.414  29.799  1.00  0.00     0.029 A 
ATOM     52  C   UNL A   1      46.654  28.983  28.813  1.00  0.00     0.049 A 
ATOM     53  H   UNL A   1      45.296  27.917  27.569  1.00  0.00     0.167 HD
ATOM     54  C   UNL A   1      45.101  24.207  34.299  1.00  0.00     0.037 A 
ATOM     55  C   UNL A   1      46.211  30.251  28.932  1.00  0.00     0.037 A 
ATOM     56  C   UNL A   1      45.323  25.972  34.481  1.00  0.00     0.049 A 
ATOM     57  C   UNL A   1      45.662  30.493  30.334  1.00  0.00     0.074 A 
ATOM     58  C   UNL A   1      46.149  26.864  35.233  1.00  0.00     0.029 A 
ATOM     59  N   UNL A   1      44.471  26.989  33.867  1.00  0.00    -0.354 N 
ATOM     60  N   UNL A   1      45.378  29.569  31.236  1.00  0.00    -0.248 NA
ATOM     61  C   UNL A   1      45.535  31.846  30.864  1.00  0.00     0.031 C 
ATOM     62  C   UNL A   1      46.132  28.167  34.728  1.00  0.00     0.029 A 
ATOM     63  C   UNL A   1      45.041  28.274  33.905  1.00  0.00     0.049 A 
ATOM     64  H   UNL A   1      43.592  26.795  33.469  1.00  0.00     0.167 HD
ATOM     65  C   UNL A   1      44.929  30.181  32.389  1.00  0.00     0.074 A 
ATOM     66  C   UNL A   1      45.114  31.602  32.115  1.00  0.00     0.031 C 
ATOM     67  C   UNL A   1      44.449  29.559  33.521  1.00  0.00     0.037 A 
BRANCH  54  68
ATOM     68  C   UNL A   1      45.636  22.674  35.630  1.00  0.00     0.058 A 
ATOM     69  C   UNL A   1      46.020  22.680  37.212  1.00  0.00     0.135 A 
ATOM     70  C   UNL A   1      45.750  21.089  35.540  1.00  0.00     0.135 A 
ATOM     71  F   UNL A   1      46.228  23.816  37.944  1.00  0.00    -0.206 F 
ATOM     72  C   UNL A   1      46.266  21.664  38.180  1.00  0.00     0.059 A 
ATOM     73  C   UNL A   1      45.993  20.063  36.540  1.00  0.00     0.059 A 
ATOM     74  F   UNL A   1      45.581  20.369  34.399  1.00  0.00    -0.206 F 
ATOM     75  C   UNL A   1      46.229  20.353  37.852  1.00  0.00     0.060 A 
BRANCH  75  76
ATOM     76  S   UNL A   1      46.462  19.128  39.140  1.00  0.00     0.124 S 
ATOM     77  O   UNL A   1      45.672  18.006  38.644  1.00  0.00    -0.237 OA
ATOM     78  O   UNL A   1      47.909  18.934  39.124  1.00  0.00    -0.237 OA
ATOM     79  O   UNL A   1      45.940  19.786  40.333  1.00  0.00    -0.744 OA
ENDBRANCH  75  76
ENDBRANCH  54  68
BRANCH  55  80
ATOM     80  C   UNL A   1      45.867  30.708  27.541  1.00  0.00     0.058 A 
ATOM     81  C   UNL A   1      44.477  30.977  27.390  1.00  0.00     0.135 A 
ATOM     82  C   UNL A   1      46.747  31.604  26.906  1.00  0.00     0.135 A 
ATOM     83  F   UNL A   1      43.577  30.145  27.943  1.00  0.00    -0.206 F 
ATOM     84  C   UNL A   1      44.009  32.218  26.947  1.00  0.00     0.059 A 
ATOM     85  C   UNL A   1      46.295  32.861  26.473  1.00  0.00     0.059 A 
ATOM     86  F   UNL A   1      48.070  31.412  27.001  1.00  0.00    -0.206 F 
ATOM     87  C   UNL A   1      44.937  33.186  26.571  1.00  0.00     0.060 A 
BRANCH  87  88
ATOM     88  S   UNL A   1      44.422  34.931  26.526  1.00  0.00     0.124 S 
ATOM     89  O   UNL A   1      44.015  35.162  27.904  1.00  0.00    -0.237 OA
ATOM     90  O   UNL A   1      45.635  35.621  26.093  1.00  0.00    -0.237 OA
ATOM     91  O   UNL A   1      43.355  34.912  25.531  1.00  0.00    -0.744 OA
ENDBRANCH  87  88
ENDBRANCH  55  80
BRANCH  67  92
ATOM     92  C   UNL A   1      43.688  30.331  34.610  1.00  0.00     0.058 A 
ATOM     93  C   UNL A   1      44.335  31.186  35.521  1.00  0.00     0.135 A 
ATOM     94  C   UNL A   1      42.271  30.335  34.701  1.00  0.00     0.135 A 
ATOM     95  F   UNL A   1      45.662  31.372  35.481  1.00  0.00    -0.206 F 
ATOM     96  C   UNL A   1      43.647  31.924  36.486  1.00  0.00     0.059 A 
ATOM     97  C   UNL A   1      41.562  31.093  35.629  1.00  0.00     0.059 A 
ATOM     98  F   UNL A   1      41.490  29.629  33.872  1.00  0.00    -0.206 F 
ATOM     99  C   UNL A   1      42.258  31.881  36.525  1.00  0.00     0.060 A 
BRANCH  99 100
ATOM    100  S   UNL A   1      41.367  32.966  37.650  1.00  0.00     0.124 S 
ATOM    101  O   UNL A   1      40.030  32.961  37.067  1.00  0.00    -0.237 OA
ATOM    102  O   UNL A   1      41.504  32.273  38.928  1.00  0.00    -0.237 OA
ATOM    103  O   UNL A   1      42.098  34.226  37.550  1.00  0.00    -0.744 OA
ENDBRANCH  99 100
ENDBRANCH  67  92
ENDBRANCH  41  42
ENDBRANCH  34  36
ENDBRANCH  33  34
ENDBRANCH  32  33
ENDBRANCH  31  32
ENDBRANCH  30  31
ENDBRANCH   1  30
TORSDOF 21
ENDMDL
MODEL 2
REMARK VINA RESULT:      -8.7      9.075     15.485
REMARK SMILES Cc1ccc(C(=O)N2CCCC[C@@H]2C(=O)OCCOCCOC(=O)c2ccc(-c3c4nc(c(-c5c(F)cc(S(=O)(=O)[O-])cc5F)c5ccc([nH]5)c(-c5c(F)cc(S(=O)(=O)[O-])cc5F)c5nc(c(-c6c(F)cc(S(=O)(=O)[O-])cc6F)c6ccc3[nH]6)C=C5)C=C4)cc2)cc1S(=O)(=O)N1CCCCC1
REMARK SMILES IDX 18 1 17 2 16 3 14 4 15 5 13 6 8 7 9 8 10 9 12 10 11 11 6 12
REMARK SMILES IDX 7 13 5 14 1 15 2 16 3 17 92 18 4 19 91 20 93 21 94 22 95 23
REMARK SMILES IDX 96 24 97 25 101 26 98 27 100 28 99 29 19 30 20 31 21 32
REMARK SMILES IDX 22 33 23 34 24 35 25 36 26 37 90 38 27 39 89 40 28 41 29 42
REMARK SMILES IDX 30 43 83 44 31 45 88 46 82 47 84 48 32 49 87 50 81 51 80 52
REMARK SMILES IDX 33 54 67 55 46 56 66 57 47 58 50 59 65 60 85 61 48 62 49 63
REMARK SMILES IDX 64 65 86 66 51 67 34 68 35 69 44 70 36 71 37 72 43 73 45 74
REMARK SMILES IDX 38 75 39 76 40 77 41 78 42 79 68 80 69 81 78 82 70 83 71 84
REMARK SMILES IDX 77 85 79 86 72 87 73 88 74 89 75 90 76 91 52 92 53 93 62 94
REMARK SMILES IDX 54 95 55 96 61 97 63 98 56 99 57 100 58 101 59 102 60 103
REMARK H PARENT 84 53 50 64
REMARK Flexibility Score: inf
ROOT
ATOM      1  C   UNL A   1      46.532  43.911  24.368  1.00  0.00     0.202 C 
ENDROOT
BRANCH   1   2
ATOM      2  C   UNL A   1      46.071  45.083  23.495  1.00  0.00     0.261 C 
BRANCH   2   3
ATOM      3  O   UNL A   1      44.944  44.739  22.646  1.00  0.00    -0.462 OA
BRANCH   3   4
ATOM      4  C   UNL A   1      45.171  44.334  21.360  1.00  0.00     0.328 C 
ATOM      5  O   UNL A   1      46.169  44.578  20.696  1.00  0.00    -0.250 OA
BRANCH   4   6
ATOM      6  C   UNL A   1      44.082  43.336  20.884  1.00  0.00     0.195 C 
ATOM      7  N   UNL A   1      43.016  43.692  19.881  1.00  0.00    -0.325 N 
ATOM      8  C   UNL A   1      41.602  43.535  20.208  1.00  0.00     0.121 C 
ATOM      9  C   UNL A   1      41.265  43.208  21.642  1.00  0.00     0.022 C 
ATOM     10  C   UNL A   1      43.570  42.687  22.199  1.00  0.00     0.037 C 
ATOM     11  C   UNL A   1      42.185  42.100  22.111  1.00  0.00     0.005 C 
BRANCH   7  12
ATOM     12  C   UNL A   1      43.208  43.770  18.480  1.00  0.00     0.254 C 
ATOM     13  O   UNL A   1      43.132  42.788  17.736  1.00  0.00    -0.269 OA
BRANCH  12  14
ATOM     14  C   UNL A   1      43.213  45.068  17.812  1.00  0.00     0.041 A 
ATOM     15  C   UNL A   1      41.506  48.516  17.100  1.00  0.00     0.046 C 
ATOM     16  C   UNL A   1      42.428  47.408  16.878  1.00  0.00    -0.031 A 
ATOM     17  C   UNL A   1      41.903  46.255  16.284  1.00  0.00     0.005 A 
ATOM     18  C   UNL A   1      43.569  47.451  17.643  1.00  0.00     0.086 A 
ATOM     19  C   UNL A   1      42.332  45.051  16.732  1.00  0.00     0.014 A 
ATOM     20  C   UNL A   1      43.932  46.229  18.209  1.00  0.00     0.035 A 
BRANCH  18  21
ATOM     21  S   UNL A   1      44.290  49.092  18.028  1.00  0.00     0.243 S 
ATOM     22  O   UNL A   1      43.883  49.988  16.963  1.00  0.00    -0.207 OA
ATOM     23  O   UNL A   1      43.906  49.343  19.403  1.00  0.00    -0.207 OA
BRANCH  21  24
ATOM     24  N   UNL A   1      46.065  48.998  18.001  1.00  0.00    -0.198 NA
ATOM     25  C   UNL A   1      46.942  49.373  19.585  1.00  0.00     0.102 C 
ATOM     26  C   UNL A   1      46.953  48.380  16.476  1.00  0.00     0.102 C 
ATOM     27  C   UNL A   1      48.947  49.071  19.715  1.00  0.00     0.017 C 
ATOM     28  C   UNL A   1      48.953  48.179  16.535  1.00  0.00     0.017 C 
ATOM     29  C   UNL A   1      49.928  48.534  18.147  1.00  0.00     0.003 C 
ENDBRANCH  21  24
ENDBRANCH  18  21
ENDBRANCH  12  14
ENDBRANCH   7  12
ENDBRANCH   4   6
ENDBRANCH   3   4
ENDBRANCH   2   3
ENDBRANCH   1   2
BRANCH   1  30
ATOM     30  O   UNL A   1      45.408  43.506  25.145  1.00  0.00    -0.374 OA
BRANCH  30  31
ATOM     31  C   UNL A   1      45.537  43.532  26.555  1.00  0.00     0.202 C 
BRANCH  31  32
ATOM     32  C   UNL A   1      44.624  42.557  27.306  1.00  0.00     0.261 C 
BRANCH  32  33
ATOM     33  O   UNL A   1      44.631  41.265  26.670  1.00  0.00    -0.460 OA
BRANCH  33  34
ATOM     34  C   UNL A   1      43.395  40.762  26.402  1.00  0.00     0.338 C 
ATOM     35  O   UNL A   1      42.530  41.366  25.795  1.00  0.00    -0.246 OA
BRANCH  34  36
ATOM     36  C   UNL A   1      43.257  39.401  26.993  1.00  0.00     0.060 A 
ATOM     37  C   UNL A   1      44.295  38.840  27.752  1.00  0.00     0.016 A 
ATOM     38  C   UNL A   1      42.165  38.614  26.635  1.00  0.00     0.016 A 
ATOM     39  C   UNL A   1      44.275  37.474  28.087  1.00  0.00     0.010 A 
ATOM     40  C   UNL A   1      42.199  37.256  26.877  1.00  0.00     0.010 A 
ATOM     41  C   UNL A   1      43.237  36.664  27.622  1.00  0.00    -0.014 A 
BRANCH  41  42
ATOM     42  C   UNL A   1      43.160  35.175  27.767  1.00  0.00     0.031 A 
ATOM     43  C   UNL A   1      44.262  34.393  26.994  1.00  0.00     0.074 A 
ATOM     44  C   UNL A   1      42.628  34.866  28.979  1.00  0.00     0.049 A 
ATOM     45  N   UNL A   1      44.760  33.191  27.117  1.00  0.00    -0.248 NA
ATOM     46  C   UNL A   1      44.886  35.080  25.875  1.00  0.00     0.031 C 
ATOM     47  C   UNL A   1      43.314  34.498  30.203  1.00  0.00     0.029 A 
ATOM     48  N   UNL A   1      41.388  35.176  29.504  1.00  0.00    -0.354 N 
ATOM     49  C   UNL A   1      46.075  33.116  26.539  1.00  0.00     0.074 A 
ATOM     50  C   UNL A   1      45.955  34.322  25.647  1.00  0.00     0.031 C 
ATOM     51  C   UNL A   1      42.497  34.220  31.214  1.00  0.00     0.029 A 
ATOM     52  C   UNL A   1      41.194  34.523  30.736  1.00  0.00     0.049 A 
ATOM     53  H   UNL A   1      40.732  35.772  29.076  1.00  0.00     0.167 HD
ATOM     54  C   UNL A   1      47.220  32.172  27.064  1.00  0.00     0.037 A 
ATOM     55  C   UNL A   1      40.177  33.654  30.907  1.00  0.00     0.037 A 
ATOM     56  C   UNL A   1      46.132  31.151  28.051  1.00  0.00     0.049 A 
ATOM     57  C   UNL A   1      40.601  32.250  30.490  1.00  0.00     0.074 A 
ATOM     58  C   UNL A   1      46.234  30.268  29.170  1.00  0.00     0.029 A 
ATOM     59  N   UNL A   1      44.718  30.915  27.762  1.00  0.00    -0.354 N 
ATOM     60  N   UNL A   1      41.681  31.930  29.798  1.00  0.00    -0.248 NA
ATOM     61  C   UNL A   1      39.879  31.077  30.970  1.00  0.00     0.031 C 
ATOM     62  C   UNL A   1      44.994  29.993  29.753  1.00  0.00     0.029 A 
ATOM     63  C   UNL A   1      44.027  30.347  28.848  1.00  0.00     0.049 A 
ATOM     64  H   UNL A   1      44.295  31.131  26.900  1.00  0.00     0.167 HD
ATOM     65  C   UNL A   1      41.732  30.558  29.642  1.00  0.00     0.074 A 
ATOM     66  C   UNL A   1      40.616  30.082  30.453  1.00  0.00     0.031 C 
ATOM     67  C   UNL A   1      42.652  29.844  28.906  1.00  0.00     0.037 A 
BRANCH  54  68
ATOM     68  C   UNL A   1      49.299  32.017  26.820  1.00  0.00     0.058 A 
ATOM     69  C   UNL A   1      50.316  30.746  26.856  1.00  0.00     0.135 A 
ATOM     70  C   UNL A   1      50.472  33.030  26.457  1.00  0.00     0.135 A 
ATOM     71  F   UNL A   1      49.952  29.488  27.249  1.00  0.00    -0.206 F 
ATOM     72  C   UNL A   1      51.701  30.572  26.575  1.00  0.00     0.059 A 
ATOM     73  C   UNL A   1      51.881  32.836  26.164  1.00  0.00     0.059 A 
ATOM     74  F   UNL A   1      50.311  34.372  26.311  1.00  0.00    -0.206 F 
ATOM     75  C   UNL A   1      52.482  31.612  26.205  1.00  0.00     0.060 A 
BRANCH  75  76
ATOM     76  S   UNL A   1      54.197  31.304  25.782  1.00  0.00     0.124 S 
ATOM     77  O   UNL A   1      54.907  32.068  26.802  1.00  0.00    -0.237 OA
ATOM     78  O   UNL A   1      54.290  29.851  25.908  1.00  0.00    -0.237 OA
ATOM     79  O   UNL A   1      54.308  31.815  24.420  1.00  0.00    -0.744 OA
ENDBRANCH  75  76
ENDBRANCH  54  68
BRANCH  55  80
ATOM     80  C   UNL A   1      38.914  34.469  30.841  1.00  0.00     0.058 A 
ATOM     81  C   UNL A   1      38.187  34.239  29.638  1.00  0.00     0.135 A 
ATOM     82  C   UNL A   1      38.149  34.594  32.015  1.00  0.00     0.135 A 
ATOM     83  F   UNL A   1      38.849  34.139  28.472  1.00  0.00    -0.206 F 
ATOM     84  C   UNL A   1      36.852  33.821  29.650  1.00  0.00     0.059 A 
ATOM     85  C   UNL A   1      36.814  34.162  32.048  1.00  0.00     0.059 A 
ATOM     86  F   UNL A   1      38.765  34.815  33.186  1.00  0.00    -0.206 F 
ATOM     87  C   UNL A   1      36.201  33.704  30.875  1.00  0.00     0.060 A 
BRANCH  87  88
ATOM     88  S   UNL A   1      34.707  32.669  30.985  1.00  0.00     0.124 S 
ATOM     89  O   UNL A   1      34.016  33.005  29.748  1.00  0.00    -0.237 OA
ATOM     90  O   UNL A   1      35.249  31.315  31.068  1.00  0.00    -0.237 OA
ATOM     91  O   UNL A   1      34.092  33.146  32.219  1.00  0.00    -0.744 OA
ENDBRANCH  87  88
ENDBRANCH  55  80
BRANCH  67  92
ATOM     92  C   UNL A   1      42.432  28.367  28.545  1.00  0.00     0.058 A 
ATOM     93  C   UNL A   1      42.738  27.319  29.433  1.00  0.00     0.135 A 
ATOM     94  C   UNL A   1      41.792  27.956  27.345  1.00  0.00     0.135 A 
ATOM     95  F   UNL A   1      43.242  27.563  30.652  1.00  0.00    -0.206 F 
ATOM     96  C   UNL A   1      42.502  25.977  29.130  1.00  0.00     0.059 A 
ATOM     97  C   UNL A   1      41.510  26.627  27.040  1.00  0.00     0.059 A 
ATOM     98  F   UNL A   1      41.373  28.823  26.415  1.00  0.00    -0.206 F 
ATOM     99  C   UNL A   1      41.876  25.641  27.935  1.00  0.00     0.060 A 
BRANCH  99 100
ATOM    100  S   UNL A   1      41.412  23.929  27.627  1.00  0.00     0.124 S 
ATOM    101  O   UNL A   1      39.956  24.013  27.635  1.00  0.00    -0.237 OA
ATOM    102  O   UNL A   1      42.026  23.668  26.328  1.00  0.00    -0.237 OA
ATOM    103  O   UNL A   1      42.012  23.212  28.748  1.00  0.00    -0.744 OA
ENDBRANCH  99 100
ENDBRANCH  67  92
ENDBRANCH  41  42
ENDBRANCH  34  36
ENDBRANCH  33  34
ENDBRANCH  32  33
ENDBRANCH  31  32
ENDBRANCH  30  31
ENDBRANCH   1  30
TORSDOF 21
ENDMDL
MODEL 3
REMARK VINA RESULT:      -8.5      5.752      9.314
REMARK SMILES Cc1ccc(C(=O)N2CCCC[C@@H]2C(=O)OCCOCCOC(=O)c2ccc(-c3c4nc(c(-c5c(F)cc(S(=O)(=O)[O-])cc5F)c5ccc([nH]5)c(-c5c(F)cc(S(=O)(=O)[O-])cc5F)c5nc(c(-c6c(F)cc(S(=O)(=O)[O-])cc6F)c6ccc3[nH]6)C=C5)C=C4)cc2)cc1S(=O)(=O)N1CCCCC1
REMARK SMILES IDX 18 1 17 2 16 3 14 4 15 5 13 6 8 7 9 8 10 9 12 10 11 11 6 12
REMARK SMILES IDX 7 13 5 14 1 15 2 16 3 17 92 18 4 19 91 20 93 21 94 22 95 23
REMARK SMILES IDX 96 24 97 25 101 26 98 27 100 28 99 29 19 30 20 31 21 32
REMARK SMILES IDX 22 33 23 34 24 35 25 36 26 37 90 38 27 39 89 40 28 41 29 42
REMARK SMILES IDX 30 43 83 44 31 45 88 46 82 47 84 48 32 49 87 50 81 51 80 52
REMARK SMILES IDX 33 54 67 55 46 56 66 57 47 58 50 59 65 60 85 61 48 62 49 63
REMARK SMILES IDX 64 65 86 66 51 67 34 68 35 69 44 70 36 71 37 72 43 73 45 74
REMARK SMILES IDX 38 75 39 76 40 77 41 78 42 79 68 80 69 81 78 82 70 83 71 84
REMARK SMILES IDX 77 85 79 86 72 87 73 88 74 89 75 90 76 91 52 92 53 93 62 94
REMARK SMILES IDX 54 95 55 96 61 97 63 98 56 99 57 100 58 101 59 102 60 103
REMARK H PARENT 84 53 50 64
REMARK Flexibility Score: inf
ROOT
ATOM      1  C   UNL A   1      41.371  20.174  27.346  1.00  0.00     0.202 C 
ENDROOT
BRANCH   1   2
ATOM      2  C   UNL A   1      40.461  21.357  27.002  1.00  0.00     0.261 C 
BRANCH   2   3
ATOM      3  O   UNL A   1      39.470  21.025  25.993  1.00  0.00    -0.462 OA
BRANCH   3   4
ATOM      4  C   UNL A   1      38.457  21.905  25.730  1.00  0.00     0.328 C 
ATOM      5  O   UNL A   1      38.403  23.070  26.103  1.00  0.00    -0.250 OA
BRANCH   4   6
ATOM      6  C   UNL A   1      37.446  21.313  24.714  1.00  0.00     0.195 C 
ATOM      7  N   UNL A   1      36.106  21.936  24.422  1.00  0.00    -0.325 N 
ATOM      8  C   UNL A   1      34.876  21.166  24.579  1.00  0.00     0.121 C 
ATOM      9  C   UNL A   1      34.995  19.813  25.237  1.00  0.00     0.022 C 
ATOM     10  C   UNL A   1      37.417  19.798  25.056  1.00  0.00     0.037 C 
ATOM     11  C   UNL A   1      36.167  19.080  24.618  1.00  0.00     0.005 C 
BRANCH   7  12
ATOM     12  C   UNL A   1      35.895  23.068  23.597  1.00  0.00     0.254 C 
ATOM     13  O   UNL A   1      36.666  23.390  22.688  1.00  0.00    -0.269 OA
BRANCH  12  14
ATOM     14  C   UNL A   1      34.599  23.739  23.591  1.00  0.00     0.041 A 
ATOM     15  C   UNL A   1      30.769  23.715  24.393  1.00  0.00     0.046 C 
ATOM     16  C   UNL A   1      32.002  24.174  23.763  1.00  0.00    -0.031 A 
ATOM     17  C   UNL A   1      32.472  23.431  22.674  1.00  0.00     0.005 A 
ATOM     18  C   UNL A   1      32.773  24.999  24.546  1.00  0.00     0.086 A 
ATOM     19  C   UNL A   1      33.808  23.239  22.558  1.00  0.00     0.014 A 
ATOM     20  C   UNL A   1      34.137  24.709  24.523  1.00  0.00     0.035 A 
BRANCH  18  21
ATOM     21  S   UNL A   1      31.919  26.155  25.685  1.00  0.00     0.243 S 
ATOM     22  O   UNL A   1      31.136  25.343  26.596  1.00  0.00    -0.207 OA
ATOM     23  O   UNL A   1      32.971  27.024  26.174  1.00  0.00    -0.207 OA
BRANCH  21  24
ATOM     24  N   UNL A   1      30.789  27.181  24.775  1.00  0.00    -0.198 NA
ATOM     25  C   UNL A   1      29.162  26.427  24.320  1.00  0.00     0.102 C 
ATOM     26  C   UNL A   1      31.189  28.980  24.462  1.00  0.00     0.102 C 
ATOM     27  C   UNL A   1      27.720  27.586  23.483  1.00  0.00     0.017 C 
ATOM     28  C   UNL A   1      29.826  30.129  23.531  1.00  0.00     0.017 C 
ATOM     29  C   UNL A   1      28.113  29.419  23.045  1.00  0.00     0.003 C 
ENDBRANCH  21  24
ENDBRANCH  18  21
ENDBRANCH  12  14
ENDBRANCH   7  12
ENDBRANCH   4   6
ENDBRANCH   3   4
ENDBRANCH   2   3
ENDBRANCH   1   2
BRANCH   1  30
ATOM     30  O   UNL A   1      41.684  19.521  26.118  1.00  0.00    -0.374 OA
BRANCH  30  31
ATOM     31  C   UNL A   1      42.603  18.444  26.160  1.00  0.00     0.202 C 
BRANCH  31  32
ATOM     32  C   UNL A   1      43.870  18.644  25.320  1.00  0.00     0.261 C 
BRANCH  32  33
ATOM     33  O   UNL A   1      44.509  19.890  25.655  1.00  0.00    -0.460 OA
BRANCH  33  34
ATOM     34  C   UNL A   1      44.488  20.819  24.660  1.00  0.00     0.338 C 
ATOM     35  O   UNL A   1      44.479  20.546  23.473  1.00  0.00    -0.246 OA
BRANCH  34  36
ATOM     36  C   UNL A   1      44.519  22.191  25.239  1.00  0.00     0.060 A 
ATOM     37  C   UNL A   1      44.939  23.286  24.470  1.00  0.00     0.016 A 
ATOM     38  C   UNL A   1      44.303  22.355  26.606  1.00  0.00     0.016 A 
ATOM     39  C   UNL A   1      45.215  24.522  25.079  1.00  0.00     0.010 A 
ATOM     40  C   UNL A   1      44.672  23.537  27.214  1.00  0.00     0.010 A 
ATOM     41  C   UNL A   1      45.112  24.646  26.467  1.00  0.00    -0.014 A 
BRANCH  41  42
ATOM     42  C   UNL A   1      45.518  25.846  27.269  1.00  0.00     0.031 A 
ATOM     43  C   UNL A   1      47.045  25.945  27.555  1.00  0.00     0.074 A 
ATOM     44  C   UNL A   1      44.660  26.869  27.016  1.00  0.00     0.049 A 
ATOM     45  N   UNL A   1      47.831  26.935  27.884  1.00  0.00    -0.248 NA
ATOM     46  C   UNL A   1      47.803  24.707  27.486  1.00  0.00     0.031 C 
ATOM     47  C   UNL A   1      44.822  27.984  26.103  1.00  0.00     0.029 A 
ATOM     48  N   UNL A   1      43.295  26.948  27.224  1.00  0.00    -0.354 N 
ATOM     49  C   UNL A   1      49.196  26.648  27.532  1.00  0.00     0.074 A 
ATOM     50  C   UNL A   1      49.056  25.152  27.450  1.00  0.00     0.031 C 
ATOM     51  C   UNL A   1      43.805  28.841  26.115  1.00  0.00     0.029 A 
ATOM     52  C   UNL A   1      42.830  28.252  26.964  1.00  0.00     0.049 A 
ATOM     53  H   UNL A   1      42.728  26.198  27.512  1.00  0.00     0.167 HD
ATOM     54  C   UNL A   1      50.249  27.739  27.108  1.00  0.00     0.037 A 
ATOM     55  C   UNL A   1      42.227  28.977  27.928  1.00  0.00     0.037 A 
ATOM     56  C   UNL A   1      49.284  29.120  27.707  1.00  0.00     0.049 A 
ATOM     57  C   UNL A   1      43.260  29.752  28.736  1.00  0.00     0.074 A 
ATOM     58  C   UNL A   1      49.195  30.528  27.479  1.00  0.00     0.029 A 
ATOM     59  N   UNL A   1      48.328  29.055  28.811  1.00  0.00    -0.354 N 
ATOM     60  N   UNL A   1      44.569  29.563  28.725  1.00  0.00    -0.248 NA
ATOM     61  C   UNL A   1      42.873  30.920  29.520  1.00  0.00     0.031 C 
ATOM     62  C   UNL A   1      48.015  31.081  27.985  1.00  0.00     0.029 A 
ATOM     63  C   UNL A   1      47.486  30.180  28.872  1.00  0.00     0.049 A 
ATOM     64  H   UNL A   1      48.278  28.303  29.445  1.00  0.00     0.167 HD
ATOM     65  C   UNL A   1      45.168  30.478  29.568  1.00  0.00     0.074 A 
ATOM     66  C   UNL A   1      44.063  31.337  29.980  1.00  0.00     0.031 C 
ATOM     67  C   UNL A   1      46.504  30.545  29.897  1.00  0.00     0.037 A 
BRANCH  54  68
ATOM     68  C   UNL A   1      52.128  27.759  26.170  1.00  0.00     0.058 A 
ATOM     69  C   UNL A   1      53.429  28.722  26.345  1.00  0.00     0.135 A 
ATOM     70  C   UNL A   1      52.869  26.837  25.106  1.00  0.00     0.135 A 
ATOM     71  F   UNL A   1      53.435  29.872  27.085  1.00  0.00    -0.206 F 
ATOM     72  C   UNL A   1      54.757  28.702  25.830  1.00  0.00     0.059 A 
ATOM     73  C   UNL A   1      54.229  26.824  24.597  1.00  0.00     0.059 A 
ATOM     74  F   UNL A   1      52.294  25.782  24.470  1.00  0.00    -0.206 F 
ATOM     75  C   UNL A   1      55.168  27.739  24.974  1.00  0.00     0.060 A 
BRANCH  75  76
ATOM     76  S   UNL A   1      56.878  27.727  24.435  1.00  0.00     0.124 S 
ATOM     77  O   UNL A   1      56.944  26.500  23.649  1.00  0.00    -0.237 OA
ATOM     78  O   UNL A   1      56.969  28.969  23.671  1.00  0.00    -0.237 OA
ATOM     79  O   UNL A   1      57.628  27.715  25.686  1.00  0.00    -0.744 OA
ENDBRANCH  75  76
ENDBRANCH  54  68
BRANCH  55  80
ATOM     80  C   UNL A   1      40.922  28.286  28.217  1.00  0.00     0.058 A 
ATOM     81  C   UNL A   1      40.830  27.852  29.570  1.00  0.00     0.135 A 
ATOM     82  C   UNL A   1      39.751  28.829  27.657  1.00  0.00     0.135 A 
ATOM     83  F   UNL A   1      41.900  27.294  30.162  1.00  0.00    -0.206 F 
ATOM     84  C   UNL A   1      39.776  28.245  30.401  1.00  0.00     0.059 A 
ATOM     85  C   UNL A   1      38.692  29.244  28.480  1.00  0.00     0.059 A 
ATOM     86  F   UNL A   1      39.761  29.255  26.386  1.00  0.00    -0.206 F 
ATOM     87  C   UNL A   1      38.751  29.017  29.860  1.00  0.00     0.060 A 
BRANCH  87  88
ATOM     88  S   UNL A   1      37.691  29.986  30.979  1.00  0.00     0.124 S 
ATOM     89  O   UNL A   1      37.644  31.277  30.308  1.00  0.00    -0.237 OA
ATOM     90  O   UNL A   1      36.444  29.225  30.992  1.00  0.00    -0.237 OA
ATOM     91  O   UNL A   1      38.438  29.935  32.231  1.00  0.00    -0.744 OA
ENDBRANCH  87  88
ENDBRANCH  55  80
BRANCH  67  92
ATOM     92  C   UNL A   1      47.008  31.392  31.076  1.00  0.00     0.058 A 
ATOM     93  C   UNL A   1      47.550  30.818  32.241  1.00  0.00     0.135 A 
ATOM     94  C   UNL A   1      47.080  32.810  31.029  1.00  0.00     0.135 A 
ATOM     95  F   UNL A   1      47.654  29.488  32.378  1.00  0.00    -0.206 F 
ATOM     96  C   UNL A   1      48.049  31.579  33.298  1.00  0.00     0.059 A 
ATOM     97  C   UNL A   1      47.610  33.587  32.055  1.00  0.00     0.059 A 
ATOM     98  F   UNL A   1      46.669  33.521  29.971  1.00  0.00    -0.206 F 
ATOM     99  C   UNL A   1      48.087  32.965  33.192  1.00  0.00     0.060 A 
BRANCH  99 100
ATOM    100  S   UNL A   1      48.892  33.933  34.478  1.00  0.00     0.124 S 
ATOM    101  O   UNL A   1      49.382  35.079  33.720  1.00  0.00    -0.237 OA
ATOM    102  O   UNL A   1      47.793  34.205  35.399  1.00  0.00    -0.237 OA
ATOM    103  O   UNL A   1      49.915  33.026  34.989  1.00  0.00    -0.744 OA
ENDBRANCH  99 100
ENDBRANCH  67  92
ENDBRANCH  41  42
ENDBRANCH  34  36
ENDBRANCH  33  34
ENDBRANCH  32  33
ENDBRANCH  31  32
ENDBRANCH  30  31
ENDBRANCH   1  30
TORSDOF 21
ENDMDL
