MODEL 1
REMARK VINA RESULT:     -12.4      0.000      0.000
REMARK SMILES Cc1ccc(C2=NN(C(=O)CCC(=O)OCCOCCOC(=O)c3ccc(-c4c5nc(c(-c6c(F)cc(S(=O)(=O)[O-])cc6F)c6ccc([nH]6)c(-c6c(F)cc(S(=O)(=O)[O-])cc6F)c6nc(c(-c7c(F)cc(S(=O)(=O)[O-])cc7F)c7ccc4[nH]7)C=C6)C=C5)cc3)[C@H](C[C@H]3C=c4cccc(C)c4=NC3=O)C2)cc1
REMARK SMILES IDX 17 1 16 2 15 3 13 4 14 5 12 6 11 7 9 8 10 9 8 10 6 11 7 12
REMARK SMILES IDX 104 13 90 14 5 15 1 16 2 17 3 18 106 19 4 20 105 21 91 22
REMARK SMILES IDX 92 23 93 24 102 25 94 26 101 27 103 28 95 29 100 30 96 31
REMARK SMILES IDX 98 32 97 33 99 34 18 35 19 36 20 37 21 38 22 39 23 40 24 41
REMARK SMILES IDX 25 42 89 43 26 44 88 45 27 46 28 47 29 48 82 49 30 50 87 51
REMARK SMILES IDX 81 52 83 53 31 54 86 55 80 56 79 57 32 59 66 60 45 61 65 62
REMARK SMILES IDX 46 63 49 64 64 65 84 66 47 67 48 68 63 70 85 71 50 72 33 73
REMARK SMILES IDX 34 74 43 75 35 76 36 77 42 78 44 79 37 80 38 81 39 82 40 83
REMARK SMILES IDX 41 84 67 85 68 86 77 87 69 88 70 89 76 90 78 91 71 92 72 93
REMARK SMILES IDX 73 94 74 95 75 96 51 97 52 98 61 99 53 100 54 101 60 102
REMARK SMILES IDX 62 103 55 104 56 105 57 106 58 107 59 108
REMARK H PARENT 83 58 49 69
REMARK Flexibility Score: inf
ROOT
ATOM      1  C   UNL A   1      34.217  23.350  24.911  1.00  0.00     0.202 C 
ENDROOT
BRANCH   1   2
ATOM      2  C   UNL A   1      33.433  23.488  26.143  1.00  0.00     0.261 C 
BRANCH   2   3
ATOM      3  O   UNL A   1      32.865  22.299  26.620  1.00  0.00    -0.463 OA
BRANCH   3   4
ATOM      4  C   UNL A   1      31.916  21.842  25.794  1.00  0.00     0.306 C 
ATOM      5  O   UNL A   1      32.063  20.977  24.943  1.00  0.00    -0.252 OA
BRANCH   4   6
ATOM      6  C   UNL A   1      30.634  22.554  26.065  1.00  0.00     0.132 C 
BRANCH   6   7
ATOM      7  C   UNL A   1      30.625  24.085  25.992  1.00  0.00     0.114 C 
BRANCH   7   8
ATOM      8  C   UNL A   1      30.775  25.021  24.714  1.00  0.00     0.243 C 
ATOM      9  O   UNL A   1      30.603  24.374  23.659  1.00  0.00    -0.273 OA
BRANCH   8  10
ATOM     10  N   UNL A   1      31.028  26.483  24.638  1.00  0.00    -0.230 N 
ATOM     11  C   UNL A   1      29.693  28.931  23.580  1.00  0.00     0.070 C 
ATOM     12  N   UNL A   1      29.394  27.357  23.966  1.00  0.00    -0.174 NA
ATOM     13  C   UNL A   1      31.540  29.399  24.159  1.00  0.00     0.086 C 
ATOM     14  C   UNL A   1      32.559  27.784  24.804  1.00  0.00     0.118 C 
BRANCH  11  15
ATOM     15  C   UNL A   1      28.956  30.011  22.869  1.00  0.00    -0.002 A 
ATOM     16  C   UNL A   1      27.516  33.377  20.603  1.00  0.00     0.044 C 
ATOM     17  C   UNL A   1      27.948  32.182  21.392  1.00  0.00    -0.051 A 
ATOM     18  C   UNL A   1      27.949  32.190  22.798  1.00  0.00     0.004 A 
ATOM     19  C   UNL A   1      28.457  31.083  20.722  1.00  0.00     0.004 A 
ATOM     20  C   UNL A   1      28.415  31.093  23.537  1.00  0.00     0.010 A 
ATOM     21  C   UNL A   1      28.999  30.041  21.460  1.00  0.00     0.010 A 
ENDBRANCH  11  15
BRANCH  14  22
ATOM     22  C   UNL A   1      34.101  27.656  26.292  1.00  0.00     0.045 C 
BRANCH  22  23
ATOM     23  C   UNL A   1      34.357  29.147  27.637  1.00  0.00     0.106 C 
ATOM     24  C   UNL A   1      35.684  29.179  28.652  1.00  0.00    -0.003 C 
ATOM     25  C   UNL A   1      34.226  30.718  27.331  1.00  0.00     0.253 C 
ATOM     26  C   UNL A   1      36.734  29.995  28.468  1.00  0.00    -0.003 A 
ATOM     27  N   UNL A   1      35.060  31.681  27.980  1.00  0.00    -0.212 NA
ATOM     28  O   UNL A   1      33.350  31.101  26.555  1.00  0.00    -0.272 OA
ATOM     29  C   UNL A   1      38.160  29.719  28.614  1.00  0.00     0.010 A 
ATOM     30  C   UNL A   1      36.218  31.358  28.476  1.00  0.00     0.077 A 
ATOM     31  C   UNL A   1      39.017  30.681  28.976  1.00  0.00     0.001 A 
ATOM     32  C   UNL A   1      37.161  32.236  29.313  1.00  0.00    -0.025 A 
ATOM     33  C   UNL A   1      38.461  31.901  29.497  1.00  0.00     0.005 A 
ATOM     34  C   UNL A   1      36.523  33.231  30.215  1.00  0.00     0.047 C 
ENDBRANCH  22  23
ENDBRANCH  14  22
ENDBRANCH   8  10
ENDBRANCH   7   8
ENDBRANCH   6   7
ENDBRANCH   4   6
ENDBRANCH   3   4
ENDBRANCH   2   3
ENDBRANCH   1   2
BRANCH   1  35
ATOM     35  O   UNL A   1      35.486  22.776  25.035  1.00  0.00    -0.374 OA
BRANCH  35  36
ATOM     36  C   UNL A   1      36.380  23.002  26.165  1.00  0.00     0.202 C 
BRANCH  36  37
ATOM     37  C   UNL A   1      37.975  23.887  26.235  1.00  0.00     0.261 C 
BRANCH  37  38
ATOM     38  O   UNL A   1      39.808  23.252  26.386  1.00  0.00    -0.460 OA
BRANCH  38  39
ATOM     39  C   UNL A   1      40.836  22.598  27.664  1.00  0.00     0.338 C 
ATOM     40  O   UNL A   1      40.508  21.507  28.140  1.00  0.00    -0.246 OA
BRANCH  39  41
ATOM     41  C   UNL A   1      42.540  23.157  28.018  1.00  0.00     0.060 A 
ATOM     42  C   UNL A   1      43.241  23.086  29.233  1.00  0.00     0.016 A 
ATOM     43  C   UNL A   1      43.352  23.893  27.149  1.00  0.00     0.016 A 
ATOM     44  C   UNL A   1      44.002  24.235  29.747  1.00  0.00     0.010 A 
ATOM     45  C   UNL A   1      44.143  24.995  27.617  1.00  0.00     0.010 A 
ATOM     46  C   UNL A   1      44.216  25.362  28.965  1.00  0.00    -0.014 A 
BRANCH  46  47
ATOM     47  C   UNL A   1      44.497  26.842  29.355  1.00  0.00     0.031 A 
ATOM     48  C   UNL A   1      43.350  27.675  29.845  1.00  0.00     0.074 A 
ATOM     49  C   UNL A   1      45.735  27.404  29.670  1.00  0.00     0.049 A 
ATOM     50  N   UNL A   1      43.464  28.897  30.239  1.00  0.00    -0.248 NA
ATOM     51  C   UNL A   1      41.971  27.212  29.950  1.00  0.00     0.031 C 
ATOM     52  C   UNL A   1      46.079  28.478  30.665  1.00  0.00     0.029 A 
ATOM     53  N   UNL A   1      47.029  26.950  29.458  1.00  0.00    -0.354 N 
ATOM     54  C   UNL A   1      42.350  29.230  30.971  1.00  0.00     0.074 A 
ATOM     55  C   UNL A   1      41.389  28.223  30.610  1.00  0.00     0.031 C 
ATOM     56  C   UNL A   1      47.409  28.699  30.743  1.00  0.00     0.029 A 
ATOM     57  C   UNL A   1      47.996  27.958  29.669  1.00  0.00     0.049 A 
ATOM     58  H   UNL A   1      47.248  26.028  29.191  1.00  0.00     0.167 HD
ATOM     59  C   UNL A   1      42.428  30.252  31.877  1.00  0.00     0.037 A 
ATOM     60  C   UNL A   1      48.675  28.441  28.581  1.00  0.00     0.037 A 
ATOM     61  C   UNL A   1      43.729  30.945  31.779  1.00  0.00     0.049 A 
ATOM     62  C   UNL A   1      48.139  29.771  28.188  1.00  0.00     0.074 A 
ATOM     63  C   UNL A   1      44.840  31.115  32.588  1.00  0.00     0.029 A 
ATOM     64  N   UNL A   1      44.124  31.397  30.527  1.00  0.00    -0.354 N 
ATOM     65  N   UNL A   1      47.271  30.345  28.962  1.00  0.00    -0.248 NA
ATOM     66  C   UNL A   1      48.396  30.544  26.985  1.00  0.00     0.031 C 
ATOM     67  C   UNL A   1      45.917  31.613  31.764  1.00  0.00     0.029 A 
ATOM     68  C   UNL A   1      45.447  31.790  30.469  1.00  0.00     0.049 A 
ATOM     69  H   UNL A   1      43.519  31.434  29.752  1.00  0.00     0.167 HD
ATOM     70  C   UNL A   1      46.822  31.488  28.445  1.00  0.00     0.074 A 
ATOM     71  C   UNL A   1      47.504  31.545  27.149  1.00  0.00     0.031 C 
ATOM     72  C   UNL A   1      45.964  32.260  29.173  1.00  0.00     0.037 A 
BRANCH  59  73
ATOM     73  C   UNL A   1      41.366  30.602  32.914  1.00  0.00     0.058 A 
ATOM     74  C   UNL A   1      40.661  31.824  32.819  1.00  0.00     0.135 A 
ATOM     75  C   UNL A   1      41.017  29.822  34.043  1.00  0.00     0.135 A 
ATOM     76  F   UNL A   1      40.909  32.687  31.825  1.00  0.00    -0.206 F 
ATOM     77  C   UNL A   1      39.680  32.219  33.738  1.00  0.00     0.059 A 
ATOM     78  C   UNL A   1      40.004  30.172  34.947  1.00  0.00     0.059 A 
ATOM     79  F   UNL A   1      41.679  28.704  34.364  1.00  0.00    -0.206 F 
ATOM     80  C   UNL A   1      39.341  31.377  34.791  1.00  0.00     0.060 A 
BRANCH  80  81
ATOM     81  S   UNL A   1      38.043  31.883  35.940  1.00  0.00     0.124 S 
ATOM     82  O   UNL A   1      38.660  33.020  36.614  1.00  0.00    -0.237 OA
ATOM     83  O   UNL A   1      36.940  32.199  35.040  1.00  0.00    -0.237 OA
ATOM     84  O   UNL A   1      37.844  30.699  36.772  1.00  0.00    -0.744 OA
ENDBRANCH  80  81
ENDBRANCH  59  73
BRANCH  60  85
ATOM     85  C   UNL A   1      49.171  27.313  27.722  1.00  0.00     0.058 A 
ATOM     86  C   UNL A   1      48.446  27.306  26.554  1.00  0.00     0.135 A 
ATOM     87  C   UNL A   1      50.554  27.293  27.543  1.00  0.00     0.135 A 
ATOM     88  F   UNL A   1      47.125  27.066  26.560  1.00  0.00    -0.206 F 
ATOM     89  C   UNL A   1      49.043  27.783  25.378  1.00  0.00     0.059 A 
ATOM     90  C   UNL A   1      51.194  27.796  26.321  1.00  0.00     0.059 A 
ATOM     91  F   UNL A   1      51.334  27.265  28.641  1.00  0.00    -0.206 F 
ATOM     92  C   UNL A   1      50.615  28.098  24.990  1.00  0.00     0.060 A 
BRANCH  92  93
ATOM     93  S   UNL A   1      51.394  27.714  22.559  1.00  0.00     0.124 S 
ATOM     94  O   UNL A   1      51.183  28.933  21.687  1.00  0.00    -0.237 OA
ATOM     95  O   UNL A   1      52.850  27.416  22.455  1.00  0.00    -0.237 OA
ATOM     96  O   UNL A   1      50.602  26.746  21.783  1.00  0.00    -0.744 OA
ENDBRANCH  92  93
ENDBRANCH  60  85
BRANCH  72  97
ATOM     97  C   UNL A   1      45.499  33.543  28.604  1.00  0.00     0.058 A 
ATOM     98  C   UNL A   1      44.312  33.615  27.868  1.00  0.00     0.135 A 
ATOM     99  C   UNL A   1      46.214  34.740  28.786  1.00  0.00     0.135 A 
ATOM    100  F   UNL A   1      43.674  32.505  27.457  1.00  0.00    -0.206 F 
ATOM    101  C   UNL A   1      43.739  34.826  27.548  1.00  0.00     0.059 A 
ATOM    102  C   UNL A   1      45.709  35.957  28.384  1.00  0.00     0.059 A 
ATOM    103  F   UNL A   1      47.408  34.794  29.387  1.00  0.00    -0.206 F 
ATOM    104  C   UNL A   1      44.445  35.992  27.825  1.00  0.00     0.060 A 
BRANCH 104 105
ATOM    105  S   UNL A   1      43.708  37.559  27.389  1.00  0.00     0.124 S 
ATOM    106  O   UNL A   1      44.822  38.244  26.744  1.00  0.00    -0.237 OA
ATOM    107  O   UNL A   1      42.626  37.129  26.508  1.00  0.00    -0.237 OA
ATOM    108  O   UNL A   1      43.296  38.105  28.677  1.00  0.00    -0.744 OA
ENDBRANCH 104 105
ENDBRANCH  72  97
ENDBRANCH  46  47
ENDBRANCH  39  41
ENDBRANCH  38  39
ENDBRANCH  37  38
ENDBRANCH  36  37
ENDBRANCH  35  36
ENDBRANCH   1  35
TORSDOF 23
ENDMDL
MODEL 2
REMARK VINA RESULT:     -12.3      6.861     14.044
REMARK SMILES Cc1ccc(C2=NN(C(=O)CCC(=O)OCCOCCOC(=O)c3ccc(-c4c5nc(c(-c6c(F)cc(S(=O)(=O)[O-])cc6F)c6ccc([nH]6)c(-c6c(F)cc(S(=O)(=O)[O-])cc6F)c6nc(c(-c7c(F)cc(S(=O)(=O)[O-])cc7F)c7ccc4[nH]7)C=C6)C=C5)cc3)[C@H](C[C@H]3C=c4cccc(C)c4=NC3=O)C2)cc1
REMARK SMILES IDX 17 1 16 2 15 3 13 4 14 5 12 6 11 7 9 8 10 9 8 10 6 11 7 12
REMARK SMILES IDX 104 13 90 14 5 15 1 16 2 17 3 18 106 19 4 20 105 21 91 22
REMARK SMILES IDX 92 23 93 24 102 25 94 26 101 27 103 28 95 29 100 30 96 31
REMARK SMILES IDX 98 32 97 33 99 34 18 35 19 36 20 37 21 38 22 39 23 40 24 41
REMARK SMILES IDX 25 42 89 43 26 44 88 45 27 46 28 47 29 48 82 49 30 50 87 51
REMARK SMILES IDX 81 52 83 53 31 54 86 55 80 56 79 57 32 59 66 60 45 61 65 62
REMARK SMILES IDX 46 63 49 64 64 65 84 66 47 67 48 68 63 70 85 71 50 72 33 73
REMARK SMILES IDX 34 74 43 75 35 76 36 77 42 78 44 79 37 80 38 81 39 82 40 83
REMARK SMILES IDX 41 84 67 85 68 86 77 87 69 88 70 89 76 90 78 91 71 92 72 93
REMARK SMILES IDX 73 94 74 95 75 96 51 97 52 98 61 99 53 100 54 101 60 102
REMARK SMILES IDX 62 103 55 104 56 105 57 106 58 107 59 108
REMARK H PARENT 83 58 49 69
REMARK Flexibility Score: inf
ROOT
ATOM      1  C   UNL A   1      42.941  40.227  30.521  1.00  0.00     0.202 C 
ENDROOT
BRANCH   1   2
ATOM      2  C   UNL A   1      43.033  40.451  29.074  1.00  0.00     0.261 C 
BRANCH   2   3
ATOM      3  O   UNL A   1      41.805  40.631  28.424  1.00  0.00    -0.463 OA
BRANCH   3   4
ATOM      4  C   UNL A   1      41.800  40.055  27.215  1.00  0.00     0.306 C 
ATOM      5  O   UNL A   1      42.265  38.958  26.943  1.00  0.00    -0.252 OA
BRANCH   4   6
ATOM      6  C   UNL A   1      41.137  40.961  26.234  1.00  0.00     0.132 C 
BRANCH   6   7
ATOM      7  C   UNL A   1      41.651  40.967  24.790  1.00  0.00     0.114 C 
BRANCH   7   8
ATOM      8  C   UNL A   1      42.291  42.169  23.966  1.00  0.00     0.243 C 
ATOM      9  O   UNL A   1      41.406  42.862  23.419  1.00  0.00    -0.273 OA
BRANCH   8  10
ATOM     10  N   UNL A   1      43.716  42.564  23.825  1.00  0.00    -0.230 N 
ATOM     11  C   UNL A   1      46.188  42.646  25.492  1.00  0.00     0.070 C 
ATOM     12  N   UNL A   1      44.678  41.988  25.447  1.00  0.00    -0.174 NA
ATOM     13  C   UNL A   1      46.534  43.588  23.772  1.00  0.00     0.086 C 
ATOM     14  C   UNL A   1      44.887  43.669  22.613  1.00  0.00     0.118 C 
BRANCH  11  15
ATOM     15  C   UNL A   1      47.275  42.749  26.504  1.00  0.00    -0.002 A 
ATOM     16  C   UNL A   1      50.886  43.041  28.830  1.00  0.00     0.044 C 
ATOM     17  C   UNL A   1      49.594  42.957  28.082  1.00  0.00    -0.051 A 
ATOM     18  C   UNL A   1      48.861  41.759  28.011  1.00  0.00     0.004 A 
ATOM     19  C   UNL A   1      49.164  44.056  27.357  1.00  0.00     0.004 A 
ATOM     20  C   UNL A   1      47.683  41.664  27.256  1.00  0.00     0.010 A 
ATOM     21  C   UNL A   1      48.050  43.927  26.542  1.00  0.00     0.010 A 
ENDBRANCH  11  15
BRANCH  14  22
ATOM     22  C   UNL A   1      44.733  43.692  20.472  1.00  0.00     0.045 C 
BRANCH  22  23
ATOM     23  C   UNL A   1      45.172  45.370  19.428  1.00  0.00     0.106 C 
ATOM     24  C   UNL A   1      44.518  45.645  17.915  1.00  0.00    -0.003 C 
ATOM     25  C   UNL A   1      45.135  46.869  20.004  1.00  0.00     0.253 C 
ATOM     26  C   UNL A   1      43.513  46.508  17.692  1.00  0.00    -0.003 A 
ATOM     27  N   UNL A   1      44.730  47.974  19.193  1.00  0.00    -0.212 NA
ATOM     28  O   UNL A   1      45.516  47.071  21.157  1.00  0.00    -0.272 OA
ATOM     29  C   UNL A   1      42.343  46.366  16.829  1.00  0.00     0.010 A 
ATOM     30  C   UNL A   1      43.966  47.813  18.152  1.00  0.00     0.077 A 
ATOM     31  C   UNL A   1      41.776  47.432  16.255  1.00  0.00     0.001 A 
ATOM     32  C   UNL A   1      43.557  48.870  17.114  1.00  0.00    -0.025 A 
ATOM     33  C   UNL A   1      42.517  48.665  16.270  1.00  0.00     0.005 A 
ATOM     34  C   UNL A   1      44.557  49.927  16.807  1.00  0.00     0.047 C 
ENDBRANCH  22  23
ENDBRANCH  14  22
ENDBRANCH   8  10
ENDBRANCH   7   8
ENDBRANCH   6   7
ENDBRANCH   4   6
ENDBRANCH   3   4
ENDBRANCH   2   3
ENDBRANCH   1   2
BRANCH   1  35
ATOM     35  O   UNL A   1      43.847  39.317  31.074  1.00  0.00    -0.374 OA
BRANCH  35  36
ATOM     36  C   UNL A   1      43.885  37.896  30.747  1.00  0.00     0.202 C 
BRANCH  36  37
ATOM     37  C   UNL A   1      44.506  37.058  29.249  1.00  0.00     0.261 C 
BRANCH  37  38
ATOM     38  O   UNL A   1      45.667  37.663  27.810  1.00  0.00    -0.460 OA
BRANCH  38  39
ATOM     39  C   UNL A   1      46.392  36.953  26.364  1.00  0.00     0.338 C 
ATOM     40  O   UNL A   1      47.345  37.559  25.864  1.00  0.00    -0.246 OA
BRANCH  39  41
ATOM     41  C   UNL A   1      46.157  35.223  25.823  1.00  0.00     0.060 A 
ATOM     42  C   UNL A   1      45.060  34.668  25.144  1.00  0.00     0.016 A 
ATOM     43  C   UNL A   1      46.990  34.148  26.151  1.00  0.00     0.016 A 
ATOM     44  C   UNL A   1      44.465  33.391  25.567  1.00  0.00     0.010 A 
ATOM     45  C   UNL A   1      46.450  32.873  26.528  1.00  0.00     0.010 A 
ATOM     46  C   UNL A   1      45.080  32.593  26.522  1.00  0.00    -0.014 A 
BRANCH  46  47
ATOM     47  C   UNL A   1      44.498  31.531  27.500  1.00  0.00     0.031 A 
ATOM     48  C   UNL A   1      43.684  32.012  28.665  1.00  0.00     0.074 A 
ATOM     49  C   UNL A   1      44.308  30.173  27.243  1.00  0.00     0.049 A 
ATOM     50  N   UNL A   1      43.114  31.230  29.517  1.00  0.00    -0.248 NA
ATOM     51  C   UNL A   1      43.426  33.413  28.977  1.00  0.00     0.031 C 
ATOM     52  C   UNL A   1      43.220  29.248  27.712  1.00  0.00     0.029 A 
ATOM     53  N   UNL A   1      44.812  29.348  26.248  1.00  0.00    -0.354 N 
ATOM     54  C   UNL A   1      42.157  31.943  30.197  1.00  0.00     0.074 A 
ATOM     55  C   UNL A   1      42.514  33.314  29.954  1.00  0.00     0.031 C 
ATOM     56  C   UNL A   1      43.334  28.010  27.184  1.00  0.00     0.029 A 
ATOM     57  C   UNL A   1      44.603  27.978  26.523  1.00  0.00     0.049 A 
ATOM     58  H   UNL A   1      45.266  29.681  25.440  1.00  0.00     0.167 HD
ATOM     59  C   UNL A   1      41.117  31.273  30.782  1.00  0.00     0.037 A 
ATOM     60  C   UNL A   1      45.693  27.204  26.823  1.00  0.00     0.037 A 
ATOM     61  C   UNL A   1      41.318  29.812  30.698  1.00  0.00     0.049 A 
ATOM     62  C   UNL A   1      45.756  26.948  28.286  1.00  0.00     0.074 A 
ATOM     63  C   UNL A   1      40.693  28.748  30.070  1.00  0.00     0.029 A 
ATOM     64  N   UNL A   1      42.523  29.300  31.159  1.00  0.00    -0.354 N 
ATOM     65  N   UNL A   1      44.759  27.322  29.027  1.00  0.00    -0.248 NA
ATOM     66  C   UNL A   1      46.836  26.375  29.071  1.00  0.00     0.031 C 
ATOM     67  C   UNL A   1      41.593  27.618  30.113  1.00  0.00     0.029 A 
ATOM     68  C   UNL A   1      42.739  27.982  30.807  1.00  0.00     0.049 A 
ATOM     69  H   UNL A   1      43.165  29.828  31.686  1.00  0.00     0.167 HD
ATOM     70  C   UNL A   1      44.990  27.102  30.321  1.00  0.00     0.074 A 
ATOM     71  C   UNL A   1      46.355  26.568  30.318  1.00  0.00     0.031 C 
ATOM     72  C   UNL A   1      44.005  27.361  31.229  1.00  0.00     0.037 A 
BRANCH  59  73
ATOM     73  C   UNL A   1      39.870  31.918  31.378  1.00  0.00     0.058 A 
ATOM     74  C   UNL A   1      38.729  32.130  30.569  1.00  0.00     0.135 A 
ATOM     75  C   UNL A   1      39.731  32.391  32.705  1.00  0.00     0.135 A 
ATOM     76  F   UNL A   1      38.723  31.769  29.279  1.00  0.00    -0.206 F 
ATOM     77  C   UNL A   1      37.552  32.724  31.042  1.00  0.00     0.059 A 
ATOM     78  C   UNL A   1      38.546  32.942  33.214  1.00  0.00     0.059 A 
ATOM     79  F   UNL A   1      40.755  32.397  33.566  1.00  0.00    -0.206 F 
ATOM     80  C   UNL A   1      37.460  33.111  32.373  1.00  0.00     0.060 A 
BRANCH  80  81
ATOM     81  S   UNL A   1      35.919  33.835  32.975  1.00  0.00     0.124 S 
ATOM     82  O   UNL A   1      35.626  33.004  34.137  1.00  0.00    -0.237 OA
ATOM     83  O   UNL A   1      36.314  35.210  33.259  1.00  0.00    -0.237 OA
ATOM     84  O   UNL A   1      35.003  33.674  31.848  1.00  0.00    -0.744 OA
ENDBRANCH  80  81
ENDBRANCH  59  73
BRANCH  60  85
ATOM     85  C   UNL A   1      46.803  27.448  25.841  1.00  0.00     0.058 A 
ATOM     86  C   UNL A   1      47.809  28.127  26.485  1.00  0.00     0.135 A 
ATOM     87  C   UNL A   1      47.221  26.309  25.154  1.00  0.00     0.135 A 
ATOM     88  F   UNL A   1      47.612  29.364  26.967  1.00  0.00    -0.206 F 
ATOM     89  C   UNL A   1      48.974  27.436  26.848  1.00  0.00     0.059 A 
ATOM     90  C   UNL A   1      48.435  25.571  25.527  1.00  0.00     0.059 A 
ATOM     91  F   UNL A   1      46.298  25.607  24.469  1.00  0.00    -0.206 F 
ATOM     92  C   UNL A   1      49.573  25.969  26.389  1.00  0.00     0.060 A 
BRANCH  92  93
ATOM     93  S   UNL A   1      52.133  25.664  26.245  1.00  0.00     0.124 S 
ATOM     94  O   UNL A   1      52.746  26.465  25.118  1.00  0.00    -0.237 OA
ATOM     95  O   UNL A   1      52.843  26.121  27.472  1.00  0.00    -0.237 OA
ATOM     96  O   UNL A   1      52.592  24.325  25.840  1.00  0.00    -0.744 OA
ENDBRANCH  92  93
ENDBRANCH  60  85
BRANCH  72  97
ATOM     97  C   UNL A   1      44.260  27.081  32.659  1.00  0.00     0.058 A 
ATOM     98  C   UNL A   1      44.530  28.118  33.558  1.00  0.00     0.135 A 
ATOM     99  C   UNL A   1      44.230  25.775  33.177  1.00  0.00     0.135 A 
ATOM    100  F   UNL A   1      44.792  29.365  33.130  1.00  0.00    -0.206 F 
ATOM    101  C   UNL A   1      44.521  27.907  34.919  1.00  0.00     0.059 A 
ATOM    102  C   UNL A   1      44.321  25.526  34.529  1.00  0.00     0.059 A 
ATOM    103  F   UNL A   1      44.077  24.688  32.412  1.00  0.00    -0.206 F 
ATOM    104  C   UNL A   1      44.402  26.604  35.392  1.00  0.00     0.060 A 
BRANCH 104 105
ATOM    105  S   UNL A   1      44.413  26.334  37.156  1.00  0.00     0.124 S 
ATOM    106  O   UNL A   1      43.801  25.013  37.260  1.00  0.00    -0.237 OA
ATOM    107  O   UNL A   1      45.841  26.400  37.446  1.00  0.00    -0.237 OA
ATOM    108  O   UNL A   1      43.611  27.438  37.669  1.00  0.00    -0.744 OA
ENDBRANCH 104 105
ENDBRANCH  72  97
ENDBRANCH  46  47
ENDBRANCH  39  41
ENDBRANCH  38  39
ENDBRANCH  37  38
ENDBRANCH  36  37
ENDBRANCH  35  36
ENDBRANCH   1  35
TORSDOF 23
ENDMDL
MODEL 3
REMARK VINA RESULT:     -12.3      2.611      3.538
REMARK SMILES Cc1ccc(C2=NN(C(=O)CCC(=O)OCCOCCOC(=O)c3ccc(-c4c5nc(c(-c6c(F)cc(S(=O)(=O)[O-])cc6F)c6ccc([nH]6)c(-c6c(F)cc(S(=O)(=O)[O-])cc6F)c6nc(c(-c7c(F)cc(S(=O)(=O)[O-])cc7F)c7ccc4[nH]7)C=C6)C=C5)cc3)[C@H](C[C@H]3C=c4cccc(C)c4=NC3=O)C2)cc1
REMARK SMILES IDX 17 1 16 2 15 3 13 4 14 5 12 6 11 7 9 8 10 9 8 10 6 11 7 12
REMARK SMILES IDX 104 13 90 14 5 15 1 16 2 17 3 18 106 19 4 20 105 21 91 22
REMARK SMILES IDX 92 23 93 24 102 25 94 26 101 27 103 28 95 29 100 30 96 31
REMARK SMILES IDX 98 32 97 33 99 34 18 35 19 36 20 37 21 38 22 39 23 40 24 41
REMARK SMILES IDX 25 42 89 43 26 44 88 45 27 46 28 47 29 48 82 49 30 50 87 51
REMARK SMILES IDX 81 52 83 53 31 54 86 55 80 56 79 57 32 59 66 60 45 61 65 62
REMARK SMILES IDX 46 63 49 64 64 65 84 66 47 67 48 68 63 70 85 71 50 72 33 73
REMARK SMILES IDX 34 74 43 75 35 76 36 77 42 78 44 79 37 80 38 81 39 82 40 83
REMARK SMILES IDX 41 84 67 85 68 86 77 87 69 88 70 89 76 90 78 91 71 92 72 93
REMARK SMILES IDX 73 94 74 95 75 96 51 97 52 98 61 99 53 100 54 101 60 102
REMARK SMILES IDX 62 103 55 104 56 105 57 106 58 107 59 108
REMARK H PARENT 83 58 49 69
REMARK Flexibility Score: inf
ROOT
ATOM      1  C   UNL A   1      35.170  22.791  24.572  1.00  0.00     0.202 C 
ENDROOT
BRANCH   1   2
ATOM      2  C   UNL A   1      34.658  22.446  25.903  1.00  0.00     0.261 C 
BRANCH   2   3
ATOM      3  O   UNL A   1      33.643  21.479  25.914  1.00  0.00    -0.463 OA
BRANCH   3   4
ATOM      4  C   UNL A   1      32.558  21.898  25.251  1.00  0.00     0.306 C 
ATOM      5  O   UNL A   1      32.304  21.670  24.078  1.00  0.00    -0.252 OA
BRANCH   4   6
ATOM      6  C   UNL A   1      31.693  22.697  26.166  1.00  0.00     0.132 C 
BRANCH   6   7
ATOM      7  C   UNL A   1      31.804  24.225  26.119  1.00  0.00     0.114 C 
BRANCH   7   8
ATOM      8  C   UNL A   1      31.451  25.212  24.921  1.00  0.00     0.243 C 
ATOM      9  O   UNL A   1      30.946  24.593  23.961  1.00  0.00    -0.273 OA
BRANCH   8  10
ATOM     10  N   UNL A   1      31.596  26.689  24.841  1.00  0.00    -0.230 N 
ATOM     11  C   UNL A   1      30.085  29.028  23.774  1.00  0.00     0.070 C 
ATOM     12  N   UNL A   1      29.902  27.438  24.165  1.00  0.00    -0.174 NA
ATOM     13  C   UNL A   1      31.892  29.632  24.351  1.00  0.00     0.086 C 
ATOM     14  C   UNL A   1      33.027  28.099  25.001  1.00  0.00     0.118 C 
BRANCH  11  15
ATOM     15  C   UNL A   1      29.270  30.049  23.059  1.00  0.00    -0.002 A 
ATOM     16  C   UNL A   1      27.555  33.141  20.604  1.00  0.00     0.044 C 
ATOM     17  C   UNL A   1      28.082  32.048  21.477  1.00  0.00    -0.051 A 
ATOM     18  C   UNL A   1      28.396  32.273  22.829  1.00  0.00     0.004 A 
ATOM     19  C   UNL A   1      28.368  30.816  20.914  1.00  0.00     0.004 A 
ATOM     20  C   UNL A   1      28.952  31.266  23.630  1.00  0.00     0.010 A 
ATOM     21  C   UNL A   1      29.001  29.856  21.688  1.00  0.00     0.010 A 
ENDBRANCH  11  15
BRANCH  14  22
ATOM     22  C   UNL A   1      34.574  28.090  26.488  1.00  0.00     0.045 C 
BRANCH  22  23
ATOM     23  C   UNL A   1      34.582  29.468  27.972  1.00  0.00     0.106 C 
ATOM     24  C   UNL A   1      35.915  29.674  28.957  1.00  0.00    -0.003 C 
ATOM     25  C   UNL A   1      34.127  31.002  27.828  1.00  0.00     0.253 C 
ATOM     26  C   UNL A   1      36.773  30.700  28.834  1.00  0.00    -0.003 A 
ATOM     27  N   UNL A   1      34.776  32.049  28.553  1.00  0.00    -0.212 NA
ATOM     28  O   UNL A   1      33.160  31.270  27.113  1.00  0.00    -0.272 OA
ATOM     29  C   UNL A   1      38.230  30.707  28.921  1.00  0.00     0.010 A 
ATOM     30  C   UNL A   1      35.995  31.922  28.989  1.00  0.00     0.077 A 
ATOM     31  C   UNL A   1      38.891  31.784  29.359  1.00  0.00     0.001 A 
ATOM     32  C   UNL A   1      36.776  32.891  29.891  1.00  0.00    -0.025 A 
ATOM     33  C   UNL A   1      38.124  32.811  30.013  1.00  0.00     0.005 A 
ATOM     34  C   UNL A   1      35.990  33.646  30.901  1.00  0.00     0.047 C 
ENDBRANCH  22  23
ENDBRANCH  14  22
ENDBRANCH   8  10
ENDBRANCH   7   8
ENDBRANCH   6   7
ENDBRANCH   4   6
ENDBRANCH   3   4
ENDBRANCH   2   3
ENDBRANCH   1   2
BRANCH   1  35
ATOM     35  O   UNL A   1      36.304  22.098  24.136  1.00  0.00    -0.374 OA
BRANCH  35  36
ATOM     36  C   UNL A   1      37.156  21.294  25.004  1.00  0.00     0.202 C 
BRANCH  36  37
ATOM     37  C   UNL A   1      38.517  21.807  26.107  1.00  0.00     0.261 C 
BRANCH  37  38
ATOM     38  O   UNL A   1      40.368  22.287  25.750  1.00  0.00    -0.460 OA
BRANCH  38  39
ATOM     39  C   UNL A   1      41.933  21.471  25.790  1.00  0.00     0.338 C 
ATOM     40  O   UNL A   1      41.920  20.236  25.735  1.00  0.00    -0.246 OA
BRANCH  39  41
ATOM     41  C   UNL A   1      43.539  22.279  25.457  1.00  0.00     0.060 A 
ATOM     42  C   UNL A   1      44.827  21.798  25.743  1.00  0.00     0.016 A 
ATOM     43  C   UNL A   1      43.710  23.589  24.999  1.00  0.00     0.016 A 
ATOM     44  C   UNL A   1      45.844  22.659  26.367  1.00  0.00     0.010 A 
ATOM     45  C   UNL A   1      44.719  24.448  25.552  1.00  0.00     0.010 A 
ATOM     46  C   UNL A   1      45.636  24.023  26.518  1.00  0.00    -0.014 A 
BRANCH  46  47
ATOM     47  C   UNL A   1      46.231  25.045  27.530  1.00  0.00     0.031 A 
ATOM     48  C   UNL A   1      45.338  25.566  28.618  1.00  0.00     0.074 A 
ATOM     49  C   UNL A   1      47.582  25.265  27.800  1.00  0.00     0.049 A 
ATOM     50  N   UNL A   1      45.726  26.380  29.539  1.00  0.00    -0.248 NA
ATOM     51  C   UNL A   1      43.932  25.214  28.779  1.00  0.00     0.031 C 
ATOM     52  C   UNL A   1      48.260  25.618  29.095  1.00  0.00     0.029 A 
ATOM     53  N   UNL A   1      48.727  24.906  27.104  1.00  0.00    -0.354 N 
ATOM     54  C   UNL A   1      44.815  26.347  30.567  1.00  0.00     0.074 A 
ATOM     55  C   UNL A   1      43.647  25.757  29.971  1.00  0.00     0.031 C 
ATOM     56  C   UNL A   1      49.604  25.672  28.974  1.00  0.00     0.029 A 
ATOM     57  C   UNL A   1      49.878  25.578  27.572  1.00  0.00     0.049 A 
ATOM     58  H   UNL A   1      48.736  24.255  26.364  1.00  0.00     0.167 HD
ATOM     59  C   UNL A   1      45.211  26.722  31.821  1.00  0.00     0.037 A 
ATOM     60  C   UNL A   1      50.455  26.518  26.760  1.00  0.00     0.037 A 
ATOM     61  C   UNL A   1      46.583  27.269  31.799  1.00  0.00     0.049 A 
ATOM     62  C   UNL A   1      50.109  27.886  27.227  1.00  0.00     0.074 A 
ATOM     63  C   UNL A   1      47.817  26.905  32.311  1.00  0.00     0.029 A 
ATOM     64  N   UNL A   1      46.854  28.290  30.898  1.00  0.00    -0.354 N 
ATOM     65  N   UNL A   1      49.486  28.018  28.357  1.00  0.00    -0.248 NA
ATOM     66  C   UNL A   1      50.310  29.161  26.560  1.00  0.00     0.031 C 
ATOM     67  C   UNL A   1      48.825  27.690  31.635  1.00  0.00     0.029 A 
ATOM     68  C   UNL A   1      48.201  28.561  30.752  1.00  0.00     0.049 A 
ATOM     69  H   UNL A   1      46.152  28.775  30.407  1.00  0.00     0.167 HD
ATOM     70  C   UNL A   1      49.172  29.289  28.606  1.00  0.00     0.074 A 
ATOM     71  C   UNL A   1      49.645  29.980  27.403  1.00  0.00     0.031 C 
ATOM     72  C   UNL A   1      48.586  29.611  29.796  1.00  0.00     0.037 A 
BRANCH  59  73
ATOM     73  C   UNL A   1      44.400  26.538  33.100  1.00  0.00     0.058 A 
ATOM     74  C   UNL A   1      43.429  27.500  33.466  1.00  0.00     0.135 A 
ATOM     75  C   UNL A   1      44.545  25.483  34.032  1.00  0.00     0.135 A 
ATOM     76  F   UNL A   1      43.205  28.578  32.702  1.00  0.00    -0.206 F 
ATOM     77  C   UNL A   1      42.654  27.405  34.629  1.00  0.00     0.059 A 
ATOM     78  C   UNL A   1      43.745  25.340  35.175  1.00  0.00     0.059 A 
ATOM     79  F   UNL A   1      45.508  24.562  33.916  1.00  0.00    -0.206 F 
ATOM     80  C   UNL A   1      42.803  26.310  35.471  1.00  0.00     0.060 A 
BRANCH  80  81
ATOM     81  S   UNL A   1      41.763  26.183  36.942  1.00  0.00     0.124 S 
ATOM     82  O   UNL A   1      40.839  27.295  36.758  1.00  0.00    -0.237 OA
ATOM     83  O   UNL A   1      41.191  24.849  36.800  1.00  0.00    -0.237 OA
ATOM     84  O   UNL A   1      42.711  26.336  38.043  1.00  0.00    -0.744 OA
ENDBRANCH  80  81
ENDBRANCH  59  73
BRANCH  60  85
ATOM     85  C   UNL A   1      50.606  25.989  25.362  1.00  0.00     0.058 A 
ATOM     86  C   UNL A   1      49.681  26.614  24.560  1.00  0.00     0.135 A 
ATOM     87  C   UNL A   1      51.912  26.023  24.873  1.00  0.00     0.135 A 
ATOM     88  F   UNL A   1      48.365  26.447  24.760  1.00  0.00    -0.206 F 
ATOM     89  C   UNL A   1      50.111  27.617  23.678  1.00  0.00     0.059 A 
ATOM     90  C   UNL A   1      52.378  27.070  23.955  1.00  0.00     0.059 A 
ATOM     91  F   UNL A   1      52.871  25.402  25.586  1.00  0.00    -0.206 F 
ATOM     92  C   UNL A   1      51.611  28.040  23.137  1.00  0.00     0.060 A 
BRANCH  92  93
ATOM     93  S   UNL A   1      51.852  28.957  20.736  1.00  0.00     0.124 S 
ATOM     94  O   UNL A   1      50.796  29.989  20.405  1.00  0.00    -0.237 OA
ATOM     95  O   UNL A   1      53.150  29.650  20.506  1.00  0.00    -0.237 OA
ATOM     96  O   UNL A   1      51.569  27.996  19.657  1.00  0.00    -0.744 OA
ENDBRANCH  92  93
ENDBRANCH  60  85
BRANCH  72  97
ATOM     97  C   UNL A   1      48.273  31.029  30.077  1.00  0.00     0.058 A 
ATOM     98  C   UNL A   1      49.209  31.862  30.700  1.00  0.00     0.135 A 
ATOM     99  C   UNL A   1      47.040  31.603  29.722  1.00  0.00     0.135 A 
ATOM    100  F   UNL A   1      50.320  31.365  31.268  1.00  0.00    -0.206 F 
ATOM    101  C   UNL A   1      49.036  33.228  30.742  1.00  0.00     0.059 A 
ATOM    102  C   UNL A   1      46.803  32.954  29.848  1.00  0.00     0.059 A 
ATOM    103  F   UNL A   1      46.027  30.897  29.207  1.00  0.00    -0.206 F 
ATOM    104  C   UNL A   1      47.830  33.763  30.300  1.00  0.00     0.060 A 
BRANCH 104 105
ATOM    105  S   UNL A   1      47.603  35.532  30.377  1.00  0.00     0.124 S 
ATOM    106  O   UNL A   1      47.985  35.823  31.754  1.00  0.00    -0.237 OA
ATOM    107  O   UNL A   1      48.533  35.983  29.347  1.00  0.00    -0.237 OA
ATOM    108  O   UNL A   1      46.187  35.701  30.070  1.00  0.00    -0.744 OA
ENDBRANCH 104 105
ENDBRANCH  72  97
ENDBRANCH  46  47
ENDBRANCH  39  41
ENDBRANCH  38  39
ENDBRANCH  37  38
ENDBRANCH  36  37
ENDBRANCH  35  36
ENDBRANCH   1  35
TORSDOF 23
ENDMDL
