MODEL 1
REMARK VINA RESULT:     -10.6      0.000      0.000
REMARK SMILES COc1cccc([C@H]2SC[C@@H](C(=O)OCCOCCOC(=O)c3ccc(-c4c5nc(c(-c6c(F)cc(S(=O)(=O)[O-])cc6F)c6ccc([nH]6)c(-c6c(F)cc(S(=O)(=O)[O-])cc6F)c6nc(c(-c7c(F)cc(S(=O)(=O)[O-])cc7F)c7ccc4[nH]7)C=C6)C=C5)cc3)N2C(C)=O)c1
REMARK SMILES IDX 18 1 17 2 16 3 15 4 14 5 12 6 13 7 11 8 8 9 9 10 89 11 10 12
REMARK SMILES IDX 7 13 3 14 4 15 93 16 5 17 6 18 2 19 1 20 90 21 91 22 92 23
REMARK SMILES IDX 19 24 20 25 21 26 22 27 23 28 24 29 88 30 25 31 87 32 26 33
REMARK SMILES IDX 27 34 28 35 81 36 29 37 86 38 80 39 82 40 30 41 85 42 79 43
REMARK SMILES IDX 78 44 31 46 65 47 44 48 64 49 45 50 48 51 63 52 83 53 46 54
REMARK SMILES IDX 47 55 62 57 84 58 49 59 32 60 33 61 42 62 34 63 35 64 41 65
REMARK SMILES IDX 43 66 36 67 37 68 38 69 39 70 40 71 66 72 67 73 76 74 68 75
REMARK SMILES IDX 69 76 75 77 77 78 70 79 71 80 72 81 73 82 74 83 50 84 51 85
REMARK SMILES IDX 60 86 52 87 53 88 59 89 61 90 54 91 55 92 56 93 57 94 58 95
REMARK H PARENT 82 45 48 56
REMARK Flexibility Score: inf
ROOT
ATOM      1  C   UNL A   1      34.457  31.365  27.659  1.00  0.00     0.202 C 
ENDROOT
BRANCH   1   2
ATOM      2  O   UNL A   1      34.491  29.941  27.651  1.00  0.00    -0.374 OA
BRANCH   2   3
ATOM      3  C   UNL A   1      33.324  29.283  27.153  1.00  0.00     0.202 C 
BRANCH   3   4
ATOM      4  C   UNL A   1      32.597  30.018  26.024  1.00  0.00     0.261 C 
BRANCH   4   5
ATOM      5  O   UNL A   1      32.303  29.137  24.920  1.00  0.00    -0.462 OA
BRANCH   5   6
ATOM      6  C   UNL A   1      33.322  28.354  24.488  1.00  0.00     0.329 C 
ATOM      7  O   UNL A   1      34.436  28.772  24.183  1.00  0.00    -0.250 OA
BRANCH   6   8
ATOM      8  C   UNL A   1      32.952  26.867  24.336  1.00  0.00     0.206 C 
ATOM      9  C   UNL A   1      30.692  26.082  23.708  1.00  0.00     0.175 C 
ATOM     10  S   UNL A   1      31.732  25.570  22.310  1.00  0.00    -0.129 SA
ATOM     11  N   UNL A   1      31.617  26.421  24.778  1.00  0.00    -0.312 N 
ATOM     12  C   UNL A   1      33.164  26.515  22.860  1.00  0.00     0.109 C 
BRANCH   9  13
ATOM     13  C   UNL A   1      29.700  27.174  23.359  1.00  0.00    -0.012 A 
ATOM     14  C   UNL A   1      29.093  29.287  22.292  1.00  0.00     0.119 A 
ATOM     15  C   UNL A   1      27.779  29.110  22.716  1.00  0.00     0.046 A 
ATOM     16  C   UNL A   1      30.039  28.306  22.591  1.00  0.00     0.053 A 
ATOM     17  C   UNL A   1      27.416  28.001  23.475  1.00  0.00     0.004 A 
ATOM     18  C   UNL A   1      28.375  27.051  23.813  1.00  0.00     0.007 A 
BRANCH  14  19
ATOM     19  O   UNL A   1      29.332  30.465  21.643  1.00  0.00    -0.497 OA
ATOM     20  C   UNL A   1      28.218  31.270  21.290  1.00  0.00     0.278 C 
ENDBRANCH  14  19
ENDBRANCH   9  13
BRANCH  11  21
ATOM     21  C   UNL A   1      31.266  26.049  26.062  1.00  0.00     0.221 C 
ATOM     22  C   UNL A   1      31.450  24.606  26.469  1.00  0.00     0.114 C 
ATOM     23  O   UNL A   1      30.725  26.823  26.853  1.00  0.00    -0.275 OA
ENDBRANCH  11  21
ENDBRANCH   6   8
ENDBRANCH   5   6
ENDBRANCH   4   5
ENDBRANCH   3   4
ENDBRANCH   2   3
ENDBRANCH   1   2
BRANCH   1  24
ATOM     24  C   UNL A   1      34.834  32.062  28.970  1.00  0.00     0.261 C 
BRANCH  24  25
ATOM     25  O   UNL A   1      36.250  32.147  29.178  1.00  0.00    -0.460 OA
BRANCH  25  26
ATOM     26  C   UNL A   1      36.708  31.418  30.223  1.00  0.00     0.338 C 
ATOM     27  O   UNL A   1      36.197  31.328  31.334  1.00  0.00    -0.246 OA
BRANCH  26  28
ATOM     28  C   UNL A   1      37.871  30.609  29.825  1.00  0.00     0.060 A 
ATOM     29  C   UNL A   1      38.799  30.272  30.817  1.00  0.00     0.016 A 
ATOM     30  C   UNL A   1      38.109  30.283  28.490  1.00  0.00     0.016 A 
ATOM     31  C   UNL A   1      39.998  29.651  30.472  1.00  0.00     0.010 A 
ATOM     32  C   UNL A   1      39.314  29.662  28.145  1.00  0.00     0.010 A 
ATOM     33  C   UNL A   1      40.280  29.372  29.128  1.00  0.00    -0.014 A 
BRANCH  33  34
ATOM     34  C   UNL A   1      41.636  28.914  28.732  1.00  0.00     0.031 A 
ATOM     35  C   UNL A   1      42.756  29.918  28.681  1.00  0.00     0.074 A 
ATOM     36  C   UNL A   1      41.873  27.623  28.430  1.00  0.00     0.049 A 
ATOM     37  N   UNL A   1      44.006  29.751  28.334  1.00  0.00    -0.248 NA
ATOM     38  C   UNL A   1      42.417  31.297  29.066  1.00  0.00     0.031 C 
ATOM     39  C   UNL A   1      40.881  26.552  28.459  1.00  0.00     0.029 A 
ATOM     40  N   UNL A   1      43.027  27.001  28.019  1.00  0.00    -0.354 N 
ATOM     41  C   UNL A   1      44.600  31.003  28.453  1.00  0.00     0.074 A 
ATOM     42  C   UNL A   1      43.562  31.926  28.854  1.00  0.00     0.031 C 
ATOM     43  C   UNL A   1      41.456  25.409  28.046  1.00  0.00     0.029 A 
ATOM     44  C   UNL A   1      42.857  25.669  27.724  1.00  0.00     0.049 A 
ATOM     45  H   UNL A   1      43.892  27.465  27.943  1.00  0.00     0.167 HD
ATOM     46  C   UNL A   1      45.898  31.347  28.271  1.00  0.00     0.037 A 
ATOM     47  C   UNL A   1      43.730  24.764  27.239  1.00  0.00     0.037 A 
ATOM     48  C   UNL A   1      46.929  30.423  27.882  1.00  0.00     0.049 A 
ATOM     49  C   UNL A   1      45.160  25.169  27.007  1.00  0.00     0.074 A 
ATOM     50  C   UNL A   1      48.280  30.662  27.705  1.00  0.00     0.029 A 
ATOM     51  N   UNL A   1      46.719  29.080  27.599  1.00  0.00    -0.354 N 
ATOM     52  N   UNL A   1      45.719  26.345  27.172  1.00  0.00    -0.248 NA
ATOM     53  C   UNL A   1      46.083  24.124  26.544  1.00  0.00     0.031 C 
ATOM     54  C   UNL A   1      48.881  29.472  27.278  1.00  0.00     0.029 A 
ATOM     55  C   UNL A   1      47.912  28.482  27.230  1.00  0.00     0.049 A 
ATOM     56  H   UNL A   1      45.850  28.621  27.654  1.00  0.00     0.167 HD
ATOM     57  C   UNL A   1      47.063  26.176  26.857  1.00  0.00     0.074 A 
ATOM     58  C   UNL A   1      47.233  24.783  26.498  1.00  0.00     0.031 C 
ATOM     59  C   UNL A   1      48.065  27.091  26.872  1.00  0.00     0.037 A 
BRANCH  46  60
ATOM     60  C   UNL A   1      46.253  32.794  28.478  1.00  0.00     0.058 A 
ATOM     61  C   UNL A   1      46.233  33.717  27.419  1.00  0.00     0.135 A 
ATOM     62  C   UNL A   1      46.649  33.259  29.742  1.00  0.00     0.135 A 
ATOM     63  F   UNL A   1      45.877  33.324  26.186  1.00  0.00    -0.206 F 
ATOM     64  C   UNL A   1      46.644  35.035  27.594  1.00  0.00     0.059 A 
ATOM     65  C   UNL A   1      47.037  34.580  29.946  1.00  0.00     0.059 A 
ATOM     66  F   UNL A   1      46.684  32.421  30.790  1.00  0.00    -0.206 F 
ATOM     67  C   UNL A   1      47.057  35.453  28.859  1.00  0.00     0.060 A 
BRANCH  67  68
ATOM     68  S   UNL A   1      47.634  37.151  29.065  1.00  0.00     0.124 S 
ATOM     69  O   UNL A   1      46.716  37.877  28.192  1.00  0.00    -0.237 OA
ATOM     70  O   UNL A   1      47.454  37.374  30.495  1.00  0.00    -0.237 OA
ATOM     71  O   UNL A   1      49.020  37.096  28.612  1.00  0.00    -0.744 OA
ENDBRANCH  67  68
ENDBRANCH  46  60
BRANCH  47  72
ATOM     72  C   UNL A   1      43.264  23.380  26.961  1.00  0.00     0.058 A 
ATOM     73  C   UNL A   1      43.028  22.944  25.650  1.00  0.00     0.135 A 
ATOM     74  C   UNL A   1      43.102  22.450  28.000  1.00  0.00     0.135 A 
ATOM     75  F   UNL A   1      43.159  23.799  24.624  1.00  0.00    -0.206 F 
ATOM     76  C   UNL A   1      42.654  21.632  25.376  1.00  0.00     0.059 A 
ATOM     77  C   UNL A   1      42.749  21.128  27.750  1.00  0.00     0.059 A 
ATOM     78  F   UNL A   1      43.325  22.818  29.271  1.00  0.00    -0.206 F 
ATOM     79  C   UNL A   1      42.528  20.727  26.433  1.00  0.00     0.060 A 
BRANCH  79  80
ATOM     80  S   UNL A   1      42.139  19.004  26.056  1.00  0.00     0.124 S 
ATOM     81  O   UNL A   1      42.977  18.760  24.887  1.00  0.00    -0.237 OA
ATOM     82  O   UNL A   1      42.544  18.324  27.283  1.00  0.00    -0.237 OA
ATOM     83  O   UNL A   1      40.701  19.028  25.810  1.00  0.00    -0.744 OA
ENDBRANCH  79  80
ENDBRANCH  47  72
BRANCH  59  84
ATOM     84  C   UNL A   1      49.445  26.615  26.510  1.00  0.00     0.058 A 
ATOM     85  C   UNL A   1      49.963  26.775  25.216  1.00  0.00     0.135 A 
ATOM     86  C   UNL A   1      50.279  26.046  27.486  1.00  0.00     0.135 A 
ATOM     87  F   UNL A   1      49.205  27.309  24.245  1.00  0.00    -0.206 F 
ATOM     88  C   UNL A   1      51.256  26.374  24.896  1.00  0.00     0.059 A 
ATOM     89  C   UNL A   1      51.584  25.659  27.195  1.00  0.00     0.059 A 
ATOM     90  F   UNL A   1      49.834  25.879  28.741  1.00  0.00    -0.206 F 
ATOM     91  C   UNL A   1      52.059  25.817  25.895  1.00  0.00     0.060 A 
BRANCH  91  92
ATOM     92  S   UNL A   1      53.750  25.335  25.479  1.00  0.00     0.124 S 
ATOM     93  O   UNL A   1      54.191  26.473  24.679  1.00  0.00    -0.237 OA
ATOM     94  O   UNL A   1      54.371  25.206  26.794  1.00  0.00    -0.237 OA
ATOM     95  O   UNL A   1      53.576  24.083  24.750  1.00  0.00    -0.744 OA
ENDBRANCH  91  92
ENDBRANCH  59  84
ENDBRANCH  33  34
ENDBRANCH  26  28
ENDBRANCH  25  26
ENDBRANCH  24  25
ENDBRANCH   1  24
TORSDOF 20
ENDMDL
MODEL 2
REMARK VINA RESULT:     -10.5      6.643     12.306
REMARK SMILES COc1cccc([C@H]2SC[C@@H](C(=O)OCCOCCOC(=O)c3ccc(-c4c5nc(c(-c6c(F)cc(S(=O)(=O)[O-])cc6F)c6ccc([nH]6)c(-c6c(F)cc(S(=O)(=O)[O-])cc6F)c6nc(c(-c7c(F)cc(S(=O)(=O)[O-])cc7F)c7ccc4[nH]7)C=C6)C=C5)cc3)N2C(C)=O)c1
REMARK SMILES IDX 18 1 17 2 16 3 15 4 14 5 12 6 13 7 11 8 8 9 9 10 89 11 10 12
REMARK SMILES IDX 7 13 3 14 4 15 93 16 5 17 6 18 2 19 1 20 90 21 91 22 92 23
REMARK SMILES IDX 19 24 20 25 21 26 22 27 23 28 24 29 88 30 25 31 87 32 26 33
REMARK SMILES IDX 27 34 28 35 81 36 29 37 86 38 80 39 82 40 30 41 85 42 79 43
REMARK SMILES IDX 78 44 31 46 65 47 44 48 64 49 45 50 48 51 63 52 83 53 46 54
REMARK SMILES IDX 47 55 62 57 84 58 49 59 32 60 33 61 42 62 34 63 35 64 41 65
REMARK SMILES IDX 43 66 36 67 37 68 38 69 39 70 40 71 66 72 67 73 76 74 68 75
REMARK SMILES IDX 69 76 75 77 77 78 70 79 71 80 72 81 73 82 74 83 50 84 51 85
REMARK SMILES IDX 60 86 52 87 53 88 59 89 61 90 54 91 55 92 56 93 57 94 58 95
REMARK H PARENT 82 45 48 56
REMARK Flexibility Score: inf
ROOT
ATOM      1  C   UNL A   1      39.816  21.879  26.663  1.00  0.00     0.202 C 
ENDROOT
BRANCH   1   2
ATOM      2  O   UNL A   1      39.096  21.217  25.626  1.00  0.00    -0.374 OA
BRANCH   2   3
ATOM      3  C   UNL A   1      37.885  21.844  25.198  1.00  0.00     0.202 C 
BRANCH   3   4
ATOM      4  C   UNL A   1      36.600  21.197  25.720  1.00  0.00     0.261 C 
BRANCH   4   5
ATOM      5  O   UNL A   1      35.425  21.858  25.207  1.00  0.00    -0.462 OA
BRANCH   5   6
ATOM      6  C   UNL A   1      34.969  22.915  25.925  1.00  0.00     0.329 C 
ATOM      7  O   UNL A   1      35.445  23.282  26.995  1.00  0.00    -0.250 OA
BRANCH   6   8
ATOM      8  C   UNL A   1      33.731  23.600  25.317  1.00  0.00     0.206 C 
ATOM      9  C   UNL A   1      32.026  22.401  23.984  1.00  0.00     0.175 C 
ATOM     10  S   UNL A   1      31.120  22.937  25.464  1.00  0.00    -0.129 SA
ATOM     11  N   UNL A   1      33.263  23.166  23.986  1.00  0.00    -0.312 N 
ATOM     12  C   UNL A   1      32.605  23.454  26.345  1.00  0.00     0.109 C 
BRANCH   9  13
ATOM     13  C   UNL A   1      32.211  20.898  23.895  1.00  0.00    -0.012 A 
ATOM     14  C   UNL A   1      32.541  18.696  24.899  1.00  0.00     0.119 A 
ATOM     15  C   UNL A   1      32.486  18.123  23.631  1.00  0.00     0.046 A 
ATOM     16  C   UNL A   1      32.376  20.075  25.027  1.00  0.00     0.053 A 
ATOM     17  C   UNL A   1      32.323  18.913  22.497  1.00  0.00     0.004 A 
ATOM     18  C   UNL A   1      32.209  20.293  22.626  1.00  0.00     0.007 A 
BRANCH  14  19
ATOM     19  O   UNL A   1      32.805  17.819  25.913  1.00  0.00    -0.497 OA
ATOM     20  C   UNL A   1      32.766  16.431  25.622  1.00  0.00     0.278 C 
ENDBRANCH  14  19
ENDBRANCH   9  13
BRANCH  11  21
ATOM     21  C   UNL A   1      33.724  23.632  22.769  1.00  0.00     0.221 C 
ATOM     22  C   UNL A   1      32.803  24.487  21.930  1.00  0.00     0.114 C 
ATOM     23  O   UNL A   1      34.815  23.301  22.302  1.00  0.00    -0.275 OA
ENDBRANCH  11  21
ENDBRANCH   6   8
ENDBRANCH   5   6
ENDBRANCH   4   5
ENDBRANCH   3   4
ENDBRANCH   2   3
ENDBRANCH   1   2
BRANCH   1  24
ATOM     24  C   UNL A   1      41.218  22.392  26.317  1.00  0.00     0.261 C 
BRANCH  24  25
ATOM     25  O   UNL A   1      41.293  23.822  26.239  1.00  0.00    -0.460 OA
BRANCH  25  26
ATOM     26  C   UNL A   1      42.319  24.367  26.935  1.00  0.00     0.338 C 
ATOM     27  O   UNL A   1      43.502  24.056  26.861  1.00  0.00    -0.246 OA
BRANCH  26  28
ATOM     28  C   UNL A   1      41.856  25.512  27.735  1.00  0.00     0.060 A 
ATOM     29  C   UNL A   1      42.742  26.581  27.915  1.00  0.00     0.016 A 
ATOM     30  C   UNL A   1      40.625  25.493  28.390  1.00  0.00     0.016 A 
ATOM     31  C   UNL A   1      42.423  27.614  28.794  1.00  0.00     0.010 A 
ATOM     32  C   UNL A   1      40.308  26.530  29.274  1.00  0.00     0.010 A 
ATOM     33  C   UNL A   1      41.218  27.578  29.507  1.00  0.00    -0.014 A 
BRANCH  33  34
ATOM     34  C   UNL A   1      40.971  28.555  30.599  1.00  0.00     0.031 A 
ATOM     35  C   UNL A   1      41.797  28.465  31.854  1.00  0.00     0.074 A 
ATOM     36  C   UNL A   1      40.032  29.512  30.477  1.00  0.00     0.049 A 
ATOM     37  N   UNL A   1      41.734  29.187  32.943  1.00  0.00    -0.248 NA
ATOM     38  C   UNL A   1      42.827  27.415  31.886  1.00  0.00     0.031 C 
ATOM     39  C   UNL A   1      39.180  29.717  29.309  1.00  0.00     0.029 A 
ATOM     40  N   UNL A   1      39.628  30.483  31.361  1.00  0.00    -0.354 N 
ATOM     41  C   UNL A   1      42.710  28.674  33.791  1.00  0.00     0.074 A 
ATOM     42  C   UNL A   1      43.313  27.550  33.110  1.00  0.00     0.031 C 
ATOM     43  C   UNL A   1      38.326  30.724  29.559  1.00  0.00     0.029 A 
ATOM     44  C   UNL A   1      38.572  31.235  30.905  1.00  0.00     0.049 A 
ATOM     45  H   UNL A   1      40.054  30.625  32.238  1.00  0.00     0.167 HD
ATOM     46  C   UNL A   1      43.089  29.116  35.015  1.00  0.00     0.037 A 
ATOM     47  C   UNL A   1      37.875  32.219  31.509  1.00  0.00     0.037 A 
ATOM     48  C   UNL A   1      42.493  30.241  35.684  1.00  0.00     0.049 A 
ATOM     49  C   UNL A   1      38.283  32.675  32.883  1.00  0.00     0.074 A 
ATOM     50  C   UNL A   1      42.826  30.792  36.908  1.00  0.00     0.029 A 
ATOM     51  N   UNL A   1      41.430  30.983  35.186  1.00  0.00    -0.354 N 
ATOM     52  N   UNL A   1      39.241  32.215  33.652  1.00  0.00    -0.248 NA
ATOM     53  C   UNL A   1      37.532  33.797  33.464  1.00  0.00     0.031 C 
ATOM     54  C   UNL A   1      41.939  31.844  37.169  1.00  0.00     0.029 A 
ATOM     55  C   UNL A   1      41.081  31.974  36.088  1.00  0.00     0.049 A 
ATOM     56  H   UNL A   1      40.990  30.827  34.320  1.00  0.00     0.167 HD
ATOM     57  C   UNL A   1      39.225  33.004  34.797  1.00  0.00     0.074 A 
ATOM     58  C   UNL A   1      38.165  33.976  34.616  1.00  0.00     0.031 C 
ATOM     59  C   UNL A   1      40.021  32.934  35.894  1.00  0.00     0.037 A 
BRANCH  46  60
ATOM     60  C   UNL A   1      44.190  28.356  35.702  1.00  0.00     0.058 A 
ATOM     61  C   UNL A   1      43.916  27.333  36.625  1.00  0.00     0.135 A 
ATOM     62  C   UNL A   1      45.536  28.672  35.459  1.00  0.00     0.135 A 
ATOM     63  F   UNL A   1      42.646  27.000  36.907  1.00  0.00    -0.206 F 
ATOM     64  C   UNL A   1      44.933  26.690  37.324  1.00  0.00     0.059 A 
ATOM     65  C   UNL A   1      46.571  28.023  36.125  1.00  0.00     0.059 A 
ATOM     66  F   UNL A   1      45.857  29.639  34.584  1.00  0.00    -0.206 F 
ATOM     67  C   UNL A   1      46.258  27.051  37.075  1.00  0.00     0.060 A 
BRANCH  67  68
ATOM     68  S   UNL A   1      47.567  26.246  38.021  1.00  0.00     0.124 S 
ATOM     69  O   UNL A   1      48.547  25.964  36.977  1.00  0.00    -0.237 OA
ATOM     70  O   UNL A   1      47.945  27.279  38.980  1.00  0.00    -0.237 OA
ATOM     71  O   UNL A   1      46.905  25.078  38.592  1.00  0.00    -0.744 OA
ENDBRANCH  67  68
ENDBRANCH  46  60
BRANCH  47  72
ATOM     72  C   UNL A   1      36.729  32.842  30.795  1.00  0.00     0.058 A 
ATOM     73  C   UNL A   1      35.407  32.506  31.114  1.00  0.00     0.135 A 
ATOM     74  C   UNL A   1      36.938  33.830  29.820  1.00  0.00     0.135 A 
ATOM     75  F   UNL A   1      35.157  31.560  32.032  1.00  0.00    -0.206 F 
ATOM     76  C   UNL A   1      34.328  33.132  30.497  1.00  0.00     0.059 A 
ATOM     77  C   UNL A   1      35.875  34.484  29.204  1.00  0.00     0.059 A 
ATOM     78  F   UNL A   1      38.186  34.192  29.487  1.00  0.00    -0.206 F 
ATOM     79  C   UNL A   1      34.572  34.129  29.550  1.00  0.00     0.060 A 
BRANCH  79  80
ATOM     80  S   UNL A   1      33.166  35.003  28.829  1.00  0.00     0.124 S 
ATOM     81  O   UNL A   1      32.332  35.240  30.002  1.00  0.00    -0.237 OA
ATOM     82  O   UNL A   1      33.802  36.182  28.249  1.00  0.00    -0.237 OA
ATOM     83  O   UNL A   1      32.636  34.048  27.860  1.00  0.00    -0.744 OA
ENDBRANCH  79  80
ENDBRANCH  47  72
BRANCH  59  84
ATOM     84  C   UNL A   1      39.795  33.950  36.980  1.00  0.00     0.058 A 
ATOM     85  C   UNL A   1      39.024  33.655  38.115  1.00  0.00     0.135 A 
ATOM     86  C   UNL A   1      40.407  35.211  36.912  1.00  0.00     0.135 A 
ATOM     87  F   UNL A   1      38.413  32.464  38.227  1.00  0.00    -0.206 F 
ATOM     88  C   UNL A   1      38.855  34.581  39.138  1.00  0.00     0.059 A 
ATOM     89  C   UNL A   1      40.270  36.145  37.934  1.00  0.00     0.059 A 
ATOM     90  F   UNL A   1      41.161  35.540  35.850  1.00  0.00    -0.206 F 
ATOM     91  C   UNL A   1      39.483  35.824  39.039  1.00  0.00     0.060 A 
BRANCH  91  92
ATOM     92  S   UNL A   1      39.289  37.006  40.391  1.00  0.00     0.124 S 
ATOM     93  O   UNL A   1      40.667  37.158  40.848  1.00  0.00    -0.237 OA
ATOM     94  O   UNL A   1      38.713  38.164  39.716  1.00  0.00    -0.237 OA
ATOM     95  O   UNL A   1      38.393  36.318  41.316  1.00  0.00    -0.744 OA
ENDBRANCH  91  92
ENDBRANCH  59  84
ENDBRANCH  33  34
ENDBRANCH  26  28
ENDBRANCH  25  26
ENDBRANCH  24  25
ENDBRANCH   1  24
TORSDOF 20
ENDMDL
MODEL 3
REMARK VINA RESULT:     -10.4      1.526      2.975
REMARK SMILES COc1cccc([C@H]2SC[C@@H](C(=O)OCCOCCOC(=O)c3ccc(-c4c5nc(c(-c6c(F)cc(S(=O)(=O)[O-])cc6F)c6ccc([nH]6)c(-c6c(F)cc(S(=O)(=O)[O-])cc6F)c6nc(c(-c7c(F)cc(S(=O)(=O)[O-])cc7F)c7ccc4[nH]7)C=C6)C=C5)cc3)N2C(C)=O)c1
REMARK SMILES IDX 18 1 17 2 16 3 15 4 14 5 12 6 13 7 11 8 8 9 9 10 89 11 10 12
REMARK SMILES IDX 7 13 3 14 4 15 93 16 5 17 6 18 2 19 1 20 90 21 91 22 92 23
REMARK SMILES IDX 19 24 20 25 21 26 22 27 23 28 24 29 88 30 25 31 87 32 26 33
REMARK SMILES IDX 27 34 28 35 81 36 29 37 86 38 80 39 82 40 30 41 85 42 79 43
REMARK SMILES IDX 78 44 31 46 65 47 44 48 64 49 45 50 48 51 63 52 83 53 46 54
REMARK SMILES IDX 47 55 62 57 84 58 49 59 32 60 33 61 42 62 34 63 35 64 41 65
REMARK SMILES IDX 43 66 36 67 37 68 38 69 39 70 40 71 66 72 67 73 76 74 68 75
REMARK SMILES IDX 69 76 75 77 77 78 70 79 71 80 72 81 73 82 74 83 50 84 51 85
REMARK SMILES IDX 60 86 52 87 53 88 59 89 61 90 54 91 55 92 56 93 57 94 58 95
REMARK H PARENT 82 45 48 56
REMARK Flexibility Score: inf
ROOT
ATOM      1  C   UNL A   1      34.918  32.262  28.032  1.00  0.00     0.202 C 
ENDROOT
BRANCH   1   2
ATOM      2  O   UNL A   1      33.911  31.279  27.804  1.00  0.00    -0.374 OA
BRANCH   2   3
ATOM      3  C   UNL A   1      34.359  30.023  27.288  1.00  0.00     0.202 C 
BRANCH   3   4
ATOM      4  C   UNL A   1      33.456  29.401  26.221  1.00  0.00     0.261 C 
BRANCH   4   5
ATOM      5  O   UNL A   1      33.983  28.145  25.744  1.00  0.00    -0.462 OA
BRANCH   5   6
ATOM      6  C   UNL A   1      33.118  27.101  25.722  1.00  0.00     0.329 C 
ATOM      7  O   UNL A   1      33.100  26.198  26.555  1.00  0.00    -0.250 OA
BRANCH   6   8
ATOM      8  C   UNL A   1      32.177  27.091  24.503  1.00  0.00     0.206 C 
ATOM      9  C   UNL A   1      31.900  25.138  23.011  1.00  0.00     0.175 C 
ATOM     10  S   UNL A   1      30.268  25.325  23.786  1.00  0.00    -0.129 SA
ATOM     11  N   UNL A   1      32.605  26.381  23.283  1.00  0.00    -0.312 N 
ATOM     12  C   UNL A   1      30.836  26.535  24.994  1.00  0.00     0.109 C 
BRANCH   9  13
ATOM     13  C   UNL A   1      32.636  23.884  23.440  1.00  0.00    -0.012 A 
ATOM     14  C   UNL A   1      34.563  22.726  24.397  1.00  0.00     0.119 A 
ATOM     15  C   UNL A   1      33.891  21.515  24.254  1.00  0.00     0.046 A 
ATOM     16  C   UNL A   1      33.922  23.905  24.015  1.00  0.00     0.053 A 
ATOM     17  C   UNL A   1      32.620  21.465  23.689  1.00  0.00     0.004 A 
ATOM     18  C   UNL A   1      32.006  22.639  23.264  1.00  0.00     0.007 A 
BRANCH  14  19
ATOM     19  O   UNL A   1      35.840  22.621  24.871  1.00  0.00    -0.497 OA
ATOM     20  C   UNL A   1      36.850  22.185  23.974  1.00  0.00     0.278 C 
ENDBRANCH  14  19
ENDBRANCH   9  13
BRANCH  11  21
ATOM     21  C   UNL A   1      33.391  26.900  22.271  1.00  0.00     0.221 C 
ATOM     22  C   UNL A   1      33.816  28.347  22.361  1.00  0.00     0.114 C 
ATOM     23  O   UNL A   1      33.679  26.259  21.259  1.00  0.00    -0.275 OA
ENDBRANCH  11  21
ENDBRANCH   6   8
ENDBRANCH   5   6
ENDBRANCH   4   5
ENDBRANCH   3   4
ENDBRANCH   2   3
ENDBRANCH   1   2
BRANCH   1  24
ATOM     24  C   UNL A   1      35.167  32.678  29.485  1.00  0.00     0.261 C 
BRANCH  24  25
ATOM     25  O   UNL A   1      36.536  32.539  29.886  1.00  0.00    -0.460 OA
BRANCH  25  26
ATOM     26  C   UNL A   1      36.775  31.490  30.708  1.00  0.00     0.338 C 
ATOM     27  O   UNL A   1      36.104  31.148  31.674  1.00  0.00    -0.246 OA
BRANCH  26  28
ATOM     28  C   UNL A   1      37.912  30.693  30.218  1.00  0.00     0.060 A 
ATOM     29  C   UNL A   1      38.853  30.257  31.158  1.00  0.00     0.016 A 
ATOM     30  C   UNL A   1      38.115  30.473  28.856  1.00  0.00     0.016 A 
ATOM     31  C   UNL A   1      40.031  29.644  30.735  1.00  0.00     0.010 A 
ATOM     32  C   UNL A   1      39.298  29.859  28.434  1.00  0.00     0.010 A 
ATOM     33  C   UNL A   1      40.278  29.471  29.367  1.00  0.00    -0.014 A 
BRANCH  33  34
ATOM     34  C   UNL A   1      41.616  29.019  28.904  1.00  0.00     0.031 A 
ATOM     35  C   UNL A   1      42.730  30.027  28.809  1.00  0.00     0.074 A 
ATOM     36  C   UNL A   1      41.842  27.732  28.580  1.00  0.00     0.049 A 
ATOM     37  N   UNL A   1      43.962  29.867  28.402  1.00  0.00    -0.248 NA
ATOM     38  C   UNL A   1      42.405  31.402  29.222  1.00  0.00     0.031 C 
ATOM     39  C   UNL A   1      40.855  26.657  28.647  1.00  0.00     0.029 A 
ATOM     40  N   UNL A   1      42.976  27.116  28.110  1.00  0.00    -0.354 N 
ATOM     41  C   UNL A   1      44.558  31.119  28.504  1.00  0.00     0.074 A 
ATOM     42  C   UNL A   1      43.537  32.036  28.961  1.00  0.00     0.031 C 
ATOM     43  C   UNL A   1      41.412  25.520  28.198  1.00  0.00     0.029 A 
ATOM     44  C   UNL A   1      42.796  25.787  27.812  1.00  0.00     0.049 A 
ATOM     45  H   UNL A   1      43.836  27.583  27.998  1.00  0.00     0.167 HD
ATOM     46  C   UNL A   1      45.845  31.469  28.264  1.00  0.00     0.037 A 
ATOM     47  C   UNL A   1      43.648  24.888  27.279  1.00  0.00     0.037 A 
ATOM     48  C   UNL A   1      46.859  30.551  27.819  1.00  0.00     0.049 A 
ATOM     49  C   UNL A   1      45.064  25.299  26.984  1.00  0.00     0.074 A 
ATOM     50  C   UNL A   1      48.200  30.795  27.581  1.00  0.00     0.029 A 
ATOM     51  N   UNL A   1      46.640  29.209  27.536  1.00  0.00    -0.354 N 
ATOM     52  N   UNL A   1      45.627  26.475  27.133  1.00  0.00    -0.248 NA
ATOM     53  C   UNL A   1      45.967  24.261  26.469  1.00  0.00     0.031 C 
ATOM     54  C   UNL A   1      48.783  29.610  27.116  1.00  0.00     0.029 A 
ATOM     55  C   UNL A   1      47.815  28.618  27.105  1.00  0.00     0.049 A 
ATOM     56  H   UNL A   1      45.775  28.747  27.627  1.00  0.00     0.167 HD
ATOM     57  C   UNL A   1      46.956  26.313  26.753  1.00  0.00     0.074 A 
ATOM     58  C   UNL A   1      47.112  24.923  26.375  1.00  0.00     0.031 C 
ATOM     59  C   UNL A   1      47.955  27.231  26.729  1.00  0.00     0.037 A 
BRANCH  46  60
ATOM     60  C   UNL A   1      46.206  32.915  28.466  1.00  0.00     0.058 A 
ATOM     61  C   UNL A   1      46.134  33.847  27.417  1.00  0.00     0.135 A 
ATOM     62  C   UNL A   1      46.659  33.370  29.714  1.00  0.00     0.135 A 
ATOM     63  F   UNL A   1      45.722  33.463  26.199  1.00  0.00    -0.206 F 
ATOM     64  C   UNL A   1      46.549  35.164  27.583  1.00  0.00     0.059 A 
ATOM     65  C   UNL A   1      47.053  34.690  29.910  1.00  0.00     0.059 A 
ATOM     66  F   UNL A   1      46.746  32.524  30.753  1.00  0.00    -0.206 F 
ATOM     67  C   UNL A   1      47.020  35.573  28.831  1.00  0.00     0.060 A 
BRANCH  67  68
ATOM     68  S   UNL A   1      47.602  37.271  29.024  1.00  0.00     0.124 S 
ATOM     69  O   UNL A   1      48.969  37.167  28.523  1.00  0.00    -0.237 OA
ATOM     70  O   UNL A   1      46.676  38.020  28.181  1.00  0.00    -0.237 OA
ATOM     71  O   UNL A   1      47.475  37.513  30.458  1.00  0.00    -0.744 OA
ENDBRANCH  67  68
ENDBRANCH  46  60
BRANCH  47  72
ATOM     72  C   UNL A   1      43.172  23.505  27.012  1.00  0.00     0.058 A 
ATOM     73  C   UNL A   1      42.882  23.077  25.710  1.00  0.00     0.135 A 
ATOM     74  C   UNL A   1      43.056  22.568  28.051  1.00  0.00     0.135 A 
ATOM     75  F   UNL A   1      42.968  23.939  24.685  1.00  0.00    -0.206 F 
ATOM     76  C   UNL A   1      42.499  21.766  25.443  1.00  0.00     0.059 A 
ATOM     77  C   UNL A   1      42.694  21.247  27.807  1.00  0.00     0.059 A 
ATOM     78  F   UNL A   1      43.331  22.928  29.314  1.00  0.00    -0.206 F 
ATOM     79  C   UNL A   1      42.418  20.854  26.498  1.00  0.00     0.060 A 
BRANCH  79  80
ATOM     80  S   UNL A   1      42.017  19.133  26.126  1.00  0.00     0.124 S 
ATOM     81  O   UNL A   1      40.598  19.222  25.804  1.00  0.00    -0.237 OA
ATOM     82  O   UNL A   1      42.909  18.846  25.006  1.00  0.00    -0.237 OA
ATOM     83  O   UNL A   1      42.341  18.436  27.367  1.00  0.00    -0.744 OA
ENDBRANCH  79  80
ENDBRANCH  47  72
BRANCH  59  84
ATOM     84  C   UNL A   1      49.317  26.761  26.298  1.00  0.00     0.058 A 
ATOM     85  C   UNL A   1      49.761  26.903  24.974  1.00  0.00     0.135 A 
ATOM     86  C   UNL A   1      50.211  26.219  27.236  1.00  0.00     0.135 A 
ATOM     87  F   UNL A   1      48.943  27.412  24.038  1.00  0.00    -0.206 F 
ATOM     88  C   UNL A   1      51.037  26.509  24.590  1.00  0.00     0.059 A 
ATOM     89  C   UNL A   1      51.501  25.838  26.879  1.00  0.00     0.059 A 
ATOM     90  F   UNL A   1      49.838  26.069  28.517  1.00  0.00    -0.206 F 
ATOM     91  C   UNL A   1      51.901  25.978  25.551  1.00  0.00     0.060 A 
BRANCH  91  92
ATOM     92  S   UNL A   1      53.571  25.505  25.051  1.00  0.00     0.124 S 
ATOM     93  O   UNL A   1      53.574  24.077  25.351  1.00  0.00    -0.237 OA
ATOM     94  O   UNL A   1      53.585  25.855  23.634  1.00  0.00    -0.237 OA
ATOM     95  O   UNL A   1      54.426  26.328  25.900  1.00  0.00    -0.744 OA
ENDBRANCH  91  92
ENDBRANCH  59  84
ENDBRANCH  33  34
ENDBRANCH  26  28
ENDBRANCH  25  26
ENDBRANCH  24  25
ENDBRANCH   1  24
TORSDOF 20
ENDMDL
