MODEL 1
REMARK VINA RESULT:     -11.9      0.000      0.000
REMARK SMILES Cc1nn2c(nnc3c(=O)n(CCCC(=O)OCCOCCOC(=O)c4ccc(-c5c6nc(c(-c7c(F)cc(S(=O)(=O)[O-])cc7F)c7ccc([nH]7)c(-c7c(F)cc(S(=O)(=O)[O-])cc7F)c7nc(c(-c8c(F)cc(S(=O)(=O)[O-])cc8F)c8ccc5[nH]8)C=C7)C=C6)cc4)ccc32)c1-c1ccc(F)cc1
REMARK SMILES IDX 19 1 18 2 17 3 15 4 16 5 14 6 13 7 12 8 11 9 1 10 2 11 3 12
REMARK SMILES IDX 95 13 4 14 5 15 94 16 6 17 8 18 93 19 7 20 9 21 92 22 10 23
REMARK SMILES IDX 96 24 97 25 102 26 98 27 101 28 99 29 100 30 20 31 21 32
REMARK SMILES IDX 22 33 23 34 24 35 25 36 26 37 27 38 91 39 28 40 90 41 29 42
REMARK SMILES IDX 30 43 31 44 84 45 32 46 89 47 83 48 85 49 33 50 88 51 82 52
REMARK SMILES IDX 81 53 34 55 68 56 47 57 67 58 48 59 51 60 66 61 86 62 49 63
REMARK SMILES IDX 50 64 65 66 87 67 52 68 35 69 36 70 45 71 37 72 38 73 44 74
REMARK SMILES IDX 46 75 39 76 40 77 41 78 42 79 43 80 69 81 70 82 79 83 71 84
REMARK SMILES IDX 72 85 78 86 80 87 73 88 74 89 75 90 76 91 77 92 53 93 54 94
REMARK SMILES IDX 63 95 55 96 56 97 62 98 64 99 57 100 58 101 59 102 60 103
REMARK SMILES IDX 61 104
REMARK H PARENT 85 54 51 65
REMARK Flexibility Score: inf
ROOT
ATOM      1  C   UNL A   1      33.882  36.825  33.052  1.00  0.00     0.202 C 
ENDROOT
BRANCH   1   2
ATOM      2  C   UNL A   1      32.792  36.337  32.105  1.00  0.00     0.261 C 
BRANCH   2   3
ATOM      3  O   UNL A   1      32.674  37.192  30.960  1.00  0.00    -0.463 OA
BRANCH   3   4
ATOM      4  C   UNL A   1      33.061  36.649  29.781  1.00  0.00     0.305 C 
ATOM      5  O   UNL A   1      33.327  37.279  28.762  1.00  0.00    -0.252 OA
BRANCH   4   6
ATOM      6  C   UNL A   1      33.205  35.143  29.838  1.00  0.00     0.124 C 
BRANCH   6   7
ATOM      7  C   UNL A   1      33.669  34.378  28.593  1.00  0.00     0.034 C 
BRANCH   7   8
ATOM      8  C   UNL A   1      34.182  32.935  28.756  1.00  0.00     0.126 C 
BRANCH   8   9
ATOM      9  N   UNL A   1      33.591  31.973  27.829  1.00  0.00    -0.313 N 
ATOM     10  C   UNL A   1      29.779  27.425  23.062  1.00  0.00     0.069 C 
ATOM     11  C   UNL A   1      30.824  27.776  24.054  1.00  0.00     0.070 A 
ATOM     12  N   UNL A   1      30.799  28.979  24.651  1.00  0.00    -0.170 NA
ATOM     13  C   UNL A   1      31.901  26.984  24.508  1.00  0.00     0.051 A 
ATOM     14  N   UNL A   1      31.928  29.015  25.410  1.00  0.00    -0.210 N 
ATOM     15  C   UNL A   1      32.617  27.811  25.339  1.00  0.00     0.186 A 
ATOM     16  C   UNL A   1      32.464  30.056  26.167  1.00  0.00     0.102 A 
ATOM     17  N   UNL A   1      33.795  27.631  26.001  1.00  0.00    -0.129 NA
ATOM     18  C   UNL A   1      33.674  29.809  26.699  1.00  0.00     0.177 A 
ATOM     19  C   UNL A   1      31.801  31.322  26.410  1.00  0.00     0.049 A 
ATOM     20  N   UNL A   1      34.322  28.595  26.604  1.00  0.00    -0.141 NA
ATOM     21  C   UNL A   1      34.377  30.900  27.414  1.00  0.00     0.280 A 
ATOM     22  C   UNL A   1      32.340  32.199  27.272  1.00  0.00     0.091 A 
ATOM     23  O   UNL A   1      35.582  30.800  27.624  1.00  0.00    -0.267 OA
BRANCH  13  24
ATOM     24  C   UNL A   1      32.357  25.646  24.206  1.00  0.00    -0.012 A 
ATOM     25  C   UNL A   1      32.927  25.356  22.962  1.00  0.00     0.012 A 
ATOM     26  C   UNL A   1      32.337  24.668  25.213  1.00  0.00     0.012 A 
ATOM     27  C   UNL A   1      33.474  24.092  22.727  1.00  0.00     0.040 A 
ATOM     28  C   UNL A   1      32.884  23.407  24.974  1.00  0.00     0.040 A 
ATOM     29  C   UNL A   1      33.447  23.132  23.735  1.00  0.00     0.123 A 
ATOM     30  F   UNL A   1      33.986  21.927  23.510  1.00  0.00    -0.207 F 
ENDBRANCH  13  24
ENDBRANCH   8   9
ENDBRANCH   7   8
ENDBRANCH   6   7
ENDBRANCH   4   6
ENDBRANCH   3   4
ENDBRANCH   2   3
ENDBRANCH   1   2
BRANCH   1  31
ATOM     31  O   UNL A   1      34.815  35.870  33.558  1.00  0.00    -0.374 OA
BRANCH  31  32
ATOM     32  C   UNL A   1      34.678  34.485  33.249  1.00  0.00     0.202 C 
BRANCH  32  33
ATOM     33  C   UNL A   1      35.848  33.755  32.597  1.00  0.00     0.261 C 
BRANCH  33  34
ATOM     34  O   UNL A   1      35.422  32.674  31.783  1.00  0.00    -0.460 OA
BRANCH  34  35
ATOM     35  C   UNL A   1      36.114  31.537  32.035  1.00  0.00     0.338 C 
ATOM     36  O   UNL A   1      36.296  31.016  33.121  1.00  0.00    -0.246 OA
BRANCH  35  37
ATOM     37  C   UNL A   1      36.731  31.045  30.795  1.00  0.00     0.060 A 
ATOM     38  C   UNL A   1      36.811  29.653  30.721  1.00  0.00     0.016 A 
ATOM     39  C   UNL A   1      37.653  31.889  30.165  1.00  0.00     0.016 A 
ATOM     40  C   UNL A   1      38.024  29.115  30.380  1.00  0.00     0.010 A 
ATOM     41  C   UNL A   1      38.870  31.352  29.842  1.00  0.00     0.010 A 
ATOM     42  C   UNL A   1      39.066  29.994  30.079  1.00  0.00    -0.014 A 
BRANCH  42  43
ATOM     43  C   UNL A   1      40.399  29.452  30.007  1.00  0.00     0.031 A 
ATOM     44  C   UNL A   1      40.983  29.229  31.341  1.00  0.00     0.074 A 
ATOM     45  C   UNL A   1      40.969  29.111  28.837  1.00  0.00     0.049 A 
ATOM     46  N   UNL A   1      41.899  29.925  31.926  1.00  0.00    -0.248 NA
ATOM     47  C   UNL A   1      40.302  28.258  32.213  1.00  0.00     0.031 C 
ATOM     48  C   UNL A   1      40.369  29.032  27.503  1.00  0.00     0.029 A 
ATOM     49  N   UNL A   1      42.230  28.658  28.631  1.00  0.00    -0.354 N 
ATOM     50  C   UNL A   1      42.054  29.332  33.170  1.00  0.00     0.074 A 
ATOM     51  C   UNL A   1      40.904  28.492  33.378  1.00  0.00     0.031 C 
ATOM     52  C   UNL A   1      41.200  28.342  26.683  1.00  0.00     0.029 A 
ATOM     53  C   UNL A   1      42.431  28.050  27.397  1.00  0.00     0.049 A 
ATOM     54  H   UNL A   1      42.946  28.753  29.300  1.00  0.00     0.167 HD
ATOM     55  C   UNL A   1      43.239  29.355  33.835  1.00  0.00     0.037 A 
ATOM     56  C   UNL A   1      43.500  27.272  27.087  1.00  0.00     0.037 A 
ATOM     57  C   UNL A   1      44.150  30.318  33.277  1.00  0.00     0.049 A 
ATOM     58  C   UNL A   1      44.576  27.619  28.066  1.00  0.00     0.074 A 
ATOM     59  C   UNL A   1      44.135  31.692  33.147  1.00  0.00     0.029 A 
ATOM     60  N   UNL A   1      45.082  29.861  32.375  1.00  0.00    -0.354 N 
ATOM     61  N   UNL A   1      45.157  28.789  28.119  1.00  0.00    -0.248 NA
ATOM     62  C   UNL A   1      44.647  26.838  29.295  1.00  0.00     0.031 C 
ATOM     63  C   UNL A   1      44.710  31.952  31.870  1.00  0.00     0.029 A 
ATOM     64  C   UNL A   1      45.094  30.732  31.312  1.00  0.00     0.049 A 
ATOM     65  H   UNL A   1      45.640  29.057  32.474  1.00  0.00     0.167 HD
ATOM     66  C   UNL A   1      45.312  29.060  29.474  1.00  0.00     0.074 A 
ATOM     67  C   UNL A   1      45.030  27.793  30.147  1.00  0.00     0.031 C 
ATOM     68  C   UNL A   1      45.371  30.341  29.944  1.00  0.00     0.037 A 
BRANCH  55  69
ATOM     69  C   UNL A   1      43.661  28.262  34.769  1.00  0.00     0.058 A 
ATOM     70  C   UNL A   1      43.958  28.554  36.108  1.00  0.00     0.135 A 
ATOM     71  C   UNL A   1      43.990  26.958  34.329  1.00  0.00     0.135 A 
ATOM     72  F   UNL A   1      43.721  29.778  36.607  1.00  0.00    -0.206 F 
ATOM     73  C   UNL A   1      44.553  27.617  36.953  1.00  0.00     0.059 A 
ATOM     74  C   UNL A   1      44.519  25.989  35.168  1.00  0.00     0.059 A 
ATOM     75  F   UNL A   1      43.897  26.598  33.042  1.00  0.00    -0.206 F 
ATOM     76  C   UNL A   1      44.828  26.337  36.471  1.00  0.00     0.060 A 
BRANCH  76  77
ATOM     77  S   UNL A   1      45.658  25.149  37.536  1.00  0.00     0.124 S 
ATOM     78  O   UNL A   1      46.575  26.011  38.275  1.00  0.00    -0.237 OA
ATOM     79  O   UNL A   1      44.543  24.596  38.298  1.00  0.00    -0.237 OA
ATOM     80  O   UNL A   1      46.282  24.227  36.591  1.00  0.00    -0.744 OA
ENDBRANCH  76  77
ENDBRANCH  55  69
BRANCH  56  81
ATOM     81  C   UNL A   1      43.482  25.979  26.343  1.00  0.00     0.058 A 
ATOM     82  C   UNL A   1      44.438  25.701  25.348  1.00  0.00     0.135 A 
ATOM     83  C   UNL A   1      42.717  24.882  26.787  1.00  0.00     0.135 A 
ATOM     84  F   UNL A   1      45.228  26.679  24.881  1.00  0.00    -0.206 F 
ATOM     85  C   UNL A   1      44.656  24.404  24.862  1.00  0.00     0.059 A 
ATOM     86  C   UNL A   1      42.909  23.586  26.311  1.00  0.00     0.059 A 
ATOM     87  F   UNL A   1      41.817  25.015  27.772  1.00  0.00    -0.206 F 
ATOM     88  C   UNL A   1      43.900  23.348  25.368  1.00  0.00     0.060 A 
BRANCH  88  89
ATOM     89  S   UNL A   1      44.296  21.650  24.883  1.00  0.00     0.124 S 
ATOM     90  O   UNL A   1      43.080  20.937  25.261  1.00  0.00    -0.237 OA
ATOM     91  O   UNL A   1      44.536  21.790  23.452  1.00  0.00    -0.237 OA
ATOM     92  O   UNL A   1      45.477  21.336  25.683  1.00  0.00    -0.744 OA
ENDBRANCH  88  89
ENDBRANCH  56  81
BRANCH  68  93
ATOM     93  C   UNL A   1      45.509  31.462  28.941  1.00  0.00     0.058 A 
ATOM     94  C   UNL A   1      46.731  31.869  28.373  1.00  0.00     0.135 A 
ATOM     95  C   UNL A   1      44.341  32.024  28.408  1.00  0.00     0.135 A 
ATOM     96  F   UNL A   1      47.887  31.307  28.756  1.00  0.00    -0.206 F 
ATOM     97  C   UNL A   1      46.789  32.813  27.346  1.00  0.00     0.059 A 
ATOM     98  C   UNL A   1      44.372  32.945  27.364  1.00  0.00     0.059 A 
ATOM     99  F   UNL A   1      43.140  31.632  28.864  1.00  0.00    -0.206 F 
ATOM    100  C   UNL A   1      45.601  33.343  26.842  1.00  0.00     0.060 A 
BRANCH 100 101
ATOM    101  S   UNL A   1      45.668  34.504  25.460  1.00  0.00     0.124 S 
ATOM    102  O   UNL A   1      45.068  35.703  26.036  1.00  0.00    -0.237 OA
ATOM    103  O   UNL A   1      47.099  34.582  25.181  1.00  0.00    -0.237 OA
ATOM    104  O   UNL A   1      44.875  33.849  24.424  1.00  0.00    -0.744 OA
ENDBRANCH 100 101
ENDBRANCH  68  93
ENDBRANCH  42  43
ENDBRANCH  35  37
ENDBRANCH  34  35
ENDBRANCH  33  34
ENDBRANCH  32  33
ENDBRANCH  31  32
ENDBRANCH   1  31
TORSDOF 21
ENDMDL
MODEL 2
REMARK VINA RESULT:     -10.9      2.519      4.306
REMARK SMILES Cc1nn2c(nnc3c(=O)n(CCCC(=O)OCCOCCOC(=O)c4ccc(-c5c6nc(c(-c7c(F)cc(S(=O)(=O)[O-])cc7F)c7ccc([nH]7)c(-c7c(F)cc(S(=O)(=O)[O-])cc7F)c7nc(c(-c8c(F)cc(S(=O)(=O)[O-])cc8F)c8ccc5[nH]8)C=C7)C=C6)cc4)ccc32)c1-c1ccc(F)cc1
REMARK SMILES IDX 19 1 18 2 17 3 15 4 16 5 14 6 13 7 12 8 11 9 1 10 2 11 3 12
REMARK SMILES IDX 95 13 4 14 5 15 94 16 6 17 8 18 93 19 7 20 9 21 92 22 10 23
REMARK SMILES IDX 96 24 97 25 102 26 98 27 101 28 99 29 100 30 20 31 21 32
REMARK SMILES IDX 22 33 23 34 24 35 25 36 26 37 27 38 91 39 28 40 90 41 29 42
REMARK SMILES IDX 30 43 31 44 84 45 32 46 89 47 83 48 85 49 33 50 88 51 82 52
REMARK SMILES IDX 81 53 34 55 68 56 47 57 67 58 48 59 51 60 66 61 86 62 49 63
REMARK SMILES IDX 50 64 65 66 87 67 52 68 35 69 36 70 45 71 37 72 38 73 44 74
REMARK SMILES IDX 46 75 39 76 40 77 41 78 42 79 43 80 69 81 70 82 79 83 71 84
REMARK SMILES IDX 72 85 78 86 80 87 73 88 74 89 75 90 76 91 77 92 53 93 54 94
REMARK SMILES IDX 63 95 55 96 56 97 62 98 64 99 57 100 58 101 59 102 60 103
REMARK SMILES IDX 61 104
REMARK H PARENT 85 54 51 65
REMARK Flexibility Score: inf
ROOT
ATOM      1  C   UNL A   1      35.002  32.864  28.027  1.00  0.00     0.202 C 
ENDROOT
BRANCH   1   2
ATOM      2  C   UNL A   1      34.242  31.571  28.297  1.00  0.00     0.261 C 
BRANCH   2   3
ATOM      3  O   UNL A   1      33.310  31.284  27.247  1.00  0.00    -0.463 OA
BRANCH   3   4
ATOM      4  C   UNL A   1      33.227  29.982  26.877  1.00  0.00     0.305 C 
ATOM      5  O   UNL A   1      34.173  29.279  26.538  1.00  0.00    -0.252 OA
BRANCH   4   6
ATOM      6  C   UNL A   1      31.824  29.423  26.978  1.00  0.00     0.124 C 
BRANCH   6   7
ATOM      7  C   UNL A   1      31.621  27.923  27.219  1.00  0.00     0.034 C 
BRANCH   7   8
ATOM      8  C   UNL A   1      31.248  27.023  26.026  1.00  0.00     0.126 C 
BRANCH   8   9
ATOM      9  N   UNL A   1      32.078  25.829  25.884  1.00  0.00    -0.313 N 
ATOM     10  C   UNL A   1      37.019  20.137  24.821  1.00  0.00     0.069 C 
ATOM     11  C   UNL A   1      35.681  20.760  24.964  1.00  0.00     0.070 A 
ATOM     12  N   UNL A   1      35.572  22.097  25.032  1.00  0.00    -0.170 NA
ATOM     13  C   UNL A   1      34.422  20.124  25.029  1.00  0.00     0.051 A 
ATOM     14  N   UNL A   1      34.249  22.328  25.258  1.00  0.00    -0.210 N 
ATOM     15  C   UNL A   1      33.527  21.141  25.260  1.00  0.00     0.186 A 
ATOM     16  C   UNL A   1      33.581  23.525  25.509  1.00  0.00     0.102 A 
ATOM     17  N   UNL A   1      32.185  21.131  25.494  1.00  0.00    -0.129 NA
ATOM     18  C   UNL A   1      32.280  23.396  25.824  1.00  0.00     0.177 A 
ATOM     19  C   UNL A   1      34.190  24.839  25.434  1.00  0.00     0.049 A 
ATOM     20  N   UNL A   1      31.603  22.194  25.812  1.00  0.00    -0.141 NA
ATOM     21  C   UNL A   1      31.519  24.601  26.230  1.00  0.00     0.280 A 
ATOM     22  C   UNL A   1      33.422  25.934  25.552  1.00  0.00     0.091 A 
ATOM     23  O   UNL A   1      30.448  24.465  26.813  1.00  0.00    -0.267 OA
BRANCH  13  24
ATOM     24  C   UNL A   1      33.994  18.744  24.984  1.00  0.00    -0.012 A 
ATOM     25  C   UNL A   1      33.016  18.278  25.869  1.00  0.00     0.012 A 
ATOM     26  C   UNL A   1      34.475  17.906  23.967  1.00  0.00     0.012 A 
ATOM     27  C   UNL A   1      32.523  16.978  25.736  1.00  0.00     0.040 A 
ATOM     28  C   UNL A   1      33.981  16.607  23.837  1.00  0.00     0.040 A 
ATOM     29  C   UNL A   1      33.010  16.157  24.722  1.00  0.00     0.123 A 
ATOM     30  F   UNL A   1      32.523  14.916  24.589  1.00  0.00    -0.207 F 
ENDBRANCH  13  24
ENDBRANCH   8   9
ENDBRANCH   7   8
ENDBRANCH   6   7
ENDBRANCH   4   6
ENDBRANCH   3   4
ENDBRANCH   2   3
ENDBRANCH   1   2
BRANCH   1  31
ATOM     31  O   UNL A   1      36.420  32.795  27.874  1.00  0.00    -0.374 OA
BRANCH  31  32
ATOM     32  C   UNL A   1      37.286  33.375  28.847  1.00  0.00     0.202 C 
BRANCH  32  33
ATOM     33  C   UNL A   1      36.702  33.815  30.185  1.00  0.00     0.261 C 
BRANCH  33  34
ATOM     34  O   UNL A   1      37.073  32.948  31.246  1.00  0.00    -0.460 OA
BRANCH  34  35
ATOM     35  C   UNL A   1      36.093  32.066  31.557  1.00  0.00     0.338 C 
ATOM     36  O   UNL A   1      34.896  32.289  31.600  1.00  0.00    -0.246 OA
BRANCH  35  37
ATOM     37  C   UNL A   1      36.686  30.782  31.954  1.00  0.00     0.060 A 
ATOM     38  C   UNL A   1      37.616  30.890  32.990  1.00  0.00     0.016 A 
ATOM     39  C   UNL A   1      36.759  29.785  30.974  1.00  0.00     0.016 A 
ATOM     40  C   UNL A   1      38.827  30.275  32.808  1.00  0.00     0.010 A 
ATOM     41  C   UNL A   1      37.974  29.186  30.784  1.00  0.00     0.010 A 
ATOM     42  C   UNL A   1      39.018  29.545  31.633  1.00  0.00    -0.014 A 
BRANCH  42  43
ATOM     43  C   UNL A   1      40.363  29.148  31.303  1.00  0.00     0.031 A 
ATOM     44  C   UNL A   1      41.186  28.915  32.502  1.00  0.00     0.074 A 
ATOM     45  C   UNL A   1      40.752  28.930  30.034  1.00  0.00     0.049 A 
ATOM     46  N   UNL A   1      42.120  29.669  32.975  1.00  0.00    -0.248 NA
ATOM     47  C   UNL A   1      40.757  27.834  33.405  1.00  0.00     0.031 C 
ATOM     48  C   UNL A   1      39.941  28.862  28.815  1.00  0.00     0.029 A 
ATOM     49  N   UNL A   1      41.995  28.620  29.589  1.00  0.00    -0.354 N 
ATOM     50  C   UNL A   1      42.542  29.030  34.131  1.00  0.00     0.074 A 
ATOM     51  C   UNL A   1      41.526  28.066  34.468  1.00  0.00     0.031 C 
ATOM     52  C   UNL A   1      40.678  28.305  27.823  1.00  0.00     0.029 A 
ATOM     53  C   UNL A   1      42.035  28.103  28.300  1.00  0.00     0.049 A 
ATOM     54  H   UNL A   1      42.803  28.753  30.135  1.00  0.00     0.167 HD
ATOM     55  C   UNL A   1      43.816  29.139  34.590  1.00  0.00     0.037 A 
ATOM     56  C   UNL A   1      43.102  27.457  27.763  1.00  0.00     0.037 A 
ATOM     57  C   UNL A   1      44.524  30.218  33.957  1.00  0.00     0.049 A 
ATOM     58  C   UNL A   1      44.294  27.859  28.572  1.00  0.00     0.074 A 
ATOM     59  C   UNL A   1      44.361  31.589  33.928  1.00  0.00     0.029 A 
ATOM     60  N   UNL A   1      45.326  29.908  32.883  1.00  0.00    -0.354 N 
ATOM     61  N   UNL A   1      44.765  29.078  28.609  1.00  0.00    -0.248 NA
ATOM     62  C   UNL A   1      44.646  27.025  29.714  1.00  0.00     0.031 C 
ATOM     63  C   UNL A   1      44.682  31.974  32.595  1.00  0.00     0.029 A 
ATOM     64  C   UNL A   1      45.074  30.831  31.897  1.00  0.00     0.049 A 
ATOM     65  H   UNL A   1      45.964  29.161  32.831  1.00  0.00     0.167 HD
ATOM     66  C   UNL A   1      45.125  29.291  29.935  1.00  0.00     0.074 A 
ATOM     67  C   UNL A   1      45.081  27.968  30.555  1.00  0.00     0.031 C 
ATOM     68  C   UNL A   1      45.146  30.545  30.478  1.00  0.00     0.037 A 
BRANCH  55  69
ATOM     69  C   UNL A   1      44.491  28.046  35.362  1.00  0.00     0.058 A 
ATOM     70  C   UNL A   1      44.740  26.806  34.756  1.00  0.00     0.135 A 
ATOM     71  C   UNL A   1      44.708  28.110  36.758  1.00  0.00     0.135 A 
ATOM     72  F   UNL A   1      44.522  26.633  33.442  1.00  0.00    -0.206 F 
ATOM     73  C   UNL A   1      45.168  25.699  35.489  1.00  0.00     0.059 A 
ATOM     74  C   UNL A   1      45.198  27.044  37.496  1.00  0.00     0.059 A 
ATOM     75  F   UNL A   1      44.368  29.186  37.481  1.00  0.00    -0.206 F 
ATOM     76  C   UNL A   1      45.394  25.831  36.859  1.00  0.00     0.060 A 
BRANCH  76  77
ATOM     77  S   UNL A   1      45.878  24.389  37.820  1.00  0.00     0.124 S 
ATOM     78  O   UNL A   1      45.735  23.322  36.836  1.00  0.00    -0.237 OA
ATOM     79  O   UNL A   1      47.244  24.728  38.205  1.00  0.00    -0.237 OA
ATOM     80  O   UNL A   1      44.911  24.373  38.914  1.00  0.00    -0.744 OA
ENDBRANCH  76  77
ENDBRANCH  55  69
BRANCH  56  81
ATOM     81  C   UNL A   1      43.076  26.211  26.944  1.00  0.00     0.058 A 
ATOM     82  C   UNL A   1      43.725  26.147  25.697  1.00  0.00     0.135 A 
ATOM     83  C   UNL A   1      42.666  24.977  27.489  1.00  0.00     0.135 A 
ATOM     84  F   UNL A   1      44.171  27.269  25.112  1.00  0.00    -0.206 F 
ATOM     85  C   UNL A   1      43.997  24.931  25.056  1.00  0.00     0.059 A 
ATOM     86  C   UNL A   1      42.917  23.755  26.865  1.00  0.00     0.059 A 
ATOM     87  F   UNL A   1      42.089  24.908  28.697  1.00  0.00    -0.206 F 
ATOM     88  C   UNL A   1      43.608  23.737  25.661  1.00  0.00     0.060 A 
BRANCH  88  89
ATOM     89  S   UNL A   1      44.114  22.158  24.935  1.00  0.00     0.124 S 
ATOM     90  O   UNL A   1      42.998  21.289  25.295  1.00  0.00    -0.237 OA
ATOM     91  O   UNL A   1      44.231  22.497  23.521  1.00  0.00    -0.237 OA
ATOM     92  O   UNL A   1      45.376  21.864  25.609  1.00  0.00    -0.744 OA
ENDBRANCH  88  89
ENDBRANCH  56  81
BRANCH  68  93
ATOM     93  C   UNL A   1      45.006  31.726  29.547  1.00  0.00     0.058 A 
ATOM     94  C   UNL A   1      46.088  32.364  28.911  1.00  0.00     0.135 A 
ATOM     95  C   UNL A   1      43.718  32.110  29.150  1.00  0.00     0.135 A 
ATOM     96  F   UNL A   1      47.350  31.986  29.160  1.00  0.00    -0.206 F 
ATOM     97  C   UNL A   1      45.895  33.359  27.950  1.00  0.00     0.059 A 
ATOM     98  C   UNL A   1      43.501  33.078  28.173  1.00  0.00     0.059 A 
ATOM     99  F   UNL A   1      42.644  31.495  29.674  1.00  0.00    -0.206 F 
ATOM    100  C   UNL A   1      44.595  33.706  27.583  1.00  0.00     0.060 A 
BRANCH 100 101
ATOM    101  S   UNL A   1      44.344  34.936  26.283  1.00  0.00     0.124 S 
ATOM    102  O   UNL A   1      43.423  34.249  25.383  1.00  0.00    -0.237 OA
ATOM    103  O   UNL A   1      43.787  36.066  27.019  1.00  0.00    -0.237 OA
ATOM    104  O   UNL A   1      45.688  35.151  25.751  1.00  0.00    -0.744 OA
ENDBRANCH 100 101
ENDBRANCH  68  93
ENDBRANCH  42  43
ENDBRANCH  35  37
ENDBRANCH  34  35
ENDBRANCH  33  34
ENDBRANCH  32  33
ENDBRANCH  31  32
ENDBRANCH   1  31
TORSDOF 21
ENDMDL
MODEL 3
REMARK VINA RESULT:     -10.9      3.004      8.343
REMARK SMILES Cc1nn2c(nnc3c(=O)n(CCCC(=O)OCCOCCOC(=O)c4ccc(-c5c6nc(c(-c7c(F)cc(S(=O)(=O)[O-])cc7F)c7ccc([nH]7)c(-c7c(F)cc(S(=O)(=O)[O-])cc7F)c7nc(c(-c8c(F)cc(S(=O)(=O)[O-])cc8F)c8ccc5[nH]8)C=C7)C=C6)cc4)ccc32)c1-c1ccc(F)cc1
REMARK SMILES IDX 19 1 18 2 17 3 15 4 16 5 14 6 13 7 12 8 11 9 1 10 2 11 3 12
REMARK SMILES IDX 95 13 4 14 5 15 94 16 6 17 8 18 93 19 7 20 9 21 92 22 10 23
REMARK SMILES IDX 96 24 97 25 102 26 98 27 101 28 99 29 100 30 20 31 21 32
REMARK SMILES IDX 22 33 23 34 24 35 25 36 26 37 27 38 91 39 28 40 90 41 29 42
REMARK SMILES IDX 30 43 31 44 84 45 32 46 89 47 83 48 85 49 33 50 88 51 82 52
REMARK SMILES IDX 81 53 34 55 68 56 47 57 67 58 48 59 51 60 66 61 86 62 49 63
REMARK SMILES IDX 50 64 65 66 87 67 52 68 35 69 36 70 45 71 37 72 38 73 44 74
REMARK SMILES IDX 46 75 39 76 40 77 41 78 42 79 43 80 69 81 70 82 79 83 71 84
REMARK SMILES IDX 72 85 78 86 80 87 73 88 74 89 75 90 76 91 77 92 53 93 54 94
REMARK SMILES IDX 63 95 55 96 56 97 62 98 64 99 57 100 58 101 59 102 60 103
REMARK SMILES IDX 61 104
REMARK H PARENT 85 54 51 65
REMARK Flexibility Score: inf
ROOT
ATOM      1  C   UNL A   1      33.981  32.166  27.811  1.00  0.00     0.202 C 
ENDROOT
BRANCH   1   2
ATOM      2  C   UNL A   1      33.831  30.651  27.747  1.00  0.00     0.261 C 
BRANCH   2   3
ATOM      3  O   UNL A   1      32.854  30.263  26.772  1.00  0.00    -0.463 OA
BRANCH   3   4
ATOM      4  C   UNL A   1      33.165  29.170  26.034  1.00  0.00     0.305 C 
ATOM      5  O   UNL A   1      34.302  28.804  25.751  1.00  0.00    -0.252 OA
BRANCH   4   6
ATOM      6  C   UNL A   1      31.951  28.367  25.619  1.00  0.00     0.124 C 
BRANCH   6   7
ATOM      7  C   UNL A   1      31.327  28.595  24.237  1.00  0.00     0.034 C 
BRANCH   7   8
ATOM      8  C   UNL A   1      31.144  27.389  23.297  1.00  0.00     0.126 C 
BRANCH   8   9
ATOM      9  N   UNL A   1      31.976  26.233  23.624  1.00  0.00    -0.313 N 
ATOM     10  C   UNL A   1      36.986  20.686  25.061  1.00  0.00     0.069 C 
ATOM     11  C   UNL A   1      35.659  21.261  24.734  1.00  0.00     0.070 A 
ATOM     12  N   UNL A   1      35.546  22.575  24.482  1.00  0.00    -0.170 NA
ATOM     13  C   UNL A   1      34.419  20.594  24.627  1.00  0.00     0.051 A 
ATOM     14  N   UNL A   1      34.210  22.786  24.322  1.00  0.00    -0.210 N 
ATOM     15  C   UNL A   1      33.502  21.593  24.406  1.00  0.00     0.186 A 
ATOM     16  C   UNL A   1      33.508  23.975  24.136  1.00  0.00     0.102 A 
ATOM     17  N   UNL A   1      32.144  21.570  24.302  1.00  0.00    -0.129 NA
ATOM     18  C   UNL A   1      32.169  23.854  24.145  1.00  0.00     0.177 A 
ATOM     19  C   UNL A   1      34.126  25.271  23.929  1.00  0.00     0.049 A 
ATOM     20  N   UNL A   1      31.508  22.647  24.229  1.00  0.00    -0.141 NA
ATOM     21  C   UNL A   1      31.339  25.080  24.081  1.00  0.00     0.280 A 
ATOM     22  C   UNL A   1      33.360  26.328  23.616  1.00  0.00     0.091 A 
ATOM     23  O   UNL A   1      30.156  25.020  24.400  1.00  0.00    -0.267 OA
BRANCH  13  24
ATOM     24  C   UNL A   1      34.006  19.217  24.779  1.00  0.00    -0.012 A 
ATOM     25  C   UNL A   1      34.784  18.182  24.249  1.00  0.00     0.012 A 
ATOM     26  C   UNL A   1      32.884  18.918  25.566  1.00  0.00     0.012 A 
ATOM     27  C   UNL A   1      34.439  16.854  24.508  1.00  0.00     0.040 A 
ATOM     28  C   UNL A   1      32.542  17.589  25.821  1.00  0.00     0.040 A 
ATOM     29  C   UNL A   1      33.323  16.571  25.290  1.00  0.00     0.123 A 
ATOM     30  F   UNL A   1      33.005  15.296  25.547  1.00  0.00    -0.207 F 
ENDBRANCH  13  24
ENDBRANCH   8   9
ENDBRANCH   7   8
ENDBRANCH   6   7
ENDBRANCH   4   6
ENDBRANCH   3   4
ENDBRANCH   2   3
ENDBRANCH   1   2
BRANCH   1  31
ATOM     31  O   UNL A   1      35.287  32.723  27.661  1.00  0.00    -0.374 OA
BRANCH  31  32
ATOM     32  C   UNL A   1      35.952  33.325  28.769  1.00  0.00     0.202 C 
BRANCH  32  33
ATOM     33  C   UNL A   1      37.334  32.816  29.165  1.00  0.00     0.261 C 
BRANCH  33  34
ATOM     34  O   UNL A   1      37.599  31.520  28.653  1.00  0.00    -0.460 OA
BRANCH  34  35
ATOM     35  C   UNL A   1      37.444  30.554  29.589  1.00  0.00     0.338 C 
ATOM     36  O   UNL A   1      37.033  30.698  30.727  1.00  0.00    -0.246 OA
BRANCH  35  37
ATOM     37  C   UNL A   1      37.951  29.275  29.073  1.00  0.00     0.060 A 
ATOM     38  C   UNL A   1      38.339  28.381  30.074  1.00  0.00     0.016 A 
ATOM     39  C   UNL A   1      38.538  29.289  27.803  1.00  0.00     0.016 A 
ATOM     40  C   UNL A   1      39.573  27.799  29.946  1.00  0.00     0.010 A 
ATOM     41  C   UNL A   1      39.778  28.722  27.684  1.00  0.00     0.010 A 
ATOM     42  C   UNL A   1      40.320  28.098  28.805  1.00  0.00    -0.014 A 
BRANCH  42  43
ATOM     43  C   UNL A   1      41.713  27.731  28.802  1.00  0.00     0.031 A 
ATOM     44  C   UNL A   1      41.927  26.360  28.308  1.00  0.00     0.074 A 
ATOM     45  C   UNL A   1      42.683  28.605  29.127  1.00  0.00     0.049 A 
ATOM     46  N   UNL A   1      42.228  25.312  28.999  1.00  0.00    -0.248 NA
ATOM     47  C   UNL A   1      41.532  26.083  26.917  1.00  0.00     0.031 C 
ATOM     48  C   UNL A   1      42.589  30.050  29.354  1.00  0.00     0.029 A 
ATOM     49  N   UNL A   1      44.014  28.367  29.228  1.00  0.00    -0.354 N 
ATOM     50  C   UNL A   1      42.268  24.278  28.075  1.00  0.00     0.074 A 
ATOM     51  C   UNL A   1      41.606  24.753  26.888  1.00  0.00     0.031 C 
ATOM     52  C   UNL A   1      43.835  30.583  29.333  1.00  0.00     0.029 A 
ATOM     53  C   UNL A   1      44.807  29.508  29.222  1.00  0.00     0.049 A 
ATOM     54  H   UNL A   1      44.388  27.460  29.299  1.00  0.00     0.167 HD
ATOM     55  C   UNL A   1      43.074  23.196  28.241  1.00  0.00     0.037 A 
ATOM     56  C   UNL A   1      46.149  29.512  29.015  1.00  0.00     0.037 A 
ATOM     57  C   UNL A   1      43.578  23.103  29.584  1.00  0.00     0.049 A 
ATOM     58  C   UNL A   1      46.628  28.127  29.310  1.00  0.00     0.074 A 
ATOM     59  C   UNL A   1      42.991  22.922  30.821  1.00  0.00     0.029 A 
ATOM     60  N   UNL A   1      44.830  23.616  29.830  1.00  0.00    -0.354 N 
ATOM     61  N   UNL A   1      46.586  27.584  30.498  1.00  0.00    -0.248 NA
ATOM     62  C   UNL A   1      46.685  27.184  28.200  1.00  0.00     0.031 C 
ATOM     63  C   UNL A   1      43.728  23.757  31.710  1.00  0.00     0.029 A 
ATOM     64  C   UNL A   1      44.756  24.360  30.983  1.00  0.00     0.049 A 
ATOM     65  H   UNL A   1      45.634  23.475  29.280  1.00  0.00     0.167 HD
ATOM     66  C   UNL A   1      46.210  26.263  30.283  1.00  0.00     0.074 A 
ATOM     67  C   UNL A   1      46.342  26.062  28.842  1.00  0.00     0.031 C 
ATOM     68  C   UNL A   1      45.555  25.541  31.242  1.00  0.00     0.037 A 
BRANCH  55  69
ATOM     69  C   UNL A   1      43.652  22.437  27.086  1.00  0.00     0.058 A 
ATOM     70  C   UNL A   1      42.930  21.386  26.502  1.00  0.00     0.135 A 
ATOM     71  C   UNL A   1      44.996  22.575  26.669  1.00  0.00     0.135 A 
ATOM     72  F   UNL A   1      41.660  21.148  26.864  1.00  0.00    -0.206 F 
ATOM     73  C   UNL A   1      43.509  20.521  25.573  1.00  0.00     0.059 A 
ATOM     74  C   UNL A   1      45.572  21.771  25.698  1.00  0.00     0.059 A 
ATOM     75  F   UNL A   1      45.837  23.440  27.254  1.00  0.00    -0.206 F 
ATOM     76  C   UNL A   1      44.831  20.724  25.178  1.00  0.00     0.060 A 
BRANCH  76  77
ATOM     77  S   UNL A   1      45.602  19.570  24.034  1.00  0.00     0.124 S 
ATOM     78  O   UNL A   1      44.772  19.740  22.846  1.00  0.00    -0.237 OA
ATOM     79  O   UNL A   1      46.961  20.092  23.948  1.00  0.00    -0.237 OA
ATOM     80  O   UNL A   1      45.473  18.284  24.715  1.00  0.00    -0.744 OA
ENDBRANCH  76  77
ENDBRANCH  55  69
BRANCH  56  81
ATOM     81  C   UNL A   1      46.921  30.461  28.162  1.00  0.00     0.058 A 
ATOM     82  C   UNL A   1      46.409  30.913  26.931  1.00  0.00     0.135 A 
ATOM     83  C   UNL A   1      48.035  31.167  28.662  1.00  0.00     0.135 A 
ATOM     84  F   UNL A   1      45.337  30.317  26.389  1.00  0.00    -0.206 F 
ATOM     85  C   UNL A   1      46.937  32.027  26.265  1.00  0.00     0.059 A 
ATOM     86  C   UNL A   1      48.583  32.271  28.012  1.00  0.00     0.059 A 
ATOM     87  F   UNL A   1      48.572  30.864  29.853  1.00  0.00    -0.206 F 
ATOM     88  C   UNL A   1      48.012  32.714  26.827  1.00  0.00     0.060 A 
BRANCH  88  89
ATOM     89  S   UNL A   1      48.582  34.257  26.071  1.00  0.00     0.124 S 
ATOM     90  O   UNL A   1      48.766  35.115  27.237  1.00  0.00    -0.237 OA
ATOM     91  O   UNL A   1      49.800  33.831  25.392  1.00  0.00    -0.237 OA
ATOM     92  O   UNL A   1      47.479  34.631  25.190  1.00  0.00    -0.744 OA
ENDBRANCH  88  89
ENDBRANCH  56  81
BRANCH  68  93
ATOM     93  C   UNL A   1      45.461  26.124  32.632  1.00  0.00     0.058 A 
ATOM     94  C   UNL A   1      44.418  26.964  33.068  1.00  0.00     0.135 A 
ATOM     95  C   UNL A   1      46.364  25.674  33.603  1.00  0.00     0.135 A 
ATOM     96  F   UNL A   1      43.455  27.358  32.223  1.00  0.00    -0.206 F 
ATOM     97  C   UNL A   1      44.300  27.361  34.402  1.00  0.00     0.059 A 
ATOM     98  C   UNL A   1      46.250  26.032  34.944  1.00  0.00     0.059 A 
ATOM     99  F   UNL A   1      47.345  24.821  33.263  1.00  0.00    -0.206 F 
ATOM    100  C   UNL A   1      45.220  26.884  35.336  1.00  0.00     0.060 A 
BRANCH 100 101
ATOM    101  S   UNL A   1      45.023  27.331  37.075  1.00  0.00     0.124 S 
ATOM    102  O   UNL A   1      43.823  26.590  37.450  1.00  0.00    -0.237 OA
ATOM    103  O   UNL A   1      46.271  26.860  37.667  1.00  0.00    -0.237 OA
ATOM    104  O   UNL A   1      44.870  28.784  37.040  1.00  0.00    -0.744 OA
ENDBRANCH 100 101
ENDBRANCH  68  93
ENDBRANCH  42  43
ENDBRANCH  35  37
ENDBRANCH  34  35
ENDBRANCH  33  34
ENDBRANCH  32  33
ENDBRANCH  31  32
ENDBRANCH   1  31
TORSDOF 21
ENDMDL
