MODEL 1
REMARK VINA RESULT:      -9.6      0.000      0.000
REMARK SMILES Cc1cc(Cl)cc2c1O[C@H](C(F)(F)F)C(C(=O)OCCOCCOC(=O)c1ccc(-c3c4nc(c(-c5c(F)cc(S(=O)(=O)[O-])cc5F)c5ccc([nH]5)c(-c5c(F)cc(S(=O)(=O)[O-])cc5F)c5nc(c(-c6c(F)cc(S(=O)(=O)[O-])cc6F)c6ccc3[nH]6)C=C5)C=C4)cc1)=C2
REMARK SMILES IDX 22 1 21 2 20 3 19 4 18 5 16 6 17 7 15 8 1 9 2 10 3 11 8 12
REMARK SMILES IDX 4 13 7 14 9 15 5 16 6 17 93 18 10 19 11 20 12 21 13 22 14 23
REMARK SMILES IDX 23 24 24 25 25 26 26 27 27 28 28 29 92 30 29 31 91 32 30 33
REMARK SMILES IDX 31 34 32 35 85 36 33 37 90 38 84 39 86 40 34 41 89 42 83 43
REMARK SMILES IDX 82 44 35 46 69 47 48 48 68 49 49 50 52 51 67 52 87 53 50 54
REMARK SMILES IDX 51 55 66 57 88 58 53 59 36 60 37 61 46 62 38 63 39 64 45 65
REMARK SMILES IDX 47 66 40 67 41 68 42 69 43 70 44 71 70 72 71 73 80 74 72 75
REMARK SMILES IDX 73 76 79 77 81 78 74 79 75 80 76 81 77 82 78 83 54 84 55 85
REMARK SMILES IDX 64 86 56 87 57 88 63 89 65 90 58 91 59 92 60 93 61 94 62 95
REMARK H PARENT 86 45 52 56
REMARK Flexibility Score: inf
ROOT
ATOM      1  C   UNL A   1      33.485  34.113  28.218  1.00  0.00     0.202 C 
ENDROOT
BRANCH   1   2
ATOM      2  O   UNL A   1      33.672  35.312  28.970  1.00  0.00    -0.374 OA
BRANCH   2   3
ATOM      3  C   UNL A   1      32.983  35.423  30.217  1.00  0.00     0.202 C 
BRANCH   3   4
ATOM      4  C   UNL A   1      33.849  35.321  31.476  1.00  0.00     0.261 C 
BRANCH   4   5
ATOM      5  O   UNL A   1      34.950  34.418  31.275  1.00  0.00    -0.460 OA
BRANCH   5   6
ATOM      6  C   UNL A   1      34.865  33.254  31.956  1.00  0.00     0.338 C 
ATOM      7  O   UNL A   1      33.903  32.499  32.002  1.00  0.00    -0.246 OA
BRANCH   6   8
ATOM      8  C   UNL A   1      36.173  32.924  32.553  1.00  0.00     0.087 C 
ATOM      9  C   UNL A   1      40.367  32.582  35.479  1.00  0.00     0.048 C 
ATOM     10  C   UNL A   1      39.672  31.700  34.480  1.00  0.00    -0.007 A 
ATOM     11  C   UNL A   1      40.157  30.404  34.242  1.00  0.00     0.027 A 
ATOM     12  C   UNL A   1      38.548  32.151  33.768  1.00  0.00     0.131 A 
ATOM     13  C   UNL A   1      39.522  29.573  33.322  1.00  0.00     0.042 A 
ATOM     14  C   UNL A   1      37.897  31.298  32.871  1.00  0.00     0.019 A 
ATOM     15  O   UNL A   1      38.150  33.442  33.984  1.00  0.00    -0.475 OA
ATOM     16  Cl  UNL A   1      40.123  27.984  33.043  1.00  0.00    -0.084 Cl
ATOM     17  C   UNL A   1      38.394  30.012  32.636  1.00  0.00     0.032 A 
ATOM     18  C   UNL A   1      36.670  31.725  32.225  1.00  0.00     0.027 C 
ATOM     19  C   UNL A   1      36.858  33.889  33.480  1.00  0.00     0.316 C 
BRANCH  19  20
ATOM     20  C   UNL A   1      35.983  34.276  34.682  1.00  0.00     0.430 C 
ATOM     21  F   UNL A   1      35.318  35.433  34.450  1.00  0.00    -0.167 F 
ATOM     22  F   UNL A   1      35.052  33.334  34.950  1.00  0.00    -0.167 F 
ATOM     23  F   UNL A   1      36.720  34.450  35.803  1.00  0.00    -0.167 F 
ENDBRANCH  19  20
ENDBRANCH   6   8
ENDBRANCH   5   6
ENDBRANCH   4   5
ENDBRANCH   3   4
ENDBRANCH   2   3
ENDBRANCH   1   2
BRANCH   1  24
ATOM     24  C   UNL A   1      34.708  33.206  28.032  1.00  0.00     0.261 C 
BRANCH  24  25
ATOM     25  O   UNL A   1      34.623  32.001  28.811  1.00  0.00    -0.460 OA
BRANCH  25  26
ATOM     26  C   UNL A   1      34.629  30.859  28.081  1.00  0.00     0.338 C 
ATOM     27  O   UNL A   1      33.760  30.476  27.308  1.00  0.00    -0.246 OA
BRANCH  26  28
ATOM     28  C   UNL A   1      35.932  30.184  28.200  1.00  0.00     0.060 A 
ATOM     29  C   UNL A   1      36.232  29.566  29.422  1.00  0.00     0.016 A 
ATOM     30  C   UNL A   1      36.878  30.226  27.173  1.00  0.00     0.016 A 
ATOM     31  C   UNL A   1      37.500  29.033  29.641  1.00  0.00     0.010 A 
ATOM     32  C   UNL A   1      38.155  29.702  27.400  1.00  0.00     0.010 A 
ATOM     33  C   UNL A   1      38.481  29.137  28.646  1.00  0.00    -0.014 A 
BRANCH  33  34
ATOM     34  C   UNL A   1      39.888  28.797  28.962  1.00  0.00     0.031 A 
ATOM     35  C   UNL A   1      40.743  29.819  29.659  1.00  0.00     0.074 A 
ATOM     36  C   UNL A   1      40.387  27.587  28.655  1.00  0.00     0.049 A 
ATOM     37  N   UNL A   1      42.015  29.769  29.960  1.00  0.00    -0.248 NA
ATOM     38  C   UNL A   1      40.074  31.063  30.074  1.00  0.00     0.031 C 
ATOM     39  C   UNL A   1      39.636  26.494  28.038  1.00  0.00     0.029 A 
ATOM     40  N   UNL A   1      41.651  27.078  28.818  1.00  0.00    -0.354 N 
ATOM     41  C   UNL A   1      42.298  30.971  30.598  1.00  0.00     0.074 A 
ATOM     42  C   UNL A   1      41.074  31.741  30.618  1.00  0.00     0.031 C 
ATOM     43  C   UNL A   1      40.457  25.445  27.866  1.00  0.00     0.029 A 
ATOM     44  C   UNL A   1      41.798  25.804  28.323  1.00  0.00     0.049 A 
ATOM     45  H   UNL A   1      42.382  27.577  29.247  1.00  0.00     0.167 HD
ATOM     46  C   UNL A   1      43.474  31.390  31.127  1.00  0.00     0.037 A 
ATOM     47  C   UNL A   1      42.896  25.029  28.230  1.00  0.00     0.037 A 
ATOM     48  C   UNL A   1      44.691  30.621  31.094  1.00  0.00     0.049 A 
ATOM     49  C   UNL A   1      44.212  25.551  28.743  1.00  0.00     0.074 A 
ATOM     50  C   UNL A   1      45.939  30.965  31.579  1.00  0.00     0.029 A 
ATOM     51  N   UNL A   1      44.811  29.353  30.545  1.00  0.00    -0.354 N 
ATOM     52  N   UNL A   1      44.476  26.701  29.315  1.00  0.00    -0.248 NA
ATOM     53  C   UNL A   1      45.379  24.670  28.597  1.00  0.00     0.031 C 
ATOM     54  C   UNL A   1      46.825  29.921  31.289  1.00  0.00     0.029 A 
ATOM     55  C   UNL A   1      46.116  28.906  30.667  1.00  0.00     0.049 A 
ATOM     56  H   UNL A   1      44.077  28.845  30.129  1.00  0.00     0.167 HD
ATOM     57  C   UNL A   1      45.833  26.673  29.621  1.00  0.00     0.074 A 
ATOM     58  C   UNL A   1      46.332  25.387  29.176  1.00  0.00     0.031 C 
ATOM     59  C   UNL A   1      46.595  27.622  30.219  1.00  0.00     0.037 A 
BRANCH  46  60
ATOM     60  C   UNL A   1      43.504  32.749  31.766  1.00  0.00     0.058 A 
ATOM     61  C   UNL A   1      43.606  33.921  30.999  1.00  0.00     0.135 A 
ATOM     62  C   UNL A   1      43.387  32.886  33.158  1.00  0.00     0.135 A 
ATOM     63  F   UNL A   1      43.744  33.847  29.666  1.00  0.00    -0.206 F 
ATOM     64  C   UNL A   1      43.606  35.180  31.592  1.00  0.00     0.059 A 
ATOM     65  C   UNL A   1      43.360  34.136  33.771  1.00  0.00     0.059 A 
ATOM     66  F   UNL A   1      43.293  31.798  33.939  1.00  0.00    -0.206 F 
ATOM     67  C   UNL A   1      43.479  35.277  32.979  1.00  0.00     0.060 A 
BRANCH  67  68
ATOM     68  S   UNL A   1      43.463  36.919  33.730  1.00  0.00     0.124 S 
ATOM     69  O   UNL A   1      43.828  37.762  32.595  1.00  0.00    -0.237 OA
ATOM     70  O   UNL A   1      42.082  37.037  34.189  1.00  0.00    -0.237 OA
ATOM     71  O   UNL A   1      44.466  36.821  34.785  1.00  0.00    -0.744 OA
ENDBRANCH  67  68
ENDBRANCH  46  60
BRANCH  47  72
ATOM     72  C   UNL A   1      42.796  23.676  27.621  1.00  0.00     0.058 A 
ATOM     73  C   UNL A   1      43.048  23.479  26.255  1.00  0.00     0.135 A 
ATOM     74  C   UNL A   1      42.468  22.552  28.396  1.00  0.00     0.135 A 
ATOM     75  F   UNL A   1      43.351  24.524  25.472  1.00  0.00    -0.206 F 
ATOM     76  C   UNL A   1      42.975  22.216  25.677  1.00  0.00     0.059 A 
ATOM     77  C   UNL A   1      42.413  21.276  27.845  1.00  0.00     0.059 A 
ATOM     78  F   UNL A   1      42.226  22.687  29.708  1.00  0.00    -0.206 F 
ATOM     79  C   UNL A   1      42.664  21.118  26.483  1.00  0.00     0.060 A 
BRANCH  79  80
ATOM     80  S   UNL A   1      42.641  19.476  25.733  1.00  0.00     0.124 S 
ATOM     81  O   UNL A   1      43.161  18.650  26.817  1.00  0.00    -0.237 OA
ATOM     82  O   UNL A   1      41.226  19.304  25.421  1.00  0.00    -0.237 OA
ATOM     83  O   UNL A   1      43.517  19.623  24.575  1.00  0.00    -0.744 OA
ENDBRANCH  79  80
ENDBRANCH  47  72
BRANCH  59  84
ATOM     84  C   UNL A   1      48.043  27.295  30.460  1.00  0.00     0.058 A 
ATOM     85  C   UNL A   1      48.462  26.589  31.598  1.00  0.00     0.135 A 
ATOM     86  C   UNL A   1      49.018  27.654  29.514  1.00  0.00     0.135 A 
ATOM     87  F   UNL A   1      47.571  26.226  32.534  1.00  0.00    -0.206 F 
ATOM     88  C   UNL A   1      49.802  26.274  31.805  1.00  0.00     0.059 A 
ATOM     89  C   UNL A   1      50.360  27.326  29.688  1.00  0.00     0.059 A 
ATOM     90  F   UNL A   1      48.669  28.318  28.401  1.00  0.00    -0.206 F 
ATOM     91  C   UNL A   1      50.743  26.649  30.844  1.00  0.00     0.060 A 
BRANCH  91  92
ATOM     92  S   UNL A   1      52.476  26.219  31.118  1.00  0.00     0.124 S 
ATOM     93  O   UNL A   1      52.357  24.913  31.757  1.00  0.00    -0.237 OA
ATOM     94  O   UNL A   1      53.014  26.214  29.761  1.00  0.00    -0.237 OA
ATOM     95  O   UNL A   1      52.962  27.296  31.975  1.00  0.00    -0.744 OA
ENDBRANCH  91  92
ENDBRANCH  59  84
ENDBRANCH  33  34
ENDBRANCH  26  28
ENDBRANCH  25  26
ENDBRANCH  24  25
ENDBRANCH   1  24
TORSDOF 18
ENDMDL
MODEL 2
REMARK VINA RESULT:      -9.5      5.023     12.013
REMARK SMILES Cc1cc(Cl)cc2c1O[C@H](C(F)(F)F)C(C(=O)OCCOCCOC(=O)c1ccc(-c3c4nc(c(-c5c(F)cc(S(=O)(=O)[O-])cc5F)c5ccc([nH]5)c(-c5c(F)cc(S(=O)(=O)[O-])cc5F)c5nc(c(-c6c(F)cc(S(=O)(=O)[O-])cc6F)c6ccc3[nH]6)C=C5)C=C4)cc1)=C2
REMARK SMILES IDX 22 1 21 2 20 3 19 4 18 5 16 6 17 7 15 8 1 9 2 10 3 11 8 12
REMARK SMILES IDX 4 13 7 14 9 15 5 16 6 17 93 18 10 19 11 20 12 21 13 22 14 23
REMARK SMILES IDX 23 24 24 25 25 26 26 27 27 28 28 29 92 30 29 31 91 32 30 33
REMARK SMILES IDX 31 34 32 35 85 36 33 37 90 38 84 39 86 40 34 41 89 42 83 43
REMARK SMILES IDX 82 44 35 46 69 47 48 48 68 49 49 50 52 51 67 52 87 53 50 54
REMARK SMILES IDX 51 55 66 57 88 58 53 59 36 60 37 61 46 62 38 63 39 64 45 65
REMARK SMILES IDX 47 66 40 67 41 68 42 69 43 70 44 71 70 72 71 73 80 74 72 75
REMARK SMILES IDX 73 76 79 77 81 78 74 79 75 80 76 81 77 82 78 83 54 84 55 85
REMARK SMILES IDX 64 86 56 87 57 88 63 89 65 90 58 91 59 92 60 93 61 94 62 95
REMARK H PARENT 86 45 52 56
REMARK Flexibility Score: inf
ROOT
ATOM      1  C   UNL A   1      39.198  21.326  25.772  1.00  0.00     0.202 C 
ENDROOT
BRANCH   1   2
ATOM      2  O   UNL A   1      37.786  21.525  25.848  1.00  0.00    -0.374 OA
BRANCH   2   3
ATOM      3  C   UNL A   1      37.123  21.997  24.674  1.00  0.00     0.202 C 
BRANCH   3   4
ATOM      4  C   UNL A   1      35.631  21.669  24.565  1.00  0.00     0.261 C 
BRANCH   4   5
ATOM      5  O   UNL A   1      34.889  22.273  25.637  1.00  0.00    -0.460 OA
BRANCH   5   6
ATOM      6  C   UNL A   1      33.664  22.731  25.297  1.00  0.00     0.338 C 
ATOM      7  O   UNL A   1      32.601  22.134  25.404  1.00  0.00    -0.246 OA
BRANCH   6   8
ATOM      8  C   UNL A   1      33.752  24.145  24.888  1.00  0.00     0.087 C 
ATOM      9  C   UNL A   1      33.767  28.608  22.370  1.00  0.00     0.048 C 
ATOM     10  C   UNL A   1      33.579  28.175  23.796  1.00  0.00    -0.007 A 
ATOM     11  C   UNL A   1      33.259  29.127  24.776  1.00  0.00     0.027 A 
ATOM     12  C   UNL A   1      33.728  26.829  24.173  1.00  0.00     0.131 A 
ATOM     13  C   UNL A   1      33.080  28.740  26.102  1.00  0.00     0.042 A 
ATOM     14  C   UNL A   1      33.512  26.444  25.500  1.00  0.00     0.019 A 
ATOM     15  O   UNL A   1      34.103  25.946  23.198  1.00  0.00    -0.475 OA
ATOM     16  Cl  UNL A   1      32.682  29.917  27.293  1.00  0.00    -0.084 Cl
ATOM     17  C   UNL A   1      33.202  27.404  26.469  1.00  0.00     0.032 A 
ATOM     18  C   UNL A   1      33.552  25.041  25.864  1.00  0.00     0.027 C 
ATOM     19  C   UNL A   1      34.027  24.515  23.457  1.00  0.00     0.316 C 
BRANCH  19  20
ATOM     20  C   UNL A   1      33.009  23.904  22.483  1.00  0.00     0.430 C 
ATOM     21  F   UNL A   1      31.759  23.927  23.003  1.00  0.00    -0.167 F 
ATOM     22  F   UNL A   1      32.962  24.581  21.315  1.00  0.00    -0.167 F 
ATOM     23  F   UNL A   1      33.304  22.615  22.193  1.00  0.00    -0.167 F 
ENDBRANCH  19  20
ENDBRANCH   6   8
ENDBRANCH   5   6
ENDBRANCH   4   5
ENDBRANCH   3   4
ENDBRANCH   2   3
ENDBRANCH   1   2
BRANCH   1  24
ATOM     24  C   UNL A   1      40.073  22.153  26.722  1.00  0.00     0.261 C 
BRANCH  24  25
ATOM     25  O   UNL A   1      39.952  23.566  26.491  1.00  0.00    -0.460 OA
BRANCH  25  26
ATOM     26  C   UNL A   1      41.070  24.279  26.771  1.00  0.00     0.338 C 
ATOM     27  O   UNL A   1      42.192  24.094  26.318  1.00  0.00    -0.246 OA
BRANCH  26  28
ATOM     28  C   UNL A   1      40.733  25.458  27.587  1.00  0.00     0.060 A 
ATOM     29  C   UNL A   1      41.618  26.544  27.553  1.00  0.00     0.016 A 
ATOM     30  C   UNL A   1      39.624  25.470  28.437  1.00  0.00     0.016 A 
ATOM     31  C   UNL A   1      41.426  27.627  28.407  1.00  0.00     0.010 A 
ATOM     32  C   UNL A   1      39.441  26.553  29.303  1.00  0.00     0.010 A 
ATOM     33  C   UNL A   1      40.361  27.617  29.316  1.00  0.00    -0.014 A 
BRANCH  33  34
ATOM     34  C   UNL A   1      40.296  28.641  30.386  1.00  0.00     0.031 A 
ATOM     35  C   UNL A   1      41.247  28.539  31.547  1.00  0.00     0.074 A 
ATOM     36  C   UNL A   1      39.423  29.659  30.309  1.00  0.00     0.049 A 
ATOM     37  N   UNL A   1      41.317  29.271  32.628  1.00  0.00    -0.248 NA
ATOM     38  C   UNL A   1      42.256  27.468  31.478  1.00  0.00     0.031 C 
ATOM     39  C   UNL A   1      38.498  29.898  29.201  1.00  0.00     0.029 A 
ATOM     40  N   UNL A   1      39.168  30.682  31.188  1.00  0.00    -0.354 N 
ATOM     41  C   UNL A   1      42.373  28.753  33.367  1.00  0.00     0.074 A 
ATOM     42  C   UNL A   1      42.899  27.628  32.626  1.00  0.00     0.031 C 
ATOM     43  C   UNL A   1      37.769  30.994  29.471  1.00  0.00     0.029 A 
ATOM     44  C   UNL A   1      38.148  31.511  30.785  1.00  0.00     0.049 A 
ATOM     45  H   UNL A   1      39.668  30.810  32.025  1.00  0.00     0.167 HD
ATOM     46  C   UNL A   1      42.864  29.182  34.555  1.00  0.00     0.037 A 
ATOM     47  C   UNL A   1      37.572  32.551  31.418  1.00  0.00     0.037 A 
ATOM     48  C   UNL A   1      42.328  30.297  35.292  1.00  0.00     0.049 A 
ATOM     49  C   UNL A   1      38.075  32.956  32.779  1.00  0.00     0.074 A 
ATOM     50  C   UNL A   1      42.737  30.798  36.514  1.00  0.00     0.029 A 
ATOM     51  N   UNL A   1      41.265  31.085  34.873  1.00  0.00    -0.354 N 
ATOM     52  N   UNL A   1      39.053  32.439  33.484  1.00  0.00    -0.248 NA
ATOM     53  C   UNL A   1      37.396  34.084  33.430  1.00  0.00     0.031 C 
ATOM     54  C   UNL A   1      41.898  31.865  36.855  1.00  0.00     0.029 A 
ATOM     55  C   UNL A   1      40.996  32.060  35.820  1.00  0.00     0.049 A 
ATOM     56  H   UNL A   1      40.775  30.969  34.028  1.00  0.00     0.167 HD
ATOM     57  C   UNL A   1      39.125  33.194  34.650  1.00  0.00     0.074 A 
ATOM     58  C   UNL A   1      38.095  34.209  34.551  1.00  0.00     0.031 C 
ATOM     59  C   UNL A   1      39.968  33.063  35.704  1.00  0.00     0.037 A 
BRANCH  46  60
ATOM     60  C   UNL A   1      44.025  28.431  35.141  1.00  0.00     0.058 A 
ATOM     61  C   UNL A   1      45.352  28.810  34.883  1.00  0.00     0.135 A 
ATOM     62  C   UNL A   1      43.810  27.346  36.005  1.00  0.00     0.135 A 
ATOM     63  F   UNL A   1      45.615  29.827  34.046  1.00  0.00    -0.206 F 
ATOM     64  C   UNL A   1      46.426  28.130  35.451  1.00  0.00     0.059 A 
ATOM     65  C   UNL A   1      44.868  26.666  36.603  1.00  0.00     0.059 A 
ATOM     66  F   UNL A   1      42.561  26.937  36.280  1.00  0.00    -0.206 F 
ATOM     67  C   UNL A   1      46.174  27.061  36.311  1.00  0.00     0.060 A 
BRANCH  67  68
ATOM     68  S   UNL A   1      47.577  26.200  37.052  1.00  0.00     0.124 S 
ATOM     69  O   UNL A   1      48.651  27.169  36.852  1.00  0.00    -0.237 OA
ATOM     70  O   UNL A   1      47.138  26.019  38.432  1.00  0.00    -0.237 OA
ATOM     71  O   UNL A   1      47.682  24.977  36.264  1.00  0.00    -0.744 OA
ENDBRANCH  67  68
ENDBRANCH  46  60
BRANCH  47  72
ATOM     72  C   UNL A   1      36.450  33.281  30.772  1.00  0.00     0.058 A 
ATOM     73  C   UNL A   1      35.139  33.166  31.257  1.00  0.00     0.135 A 
ATOM     74  C   UNL A   1      36.669  34.123  29.669  1.00  0.00     0.135 A 
ATOM     75  F   UNL A   1      34.878  32.363  32.299  1.00  0.00    -0.206 F 
ATOM     76  C   UNL A   1      34.083  33.857  30.672  1.00  0.00     0.059 A 
ATOM     77  C   UNL A   1      35.633  34.843  29.082  1.00  0.00     0.059 A 
ATOM     78  F   UNL A   1      37.906  34.273  29.173  1.00  0.00    -0.206 F 
ATOM     79  C   UNL A   1      34.342  34.700  29.588  1.00  0.00     0.060 A 
BRANCH  79  80
ATOM     80  S   UNL A   1      32.975  35.644  28.882  1.00  0.00     0.124 S 
ATOM     81  O   UNL A   1      33.681  36.734  28.219  1.00  0.00    -0.237 OA
ATOM     82  O   UNL A   1      32.347  34.661  28.004  1.00  0.00    -0.237 OA
ATOM     83  O   UNL A   1      32.188  36.020  30.052  1.00  0.00    -0.744 OA
ENDBRANCH  79  80
ENDBRANCH  47  72
BRANCH  59  84
ATOM     84  C   UNL A   1      39.837  34.061  36.822  1.00  0.00     0.058 A 
ATOM     85  C   UNL A   1      40.475  35.310  36.776  1.00  0.00     0.135 A 
ATOM     86  C   UNL A   1      39.024  33.779  37.933  1.00  0.00     0.135 A 
ATOM     87  F   UNL A   1      41.267  35.626  35.739  1.00  0.00    -0.206 F 
ATOM     88  C   UNL A   1      40.336  36.235  37.806  1.00  0.00     0.059 A 
ATOM     89  C   UNL A   1      38.848  34.700  38.961  1.00  0.00     0.059 A 
ATOM     90  F   UNL A   1      38.380  32.605  38.019  1.00  0.00    -0.206 F 
ATOM     91  C   UNL A   1      39.520  35.919  38.895  1.00  0.00     0.060 A 
BRANCH  91  92
ATOM     92  S   UNL A   1      39.334  37.136  40.217  1.00  0.00     0.124 S 
ATOM     93  O   UNL A   1      40.725  37.428  40.545  1.00  0.00    -0.237 OA
ATOM     94  O   UNL A   1      38.601  38.209  39.552  1.00  0.00    -0.237 OA
ATOM     95  O   UNL A   1      38.585  36.414  41.241  1.00  0.00    -0.744 OA
ENDBRANCH  91  92
ENDBRANCH  59  84
ENDBRANCH  33  34
ENDBRANCH  26  28
ENDBRANCH  25  26
ENDBRANCH  24  25
ENDBRANCH   1  24
TORSDOF 18
ENDMDL
MODEL 3
REMARK VINA RESULT:      -9.5      3.655      6.492
REMARK SMILES Cc1cc(Cl)cc2c1O[C@H](C(F)(F)F)C(C(=O)OCCOCCOC(=O)c1ccc(-c3c4nc(c(-c5c(F)cc(S(=O)(=O)[O-])cc5F)c5ccc([nH]5)c(-c5c(F)cc(S(=O)(=O)[O-])cc5F)c5nc(c(-c6c(F)cc(S(=O)(=O)[O-])cc6F)c6ccc3[nH]6)C=C5)C=C4)cc1)=C2
REMARK SMILES IDX 22 1 21 2 20 3 19 4 18 5 16 6 17 7 15 8 1 9 2 10 3 11 8 12
REMARK SMILES IDX 4 13 7 14 9 15 5 16 6 17 93 18 10 19 11 20 12 21 13 22 14 23
REMARK SMILES IDX 23 24 24 25 25 26 26 27 27 28 28 29 92 30 29 31 91 32 30 33
REMARK SMILES IDX 31 34 32 35 85 36 33 37 90 38 84 39 86 40 34 41 89 42 83 43
REMARK SMILES IDX 82 44 35 46 69 47 48 48 68 49 49 50 52 51 67 52 87 53 50 54
REMARK SMILES IDX 51 55 66 57 88 58 53 59 36 60 37 61 46 62 38 63 39 64 45 65
REMARK SMILES IDX 47 66 40 67 41 68 42 69 43 70 44 71 70 72 71 73 80 74 72 75
REMARK SMILES IDX 73 76 79 77 81 78 74 79 75 80 76 81 77 82 78 83 54 84 55 85
REMARK SMILES IDX 64 86 56 87 57 88 63 89 65 90 58 91 59 92 60 93 61 94 62 95
REMARK H PARENT 86 45 52 56
REMARK Flexibility Score: inf
ROOT
ATOM      1  C   UNL A   1      31.795  29.787  26.369  1.00  0.00     0.202 C 
ENDROOT
BRANCH   1   2
ATOM      2  O   UNL A   1      31.393  28.747  27.260  1.00  0.00    -0.374 OA
BRANCH   2   3
ATOM      3  C   UNL A   1      31.688  27.402  26.879  1.00  0.00     0.202 C 
BRANCH   3   4
ATOM      4  C   UNL A   1      31.084  26.929  25.554  1.00  0.00     0.261 C 
BRANCH   4   5
ATOM      5  O   UNL A   1      31.599  25.639  25.181  1.00  0.00    -0.460 OA
BRANCH   5   6
ATOM      6  C   UNL A   1      32.762  25.666  24.495  1.00  0.00     0.338 C 
ATOM      7  O   UNL A   1      33.210  26.601  23.846  1.00  0.00    -0.246 OA
BRANCH   6   8
ATOM      8  C   UNL A   1      33.520  24.425  24.742  1.00  0.00     0.087 C 
ATOM      9  C   UNL A   1      35.403  19.658  24.750  1.00  0.00     0.048 C 
ATOM     10  C   UNL A   1      35.917  21.023  25.114  1.00  0.00    -0.007 A 
ATOM     11  C   UNL A   1      37.254  21.179  25.511  1.00  0.00     0.027 A 
ATOM     12  C   UNL A   1      35.080  22.151  25.073  1.00  0.00     0.131 A 
ATOM     13  C   UNL A   1      37.746  22.437  25.849  1.00  0.00     0.042 A 
ATOM     14  C   UNL A   1      35.591  23.416  25.381  1.00  0.00     0.019 A 
ATOM     15  O   UNL A   1      33.769  21.943  24.743  1.00  0.00    -0.475 OA
ATOM     16  Cl  UNL A   1      39.389  22.616  26.330  1.00  0.00    -0.084 Cl
ATOM     17  C   UNL A   1      36.923  23.557  25.783  1.00  0.00     0.032 A 
ATOM     18  C   UNL A   1      34.757  24.592  25.226  1.00  0.00     0.027 C 
ATOM     19  C   UNL A   1      32.916  23.083  24.435  1.00  0.00     0.316 C 
BRANCH  19  20
ATOM     20  C   UNL A   1      32.459  22.960  22.974  1.00  0.00     0.430 C 
ATOM     21  F   UNL A   1      31.224  23.488  22.801  1.00  0.00    -0.167 F 
ATOM     22  F   UNL A   1      33.289  23.614  22.131  1.00  0.00    -0.167 F 
ATOM     23  F   UNL A   1      32.408  21.668  22.572  1.00  0.00    -0.167 F 
ENDBRANCH  19  20
ENDBRANCH   6   8
ENDBRANCH   5   6
ENDBRANCH   4   5
ENDBRANCH   3   4
ENDBRANCH   2   3
ENDBRANCH   1   2
BRANCH   1  24
ATOM     24  C   UNL A   1      32.988  30.651  26.796  1.00  0.00     0.261 C 
BRANCH  24  25
ATOM     25  O   UNL A   1      33.798  30.014  27.799  1.00  0.00    -0.460 OA
BRANCH  25  26
ATOM     26  C   UNL A   1      34.702  30.830  28.393  1.00  0.00     0.338 C 
ATOM     27  O   UNL A   1      34.480  31.910  28.927  1.00  0.00    -0.246 OA
BRANCH  26  28
ATOM     28  C   UNL A   1      36.013  30.165  28.475  1.00  0.00     0.060 A 
ATOM     29  C   UNL A   1      36.420  29.687  29.729  1.00  0.00     0.016 A 
ATOM     30  C   UNL A   1      36.868  30.086  27.373  1.00  0.00     0.016 A 
ATOM     31  C   UNL A   1      37.704  29.176  29.897  1.00  0.00     0.010 A 
ATOM     32  C   UNL A   1      38.162  29.584  27.548  1.00  0.00     0.010 A 
ATOM     33  C   UNL A   1      38.595  29.161  28.817  1.00  0.00    -0.014 A 
BRANCH  33  34
ATOM     34  C   UNL A   1      40.026  28.851  29.048  1.00  0.00     0.031 A 
ATOM     35  C   UNL A   1      40.907  29.903  29.663  1.00  0.00     0.074 A 
ATOM     36  C   UNL A   1      40.525  27.642  28.737  1.00  0.00     0.049 A 
ATOM     37  N   UNL A   1      42.196  29.881  29.882  1.00  0.00    -0.248 NA
ATOM     38  C   UNL A   1      40.245  31.146  30.092  1.00  0.00     0.031 C 
ATOM     39  C   UNL A   1      39.753  26.523  28.197  1.00  0.00     0.029 A 
ATOM     40  N   UNL A   1      41.805  27.157  28.829  1.00  0.00    -0.354 N 
ATOM     41  C   UNL A   1      42.500  31.101  30.472  1.00  0.00     0.074 A 
ATOM     42  C   UNL A   1      41.266  31.853  30.554  1.00  0.00     0.031 C 
ATOM     43  C   UNL A   1      40.580  25.482  27.995  1.00  0.00     0.029 A 
ATOM     44  C   UNL A   1      41.941  25.873  28.355  1.00  0.00     0.049 A 
ATOM     45  H   UNL A   1      42.554  27.677  29.197  1.00  0.00     0.167 HD
ATOM     46  C   UNL A   1      43.700  31.551  30.912  1.00  0.00     0.037 A 
ATOM     47  C   UNL A   1      43.044  25.113  28.208  1.00  0.00     0.037 A 
ATOM     48  C   UNL A   1      44.925  30.802  30.817  1.00  0.00     0.049 A 
ATOM     49  C   UNL A   1      44.382  25.668  28.622  1.00  0.00     0.074 A 
ATOM     50  C   UNL A   1      46.197  31.177  31.212  1.00  0.00     0.029 A 
ATOM     51  N   UNL A   1      45.032  29.522  30.291  1.00  0.00    -0.354 N 
ATOM     52  N   UNL A   1      44.663  26.837  29.149  1.00  0.00    -0.248 NA
ATOM     53  C   UNL A   1      45.551  24.803  28.420  1.00  0.00     0.031 C 
ATOM     54  C   UNL A   1      47.080  30.140  30.888  1.00  0.00     0.029 A 
ATOM     55  C   UNL A   1      46.349  29.099  30.338  1.00  0.00     0.049 A 
ATOM     56  H   UNL A   1      44.281  28.993  29.937  1.00  0.00     0.167 HD
ATOM     57  C   UNL A   1      46.037  26.837  29.366  1.00  0.00     0.074 A 
ATOM     58  C   UNL A   1      46.528  25.549  28.919  1.00  0.00     0.031 C 
ATOM     59  C   UNL A   1      46.820  27.812  29.890  1.00  0.00     0.037 A 
BRANCH  46  60
ATOM     60  C   UNL A   1      43.749  32.926  31.516  1.00  0.00     0.058 A 
ATOM     61  C   UNL A   1      43.874  34.076  30.720  1.00  0.00     0.135 A 
ATOM     62  C   UNL A   1      43.625  33.101  32.904  1.00  0.00     0.135 A 
ATOM     63  F   UNL A   1      44.019  33.965  29.390  1.00  0.00    -0.206 F 
ATOM     64  C   UNL A   1      43.891  35.350  31.280  1.00  0.00     0.059 A 
ATOM     65  C   UNL A   1      43.615  34.366  33.484  1.00  0.00     0.059 A 
ATOM     66  F   UNL A   1      43.510  32.035  33.711  1.00  0.00    -0.206 F 
ATOM     67  C   UNL A   1      43.758  35.485  32.663  1.00  0.00     0.060 A 
BRANCH  67  68
ATOM     68  S   UNL A   1      43.763  37.146  33.371  1.00  0.00     0.124 S 
ATOM     69  O   UNL A   1      42.545  37.123  34.176  1.00  0.00    -0.237 OA
ATOM     70  O   UNL A   1      45.016  37.160  34.120  1.00  0.00    -0.237 OA
ATOM     71  O   UNL A   1      43.725  38.016  32.201  1.00  0.00    -0.744 OA
ENDBRANCH  67  68
ENDBRANCH  46  60
BRANCH  47  72
ATOM     72  C   UNL A   1      42.928  23.745  27.638  1.00  0.00     0.058 A 
ATOM     73  C   UNL A   1      42.559  22.657  28.442  1.00  0.00     0.135 A 
ATOM     74  C   UNL A   1      43.164  23.503  26.275  1.00  0.00     0.135 A 
ATOM     75  F   UNL A   1      42.337  22.836  29.752  1.00  0.00    -0.206 F 
ATOM     76  C   UNL A   1      42.430  21.375  27.917  1.00  0.00     0.059 A 
ATOM     77  C   UNL A   1      43.019  22.234  25.723  1.00  0.00     0.059 A 
ATOM     78  F   UNL A   1      43.512  24.513  25.463  1.00  0.00    -0.206 F 
ATOM     79  C   UNL A   1      42.656  21.175  26.553  1.00  0.00     0.060 A 
BRANCH  79  80
ATOM     80  S   UNL A   1      42.418  19.520  25.872  1.00  0.00     0.124 S 
ATOM     81  O   UNL A   1      42.744  18.680  27.019  1.00  0.00    -0.237 OA
ATOM     82  O   UNL A   1      41.012  19.551  25.481  1.00  0.00    -0.237 OA
ATOM     83  O   UNL A   1      43.367  19.474  24.765  1.00  0.00    -0.744 OA
ENDBRANCH  79  80
ENDBRANCH  47  72
BRANCH  59  84
ATOM     84  C   UNL A   1      48.286  27.513  30.043  1.00  0.00     0.058 A 
ATOM     85  C   UNL A   1      48.812  26.982  31.230  1.00  0.00     0.135 A 
ATOM     86  C   UNL A   1      49.168  27.720  28.969  1.00  0.00     0.135 A 
ATOM     87  F   UNL A   1      48.013  26.769  32.288  1.00  0.00    -0.206 F 
ATOM     88  C   UNL A   1      50.167  26.692  31.358  1.00  0.00     0.059 A 
ATOM     89  C   UNL A   1      50.521  27.412  29.065  1.00  0.00     0.059 A 
ATOM     90  F   UNL A   1      48.714  28.213  27.806  1.00  0.00    -0.206 F 
ATOM     91  C   UNL A   1      51.014  26.911  30.269  1.00  0.00     0.060 A 
BRANCH  91  92
ATOM     92  S   UNL A   1      52.767  26.514  30.444  1.00  0.00     0.124 S 
ATOM     93  O   UNL A   1      53.289  27.743  31.032  1.00  0.00    -0.237 OA
ATOM     94  O   UNL A   1      52.737  25.352  31.325  1.00  0.00    -0.237 OA
ATOM     95  O   UNL A   1      53.192  26.244  29.074  1.00  0.00    -0.744 OA
ENDBRANCH  91  92
ENDBRANCH  59  84
ENDBRANCH  33  34
ENDBRANCH  26  28
ENDBRANCH  25  26
ENDBRANCH  24  25
ENDBRANCH   1  24
TORSDOF 18
ENDMDL
