MODEL 1
REMARK VINA RESULT:      -9.2      0.000      0.000
REMARK SMILES O=C(OCCOCCOC(=O)[C@@H](F)Sc1ccccc1O)c1ccc(-c2c3nc(c(-c4c(F)cc(S(=O)(=O)[O-])cc4F)c4ccc([nH]4)c(-c4c(F)cc(S(=O)(=O)[O-])cc4F)c4nc(c(-c5c(F)cc(S(=O)(=O)[O-])cc5F)c5ccc2[nH]5)C=C4)C=C3)cc1
REMARK SMILES IDX 6 1 5 2 4 3 3 4 2 5 1 6 22 7 23 8 87 9 24 10 86 11 25 12
REMARK SMILES IDX 26 13 27 14 80 15 28 16 85 17 79 18 81 19 29 20 84 21 78 22
REMARK SMILES IDX 77 23 30 25 64 26 43 27 63 28 44 29 47 30 62 31 82 32 45 33
REMARK SMILES IDX 46 34 61 36 83 37 48 38 31 39 32 40 41 41 33 42 34 43 40 44
REMARK SMILES IDX 42 45 35 46 36 47 37 48 38 49 39 50 65 51 66 52 75 53 67 54
REMARK SMILES IDX 68 55 74 56 76 57 69 58 70 59 71 60 72 61 73 62 49 63 50 64
REMARK SMILES IDX 59 65 51 66 52 67 58 68 60 69 53 70 54 71 55 72 56 73 57 74
REMARK SMILES IDX 7 75 8 76 9 77 10 78 11 79 12 80 13 81 14 82 15 83 16 84
REMARK SMILES IDX 20 85 17 86 19 87 18 88 21 89
REMARK H PARENT 81 24 47 35 21 90
REMARK Flexibility Score: inf
ROOT
ATOM      1  O   UNL A   1      33.320  34.585  28.168  1.00  0.00    -0.374 OA
ENDROOT
BRANCH   1   2
ATOM      2  C   UNL A   1      34.271  33.525  28.039  1.00  0.00     0.202 C 
BRANCH   2   3
ATOM      3  C   UNL A   1      33.703  32.152  27.659  1.00  0.00     0.261 C 
BRANCH   3   4
ATOM      4  O   UNL A   1      34.262  31.120  28.496  1.00  0.00    -0.460 OA
BRANCH   4   5
ATOM      5  C   UNL A   1      34.923  29.999  28.117  1.00  0.00     0.338 C 
ATOM      6  O   UNL A   1      34.305  29.138  27.492  1.00  0.00    -0.246 OA
BRANCH   5   7
ATOM      7  C   UNL A   1      36.361  29.743  28.438  1.00  0.00     0.060 A 
ATOM      8  C   UNL A   1      37.407  29.936  27.539  1.00  0.00     0.016 A 
ATOM      9  C   UNL A   1      36.689  29.368  29.752  1.00  0.00     0.016 A 
ATOM     10  C   UNL A   1      38.722  29.709  27.889  1.00  0.00     0.010 A 
ATOM     11  C   UNL A   1      38.025  29.187  30.136  1.00  0.00     0.010 A 
ATOM     12  C   UNL A   1      39.043  29.352  29.191  1.00  0.00    -0.014 A 
BRANCH  12  13
ATOM     13  C   UNL A   1      40.466  29.088  29.451  1.00  0.00     0.031 A 
ATOM     14  C   UNL A   1      41.028  27.764  29.043  1.00  0.00     0.074 A 
ATOM     15  C   UNL A   1      41.252  30.119  29.816  1.00  0.00     0.049 A 
ATOM     16  N   UNL A   1      42.261  27.343  29.092  1.00  0.00    -0.248 NA
ATOM     17  C   UNL A   1      40.078  26.791  28.475  1.00  0.00     0.031 C 
ATOM     18  C   UNL A   1      40.778  31.482  30.088  1.00  0.00     0.029 A 
ATOM     19  N   UNL A   1      42.609  30.209  29.959  1.00  0.00    -0.354 N 
ATOM     20  C   UNL A   1      42.237  26.057  28.568  1.00  0.00     0.074 A 
ATOM     21  C   UNL A   1      40.867  25.757  28.222  1.00  0.00     0.031 C 
ATOM     22  C   UNL A   1      41.832  32.275  30.333  1.00  0.00     0.029 A 
ATOM     23  C   UNL A   1      43.044  31.467  30.304  1.00  0.00     0.049 A 
ATOM     24  H   UNL A   1      43.217  29.445  29.828  1.00  0.00     0.167 HD
ATOM     25  C   UNL A   1      43.277  25.211  28.396  1.00  0.00     0.037 A 
ATOM     26  C   UNL A   1      44.285  31.900  30.597  1.00  0.00     0.037 A 
ATOM     27  C   UNL A   1      44.625  25.546  28.767  1.00  0.00     0.049 A 
ATOM     28  C   UNL A   1      45.406  30.903  30.504  1.00  0.00     0.074 A 
ATOM     29  C   UNL A   1      45.751  24.746  28.755  1.00  0.00     0.029 A 
ATOM     30  N   UNL A   1      45.025  26.800  29.213  1.00  0.00    -0.354 N 
ATOM     31  N   UNL A   1      45.361  29.651  30.106  1.00  0.00    -0.248 NA
ATOM     32  C   UNL A   1      46.740  31.360  30.907  1.00  0.00     0.031 C 
ATOM     33  C   UNL A   1      46.826  25.507  29.230  1.00  0.00     0.029 A 
ATOM     34  C   UNL A   1      46.380  26.795  29.489  1.00  0.00     0.049 A 
ATOM     35  H   UNL A   1      44.431  27.578  29.318  1.00  0.00     0.167 HD
ATOM     36  C   UNL A   1      46.661  29.172  30.204  1.00  0.00     0.074 A 
ATOM     37  C   UNL A   1      47.473  30.281  30.669  1.00  0.00     0.031 C 
ATOM     38  C   UNL A   1      47.144  27.930  29.948  1.00  0.00     0.037 A 
BRANCH  25  39
ATOM     39  C   UNL A   1      42.969  23.847  27.851  1.00  0.00     0.058 A 
ATOM     40  C   UNL A   1      42.910  23.595  26.471  1.00  0.00     0.135 A 
ATOM     41  C   UNL A   1      42.694  22.783  28.724  1.00  0.00     0.135 A 
ATOM     42  F   UNL A   1      43.126  24.586  25.592  1.00  0.00    -0.206 F 
ATOM     43  C   UNL A   1      42.568  22.339  25.976  1.00  0.00     0.059 A 
ATOM     44  C   UNL A   1      42.373  21.513  28.251  1.00  0.00     0.059 A 
ATOM     45  F   UNL A   1      42.718  22.974  30.052  1.00  0.00    -0.206 F 
ATOM     46  C   UNL A   1      42.299  21.305  26.875  1.00  0.00     0.060 A 
BRANCH  46  47
ATOM     47  S   UNL A   1      41.844  19.686  26.217  1.00  0.00     0.124 S 
ATOM     48  O   UNL A   1      42.274  18.802  27.295  1.00  0.00    -0.237 OA
ATOM     49  O   UNL A   1      40.403  19.816  26.038  1.00  0.00    -0.237 OA
ATOM     50  O   UNL A   1      42.620  19.590  24.983  1.00  0.00    -0.744 OA
ENDBRANCH  46  47
ENDBRANCH  25  39
BRANCH  26  51
ATOM     51  C   UNL A   1      44.509  33.294  31.078  1.00  0.00     0.058 A 
ATOM     52  C   UNL A   1      44.454  33.630  32.439  1.00  0.00     0.135 A 
ATOM     53  C   UNL A   1      44.761  34.332  30.165  1.00  0.00     0.135 A 
ATOM     54  F   UNL A   1      44.212  32.681  33.355  1.00  0.00    -0.206 F 
ATOM     55  C   UNL A   1      44.608  34.945  32.874  1.00  0.00     0.059 A 
ATOM     56  C   UNL A   1      44.952  35.646  30.576  1.00  0.00     0.059 A 
ATOM     57  F   UNL A   1      44.837  34.071  28.850  1.00  0.00    -0.206 F 
ATOM     58  C   UNL A   1      44.852  35.948  31.932  1.00  0.00     0.060 A 
BRANCH  58  59
ATOM     59  S   UNL A   1      45.051  37.652  32.498  1.00  0.00     0.124 S 
ATOM     60  O   UNL A   1      43.665  38.096  32.580  1.00  0.00    -0.237 OA
ATOM     61  O   UNL A   1      45.744  37.477  33.771  1.00  0.00    -0.237 OA
ATOM     62  O   UNL A   1      45.848  38.266  31.439  1.00  0.00    -0.744 OA
ENDBRANCH  58  59
ENDBRANCH  26  51
BRANCH  38  63
ATOM     63  C   UNL A   1      48.618  27.729  30.145  1.00  0.00     0.058 A 
ATOM     64  C   UNL A   1      49.138  27.265  31.362  1.00  0.00     0.135 A 
ATOM     65  C   UNL A   1      49.511  27.968  29.089  1.00  0.00     0.135 A 
ATOM     66  F   UNL A   1      48.322  27.029  32.402  1.00  0.00    -0.206 F 
ATOM     67  C   UNL A   1      50.503  27.071  31.535  1.00  0.00     0.059 A 
ATOM     68  C   UNL A   1      50.875  27.752  29.232  1.00  0.00     0.059 A 
ATOM     69  F   UNL A   1      49.056  28.401  27.902  1.00  0.00    -0.206 F 
ATOM     70  C   UNL A   1      51.363  27.318  30.464  1.00  0.00     0.060 A 
BRANCH  70  71
ATOM     71  S   UNL A   1      53.130  27.038  30.694  1.00  0.00     0.124 S 
ATOM     72  O   UNL A   1      53.146  25.671  31.204  1.00  0.00    -0.237 OA
ATOM     73  O   UNL A   1      53.653  27.217  29.343  1.00  0.00    -0.237 OA
ATOM     74  O   UNL A   1      53.515  28.071  31.649  1.00  0.00    -0.744 OA
ENDBRANCH  70  71
ENDBRANCH  38  63
ENDBRANCH  12  13
ENDBRANCH   5   7
ENDBRANCH   4   5
ENDBRANCH   3   4
ENDBRANCH   2   3
ENDBRANCH   1   2
BRANCH   1  75
ATOM     75  C   UNL A   1      33.630  35.601  29.127  1.00  0.00     0.202 C 
BRANCH  75  76
ATOM     76  C   UNL A   1      32.734  35.439  30.353  1.00  0.00     0.261 C 
BRANCH  76  77
ATOM     77  O   UNL A   1      32.649  36.719  30.997  1.00  0.00    -0.460 OA
BRANCH  77  78
ATOM     78  C   UNL A   1      32.581  36.721  32.353  1.00  0.00     0.351 C 
ATOM     79  O   UNL A   1      31.547  36.921  32.986  1.00  0.00    -0.248 OA
BRANCH  78  80
ATOM     80  C   UNL A   1      33.884  36.295  33.012  1.00  0.00     0.338 C 
ATOM     81  F   UNL A   1      34.196  37.030  34.119  1.00  0.00    -0.222 F 
BRANCH  80  82
ATOM     82  S   UNL A   1      34.119  34.518  33.353  1.00  0.00    -0.073 SA
BRANCH  82  83
ATOM     83  C   UNL A   1      35.534  34.015  32.380  1.00  0.00     0.052 A 
ATOM     84  C   UNL A   1      36.718  34.721  32.639  1.00  0.00     0.019 A 
ATOM     85  C   UNL A   1      35.575  32.991  31.422  1.00  0.00     0.129 A 
ATOM     86  C   UNL A   1      37.890  34.451  31.930  1.00  0.00     0.001 A 
ATOM     87  C   UNL A   1      36.740  32.736  30.690  1.00  0.00     0.047 A 
ATOM     88  C   UNL A   1      37.898  33.470  30.945  1.00  0.00     0.004 A 
BRANCH  85  89
ATOM     89  O   UNL A   1      34.472  32.224  31.184  1.00  0.00    -0.507 OA
ATOM     90  H   UNL A   1      34.268  31.955  30.310  1.00  0.00     0.293 HD
ENDBRANCH  85  89
ENDBRANCH  82  83
ENDBRANCH  80  82
ENDBRANCH  78  80
ENDBRANCH  77  78
ENDBRANCH  76  77
ENDBRANCH  75  76
ENDBRANCH   1  75
TORSDOF 20
ENDMDL
MODEL 2
REMARK VINA RESULT:      -9.2      0.609      8.557
REMARK SMILES O=C(OCCOCCOC(=O)[C@@H](F)Sc1ccccc1O)c1ccc(-c2c3nc(c(-c4c(F)cc(S(=O)(=O)[O-])cc4F)c4ccc([nH]4)c(-c4c(F)cc(S(=O)(=O)[O-])cc4F)c4nc(c(-c5c(F)cc(S(=O)(=O)[O-])cc5F)c5ccc2[nH]5)C=C4)C=C3)cc1
REMARK SMILES IDX 6 1 5 2 4 3 3 4 2 5 1 6 22 7 23 8 87 9 24 10 86 11 25 12
REMARK SMILES IDX 26 13 27 14 80 15 28 16 85 17 79 18 81 19 29 20 84 21 78 22
REMARK SMILES IDX 77 23 30 25 64 26 43 27 63 28 44 29 47 30 62 31 82 32 45 33
REMARK SMILES IDX 46 34 61 36 83 37 48 38 31 39 32 40 41 41 33 42 34 43 40 44
REMARK SMILES IDX 42 45 35 46 36 47 37 48 38 49 39 50 65 51 66 52 75 53 67 54
REMARK SMILES IDX 68 55 74 56 76 57 69 58 70 59 71 60 72 61 73 62 49 63 50 64
REMARK SMILES IDX 59 65 51 66 52 67 58 68 60 69 53 70 54 71 55 72 56 73 57 74
REMARK SMILES IDX 7 75 8 76 9 77 10 78 11 79 12 80 13 81 14 82 15 83 16 84
REMARK SMILES IDX 20 85 17 86 19 87 18 88 21 89
REMARK H PARENT 81 24 47 35 21 90
REMARK Flexibility Score: inf
ROOT
ATOM      1  O   UNL A   1      33.013  34.658  27.896  1.00  0.00    -0.374 OA
ENDROOT
BRANCH   1   2
ATOM      2  C   UNL A   1      33.922  33.576  28.118  1.00  0.00     0.202 C 
BRANCH   2   3
ATOM      3  C   UNL A   1      33.422  32.183  27.717  1.00  0.00     0.261 C 
BRANCH   3   4
ATOM      4  O   UNL A   1      34.042  31.166  28.530  1.00  0.00    -0.460 OA
BRANCH   4   5
ATOM      5  C   UNL A   1      34.635  30.015  28.128  1.00  0.00     0.338 C 
ATOM      6  O   UNL A   1      33.929  29.135  27.636  1.00  0.00    -0.246 OA
BRANCH   5   7
ATOM      7  C   UNL A   1      36.099  29.750  28.268  1.00  0.00     0.060 A 
ATOM      8  C   UNL A   1      37.034  29.977  27.261  1.00  0.00     0.016 A 
ATOM      9  C   UNL A   1      36.578  29.329  29.521  1.00  0.00     0.016 A 
ATOM     10  C   UNL A   1      38.380  29.740  27.446  1.00  0.00     0.010 A 
ATOM     11  C   UNL A   1      37.949  29.137  29.739  1.00  0.00     0.010 A 
ATOM     12  C   UNL A   1      38.850  29.337  28.688  1.00  0.00    -0.014 A 
BRANCH  12  13
ATOM     13  C   UNL A   1      40.293  29.067  28.770  1.00  0.00     0.031 A 
ATOM     14  C   UNL A   1      41.168  30.084  29.430  1.00  0.00     0.074 A 
ATOM     15  C   UNL A   1      40.731  27.828  28.473  1.00  0.00     0.049 A 
ATOM     16  N   UNL A   1      42.444  30.026  29.693  1.00  0.00    -0.248 NA
ATOM     17  C   UNL A   1      40.512  31.324  29.884  1.00  0.00     0.031 C 
ATOM     18  C   UNL A   1      39.889  26.740  27.958  1.00  0.00     0.029 A 
ATOM     19  N   UNL A   1      41.963  27.252  28.615  1.00  0.00    -0.354 N 
ATOM     20  C   UNL A   1      42.747  31.218  30.336  1.00  0.00     0.074 A 
ATOM     21  C   UNL A   1      41.528  31.991  30.411  1.00  0.00     0.031 C 
ATOM     22  C   UNL A   1      40.625  25.623  27.860  1.00  0.00     0.029 A 
ATOM     23  C   UNL A   1      41.999  25.930  28.236  1.00  0.00     0.049 A 
ATOM     24  H   UNL A   1      42.749  27.737  28.956  1.00  0.00     0.167 HD
ATOM     25  C   UNL A   1      43.944  31.620  30.818  1.00  0.00     0.037 A 
ATOM     26  C   UNL A   1      43.040  25.080  28.171  1.00  0.00     0.037 A 
ATOM     27  C   UNL A   1      45.137  30.824  30.711  1.00  0.00     0.049 A 
ATOM     28  C   UNL A   1      44.383  25.595  28.611  1.00  0.00     0.074 A 
ATOM     29  C   UNL A   1      46.433  31.156  31.051  1.00  0.00     0.029 A 
ATOM     30  N   UNL A   1      45.166  29.522  30.228  1.00  0.00    -0.354 N 
ATOM     31  N   UNL A   1      44.686  26.767  29.124  1.00  0.00    -0.248 NA
ATOM     32  C   UNL A   1      45.527  24.691  28.457  1.00  0.00     0.031 C 
ATOM     33  C   UNL A   1      47.253  30.066  30.739  1.00  0.00     0.029 A 
ATOM     34  C   UNL A   1      46.460  29.036  30.252  1.00  0.00     0.049 A 
ATOM     35  H   UNL A   1      44.380  29.017  29.914  1.00  0.00     0.167 HD
ATOM     36  C   UNL A   1      46.053  26.739  29.360  1.00  0.00     0.074 A 
ATOM     37  C   UNL A   1      46.512  25.421  28.962  1.00  0.00     0.031 C 
ATOM     38  C   UNL A   1      46.864  27.712  29.847  1.00  0.00     0.037 A 
BRANCH  25  39
ATOM     39  C   UNL A   1      44.012  32.989  31.429  1.00  0.00     0.058 A 
ATOM     40  C   UNL A   1      43.894  33.192  32.815  1.00  0.00     0.135 A 
ATOM     41  C   UNL A   1      44.163  34.122  30.613  1.00  0.00     0.135 A 
ATOM     42  F   UNL A   1      43.709  32.148  33.637  1.00  0.00    -0.206 F 
ATOM     43  C   UNL A   1      43.903  34.470  33.365  1.00  0.00     0.059 A 
ATOM     44  C   UNL A   1      44.197  35.408  31.145  1.00  0.00     0.059 A 
ATOM     45  F   UNL A   1      44.261  33.986  29.282  1.00  0.00    -0.206 F 
ATOM     46  C   UNL A   1      44.053  35.572  32.522  1.00  0.00     0.060 A 
BRANCH  46  47
ATOM     47  S   UNL A   1      44.048  37.225  33.251  1.00  0.00     0.124 S 
ATOM     48  O   UNL A   1      45.293  37.211  34.012  1.00  0.00    -0.237 OA
ATOM     49  O   UNL A   1      44.034  38.084  32.073  1.00  0.00    -0.237 OA
ATOM     50  O   UNL A   1      42.826  37.240  34.049  1.00  0.00    -0.744 OA
ENDBRANCH  46  47
ENDBRANCH  25  39
BRANCH  26  51
ATOM     51  C   UNL A   1      42.871  23.713  27.602  1.00  0.00     0.058 A 
ATOM     52  C   UNL A   1      42.480  22.621  28.390  1.00  0.00     0.135 A 
ATOM     53  C   UNL A   1      43.126  23.469  26.241  1.00  0.00     0.135 A 
ATOM     54  F   UNL A   1      42.227  22.792  29.696  1.00  0.00    -0.206 F 
ATOM     55  C   UNL A   1      42.379  21.335  27.861  1.00  0.00     0.059 A 
ATOM     56  C   UNL A   1      43.000  22.203  25.681  1.00  0.00     0.059 A 
ATOM     57  F   UNL A   1      43.492  24.477  25.432  1.00  0.00    -0.206 F 
ATOM     58  C   UNL A   1      42.647  21.136  26.504  1.00  0.00     0.060 A 
BRANCH  58  59
ATOM     59  S   UNL A   1      42.517  19.469  25.820  1.00  0.00     0.124 S 
ATOM     60  O   UNL A   1      43.491  19.522  24.736  1.00  0.00    -0.237 OA
ATOM     61  O   UNL A   1      42.876  18.636  26.963  1.00  0.00    -0.237 OA
ATOM     62  O   UNL A   1      41.118  19.385  25.408  1.00  0.00    -0.744 OA
ENDBRANCH  58  59
ENDBRANCH  26  51
BRANCH  38  63
ATOM     63  C   UNL A   1      48.317  27.364  29.994  1.00  0.00     0.058 A 
ATOM     64  C   UNL A   1      49.241  27.627  28.972  1.00  0.00     0.135 A 
ATOM     65  C   UNL A   1      48.790  26.796  31.187  1.00  0.00     0.135 A 
ATOM     66  F   UNL A   1      48.832  28.164  27.811  1.00  0.00    -0.206 F 
ATOM     67  C   UNL A   1      50.586  27.313  29.118  1.00  0.00     0.059 A 
ATOM     68  C   UNL A   1      50.136  26.501  31.364  1.00  0.00     0.059 A 
ATOM     69  F   UNL A   1      47.944  26.538  32.196  1.00  0.00    -0.206 F 
ATOM     70  C   UNL A   1      51.023  26.749  30.318  1.00  0.00     0.060 A 
BRANCH  70  71
ATOM     71  S   UNL A   1      52.776  26.368  30.505  1.00  0.00     0.124 S 
ATOM     72  O   UNL A   1      53.163  26.089  29.126  1.00  0.00    -0.237 OA
ATOM     73  O   UNL A   1      53.306  27.603  31.075  1.00  0.00    -0.237 OA
ATOM     74  O   UNL A   1      52.779  25.219  31.405  1.00  0.00    -0.744 OA
ENDBRANCH  70  71
ENDBRANCH  38  63
ENDBRANCH  12  13
ENDBRANCH   5   7
ENDBRANCH   4   5
ENDBRANCH   3   4
ENDBRANCH   2   3
ENDBRANCH   1   2
BRANCH   1  75
ATOM     75  C   UNL A   1      33.169  35.800  28.746  1.00  0.00     0.202 C 
BRANCH  75  76
ATOM     76  C   UNL A   1      33.284  35.345  30.199  1.00  0.00     0.261 C 
BRANCH  76  77
ATOM     77  O   UNL A   1      32.188  35.926  30.921  1.00  0.00    -0.460 OA
BRANCH  77  78
ATOM     78  C   UNL A   1      32.448  36.378  32.174  1.00  0.00     0.351 C 
ATOM     79  O   UNL A   1      31.581  36.752  32.960  1.00  0.00    -0.248 OA
BRANCH  78  80
ATOM     80  C   UNL A   1      33.909  36.225  32.568  1.00  0.00     0.338 C 
ATOM     81  F   UNL A   1      34.409  37.313  33.224  1.00  0.00    -0.222 F 
BRANCH  80  82
ATOM     82  S   UNL A   1      34.399  34.694  33.431  1.00  0.00    -0.073 SA
BRANCH  82  83
ATOM     83  C   UNL A   1      35.714  33.978  32.450  1.00  0.00     0.052 A 
ATOM     84  C   UNL A   1      36.979  34.555  32.636  1.00  0.00     0.019 A 
ATOM     85  C   UNL A   1      35.606  32.906  31.553  1.00  0.00     0.129 A 
ATOM     86  C   UNL A   1      38.088  34.114  31.913  1.00  0.00     0.001 A 
ATOM     87  C   UNL A   1      36.709  32.478  30.805  1.00  0.00     0.047 A 
ATOM     88  C   UNL A   1      37.951  33.086  30.986  1.00  0.00     0.004 A 
BRANCH  85  89
ATOM     89  O   UNL A   1      34.415  32.260  31.389  1.00  0.00    -0.507 OA
ATOM     90  H   UNL A   1      33.750  32.329  32.045  1.00  0.00     0.293 HD
ENDBRANCH  85  89
ENDBRANCH  82  83
ENDBRANCH  80  82
ENDBRANCH  78  80
ENDBRANCH  77  78
ENDBRANCH  76  77
ENDBRANCH  75  76
ENDBRANCH   1  75
TORSDOF 20
ENDMDL
MODEL 3
REMARK VINA RESULT:      -9.0      1.720      8.645
REMARK SMILES O=C(OCCOCCOC(=O)[C@@H](F)Sc1ccccc1O)c1ccc(-c2c3nc(c(-c4c(F)cc(S(=O)(=O)[O-])cc4F)c4ccc([nH]4)c(-c4c(F)cc(S(=O)(=O)[O-])cc4F)c4nc(c(-c5c(F)cc(S(=O)(=O)[O-])cc5F)c5ccc2[nH]5)C=C4)C=C3)cc1
REMARK SMILES IDX 6 1 5 2 4 3 3 4 2 5 1 6 22 7 23 8 87 9 24 10 86 11 25 12
REMARK SMILES IDX 26 13 27 14 80 15 28 16 85 17 79 18 81 19 29 20 84 21 78 22
REMARK SMILES IDX 77 23 30 25 64 26 43 27 63 28 44 29 47 30 62 31 82 32 45 33
REMARK SMILES IDX 46 34 61 36 83 37 48 38 31 39 32 40 41 41 33 42 34 43 40 44
REMARK SMILES IDX 42 45 35 46 36 47 37 48 38 49 39 50 65 51 66 52 75 53 67 54
REMARK SMILES IDX 68 55 74 56 76 57 69 58 70 59 71 60 72 61 73 62 49 63 50 64
REMARK SMILES IDX 59 65 51 66 52 67 58 68 60 69 53 70 54 71 55 72 56 73 57 74
REMARK SMILES IDX 7 75 8 76 9 77 10 78 11 79 12 80 13 81 14 82 15 83 16 84
REMARK SMILES IDX 20 85 17 86 19 87 18 88 21 89
REMARK H PARENT 81 24 47 35 21 90
REMARK Flexibility Score: inf
ROOT
ATOM      1  O   UNL A   1      33.584  34.976  28.525  1.00  0.00    -0.374 OA
ENDROOT
BRANCH   1   2
ATOM      2  C   UNL A   1      33.287  33.728  27.895  1.00  0.00     0.202 C 
BRANCH   2   3
ATOM      3  C   UNL A   1      34.345  32.627  28.045  1.00  0.00     0.261 C 
BRANCH   3   4
ATOM      4  O   UNL A   1      33.734  31.323  27.998  1.00  0.00    -0.460 OA
BRANCH   4   5
ATOM      5  C   UNL A   1      34.332  30.122  27.804  1.00  0.00     0.338 C 
ATOM      6  O   UNL A   1      33.658  29.200  27.346  1.00  0.00    -0.246 OA
BRANCH   5   7
ATOM      7  C   UNL A   1      35.765  29.852  28.137  1.00  0.00     0.060 A 
ATOM      8  C   UNL A   1      36.822  30.052  27.253  1.00  0.00     0.016 A 
ATOM      9  C   UNL A   1      36.076  29.455  29.449  1.00  0.00     0.016 A 
ATOM     10  C   UNL A   1      38.132  29.813  27.614  1.00  0.00     0.010 A 
ATOM     11  C   UNL A   1      37.406  29.260  29.844  1.00  0.00     0.010 A 
ATOM     12  C   UNL A   1      38.436  29.433  28.913  1.00  0.00    -0.014 A 
BRANCH  12  13
ATOM     13  C   UNL A   1      39.855  29.157  29.185  1.00  0.00     0.031 A 
ATOM     14  C   UNL A   1      40.610  30.115  30.049  1.00  0.00     0.074 A 
ATOM     15  C   UNL A   1      40.347  27.948  28.854  1.00  0.00     0.049 A 
ATOM     16  N   UNL A   1      41.834  30.035  30.492  1.00  0.00    -0.248 NA
ATOM     17  C   UNL A   1      39.879  31.313  30.502  1.00  0.00     0.031 C 
ATOM     18  C   UNL A   1      39.603  26.907  28.132  1.00  0.00     0.029 A 
ATOM     19  N   UNL A   1      41.551  27.362  29.128  1.00  0.00    -0.354 N 
ATOM     20  C   UNL A   1      42.024  31.170  31.269  1.00  0.00     0.074 A 
ATOM     21  C   UNL A   1      40.798  31.933  31.227  1.00  0.00     0.031 C 
ATOM     22  C   UNL A   1      40.359  25.801  28.052  1.00  0.00     0.029 A 
ATOM     23  C   UNL A   1      41.659  26.076  28.651  1.00  0.00     0.049 A 
ATOM     24  H   UNL A   1      42.273  27.817  29.621  1.00  0.00     0.167 HD
ATOM     25  C   UNL A   1      43.132  31.530  31.955  1.00  0.00     0.037 A 
ATOM     26  C   UNL A   1      42.709  25.235  28.670  1.00  0.00     0.037 A 
ATOM     27  C   UNL A   1      44.337  30.746  31.959  1.00  0.00     0.049 A 
ATOM     28  C   UNL A   1      43.966  25.711  29.345  1.00  0.00     0.074 A 
ATOM     29  C   UNL A   1      45.565  31.048  32.513  1.00  0.00     0.029 A 
ATOM     30  N   UNL A   1      44.454  29.489  31.379  1.00  0.00    -0.354 N 
ATOM     31  N   UNL A   1      44.175  26.836  29.992  1.00  0.00    -0.248 NA
ATOM     32  C   UNL A   1      45.132  24.823  29.287  1.00  0.00     0.031 C 
ATOM     33  C   UNL A   1      46.436  29.988  32.237  1.00  0.00     0.029 A 
ATOM     34  C   UNL A   1      45.736  29.003  31.554  1.00  0.00     0.049 A 
ATOM     35  H   UNL A   1      43.729  29.012  30.913  1.00  0.00     0.167 HD
ATOM     36  C   UNL A   1      45.494  26.788  30.424  1.00  0.00     0.074 A 
ATOM     37  C   UNL A   1      46.022  25.509  29.990  1.00  0.00     0.031 C 
ATOM     38  C   UNL A   1      46.212  27.717  31.105  1.00  0.00     0.037 A 
BRANCH  25  39
ATOM     39  C   UNL A   1      43.093  32.843  32.680  1.00  0.00     0.058 A 
ATOM     40  C   UNL A   1      43.386  34.057  32.037  1.00  0.00     0.135 A 
ATOM     41  C   UNL A   1      42.790  32.885  34.051  1.00  0.00     0.135 A 
ATOM     42  F   UNL A   1      43.720  34.070  30.737  1.00  0.00    -0.206 F 
ATOM     43  C   UNL A   1      43.401  35.263  32.733  1.00  0.00     0.059 A 
ATOM     44  C   UNL A   1      42.777  34.083  34.761  1.00  0.00     0.059 A 
ATOM     45  F   UNL A   1      42.521  31.753  34.718  1.00  0.00    -0.206 F 
ATOM     46  C   UNL A   1      43.098  35.265  34.095  1.00  0.00     0.060 A 
BRANCH  46  47
ATOM     47  S   UNL A   1      43.135  36.836  34.986  1.00  0.00     0.124 S 
ATOM     48  O   UNL A   1      42.203  36.574  36.077  1.00  0.00    -0.237 OA
ATOM     49  O   UNL A   1      44.539  36.946  35.363  1.00  0.00    -0.237 OA
ATOM     50  O   UNL A   1      42.678  37.801  33.990  1.00  0.00    -0.744 OA
ENDBRANCH  46  47
ENDBRANCH  25  39
BRANCH  26  51
ATOM     51  C   UNL A   1      42.642  23.920  27.970  1.00  0.00     0.058 A 
ATOM     52  C   UNL A   1      42.406  22.721  28.659  1.00  0.00     0.135 A 
ATOM     53  C   UNL A   1      42.842  23.839  26.581  1.00  0.00     0.135 A 
ATOM     54  F   UNL A   1      42.213  22.736  29.986  1.00  0.00    -0.206 F 
ATOM     55  C   UNL A   1      42.402  21.491  28.004  1.00  0.00     0.059 A 
ATOM     56  C   UNL A   1      42.809  22.628  25.900  1.00  0.00     0.059 A 
ATOM     57  F   UNL A   1      43.061  24.954  25.865  1.00  0.00    -0.206 F 
ATOM     58  C   UNL A   1      42.610  21.454  26.623  1.00  0.00     0.060 A 
BRANCH  58  59
ATOM     59  S   UNL A   1      42.605  19.859  25.777  1.00  0.00     0.124 S 
ATOM     60  O   UNL A   1      43.512  20.116  24.665  1.00  0.00    -0.237 OA
ATOM     61  O   UNL A   1      43.101  18.958  26.812  1.00  0.00    -0.237 OA
ATOM     62  O   UNL A   1      41.202  19.675  25.417  1.00  0.00    -0.744 OA
ENDBRANCH  58  59
ENDBRANCH  26  51
BRANCH  38  63
ATOM     63  C   UNL A   1      47.631  27.358  31.435  1.00  0.00     0.058 A 
ATOM     64  C   UNL A   1      48.674  27.579  30.524  1.00  0.00     0.135 A 
ATOM     65  C   UNL A   1      47.950  26.824  32.693  1.00  0.00     0.135 A 
ATOM     66  F   UNL A   1      48.415  28.082  29.307  1.00  0.00    -0.206 F 
ATOM     67  C   UNL A   1      49.988  27.254  30.839  1.00  0.00     0.059 A 
ATOM     68  C   UNL A   1      49.261  26.520  33.039  1.00  0.00     0.059 A 
ATOM     69  F   UNL A   1      46.986  26.607  33.601  1.00  0.00    -0.206 F 
ATOM     70  C   UNL A   1      50.270  26.724  32.100  1.00  0.00     0.060 A 
BRANCH  70  71
ATOM     71  S   UNL A   1      51.982  26.331  32.507  1.00  0.00     0.124 S 
ATOM     72  O   UNL A   1      52.292  27.359  33.494  1.00  0.00    -0.237 OA
ATOM     73  O   UNL A   1      51.877  24.968  33.020  1.00  0.00    -0.237 OA
ATOM     74  O   UNL A   1      52.673  26.459  31.227  1.00  0.00    -0.744 OA
ENDBRANCH  70  71
ENDBRANCH  38  63
ENDBRANCH  12  13
ENDBRANCH   5   7
ENDBRANCH   4   5
ENDBRANCH   3   4
ENDBRANCH   2   3
ENDBRANCH   1   2
BRANCH   1  75
ATOM     75  C   UNL A   1      32.920  35.232  29.768  1.00  0.00     0.202 C 
BRANCH  75  76
ATOM     76  C   UNL A   1      33.951  35.325  30.890  1.00  0.00     0.261 C 
BRANCH  76  77
ATOM     77  O   UNL A   1      33.304  34.920  32.105  1.00  0.00    -0.460 OA
BRANCH  77  78
ATOM     78  C   UNL A   1      33.970  34.036  32.891  1.00  0.00     0.351 C 
ATOM     79  O   UNL A   1      33.733  32.831  32.917  1.00  0.00    -0.248 OA
BRANCH  78  80
ATOM     80  C   UNL A   1      35.148  34.663  33.622  1.00  0.00     0.338 C 
ATOM     81  F   UNL A   1      35.233  34.288  34.932  1.00  0.00    -0.222 F 
BRANCH  80  82
ATOM     82  S   UNL A   1      36.789  34.556  32.831  1.00  0.00    -0.073 SA
BRANCH  82  83
ATOM     83  C   UNL A   1      37.559  33.085  33.497  1.00  0.00     0.052 A 
ATOM     84  C   UNL A   1      38.571  33.316  34.442  1.00  0.00     0.019 A 
ATOM     85  C   UNL A   1      37.240  31.754  33.189  1.00  0.00     0.129 A 
ATOM     86  C   UNL A   1      39.276  32.259  35.019  1.00  0.00     0.001 A 
ATOM     87  C   UNL A   1      37.963  30.693  33.744  1.00  0.00     0.047 A 
ATOM     88  C   UNL A   1      38.983  30.947  34.659  1.00  0.00     0.004 A 
BRANCH  85  89
ATOM     89  O   UNL A   1      36.215  31.471  32.333  1.00  0.00    -0.507 OA
ATOM     90  H   UNL A   1      35.776  30.645  32.385  1.00  0.00     0.293 HD
ENDBRANCH  85  89
ENDBRANCH  82  83
ENDBRANCH  80  82
ENDBRANCH  78  80
ENDBRANCH  77  78
ENDBRANCH  76  77
ENDBRANCH  75  76
ENDBRANCH   1  75
TORSDOF 20
ENDMDL
