MODEL 1
REMARK VINA RESULT:     -11.2      0.000      0.000
REMARK SMILES Cc1ccc(C(=O)OCCOCCOC(=O)c2ccc(-c3c4nc(c(-c5c(F)cc(S(=O)(=O)[O-])cc5F)c5ccc([nH]5)c(-c5c(F)cc(S(=O)(=O)[O-])cc5F)c5nc(c(-c6c(F)cc(S(=O)(=O)[O-])cc6F)c6ccc3[nH]6)C=C5)C=C4)cc2)cc1S(=O)(=O)N(C)[C@H]1CCSC1
REMARK SMILES IDX 11 1 10 2 9 3 8 4 6 5 7 6 5 7 1 8 2 9 3 10 84 11 4 12 83 13
REMARK SMILES IDX 85 14 86 15 87 16 88 17 89 18 90 19 91 20 94 21 92 22 93 23
REMARK SMILES IDX 12 24 13 25 14 26 15 27 16 28 17 29 18 30 82 31 19 32 81 33
REMARK SMILES IDX 20 34 21 35 22 36 75 37 23 38 80 39 74 40 76 41 24 42 79 43
REMARK SMILES IDX 73 44 72 45 25 47 59 48 38 49 58 50 39 51 42 52 57 53 77 54
REMARK SMILES IDX 40 55 41 56 56 58 78 59 43 60 26 61 27 62 36 63 28 64 29 65
REMARK SMILES IDX 35 66 37 67 30 68 31 69 32 70 33 71 34 72 60 73 61 74 70 75
REMARK SMILES IDX 62 76 63 77 69 78 71 79 64 80 65 81 66 82 67 83 68 84 44 85
REMARK SMILES IDX 45 86 54 87 46 88 47 89 53 90 55 91 48 92 49 93 50 94 51 95
REMARK SMILES IDX 52 96
REMARK H PARENT 76 46 42 57
REMARK Flexibility Score: inf
ROOT
ATOM      1  O   UNL A   1      32.984  28.641  26.363  1.00  0.00    -0.374 OA
ENDROOT
BRANCH   1   2
ATOM      2  C   UNL A   1      34.042  28.315  25.472  1.00  0.00     0.202 C 
BRANCH   2   3
ATOM      3  C   UNL A   1      33.472  28.495  24.107  1.00  0.00     0.261 C 
BRANCH   3   4
ATOM      4  O   UNL A   1      33.114  27.227  23.517  1.00  0.00    -0.460 OA
BRANCH   4   5
ATOM      5  C   UNL A   1      31.827  26.808  23.356  1.00  0.00     0.338 C 
ATOM      6  O   UNL A   1      31.063  26.942  22.433  1.00  0.00    -0.246 OA
BRANCH   5   7
ATOM      7  C   UNL A   1      31.546  25.921  24.494  1.00  0.00     0.061 A 
ATOM      8  C   UNL A   1      29.871  22.926  27.051  1.00  0.00     0.046 C 
ATOM      9  C   UNL A   1      30.586  23.905  26.176  1.00  0.00    -0.031 A 
ATOM     10  C   UNL A   1      29.996  25.192  26.160  1.00  0.00     0.006 A 
ATOM     11  C   UNL A   1      31.700  23.671  25.342  1.00  0.00     0.086 A 
ATOM     12  C   UNL A   1      30.455  26.189  25.310  1.00  0.00     0.016 A 
ATOM     13  C   UNL A   1      32.220  24.711  24.585  1.00  0.00     0.037 A 
BRANCH  11  14
ATOM     14  S   UNL A   1      32.521  22.127  24.982  1.00  0.00     0.243 S 
ATOM     15  O   UNL A   1      31.601  21.065  25.321  1.00  0.00    -0.207 OA
ATOM     16  O   UNL A   1      33.096  22.233  23.655  1.00  0.00    -0.207 OA
BRANCH  14  17
ATOM     17  N   UNL A   1      33.826  22.088  26.024  1.00  0.00    -0.197 NA
ATOM     18  C   UNL A   1      33.558  21.781  27.424  1.00  0.00     0.125 C 
BRANCH  17  19
ATOM     19  C   UNL A   1      35.157  22.338  25.446  1.00  0.00     0.083 C 
ATOM     20  C   UNL A   1      35.964  23.413  26.159  1.00  0.00     0.032 C 
ATOM     21  C   UNL A   1      36.042  21.099  25.376  1.00  0.00     0.089 C 
ATOM     22  C   UNL A   1      37.253  23.504  25.365  1.00  0.00     0.071 C 
ATOM     23  S   UNL A   1      37.722  21.768  25.102  1.00  0.00    -0.160 SA
ENDBRANCH  17  19
ENDBRANCH  14  17
ENDBRANCH  11  14
ENDBRANCH   5   7
ENDBRANCH   4   5
ENDBRANCH   3   4
ENDBRANCH   2   3
ENDBRANCH   1   2
BRANCH   1  24
ATOM     24  C   UNL A   1      32.133  29.677  25.945  1.00  0.00     0.202 C 
BRANCH  24  25
ATOM     25  C   UNL A   1      32.462  31.007  26.625  1.00  0.00     0.261 C 
BRANCH  25  26
ATOM     26  O   UNL A   1      33.328  30.799  27.766  1.00  0.00    -0.460 OA
BRANCH  26  27
ATOM     27  C   UNL A   1      34.524  31.463  27.757  1.00  0.00     0.338 C 
ATOM     28  O   UNL A   1      34.642  32.633  27.442  1.00  0.00    -0.246 OA
BRANCH  27  29
ATOM     29  C   UNL A   1      35.626  30.579  28.243  1.00  0.00     0.060 A 
ATOM     30  C   UNL A   1      35.520  29.833  29.433  1.00  0.00     0.016 A 
ATOM     31  C   UNL A   1      36.845  30.639  27.586  1.00  0.00     0.016 A 
ATOM     32  C   UNL A   1      36.669  29.290  30.047  1.00  0.00     0.010 A 
ATOM     33  C   UNL A   1      37.972  30.178  28.229  1.00  0.00     0.010 A 
ATOM     34  C   UNL A   1      37.914  29.537  29.480  1.00  0.00    -0.014 A 
BRANCH  34  35
ATOM     35  C   UNL A   1      39.241  29.271  30.065  1.00  0.00     0.031 A 
ATOM     36  C   UNL A   1      39.913  28.011  29.654  1.00  0.00     0.074 A 
ATOM     37  C   UNL A   1      39.985  30.279  30.592  1.00  0.00     0.049 A 
ATOM     38  N   UNL A   1      41.073  27.638  30.058  1.00  0.00    -0.248 NA
ATOM     39  C   UNL A   1      39.308  27.029  28.751  1.00  0.00     0.031 C 
ATOM     40  C   UNL A   1      41.442  30.451  30.546  1.00  0.00     0.029 A 
ATOM     41  N   UNL A   1      39.577  31.448  31.239  1.00  0.00    -0.354 N 
ATOM     42  C   UNL A   1      41.522  26.665  29.193  1.00  0.00     0.074 A 
ATOM     43  C   UNL A   1      40.335  26.207  28.524  1.00  0.00     0.031 C 
ATOM     44  C   UNL A   1      41.812  31.467  31.351  1.00  0.00     0.029 A 
ATOM     45  C   UNL A   1      40.621  31.910  32.054  1.00  0.00     0.049 A 
ATOM     46  H   UNL A   1      38.698  31.878  31.139  1.00  0.00     0.167 HD
ATOM     47  C   UNL A   1      42.872  26.512  29.053  1.00  0.00     0.037 A 
ATOM     48  C   UNL A   1      40.426  32.032  33.394  1.00  0.00     0.037 A 
ATOM     49  C   UNL A   1      43.571  27.332  30.063  1.00  0.00     0.049 A 
ATOM     50  C   UNL A   1      41.292  30.996  34.049  1.00  0.00     0.074 A 
ATOM     51  C   UNL A   1      44.347  28.477  29.994  1.00  0.00     0.029 A 
ATOM     52  N   UNL A   1      43.239  27.175  31.413  1.00  0.00    -0.354 N 
ATOM     53  N   UNL A   1      41.688  29.924  33.414  1.00  0.00    -0.248 NA
ATOM     54  C   UNL A   1      41.919  31.133  35.358  1.00  0.00     0.031 C 
ATOM     55  C   UNL A   1      44.386  29.059  31.296  1.00  0.00     0.029 A 
ATOM     56  C   UNL A   1      43.652  28.261  32.163  1.00  0.00     0.049 A 
ATOM     57  H   UNL A   1      42.772  26.391  31.782  1.00  0.00     0.167 HD
ATOM     58  C   UNL A   1      42.685  29.326  34.112  1.00  0.00     0.074 A 
ATOM     59  C   UNL A   1      42.747  30.071  35.360  1.00  0.00     0.031 C 
ATOM     60  C   UNL A   1      43.425  28.299  33.606  1.00  0.00     0.037 A 
BRANCH  47  61
ATOM     61  C   UNL A   1      43.590  25.817  27.894  1.00  0.00     0.058 A 
ATOM     62  C   UNL A   1      43.557  24.406  27.786  1.00  0.00     0.135 A 
ATOM     63  C   UNL A   1      44.380  26.438  26.899  1.00  0.00     0.135 A 
ATOM     64  F   UNL A   1      42.845  23.657  28.640  1.00  0.00    -0.206 F 
ATOM     65  C   UNL A   1      44.257  23.686  26.808  1.00  0.00     0.059 A 
ATOM     66  C   UNL A   1      45.069  25.743  25.898  1.00  0.00     0.059 A 
ATOM     67  F   UNL A   1      44.556  27.758  26.834  1.00  0.00    -0.206 F 
ATOM     68  C   UNL A   1      45.011  24.363  25.864  1.00  0.00     0.060 A 
BRANCH  68  69
ATOM     69  S   UNL A   1      45.894  23.431  24.599  1.00  0.00     0.124 S 
ATOM     70  O   UNL A   1      46.461  22.331  25.371  1.00  0.00    -0.237 OA
ATOM     71  O   UNL A   1      44.822  23.076  23.676  1.00  0.00    -0.237 OA
ATOM     72  O   UNL A   1      46.866  24.391  24.081  1.00  0.00    -0.744 OA
ENDBRANCH  68  69
ENDBRANCH  47  61
BRANCH  48  73
ATOM     73  C   UNL A   1      39.030  32.493  33.697  1.00  0.00     0.058 A 
ATOM     74  C   UNL A   1      38.728  33.838  33.368  1.00  0.00     0.135 A 
ATOM     75  C   UNL A   1      37.946  31.599  33.727  1.00  0.00     0.135 A 
ATOM     76  F   UNL A   1      39.718  34.744  33.304  1.00  0.00    -0.206 F 
ATOM     77  C   UNL A   1      37.461  34.239  32.937  1.00  0.00     0.059 A 
ATOM     78  C   UNL A   1      36.669  31.980  33.280  1.00  0.00     0.059 A 
ATOM     79  F   UNL A   1      38.148  30.307  34.020  1.00  0.00    -0.206 F 
ATOM     80  C   UNL A   1      36.451  33.286  32.834  1.00  0.00     0.060 A 
BRANCH  80  81
ATOM     81  S   UNL A   1      34.955  33.710  31.891  1.00  0.00     0.124 S 
ATOM     82  O   UNL A   1      35.509  34.159  30.621  1.00  0.00    -0.237 OA
ATOM     83  O   UNL A   1      34.236  32.438  31.853  1.00  0.00    -0.237 OA
ATOM     84  O   UNL A   1      34.329  34.742  32.711  1.00  0.00    -0.744 OA
ENDBRANCH  80  81
ENDBRANCH  48  73
BRANCH  60  85
ATOM     85  C   UNL A   1      44.064  27.269  34.484  1.00  0.00     0.058 A 
ATOM     86  C   UNL A   1      43.339  26.212  35.061  1.00  0.00     0.135 A 
ATOM     87  C   UNL A   1      45.470  27.203  34.610  1.00  0.00     0.135 A 
ATOM     88  F   UNL A   1      42.013  26.091  34.896  1.00  0.00    -0.206 F 
ATOM     89  C   UNL A   1      43.954  25.214  35.801  1.00  0.00     0.059 A 
ATOM     90  C   UNL A   1      46.109  26.171  35.281  1.00  0.00     0.059 A 
ATOM     91  F   UNL A   1      46.274  28.128  34.066  1.00  0.00    -0.206 F 
ATOM     92  C   UNL A   1      45.339  25.206  35.910  1.00  0.00     0.060 A 
BRANCH  92  93
ATOM     93  S   UNL A   1      46.125  23.920  36.883  1.00  0.00     0.124 S 
ATOM     94  O   UNL A   1      45.701  24.288  38.229  1.00  0.00    -0.237 OA
ATOM     95  O   UNL A   1      45.527  22.703  36.341  1.00  0.00    -0.237 OA
ATOM     96  O   UNL A   1      47.544  24.096  36.594  1.00  0.00    -0.744 OA
ENDBRANCH  92  93
ENDBRANCH  60  85
ENDBRANCH  34  35
ENDBRANCH  27  29
ENDBRANCH  26  27
ENDBRANCH  25  26
ENDBRANCH  24  25
ENDBRANCH   1  24
TORSDOF 20
ENDMDL
MODEL 2
REMARK VINA RESULT:     -11.1      1.414      2.160
REMARK SMILES Cc1ccc(C(=O)OCCOCCOC(=O)c2ccc(-c3c4nc(c(-c5c(F)cc(S(=O)(=O)[O-])cc5F)c5ccc([nH]5)c(-c5c(F)cc(S(=O)(=O)[O-])cc5F)c5nc(c(-c6c(F)cc(S(=O)(=O)[O-])cc6F)c6ccc3[nH]6)C=C5)C=C4)cc2)cc1S(=O)(=O)N(C)[C@H]1CCSC1
REMARK SMILES IDX 11 1 10 2 9 3 8 4 6 5 7 6 5 7 1 8 2 9 3 10 84 11 4 12 83 13
REMARK SMILES IDX 85 14 86 15 87 16 88 17 89 18 90 19 91 20 94 21 92 22 93 23
REMARK SMILES IDX 12 24 13 25 14 26 15 27 16 28 17 29 18 30 82 31 19 32 81 33
REMARK SMILES IDX 20 34 21 35 22 36 75 37 23 38 80 39 74 40 76 41 24 42 79 43
REMARK SMILES IDX 73 44 72 45 25 47 59 48 38 49 58 50 39 51 42 52 57 53 77 54
REMARK SMILES IDX 40 55 41 56 56 58 78 59 43 60 26 61 27 62 36 63 28 64 29 65
REMARK SMILES IDX 35 66 37 67 30 68 31 69 32 70 33 71 34 72 60 73 61 74 70 75
REMARK SMILES IDX 62 76 63 77 69 78 71 79 64 80 65 81 66 82 67 83 68 84 44 85
REMARK SMILES IDX 45 86 54 87 46 88 47 89 53 90 55 91 48 92 49 93 50 94 51 95
REMARK SMILES IDX 52 96
REMARK H PARENT 76 46 42 57
REMARK Flexibility Score: inf
ROOT
ATOM      1  O   UNL A   1      32.976  29.447  23.793  1.00  0.00    -0.374 OA
ENDROOT
BRANCH   1   2
ATOM      2  C   UNL A   1      34.013  28.499  23.581  1.00  0.00     0.202 C 
BRANCH   2   3
ATOM      3  C   UNL A   1      33.943  28.160  22.131  1.00  0.00     0.261 C 
BRANCH   3   4
ATOM      4  O   UNL A   1      33.892  26.732  21.930  1.00  0.00    -0.460 OA
BRANCH   4   5
ATOM      5  C   UNL A   1      32.748  26.053  21.633  1.00  0.00     0.338 C 
ATOM      6  O   UNL A   1      32.249  25.774  20.571  1.00  0.00    -0.246 OA
BRANCH   5   7
ATOM      7  C   UNL A   1      32.269  25.493  22.904  1.00  0.00     0.061 A 
ATOM      8  C   UNL A   1      30.920  22.830  25.970  1.00  0.00     0.046 C 
ATOM      9  C   UNL A   1      31.498  23.801  24.992  1.00  0.00    -0.031 A 
ATOM     10  C   UNL A   1      30.547  24.332  24.086  1.00  0.00     0.006 A 
ATOM     11  C   UNL A   1      32.849  24.176  24.837  1.00  0.00     0.086 A 
ATOM     12  C   UNL A   1      30.929  25.154  23.035  1.00  0.00     0.016 A 
ATOM     13  C   UNL A   1      33.199  25.091  23.854  1.00  0.00     0.037 A 
BRANCH  11  14
ATOM     14  S   UNL A   1      34.291  23.527  25.667  1.00  0.00     0.243 S 
ATOM     15  O   UNL A   1      35.299  24.563  25.641  1.00  0.00    -0.207 OA
ATOM     16  O   UNL A   1      33.852  22.933  26.914  1.00  0.00    -0.207 OA
BRANCH  14  17
ATOM     17  N   UNL A   1      34.785  22.244  24.718  1.00  0.00    -0.197 NA
ATOM     18  C   UNL A   1      35.946  22.451  23.861  1.00  0.00     0.125 C 
BRANCH  17  19
ATOM     19  C   UNL A   1      34.028  20.987  24.839  1.00  0.00     0.083 C 
ATOM     20  C   UNL A   1      33.008  20.754  23.736  1.00  0.00     0.032 C 
ATOM     21  C   UNL A   1      34.906  19.742  24.897  1.00  0.00     0.089 C 
ATOM     22  C   UNL A   1      32.351  19.437  24.102  1.00  0.00     0.071 C 
ATOM     23  S   UNL A   1      33.749  18.367  24.554  1.00  0.00    -0.160 SA
ENDBRANCH  17  19
ENDBRANCH  14  17
ENDBRANCH  11  14
ENDBRANCH   5   7
ENDBRANCH   4   5
ENDBRANCH   3   4
ENDBRANCH   2   3
ENDBRANCH   1   2
BRANCH   1  24
ATOM     24  C   UNL A   1      32.053  29.125  24.801  1.00  0.00     0.202 C 
BRANCH  24  25
ATOM     25  C   UNL A   1      32.190  30.034  26.023  1.00  0.00     0.261 C 
BRANCH  25  26
ATOM     26  O   UNL A   1      33.575  30.146  26.426  1.00  0.00    -0.460 OA
BRANCH  26  27
ATOM     27  C   UNL A   1      34.034  29.209  27.310  1.00  0.00     0.338 C 
ATOM     28  O   UNL A   1      33.410  28.209  27.617  1.00  0.00    -0.246 OA
BRANCH  27  29
ATOM     29  C   UNL A   1      35.408  29.553  27.784  1.00  0.00     0.060 A 
ATOM     30  C   UNL A   1      36.492  29.701  26.897  1.00  0.00     0.016 A 
ATOM     31  C   UNL A   1      35.645  29.552  29.150  1.00  0.00     0.016 A 
ATOM     32  C   UNL A   1      37.820  29.681  27.374  1.00  0.00     0.010 A 
ATOM     33  C   UNL A   1      36.941  29.452  29.602  1.00  0.00     0.010 A 
ATOM     34  C   UNL A   1      38.045  29.472  28.729  1.00  0.00    -0.014 A 
BRANCH  34  35
ATOM     35  C   UNL A   1      39.328  29.188  29.399  1.00  0.00     0.031 A 
ATOM     36  C   UNL A   1      39.944  27.863  29.129  1.00  0.00     0.074 A 
ATOM     37  C   UNL A   1      40.104  30.198  29.873  1.00  0.00     0.049 A 
ATOM     38  N   UNL A   1      41.062  27.466  29.620  1.00  0.00    -0.248 NA
ATOM     39  C   UNL A   1      39.324  26.839  28.285  1.00  0.00     0.031 C 
ATOM     40  C   UNL A   1      41.569  30.288  29.884  1.00  0.00     0.029 A 
ATOM     41  N   UNL A   1      39.736  31.439  30.397  1.00  0.00    -0.354 N 
ATOM     42  C   UNL A   1      41.492  26.398  28.864  1.00  0.00     0.074 A 
ATOM     43  C   UNL A   1      40.311  25.947  28.179  1.00  0.00     0.031 C 
ATOM     44  C   UNL A   1      41.961  31.349  30.616  1.00  0.00     0.029 A 
ATOM     45  C   UNL A   1      40.767  31.915  31.219  1.00  0.00     0.049 A 
ATOM     46  H   UNL A   1      38.889  31.905  30.219  1.00  0.00     0.167 HD
ATOM     47  C   UNL A   1      42.836  26.162  28.804  1.00  0.00     0.037 A 
ATOM     48  C   UNL A   1      40.521  32.165  32.533  1.00  0.00     0.037 A 
ATOM     49  C   UNL A   1      43.536  27.029  29.773  1.00  0.00     0.049 A 
ATOM     50  C   UNL A   1      41.297  31.146  33.316  1.00  0.00     0.074 A 
ATOM     51  C   UNL A   1      44.379  28.121  29.644  1.00  0.00     0.029 A 
ATOM     52  N   UNL A   1      43.136  27.010  31.113  1.00  0.00    -0.354 N 
ATOM     53  N   UNL A   1      41.659  30.003  32.795  1.00  0.00    -0.248 NA
ATOM     54  C   UNL A   1      41.873  31.364  34.637  1.00  0.00     0.031 C 
ATOM     55  C   UNL A   1      44.394  28.812  30.892  1.00  0.00     0.029 A 
ATOM     56  C   UNL A   1      43.577  28.134  31.787  1.00  0.00     0.049 A 
ATOM     57  H   UNL A   1      42.610  26.287  31.524  1.00  0.00     0.167 HD
ATOM     58  C   UNL A   1      42.589  29.416  33.589  1.00  0.00     0.074 A 
ATOM     59  C   UNL A   1      42.638  30.263  34.770  1.00  0.00     0.031 C 
ATOM     60  C   UNL A   1      43.290  28.311  33.209  1.00  0.00     0.037 A 
BRANCH  47  61
ATOM     61  C   UNL A   1      43.563  25.331  27.744  1.00  0.00     0.058 A 
ATOM     62  C   UNL A   1      43.431  25.662  26.373  1.00  0.00     0.135 A 
ATOM     63  C   UNL A   1      44.339  24.171  27.970  1.00  0.00     0.135 A 
ATOM     64  F   UNL A   1      42.738  26.739  25.979  1.00  0.00    -0.206 F 
ATOM     65  C   UNL A   1      43.990  24.904  25.335  1.00  0.00     0.059 A 
ATOM     66  C   UNL A   1      44.927  23.411  26.951  1.00  0.00     0.059 A 
ATOM     67  F   UNL A   1      44.569  23.679  29.188  1.00  0.00    -0.206 F 
ATOM     68  C   UNL A   1      44.740  23.778  25.632  1.00  0.00     0.060 A 
BRANCH  68  69
ATOM     69  S   UNL A   1      45.471  22.819  24.293  1.00  0.00     0.124 S 
ATOM     70  O   UNL A   1      45.974  21.645  24.998  1.00  0.00    -0.237 OA
ATOM     71  O   UNL A   1      44.327  22.596  23.417  1.00  0.00    -0.237 OA
ATOM     72  O   UNL A   1      46.500  23.708  23.757  1.00  0.00    -0.744 OA
ENDBRANCH  68  69
ENDBRANCH  47  61
BRANCH  48  73
ATOM     73  C   UNL A   1      39.142  32.724  32.728  1.00  0.00     0.058 A 
ATOM     74  C   UNL A   1      38.901  34.005  32.172  1.00  0.00     0.135 A 
ATOM     75  C   UNL A   1      38.021  31.891  32.886  1.00  0.00     0.135 A 
ATOM     76  F   UNL A   1      39.928  34.848  31.976  1.00  0.00    -0.206 F 
ATOM     77  C   UNL A   1      37.657  34.377  31.655  1.00  0.00     0.059 A 
ATOM     78  C   UNL A   1      36.767  32.240  32.357  1.00  0.00     0.059 A 
ATOM     79  F   UNL A   1      38.166  30.660  33.395  1.00  0.00    -0.206 F 
ATOM     80  C   UNL A   1      36.610  33.460  31.694  1.00  0.00     0.060 A 
BRANCH  80  81
ATOM     81  S   UNL A   1      35.144  33.778  30.665  1.00  0.00     0.124 S 
ATOM     82  O   UNL A   1      35.739  34.113  29.379  1.00  0.00    -0.237 OA
ATOM     83  O   UNL A   1      34.438  32.499  30.720  1.00  0.00    -0.237 OA
ATOM     84  O   UNL A   1      34.481  34.873  31.362  1.00  0.00    -0.744 OA
ENDBRANCH  80  81
ENDBRANCH  48  73
BRANCH  60  85
ATOM     85  C   UNL A   1      43.830  27.329  34.202  1.00  0.00     0.058 A 
ATOM     86  C   UNL A   1      45.176  27.330  34.609  1.00  0.00     0.135 A 
ATOM     87  C   UNL A   1      42.960  26.483  34.925  1.00  0.00     0.135 A 
ATOM     88  F   UNL A   1      46.072  28.184  34.092  1.00  0.00    -0.206 F 
ATOM     89  C   UNL A   1      45.648  26.474  35.593  1.00  0.00     0.059 A 
ATOM     90  C   UNL A   1      43.399  25.677  35.964  1.00  0.00     0.059 A 
ATOM     91  F   UNL A   1      41.646  26.427  34.661  1.00  0.00    -0.206 F 
ATOM     92  C   UNL A   1      44.752  25.647  36.260  1.00  0.00     0.060 A 
BRANCH  92  93
ATOM     93  S   UNL A   1      45.374  24.533  37.520  1.00  0.00     0.124 S 
ATOM     94  O   UNL A   1      44.584  24.946  38.675  1.00  0.00    -0.237 OA
ATOM     95  O   UNL A   1      45.053  23.219  36.970  1.00  0.00    -0.237 OA
ATOM     96  O   UNL A   1      46.797  24.850  37.580  1.00  0.00    -0.744 OA
ENDBRANCH  92  93
ENDBRANCH  60  85
ENDBRANCH  34  35
ENDBRANCH  27  29
ENDBRANCH  26  27
ENDBRANCH  25  26
ENDBRANCH  24  25
ENDBRANCH   1  24
TORSDOF 20
ENDMDL
MODEL 3
REMARK VINA RESULT:     -10.9      1.659      2.304
REMARK SMILES Cc1ccc(C(=O)OCCOCCOC(=O)c2ccc(-c3c4nc(c(-c5c(F)cc(S(=O)(=O)[O-])cc5F)c5ccc([nH]5)c(-c5c(F)cc(S(=O)(=O)[O-])cc5F)c5nc(c(-c6c(F)cc(S(=O)(=O)[O-])cc6F)c6ccc3[nH]6)C=C5)C=C4)cc2)cc1S(=O)(=O)N(C)[C@H]1CCSC1
REMARK SMILES IDX 11 1 10 2 9 3 8 4 6 5 7 6 5 7 1 8 2 9 3 10 84 11 4 12 83 13
REMARK SMILES IDX 85 14 86 15 87 16 88 17 89 18 90 19 91 20 94 21 92 22 93 23
REMARK SMILES IDX 12 24 13 25 14 26 15 27 16 28 17 29 18 30 82 31 19 32 81 33
REMARK SMILES IDX 20 34 21 35 22 36 75 37 23 38 80 39 74 40 76 41 24 42 79 43
REMARK SMILES IDX 73 44 72 45 25 47 59 48 38 49 58 50 39 51 42 52 57 53 77 54
REMARK SMILES IDX 40 55 41 56 56 58 78 59 43 60 26 61 27 62 36 63 28 64 29 65
REMARK SMILES IDX 35 66 37 67 30 68 31 69 32 70 33 71 34 72 60 73 61 74 70 75
REMARK SMILES IDX 62 76 63 77 69 78 71 79 64 80 65 81 66 82 67 83 68 84 44 85
REMARK SMILES IDX 45 86 54 87 46 88 47 89 53 90 55 91 48 92 49 93 50 94 51 95
REMARK SMILES IDX 52 96
REMARK H PARENT 76 46 42 57
REMARK Flexibility Score: inf
ROOT
ATOM      1  O   UNL A   1      31.617  29.995  25.622  1.00  0.00    -0.374 OA
ENDROOT
BRANCH   1   2
ATOM      2  C   UNL A   1      32.662  29.072  25.354  1.00  0.00     0.202 C 
BRANCH   2   3
ATOM      3  C   UNL A   1      32.613  28.842  23.882  1.00  0.00     0.261 C 
BRANCH   3   4
ATOM      4  O   UNL A   1      31.308  28.388  23.466  1.00  0.00    -0.460 OA
BRANCH   4   5
ATOM      5  C   UNL A   1      31.100  27.253  22.741  1.00  0.00     0.338 C 
ATOM      6  O   UNL A   1      30.937  27.091  21.557  1.00  0.00    -0.246 OA
BRANCH   5   7
ATOM      7  C   UNL A   1      31.317  26.136  23.671  1.00  0.00     0.061 A 
ATOM      8  C   UNL A   1      30.962  22.449  25.813  1.00  0.00     0.046 C 
ATOM      9  C   UNL A   1      31.222  23.695  25.030  1.00  0.00    -0.031 A 
ATOM     10  C   UNL A   1      30.485  24.816  25.481  1.00  0.00     0.006 A 
ATOM     11  C   UNL A   1      32.039  23.847  23.890  1.00  0.00     0.086 A 
ATOM     12  C   UNL A   1      30.511  26.023  24.796  1.00  0.00     0.016 A 
ATOM     13  C   UNL A   1      32.146  25.091  23.284  1.00  0.00     0.037 A 
BRANCH  11  14
ATOM     14  S   UNL A   1      32.911  22.594  22.963  1.00  0.00     0.243 S 
ATOM     15  O   UNL A   1      31.925  21.649  22.490  1.00  0.00    -0.207 OA
ATOM     16  O   UNL A   1      33.810  23.269  22.047  1.00  0.00    -0.207 OA
BRANCH  14  17
ATOM     17  N   UNL A   1      33.902  21.852  24.084  1.00  0.00    -0.197 NA
ATOM     18  C   UNL A   1      33.477  20.557  24.603  1.00  0.00     0.125 C 
BRANCH  17  19
ATOM     19  C   UNL A   1      35.149  22.546  24.445  1.00  0.00     0.083 C 
ATOM     20  C   UNL A   1      35.083  23.329  25.747  1.00  0.00     0.032 C 
ATOM     21  C   UNL A   1      36.361  21.626  24.546  1.00  0.00     0.089 C 
ATOM     22  C   UNL A   1      36.453  23.969  25.873  1.00  0.00     0.071 C 
ATOM     23  S   UNL A   1      37.599  22.621  25.454  1.00  0.00    -0.160 SA
ENDBRANCH  17  19
ENDBRANCH  14  17
ENDBRANCH  11  14
ENDBRANCH   5   7
ENDBRANCH   4   5
ENDBRANCH   3   4
ENDBRANCH   2   3
ENDBRANCH   1   2
BRANCH   1  24
ATOM     24  C   UNL A   1      31.731  30.714  26.823  1.00  0.00     0.202 C 
BRANCH  24  25
ATOM     25  C   UNL A   1      33.024  31.529  26.888  1.00  0.00     0.261 C 
BRANCH  25  26
ATOM     26  O   UNL A   1      33.976  30.907  27.783  1.00  0.00    -0.460 OA
BRANCH  26  27
ATOM     27  C   UNL A   1      35.231  31.452  27.817  1.00  0.00     0.338 C 
ATOM     28  O   UNL A   1      35.470  32.611  27.530  1.00  0.00    -0.246 OA
BRANCH  27  29
ATOM     29  C   UNL A   1      36.229  30.456  28.308  1.00  0.00     0.060 A 
ATOM     30  C   UNL A   1      36.124  29.852  29.576  1.00  0.00     0.016 A 
ATOM     31  C   UNL A   1      37.378  30.261  27.556  1.00  0.00     0.016 A 
ATOM     32  C   UNL A   1      37.232  29.195  30.154  1.00  0.00     0.010 A 
ATOM     33  C   UNL A   1      38.478  29.691  28.156  1.00  0.00     0.010 A 
ATOM     34  C   UNL A   1      38.442  29.188  29.470  1.00  0.00    -0.014 A 
BRANCH  34  35
ATOM     35  C   UNL A   1      39.763  28.772  29.976  1.00  0.00     0.031 A 
ATOM     36  C   UNL A   1      40.267  27.450  29.523  1.00  0.00     0.074 A 
ATOM     37  C   UNL A   1      40.643  29.688  30.461  1.00  0.00     0.049 A 
ATOM     38  N   UNL A   1      41.401  26.948  29.858  1.00  0.00    -0.248 NA
ATOM     39  C   UNL A   1      39.507  26.548  28.655  1.00  0.00     0.031 C 
ATOM     40  C   UNL A   1      42.105  29.699  30.330  1.00  0.00     0.029 A 
ATOM     41  N   UNL A   1      40.405  30.889  31.133  1.00  0.00    -0.354 N 
ATOM     42  C   UNL A   1      41.689  25.939  28.966  1.00  0.00     0.074 A 
ATOM     43  C   UNL A   1      40.422  25.620  28.366  1.00  0.00     0.031 C 
ATOM     44  C   UNL A   1      42.630  30.661  31.114  1.00  0.00     0.029 A 
ATOM     45  C   UNL A   1      41.538  31.227  31.886  1.00  0.00     0.049 A 
ATOM     46  H   UNL A   1      39.574  31.414  31.085  1.00  0.00     0.167 HD
ATOM     47  C   UNL A   1      43.004  25.640  28.748  1.00  0.00     0.037 A 
ATOM     48  C   UNL A   1      41.435  31.358  33.236  1.00  0.00     0.037 A 
ATOM     49  C   UNL A   1      43.846  26.370  29.717  1.00  0.00     0.049 A 
ATOM     50  C   UNL A   1      42.218  30.227  33.837  1.00  0.00     0.074 A 
ATOM     51  C   UNL A   1      44.738  27.422  29.605  1.00  0.00     0.029 A 
ATOM     52  N   UNL A   1      43.577  26.239  31.084  1.00  0.00    -0.354 N 
ATOM     53  N   UNL A   1      42.457  29.124  33.178  1.00  0.00    -0.248 NA
ATOM     54  C   UNL A   1      42.931  30.284  35.108  1.00  0.00     0.031 C 
ATOM     55  C   UNL A   1      44.916  27.985  30.904  1.00  0.00     0.029 A 
ATOM     56  C   UNL A   1      44.150  27.266  31.811  1.00  0.00     0.049 A 
ATOM     57  H   UNL A   1      43.049  25.507  31.477  1.00  0.00     0.167 HD
ATOM     58  C   UNL A   1      43.421  28.414  33.815  1.00  0.00     0.074 A 
ATOM     59  C   UNL A   1      43.636  29.137  35.059  1.00  0.00     0.031 C 
ATOM     60  C   UNL A   1      44.012  27.317  33.265  1.00  0.00     0.037 A 
BRANCH  47  61
ATOM     61  C   UNL A   1      43.572  24.881  27.547  1.00  0.00     0.058 A 
ATOM     62  C   UNL A   1      44.287  23.675  27.747  1.00  0.00     0.135 A 
ATOM     63  C   UNL A   1      43.526  25.289  26.194  1.00  0.00     0.135 A 
ATOM     64  F   UNL A   1      44.419  23.137  28.967  1.00  0.00    -0.206 F 
ATOM     65  C   UNL A   1      44.914  22.964  26.714  1.00  0.00     0.059 A 
ATOM     66  C   UNL A   1      44.124  24.584  25.142  1.00  0.00     0.059 A 
ATOM     67  F   UNL A   1      42.917  26.406  25.794  1.00  0.00    -0.206 F 
ATOM     68  C   UNL A   1      44.826  23.425  25.410  1.00  0.00     0.060 A 
BRANCH  68  69
ATOM     69  S   UNL A   1      45.619  22.496  24.086  1.00  0.00     0.124 S 
ATOM     70  O   UNL A   1      44.523  22.319  23.139  1.00  0.00    -0.237 OA
ATOM     71  O   UNL A   1      46.682  23.403  23.669  1.00  0.00    -0.237 OA
ATOM     72  O   UNL A   1      46.070  21.273  24.746  1.00  0.00    -0.744 OA
ENDBRANCH  68  69
ENDBRANCH  47  61
BRANCH  48  73
ATOM     73  C   UNL A   1      40.118  31.967  33.621  1.00  0.00     0.058 A 
ATOM     74  C   UNL A   1      39.145  31.079  34.143  1.00  0.00     0.135 A 
ATOM     75  C   UNL A   1      40.013  33.311  34.017  1.00  0.00     0.135 A 
ATOM     76  F   UNL A   1      39.195  29.776  33.820  1.00  0.00    -0.206 F 
ATOM     77  C   UNL A   1      38.226  31.463  35.122  1.00  0.00     0.059 A 
ATOM     78  C   UNL A   1      39.107  33.713  35.014  1.00  0.00     0.059 A 
ATOM     79  F   UNL A   1      40.900  34.214  33.577  1.00  0.00    -0.206 F 
ATOM     80  C   UNL A   1      38.258  32.771  35.599  1.00  0.00     0.060 A 
BRANCH  80  81
ATOM     81  S   UNL A   1      37.366  33.151  37.139  1.00  0.00     0.124 S 
ATOM     82  O   UNL A   1      38.186  34.208  37.715  1.00  0.00    -0.237 OA
ATOM     83  O   UNL A   1      36.054  33.566  36.648  1.00  0.00    -0.237 OA
ATOM     84  O   UNL A   1      37.378  31.878  37.851  1.00  0.00    -0.744 OA
ENDBRANCH  80  81
ENDBRANCH  48  73
BRANCH  60  85
ATOM     85  C   UNL A   1      44.583  26.215  34.102  1.00  0.00     0.058 A 
ATOM     86  C   UNL A   1      45.959  26.105  34.369  1.00  0.00     0.135 A 
ATOM     87  C   UNL A   1      43.736  25.348  34.827  1.00  0.00     0.135 A 
ATOM     88  F   UNL A   1      46.852  26.960  33.846  1.00  0.00    -0.206 F 
ATOM     89  C   UNL A   1      46.470  25.133  35.216  1.00  0.00     0.059 A 
ATOM     90  C   UNL A   1      44.222  24.421  35.736  1.00  0.00     0.059 A 
ATOM     91  F   UNL A   1      42.402  25.386  34.693  1.00  0.00    -0.206 F 
ATOM     92  C   UNL A   1      45.593  24.292  35.890  1.00  0.00     0.060 A 
BRANCH  92  93
ATOM     93  S   UNL A   1      46.264  23.028  36.971  1.00  0.00     0.124 S 
ATOM     94  O   UNL A   1      45.553  21.846  36.496  1.00  0.00    -0.237 OA
ATOM     95  O   UNL A   1      47.692  23.074  36.666  1.00  0.00    -0.237 OA
ATOM     96  O   UNL A   1      45.899  23.494  38.304  1.00  0.00    -0.744 OA
ENDBRANCH  92  93
ENDBRANCH  60  85
ENDBRANCH  34  35
ENDBRANCH  27  29
ENDBRANCH  26  27
ENDBRANCH  25  26
ENDBRANCH  24  25
ENDBRANCH   1  24
TORSDOF 20
ENDMDL
