MODEL 1
REMARK VINA RESULT:     -11.0      0.000      0.000
REMARK SMILES CC(C)Cc1ccc(-c2cc(Cl)cc3c2O[C@@H](C(F)(F)F)C(C(=O)OCCOCCOC(=O)c2ccc(-c4c5nc(c(-c6c(F)cc(S(=O)(=O)[O-])cc6F)c6ccc([nH]6)c(-c6c(F)cc(S(=O)(=O)[O-])cc6F)c6nc(c(-c7c(F)cc(S(=O)(=O)[O-])cc7F)c7ccc4[nH]7)C=C6)C=C5)cc2)=C3)cc1
REMARK SMILES IDX 28 1 27 2 26 3 25 4 23 5 24 6 22 7 9 8 10 9 15 10 11 11
REMARK SMILES IDX 14 12 16 13 12 14 13 15 100 16 17 17 8 18 5 19 6 20 102 21
REMARK SMILES IDX 7 22 101 23 4 24 2 25 1 26 3 27 18 28 19 29 20 30 21 31
REMARK SMILES IDX 29 32 30 33 31 34 32 35 33 36 34 37 35 38 99 39 36 40 98 41
REMARK SMILES IDX 37 42 38 43 39 44 92 45 40 46 97 47 91 48 93 49 41 50 96 51
REMARK SMILES IDX 90 52 89 53 42 55 76 56 55 57 75 58 56 59 59 60 74 61 94 62
REMARK SMILES IDX 57 63 58 64 73 66 95 67 60 68 43 69 44 70 53 71 45 72 46 73
REMARK SMILES IDX 52 74 54 75 47 76 48 77 49 78 50 79 51 80 77 81 78 82 87 83
REMARK SMILES IDX 79 84 80 85 86 86 88 87 81 88 82 89 83 90 84 91 85 92 61 93
REMARK SMILES IDX 62 94 71 95 63 96 64 97 70 98 72 99 65 100 66 101 67 102
REMARK SMILES IDX 68 103 69 104
REMARK H PARENT 93 54 59 65
REMARK Flexibility Score: inf
ROOT
ATOM      1  O   UNL A   1      34.319  31.375  27.577  1.00  0.00    -0.374 OA
ENDROOT
BRANCH   1   2
ATOM      2  C   UNL A   1      33.029  30.933  27.180  1.00  0.00     0.202 C 
BRANCH   2   3
ATOM      3  C   UNL A   1      32.918  29.964  25.991  1.00  0.00     0.261 C 
BRANCH   3   4
ATOM      4  O   UNL A   1      32.434  28.662  26.360  1.00  0.00    -0.460 OA
BRANCH   4   5
ATOM      5  C   UNL A   1      32.082  27.857  25.340  1.00  0.00     0.338 C 
ATOM      6  O   UNL A   1      31.088  28.000  24.639  1.00  0.00    -0.246 OA
BRANCH   5   7
ATOM      7  C   UNL A   1      33.115  26.845  25.019  1.00  0.00     0.087 C 
ATOM      8  C   UNL A   1      31.947  22.847  24.868  1.00  0.00     0.026 A 
ATOM      9  C   UNL A   1      30.704  22.855  25.542  1.00  0.00     0.033 A 
ATOM     10  C   UNL A   1      32.618  24.092  24.866  1.00  0.00     0.135 A 
ATOM     11  C   UNL A   1      30.416  23.838  26.489  1.00  0.00     0.042 A 
ATOM     12  C   UNL A   1      32.483  24.930  25.986  1.00  0.00     0.019 A 
ATOM     13  O   UNL A   1      32.782  24.777  23.626  1.00  0.00    -0.475 OA
ATOM     14  Cl  UNL A   1      28.951  23.752  27.383  1.00  0.00    -0.084 Cl
ATOM     15  C   UNL A   1      31.351  24.821  26.786  1.00  0.00     0.032 A 
ATOM     16  C   UNL A   1      33.381  26.100  26.106  1.00  0.00     0.027 C 
ATOM     17  C   UNL A   1      33.374  26.145  23.702  1.00  0.00     0.316 C 
BRANCH   8  18
ATOM     18  C   UNL A   1      32.663  21.511  25.027  1.00  0.00    -0.015 A 
ATOM     19  C   UNL A   1      34.170  19.077  24.559  1.00  0.00    -0.048 A 
ATOM     20  C   UNL A   1      34.799  20.264  24.958  1.00  0.00     0.004 A 
ATOM     21  C   UNL A   1      32.774  19.101  24.465  1.00  0.00     0.004 A 
ATOM     22  C   UNL A   1      34.062  21.445  25.200  1.00  0.00     0.009 A 
ATOM     23  C   UNL A   1      32.038  20.290  24.696  1.00  0.00     0.009 A 
BRANCH  19  24
ATOM     24  C   UNL A   1      34.984  17.813  24.332  1.00  0.00     0.038 C 
BRANCH  24  25
ATOM     25  C   UNL A   1      34.698  16.581  25.231  1.00  0.00    -0.013 C 
ATOM     26  C   UNL A   1      33.578  15.694  24.685  1.00  0.00     0.008 C 
ATOM     27  C   UNL A   1      35.970  15.724  25.366  1.00  0.00     0.008 C 
ENDBRANCH  24  25
ENDBRANCH  19  24
ENDBRANCH   8  18
BRANCH  17  28
ATOM     28  C   UNL A   1      33.249  27.041  22.448  1.00  0.00     0.430 C 
ATOM     29  F   UNL A   1      31.939  27.092  22.074  1.00  0.00    -0.167 F 
ATOM     30  F   UNL A   1      33.620  28.317  22.701  1.00  0.00    -0.167 F 
ATOM     31  F   UNL A   1      33.942  26.628  21.373  1.00  0.00    -0.167 F 
ENDBRANCH  17  28
ENDBRANCH   5   7
ENDBRANCH   4   5
ENDBRANCH   3   4
ENDBRANCH   2   3
ENDBRANCH   1   2
BRANCH   1  32
ATOM     32  C   UNL A   1      34.408  32.491  28.460  1.00  0.00     0.202 C 
BRANCH  32  33
ATOM     33  C   UNL A   1      35.076  32.298  29.825  1.00  0.00     0.261 C 
BRANCH  33  34
ATOM     34  O   UNL A   1      36.485  32.043  29.741  1.00  0.00    -0.460 OA
BRANCH  34  35
ATOM     35  C   UNL A   1      36.966  31.188  30.674  1.00  0.00     0.338 C 
ATOM     36  O   UNL A   1      36.436  30.861  31.729  1.00  0.00    -0.246 OA
BRANCH  35  37
ATOM     37  C   UNL A   1      38.194  30.562  30.168  1.00  0.00     0.060 A 
ATOM     38  C   UNL A   1      39.243  30.311  31.063  1.00  0.00     0.016 A 
ATOM     39  C   UNL A   1      38.335  30.307  28.805  1.00  0.00     0.016 A 
ATOM     40  C   UNL A   1      40.460  29.826  30.586  1.00  0.00     0.010 A 
ATOM     41  C   UNL A   1      39.555  29.832  28.330  1.00  0.00     0.010 A 
ATOM     42  C   UNL A   1      40.631  29.619  29.212  1.00  0.00    -0.014 A 
BRANCH  42  43
ATOM     43  C   UNL A   1      41.967  29.337  28.643  1.00  0.00     0.031 A 
ATOM     44  C   UNL A   1      42.275  27.930  28.215  1.00  0.00     0.074 A 
ATOM     45  C   UNL A   1      42.901  30.301  28.563  1.00  0.00     0.049 A 
ATOM     46  N   UNL A   1      43.419  27.392  27.890  1.00  0.00    -0.248 NA
ATOM     47  C   UNL A   1      41.134  26.999  28.165  1.00  0.00     0.031 C 
ATOM     48  C   UNL A   1      42.694  31.709  28.897  1.00  0.00     0.029 A 
ATOM     49  N   UNL A   1      44.223  30.230  28.206  1.00  0.00    -0.354 N 
ATOM     50  C   UNL A   1      43.142  26.057  27.614  1.00  0.00     0.074 A 
ATOM     51  C   UNL A   1      41.727  25.861  27.837  1.00  0.00     0.031 C 
ATOM     52  C   UNL A   1      43.858  32.366  28.754  1.00  0.00     0.029 A 
ATOM     53  C   UNL A   1      44.900  31.415  28.370  1.00  0.00     0.049 A 
ATOM     54  H   UNL A   1      44.647  29.410  27.865  1.00  0.00     0.167 HD
ATOM     55  C   UNL A   1      43.996  25.089  27.206  1.00  0.00     0.037 A 
ATOM     56  C   UNL A   1      46.216  31.686  28.264  1.00  0.00     0.037 A 
ATOM     57  C   UNL A   1      45.403  25.305  26.995  1.00  0.00     0.049 A 
ATOM     58  C   UNL A   1      47.165  30.569  27.899  1.00  0.00     0.074 A 
ATOM     59  C   UNL A   1      46.362  24.395  26.591  1.00  0.00     0.029 A 
ATOM     60  N   UNL A   1      46.051  26.519  27.174  1.00  0.00    -0.354 N 
ATOM     61  N   UNL A   1      46.898  29.309  27.647  1.00  0.00    -0.248 NA
ATOM     62  C   UNL A   1      48.591  30.909  27.806  1.00  0.00     0.031 C 
ATOM     63  C   UNL A   1      47.599  25.045  26.573  1.00  0.00     0.029 A 
ATOM     64  C   UNL A   1      47.400  26.378  26.901  1.00  0.00     0.049 A 
ATOM     65  H   UNL A   1      45.615  27.357  27.454  1.00  0.00     0.167 HD
ATOM     66  C   UNL A   1      48.115  28.720  27.317  1.00  0.00     0.074 A 
ATOM     67  C   UNL A   1      49.120  29.759  27.409  1.00  0.00     0.031 C 
ATOM     68  C   UNL A   1      48.377  27.438  26.961  1.00  0.00     0.037 A 
BRANCH  55  69
ATOM     69  C   UNL A   1      43.437  23.710  26.986  1.00  0.00     0.058 A 
ATOM     70  C   UNL A   1      43.136  23.232  25.701  1.00  0.00     0.135 A 
ATOM     71  C   UNL A   1      43.235  22.841  28.070  1.00  0.00     0.135 A 
ATOM     72  F   UNL A   1      43.291  24.026  24.630  1.00  0.00    -0.206 F 
ATOM     73  C   UNL A   1      42.631  21.951  25.500  1.00  0.00     0.059 A 
ATOM     74  C   UNL A   1      42.760  21.545  27.891  1.00  0.00     0.059 A 
ATOM     75  F   UNL A   1      43.501  23.246  29.322  1.00  0.00    -0.206 F 
ATOM     76  C   UNL A   1      42.449  21.113  26.603  1.00  0.00     0.060 A 
BRANCH  76  77
ATOM     77  S   UNL A   1      41.805  19.451  26.322  1.00  0.00     0.124 S 
ATOM     78  O   UNL A   1      40.388  19.722  26.096  1.00  0.00    -0.237 OA
ATOM     79  O   UNL A   1      42.562  19.019  25.152  1.00  0.00    -0.237 OA
ATOM     80  O   UNL A   1      42.117  18.750  27.563  1.00  0.00    -0.744 OA
ENDBRANCH  76  77
ENDBRANCH  55  69
BRANCH  56  81
ATOM     81  C   UNL A   1      46.724  33.061  28.517  1.00  0.00     0.058 A 
ATOM     82  C   UNL A   1      47.153  33.446  29.796  1.00  0.00     0.135 A 
ATOM     83  C   UNL A   1      46.777  34.024  27.495  1.00  0.00     0.135 A 
ATOM     84  F   UNL A   1      47.114  32.566  30.808  1.00  0.00    -0.206 F 
ATOM     85  C   UNL A   1      47.590  34.739  30.062  1.00  0.00     0.059 A 
ATOM     86  C   UNL A   1      47.239  35.316  27.730  1.00  0.00     0.059 A 
ATOM     87  F   UNL A   1      46.390  33.706  26.250  1.00  0.00    -0.206 F 
ATOM     88  C   UNL A   1      47.630  35.669  29.020  1.00  0.00     0.060 A 
BRANCH  88  89
ATOM     89  S   UNL A   1      48.220  37.337  29.374  1.00  0.00     0.124 S 
ATOM     90  O   UNL A   1      49.112  37.099  30.503  1.00  0.00    -0.237 OA
ATOM     91  O   UNL A   1      48.864  37.707  28.118  1.00  0.00    -0.237 OA
ATOM     92  O   UNL A   1      46.994  38.069  29.682  1.00  0.00    -0.744 OA
ENDBRANCH  88  89
ENDBRANCH  56  81
BRANCH  68  93
ATOM     93  C   UNL A   1      49.784  27.090  26.557  1.00  0.00     0.058 A 
ATOM     94  C   UNL A   1      50.258  27.293  25.252  1.00  0.00     0.135 A 
ATOM     95  C   UNL A   1      50.698  26.646  27.527  1.00  0.00     0.135 A 
ATOM     96  F   UNL A   1      49.424  27.710  24.286  1.00  0.00    -0.206 F 
ATOM     97  C   UNL A   1      51.590  27.065  24.922  1.00  0.00     0.059 A 
ATOM     98  C   UNL A   1      52.041  26.439  27.226  1.00  0.00     0.059 A 
ATOM     99  F   UNL A   1      50.297  26.444  28.792  1.00  0.00    -0.206 F 
ATOM    100  C   UNL A   1      52.476  26.650  25.919  1.00  0.00     0.060 A 
BRANCH 100 101
ATOM    101  S   UNL A   1      54.218  26.437  25.493  1.00  0.00     0.124 S 
ATOM    102  O   UNL A   1      54.634  27.814  25.251  1.00  0.00    -0.237 OA
ATOM    103  O   UNL A   1      54.758  25.814  26.698  1.00  0.00    -0.237 OA
ATOM    104  O   UNL A   1      54.178  25.577  24.313  1.00  0.00    -0.744 OA
ENDBRANCH 100 101
ENDBRANCH  68  93
ENDBRANCH  42  43
ENDBRANCH  35  37
ENDBRANCH  34  35
ENDBRANCH  33  34
ENDBRANCH  32  33
ENDBRANCH   1  32
TORSDOF 21
ENDMDL
MODEL 2
REMARK VINA RESULT:     -10.6      1.672      2.524
REMARK SMILES CC(C)Cc1ccc(-c2cc(Cl)cc3c2O[C@@H](C(F)(F)F)C(C(=O)OCCOCCOC(=O)c2ccc(-c4c5nc(c(-c6c(F)cc(S(=O)(=O)[O-])cc6F)c6ccc([nH]6)c(-c6c(F)cc(S(=O)(=O)[O-])cc6F)c6nc(c(-c7c(F)cc(S(=O)(=O)[O-])cc7F)c7ccc4[nH]7)C=C6)C=C5)cc2)=C3)cc1
REMARK SMILES IDX 28 1 27 2 26 3 25 4 23 5 24 6 22 7 9 8 10 9 15 10 11 11
REMARK SMILES IDX 14 12 16 13 12 14 13 15 100 16 17 17 8 18 5 19 6 20 102 21
REMARK SMILES IDX 7 22 101 23 4 24 2 25 1 26 3 27 18 28 19 29 20 30 21 31
REMARK SMILES IDX 29 32 30 33 31 34 32 35 33 36 34 37 35 38 99 39 36 40 98 41
REMARK SMILES IDX 37 42 38 43 39 44 92 45 40 46 97 47 91 48 93 49 41 50 96 51
REMARK SMILES IDX 90 52 89 53 42 55 76 56 55 57 75 58 56 59 59 60 74 61 94 62
REMARK SMILES IDX 57 63 58 64 73 66 95 67 60 68 43 69 44 70 53 71 45 72 46 73
REMARK SMILES IDX 52 74 54 75 47 76 48 77 49 78 50 79 51 80 77 81 78 82 87 83
REMARK SMILES IDX 79 84 80 85 86 86 88 87 81 88 82 89 83 90 84 91 85 92 61 93
REMARK SMILES IDX 62 94 71 95 63 96 64 97 70 98 72 99 65 100 66 101 67 102
REMARK SMILES IDX 68 103 69 104
REMARK H PARENT 93 54 59 65
REMARK Flexibility Score: inf
ROOT
ATOM      1  O   UNL A   1      34.648  33.419  28.945  1.00  0.00    -0.374 OA
ENDROOT
BRANCH   1   2
ATOM      2  C   UNL A   1      33.355  33.564  28.374  1.00  0.00     0.202 C 
BRANCH   2   3
ATOM      3  C   UNL A   1      32.957  32.636  27.214  1.00  0.00     0.261 C 
BRANCH   3   4
ATOM      4  O   UNL A   1      32.238  31.467  27.641  1.00  0.00    -0.460 OA
BRANCH   4   5
ATOM      5  C   UNL A   1      32.173  30.461  26.748  1.00  0.00     0.338 C 
ATOM      6  O   UNL A   1      31.905  30.586  25.561  1.00  0.00    -0.246 OA
BRANCH   5   7
ATOM      7  C   UNL A   1      32.629  29.165  27.305  1.00  0.00     0.087 C 
ATOM      8  C   UNL A   1      33.248  26.013  24.649  1.00  0.00     0.026 A 
ATOM      9  C   UNL A   1      32.560  26.437  23.489  1.00  0.00     0.033 A 
ATOM     10  C   UNL A   1      33.108  26.878  25.760  1.00  0.00     0.135 A 
ATOM     11  C   UNL A   1      31.497  27.336  23.582  1.00  0.00     0.042 A 
ATOM     12  C   UNL A   1      31.893  27.563  25.929  1.00  0.00     0.019 A 
ATOM     13  O   UNL A   1      34.258  27.580  26.227  1.00  0.00    -0.475 OA
ATOM     14  Cl  UNL A   1      30.599  27.738  22.173  1.00  0.00    -0.084 Cl
ATOM     15  C   UNL A   1      31.096  27.822  24.819  1.00  0.00     0.032 A 
ATOM     16  C   UNL A   1      31.644  28.254  27.213  1.00  0.00     0.027 C 
ATOM     17  C   UNL A   1      34.024  28.579  27.311  1.00  0.00     0.316 C 
BRANCH   8  18
ATOM     18  C   UNL A   1      33.262  24.493  24.769  1.00  0.00    -0.015 A 
ATOM     19  C   UNL A   1      32.531  21.718  25.189  1.00  0.00    -0.048 A 
ATOM     20  C   UNL A   1      32.422  22.323  23.930  1.00  0.00     0.004 A 
ATOM     21  C   UNL A   1      33.076  22.493  26.219  1.00  0.00     0.004 A 
ATOM     22  C   UNL A   1      32.792  23.671  23.723  1.00  0.00     0.009 A 
ATOM     23  C   UNL A   1      33.435  23.849  26.012  1.00  0.00     0.009 A 
BRANCH  19  24
ATOM     24  C   UNL A   1      32.152  20.258  25.378  1.00  0.00     0.038 C 
BRANCH  24  25
ATOM     25  C   UNL A   1      33.085  19.171  24.783  1.00  0.00    -0.013 C 
ATOM     26  C   UNL A   1      32.617  18.669  23.416  1.00  0.00     0.008 C 
ATOM     27  C   UNL A   1      34.511  19.730  24.629  1.00  0.00     0.008 C 
ENDBRANCH  24  25
ENDBRANCH  19  24
ENDBRANCH   8  18
BRANCH  17  28
ATOM     28  C   UNL A   1      35.158  29.590  27.597  1.00  0.00     0.430 C 
ATOM     29  F   UNL A   1      36.320  28.905  27.790  1.00  0.00    -0.167 F 
ATOM     30  F   UNL A   1      35.375  30.415  26.547  1.00  0.00    -0.167 F 
ATOM     31  F   UNL A   1      34.981  30.363  28.683  1.00  0.00    -0.167 F 
ENDBRANCH  17  28
ENDBRANCH   5   7
ENDBRANCH   4   5
ENDBRANCH   3   4
ENDBRANCH   2   3
ENDBRANCH   1   2
BRANCH   1  32
ATOM     32  C   UNL A   1      34.965  34.191  30.101  1.00  0.00     0.202 C 
BRANCH  32  33
ATOM     33  C   UNL A   1      35.867  33.574  31.174  1.00  0.00     0.261 C 
BRANCH  33  34
ATOM     34  O   UNL A   1      36.948  32.799  30.636  1.00  0.00    -0.460 OA
BRANCH  34  35
ATOM     35  C   UNL A   1      37.105  31.576  31.195  1.00  0.00     0.338 C 
ATOM     36  O   UNL A   1      36.356  31.016  31.986  1.00  0.00    -0.246 OA
BRANCH  35  37
ATOM     37  C   UNL A   1      38.268  30.914  30.591  1.00  0.00     0.060 A 
ATOM     38  C   UNL A   1      39.306  30.477  31.424  1.00  0.00     0.016 A 
ATOM     39  C   UNL A   1      38.366  30.809  29.204  1.00  0.00     0.016 A 
ATOM     40  C   UNL A   1      40.470  29.952  30.864  1.00  0.00     0.010 A 
ATOM     41  C   UNL A   1      39.534  30.294  28.647  1.00  0.00     0.010 A 
ATOM     42  C   UNL A   1      40.601  29.893  29.472  1.00  0.00    -0.014 A 
BRANCH  42  43
ATOM     43  C   UNL A   1      41.901  29.570  28.841  1.00  0.00     0.031 A 
ATOM     44  C   UNL A   1      42.145  28.155  28.402  1.00  0.00     0.074 A 
ATOM     45  C   UNL A   1      42.859  30.505  28.717  1.00  0.00     0.049 A 
ATOM     46  N   UNL A   1      43.256  27.582  28.024  1.00  0.00    -0.248 NA
ATOM     47  C   UNL A   1      40.975  27.259  28.406  1.00  0.00     0.031 C 
ATOM     48  C   UNL A   1      42.710  31.920  29.058  1.00  0.00     0.029 A 
ATOM     49  N   UNL A   1      44.160  30.395  28.298  1.00  0.00    -0.354 N 
ATOM     50  C   UNL A   1      42.926  26.257  27.763  1.00  0.00     0.074 A 
ATOM     51  C   UNL A   1      41.518  26.103  28.052  1.00  0.00     0.031 C 
ATOM     52  C   UNL A   1      43.886  32.541  28.859  1.00  0.00     0.029 A 
ATOM     53  C   UNL A   1      44.879  31.559  28.428  1.00  0.00     0.049 A 
ATOM     54  H   UNL A   1      44.542  29.562  27.938  1.00  0.00     0.167 HD
ATOM     55  C   UNL A   1      43.730  25.263  27.317  1.00  0.00     0.037 A 
ATOM     56  C   UNL A   1      46.196  31.789  28.260  1.00  0.00     0.037 A 
ATOM     57  C   UNL A   1      45.132  25.436  27.040  1.00  0.00     0.049 A 
ATOM     58  C   UNL A   1      47.092  30.645  27.853  1.00  0.00     0.074 A 
ATOM     59  C   UNL A   1      46.042  24.498  26.592  1.00  0.00     0.029 A 
ATOM     60  N   UNL A   1      45.824  26.630  27.187  1.00  0.00    -0.354 N 
ATOM     61  N   UNL A   1      46.776  29.393  27.616  1.00  0.00    -0.248 NA
ATOM     62  C   UNL A   1      48.523  30.941  27.692  1.00  0.00     0.031 C 
ATOM     63  C   UNL A   1      47.297  25.111  26.515  1.00  0.00     0.029 A 
ATOM     64  C   UNL A   1      47.154  26.449  26.851  1.00  0.00     0.049 A 
ATOM     65  H   UNL A   1      45.427  27.481  27.485  1.00  0.00     0.167 HD
ATOM     66  C   UNL A   1      47.958  28.768  27.229  1.00  0.00     0.074 A 
ATOM     67  C   UNL A   1      48.997  29.776  27.272  1.00  0.00     0.031 C 
ATOM     68  C   UNL A   1      48.164  27.478  26.863  1.00  0.00     0.037 A 
BRANCH  55  69
ATOM     69  C   UNL A   1      43.120  23.902  27.125  1.00  0.00     0.058 A 
ATOM     70  C   UNL A   1      42.890  23.036  28.206  1.00  0.00     0.135 A 
ATOM     71  C   UNL A   1      42.728  23.470  25.848  1.00  0.00     0.135 A 
ATOM     72  F   UNL A   1      43.263  23.389  29.447  1.00  0.00    -0.206 F 
ATOM     73  C   UNL A   1      42.314  21.783  28.026  1.00  0.00     0.059 A 
ATOM     74  C   UNL A   1      42.122  22.233  25.647  1.00  0.00     0.059 A 
ATOM     75  F   UNL A   1      42.928  24.254  24.777  1.00  0.00    -0.206 F 
ATOM     76  C   UNL A   1      41.930  21.391  26.742  1.00  0.00     0.060 A 
BRANCH  76  77
ATOM     77  S   UNL A   1      41.174  19.766  26.528  1.00  0.00     0.124 S 
ATOM     78  O   UNL A   1      39.868  20.122  25.982  1.00  0.00    -0.237 OA
ATOM     79  O   UNL A   1      42.094  19.117  25.599  1.00  0.00    -0.237 OA
ATOM     80  O   UNL A   1      41.159  19.216  27.879  1.00  0.00    -0.744 OA
ENDBRANCH  76  77
ENDBRANCH  55  69
BRANCH  56  81
ATOM     81  C   UNL A   1      46.756  33.149  28.487  1.00  0.00     0.058 A 
ATOM     82  C   UNL A   1      47.183  33.547  29.762  1.00  0.00     0.135 A 
ATOM     83  C   UNL A   1      46.863  34.083  27.444  1.00  0.00     0.135 A 
ATOM     84  F   UNL A   1      47.095  32.695  30.795  1.00  0.00    -0.206 F 
ATOM     85  C   UNL A   1      47.671  34.828  30.003  1.00  0.00     0.059 A 
ATOM     86  C   UNL A   1      47.374  35.361  27.654  1.00  0.00     0.059 A 
ATOM     87  F   UNL A   1      46.480  33.751  26.201  1.00  0.00    -0.206 F 
ATOM     88  C   UNL A   1      47.762  35.729  28.941  1.00  0.00     0.060 A 
BRANCH  88  89
ATOM     89  S   UNL A   1      48.416  37.380  29.263  1.00  0.00     0.124 S 
ATOM     90  O   UNL A   1      49.208  37.622  28.064  1.00  0.00    -0.237 OA
ATOM     91  O   UNL A   1      47.197  38.172  29.394  1.00  0.00    -0.237 OA
ATOM     92  O   UNL A   1      49.176  37.205  30.498  1.00  0.00    -0.744 OA
ENDBRANCH  88  89
ENDBRANCH  56  81
BRANCH  68  93
ATOM     93  C   UNL A   1      49.539  27.088  26.394  1.00  0.00     0.058 A 
ATOM     94  C   UNL A   1      49.916  27.162  25.045  1.00  0.00     0.135 A 
ATOM     95  C   UNL A   1      50.523  26.737  27.333  1.00  0.00     0.135 A 
ATOM     96  F   UNL A   1      49.013  27.485  24.106  1.00  0.00    -0.206 F 
ATOM     97  C   UNL A   1      51.223  26.898  24.643  1.00  0.00     0.059 A 
ATOM     98  C   UNL A   1      51.841  26.497  26.958  1.00  0.00     0.059 A 
ATOM     99  F   UNL A   1      50.215  26.660  28.638  1.00  0.00    -0.206 F 
ATOM    100  C   UNL A   1      52.180  26.579  25.608  1.00  0.00     0.060 A 
BRANCH 100 101
ATOM    101  S   UNL A   1      53.887  26.319  25.081  1.00  0.00     0.124 S 
ATOM    102  O   UNL A   1      54.353  27.690  24.903  1.00  0.00    -0.237 OA
ATOM    103  O   UNL A   1      54.456  25.597  26.214  1.00  0.00    -0.237 OA
ATOM    104  O   UNL A   1      53.750  25.540  23.853  1.00  0.00    -0.744 OA
ENDBRANCH 100 101
ENDBRANCH  68  93
ENDBRANCH  42  43
ENDBRANCH  35  37
ENDBRANCH  34  35
ENDBRANCH  33  34
ENDBRANCH  32  33
ENDBRANCH   1  32
TORSDOF 21
ENDMDL
MODEL 3
REMARK VINA RESULT:     -10.3     10.042     15.707
REMARK SMILES CC(C)Cc1ccc(-c2cc(Cl)cc3c2O[C@@H](C(F)(F)F)C(C(=O)OCCOCCOC(=O)c2ccc(-c4c5nc(c(-c6c(F)cc(S(=O)(=O)[O-])cc6F)c6ccc([nH]6)c(-c6c(F)cc(S(=O)(=O)[O-])cc6F)c6nc(c(-c7c(F)cc(S(=O)(=O)[O-])cc7F)c7ccc4[nH]7)C=C6)C=C5)cc2)=C3)cc1
REMARK SMILES IDX 28 1 27 2 26 3 25 4 23 5 24 6 22 7 9 8 10 9 15 10 11 11
REMARK SMILES IDX 14 12 16 13 12 14 13 15 100 16 17 17 8 18 5 19 6 20 102 21
REMARK SMILES IDX 7 22 101 23 4 24 2 25 1 26 3 27 18 28 19 29 20 30 21 31
REMARK SMILES IDX 29 32 30 33 31 34 32 35 33 36 34 37 35 38 99 39 36 40 98 41
REMARK SMILES IDX 37 42 38 43 39 44 92 45 40 46 97 47 91 48 93 49 41 50 96 51
REMARK SMILES IDX 90 52 89 53 42 55 76 56 55 57 75 58 56 59 59 60 74 61 94 62
REMARK SMILES IDX 57 63 58 64 73 66 95 67 60 68 43 69 44 70 53 71 45 72 46 73
REMARK SMILES IDX 52 74 54 75 47 76 48 77 49 78 50 79 51 80 77 81 78 82 87 83
REMARK SMILES IDX 79 84 80 85 86 86 88 87 81 88 82 89 83 90 84 91 85 92 61 93
REMARK SMILES IDX 62 94 71 95 63 96 64 97 70 98 72 99 65 100 66 101 67 102
REMARK SMILES IDX 68 103 69 104
REMARK H PARENT 93 54 59 65
REMARK Flexibility Score: inf
ROOT
ATOM      1  O   UNL A   1      50.668  23.798  37.852  1.00  0.00    -0.374 OA
ENDROOT
BRANCH   1   2
ATOM      2  C   UNL A   1      50.729  22.577  38.575  1.00  0.00     0.202 C 
BRANCH   2   3
ATOM      3  C   UNL A   1      49.494  22.136  39.377  1.00  0.00     0.261 C 
BRANCH   3   4
ATOM      4  O   UNL A   1      48.889  20.932  38.876  1.00  0.00    -0.460 OA
BRANCH   4   5
ATOM      5  C   UNL A   1      47.756  20.545  39.492  1.00  0.00     0.338 C 
ATOM      6  O   UNL A   1      46.970  21.293  40.058  1.00  0.00    -0.246 OA
BRANCH   5   7
ATOM      7  C   UNL A   1      47.444  19.112  39.281  1.00  0.00     0.087 C 
ATOM      8  C   UNL A   1      44.339  17.445  41.506  1.00  0.00     0.026 A 
ATOM      9  C   UNL A   1      44.156  18.384  42.547  1.00  0.00     0.033 A 
ATOM     10  C   UNL A   1      45.426  17.730  40.647  1.00  0.00     0.135 A 
ATOM     11  C   UNL A   1      45.205  19.211  42.951  1.00  0.00     0.042 A 
ATOM     12  C   UNL A   1      46.569  18.342  41.189  1.00  0.00     0.019 A 
ATOM     13  O   UNL A   1      45.151  18.077  39.291  1.00  0.00    -0.475 OA
ATOM     14  Cl  UNL A   1      44.993  20.254  44.299  1.00  0.00    -0.084 Cl
ATOM     15  C   UNL A   1      46.447  19.118  42.337  1.00  0.00     0.032 A 
ATOM     16  C   UNL A   1      47.797  18.401  40.367  1.00  0.00     0.027 C 
ATOM     17  C   UNL A   1      46.323  18.499  38.470  1.00  0.00     0.316 C 
BRANCH   8  18
ATOM     18  C   UNL A   1      43.973  16.034  41.953  1.00  0.00    -0.015 A 
ATOM     19  C   UNL A   1      42.800  13.745  43.293  1.00  0.00    -0.048 A 
ATOM     20  C   UNL A   1      42.235  14.282  42.129  1.00  0.00     0.004 A 
ATOM     21  C   UNL A   1      43.996  14.318  43.739  1.00  0.00     0.004 A 
ATOM     22  C   UNL A   1      42.816  15.388  41.469  1.00  0.00     0.009 A 
ATOM     23  C   UNL A   1      44.570  15.435  43.082  1.00  0.00     0.009 A 
BRANCH  19  24
ATOM     24  C   UNL A   1      42.171  12.536  43.968  1.00  0.00     0.038 C 
BRANCH  24  25
ATOM     25  C   UNL A   1      42.905  11.173  43.874  1.00  0.00    -0.013 C 
ATOM     26  C   UNL A   1      43.492  10.721  45.212  1.00  0.00     0.008 C 
ATOM     27  C   UNL A   1      41.932  10.086  43.381  1.00  0.00     0.008 C 
ENDBRANCH  24  25
ENDBRANCH  19  24
ENDBRANCH   8  18
BRANCH  17  28
ATOM     28  C   UNL A   1      46.027  19.204  37.125  1.00  0.00     0.430 C 
ATOM     29  F   UNL A   1      47.187  19.303  36.416  1.00  0.00    -0.167 F 
ATOM     30  F   UNL A   1      45.173  18.489  36.358  1.00  0.00    -0.167 F 
ATOM     31  F   UNL A   1      45.529  20.449  37.225  1.00  0.00    -0.167 F 
ENDBRANCH  17  28
ENDBRANCH   5   7
ENDBRANCH   4   5
ENDBRANCH   3   4
ENDBRANCH   2   3
ENDBRANCH   1   2
BRANCH   1  32
ATOM     32  C   UNL A   1      49.397  24.420  37.684  1.00  0.00     0.202 C 
BRANCH  32  33
ATOM     33  C   UNL A   1      49.163  25.799  38.309  1.00  0.00     0.261 C 
BRANCH  33  34
ATOM     34  O   UNL A   1      47.847  26.318  38.074  1.00  0.00    -0.460 OA
BRANCH  34  35
ATOM     35  C   UNL A   1      47.783  27.661  37.922  1.00  0.00     0.338 C 
ATOM     36  O   UNL A   1      48.590  28.496  38.314  1.00  0.00    -0.246 OA
BRANCH  35  37
ATOM     37  C   UNL A   1      46.642  27.997  37.061  1.00  0.00     0.060 A 
ATOM     38  C   UNL A   1      46.757  29.077  36.176  1.00  0.00     0.016 A 
ATOM     39  C   UNL A   1      45.442  27.301  37.194  1.00  0.00     0.016 A 
ATOM     40  C   UNL A   1      45.650  29.486  35.434  1.00  0.00     0.010 A 
ATOM     41  C   UNL A   1      44.334  27.718  36.459  1.00  0.00     0.010 A 
ATOM     42  C   UNL A   1      44.425  28.829  35.601  1.00  0.00    -0.014 A 
BRANCH  42  43
ATOM     43  C   UNL A   1      43.180  29.377  35.018  1.00  0.00     0.031 A 
ATOM     44  C   UNL A   1      42.761  28.899  33.657  1.00  0.00     0.074 A 
ATOM     45  C   UNL A   1      42.472  30.320  35.664  1.00  0.00     0.049 A 
ATOM     46  N   UNL A   1      41.845  29.371  32.856  1.00  0.00    -0.248 NA
ATOM     47  C   UNL A   1      43.491  27.736  33.121  1.00  0.00     0.031 C 
ATOM     48  C   UNL A   1      42.755  30.816  37.011  1.00  0.00     0.029 A 
ATOM     49  N   UNL A   1      41.387  31.052  35.257  1.00  0.00    -0.354 N 
ATOM     50  C   UNL A   1      41.898  28.578  31.715  1.00  0.00     0.074 A 
ATOM     51  C   UNL A   1      42.955  27.612  31.916  1.00  0.00     0.031 C 
ATOM     52  C   UNL A   1      41.880  31.792  37.308  1.00  0.00     0.029 A 
ATOM     53  C   UNL A   1      41.012  32.023  36.155  1.00  0.00     0.049 A 
ATOM     54  H   UNL A   1      40.920  30.897  34.404  1.00  0.00     0.167 HD
ATOM     55  C   UNL A   1      41.128  28.652  30.605  1.00  0.00     0.037 A 
ATOM     56  C   UNL A   1      40.101  33.010  36.037  1.00  0.00     0.037 A 
ATOM     57  C   UNL A   1      40.083  29.625  30.422  1.00  0.00     0.049 A 
ATOM     58  C   UNL A   1      39.318  33.131  34.752  1.00  0.00     0.074 A 
ATOM     59  C   UNL A   1      39.246  29.795  29.335  1.00  0.00     0.029 A 
ATOM     60  N   UNL A   1      39.735  30.593  31.354  1.00  0.00    -0.354 N 
ATOM     61  N   UNL A   1      39.378  32.385  33.674  1.00  0.00    -0.248 NA
ATOM     62  C   UNL A   1      38.344  34.229  34.665  1.00  0.00     0.031 C 
ATOM     63  C   UNL A   1      38.425  30.898  29.588  1.00  0.00     0.029 A 
ATOM     64  C   UNL A   1      38.705  31.373  30.860  1.00  0.00     0.049 A 
ATOM     65  H   UNL A   1      40.159  30.708  32.235  1.00  0.00     0.167 HD
ATOM     66  C   UNL A   1      38.417  32.891  32.805  1.00  0.00     0.074 A 
ATOM     67  C   UNL A   1      37.795  34.012  33.478  1.00  0.00     0.031 C 
ATOM     68  C   UNL A   1      38.073  32.462  31.565  1.00  0.00     0.037 A 
BRANCH  55  69
ATOM     69  C   UNL A   1      41.401  27.672  29.497  1.00  0.00     0.058 A 
ATOM     70  C   UNL A   1      42.568  27.741  28.719  1.00  0.00     0.135 A 
ATOM     71  C   UNL A   1      40.501  26.626  29.231  1.00  0.00     0.135 A 
ATOM     72  F   UNL A   1      43.453  28.732  28.915  1.00  0.00    -0.206 F 
ATOM     73  C   UNL A   1      42.822  26.826  27.703  1.00  0.00     0.059 A 
ATOM     74  C   UNL A   1      40.750  25.680  28.241  1.00  0.00     0.059 A 
ATOM     75  F   UNL A   1      39.367  26.513  29.940  1.00  0.00    -0.206 F 
ATOM     76  C   UNL A   1      41.908  25.796  27.474  1.00  0.00     0.060 A 
BRANCH  76  77
ATOM     77  S   UNL A   1      42.260  24.610  26.160  1.00  0.00     0.124 S 
ATOM     78  O   UNL A   1      43.600  24.159  26.525  1.00  0.00    -0.237 OA
ATOM     79  O   UNL A   1      41.193  23.629  26.334  1.00  0.00    -0.237 OA
ATOM     80  O   UNL A   1      42.179  25.412  24.945  1.00  0.00    -0.744 OA
ENDBRANCH  76  77
ENDBRANCH  55  69
BRANCH  56  81
ATOM     81  C   UNL A   1      39.886  33.971  37.152  1.00  0.00     0.058 A 
ATOM     82  C   UNL A   1      40.717  35.090  37.308  1.00  0.00     0.135 A 
ATOM     83  C   UNL A   1      38.858  33.787  38.092  1.00  0.00     0.135 A 
ATOM     84  F   UNL A   1      41.718  35.307  36.441  1.00  0.00    -0.206 F 
ATOM     85  C   UNL A   1      40.558  35.977  38.368  1.00  0.00     0.059 A 
ATOM     86  C   UNL A   1      38.661  34.676  39.145  1.00  0.00     0.059 A 
ATOM     87  F   UNL A   1      38.026  32.740  37.984  1.00  0.00    -0.206 F 
ATOM     88  C   UNL A   1      39.525  35.760  39.283  1.00  0.00     0.060 A 
BRANCH  88  89
ATOM     89  S   UNL A   1      39.317  36.930  40.641  1.00  0.00     0.124 S 
ATOM     90  O   UNL A   1      40.682  37.050  41.138  1.00  0.00    -0.237 OA
ATOM     91  O   UNL A   1      38.781  38.102  39.957  1.00  0.00    -0.237 OA
ATOM     92  O   UNL A   1      38.379  36.250  41.531  1.00  0.00    -0.744 OA
ENDBRANCH  88  89
ENDBRANCH  56  81
BRANCH  68  93
ATOM     93  C   UNL A   1      36.919  33.139  30.878  1.00  0.00     0.058 A 
ATOM     94  C   UNL A   1      37.109  34.073  29.848  1.00  0.00     0.135 A 
ATOM     95  C   UNL A   1      35.602  32.761  31.188  1.00  0.00     0.135 A 
ATOM     96  F   UNL A   1      38.346  34.475  29.517  1.00  0.00    -0.206 F 
ATOM     97  C   UNL A   1      36.030  34.612  29.152  1.00  0.00     0.059 A 
ATOM     98  C   UNL A   1      34.512  33.265  30.486  1.00  0.00     0.059 A 
ATOM     99  F   UNL A   1      35.367  31.864  32.159  1.00  0.00    -0.206 F 
ATOM    100  C   UNL A   1      34.737  34.192  29.470  1.00  0.00     0.060 A 
BRANCH 100 101
ATOM    101  S   UNL A   1      33.355  34.838  28.503  1.00  0.00     0.124 S 
ATOM    102  O   UNL A   1      34.024  35.812  27.647  1.00  0.00    -0.237 OA
ATOM    103  O   UNL A   1      32.859  33.640  27.832  1.00  0.00    -0.237 OA
ATOM    104  O   UNL A   1      32.464  35.398  29.515  1.00  0.00    -0.744 OA
ENDBRANCH 100 101
ENDBRANCH  68  93
ENDBRANCH  42  43
ENDBRANCH  35  37
ENDBRANCH  34  35
ENDBRANCH  33  34
ENDBRANCH  32  33
ENDBRANCH   1  32
TORSDOF 21
ENDMDL
