MODEL 1
REMARK VINA RESULT:     -10.9      0.000      0.000
REMARK SMILES C[C@@H](C(=O)OCCOCCOC(=O)c1ccc(-c2c3nc(c(-c4c(F)cc(S(=O)(=O)[O-])cc4F)c4ccc([nH]4)c(-c4c(F)cc(S(=O)(=O)[O-])cc4F)c4nc(c(-c5c(F)cc(S(=O)(=O)[O-])cc5F)c5ccc2[nH]5)C=C4)C=C3)cc1)c1cc(/C=C/S(C)(=O)=O)cc(C(=O)c2ccccc2)c1
REMARK SMILES IDX 8 1 7 2 6 3 5 4 3 5 4 6 2 7 1 8 80 9 81 10 99 11 82 12 90 13
REMARK SMILES IDX 89 14 83 15 84 16 85 17 86 18 87 19 88 20 91 21 92 22 93 23
REMARK SMILES IDX 94 24 98 25 95 26 97 27 96 28 9 29 10 30 11 31 12 32 13 33
REMARK SMILES IDX 14 34 15 35 79 36 16 37 78 38 17 39 18 40 19 41 72 42 20 43
REMARK SMILES IDX 77 44 71 45 73 46 21 47 76 48 70 49 69 50 22 52 56 53 35 54
REMARK SMILES IDX 55 55 36 56 39 57 54 58 74 59 37 60 38 61 53 63 75 64 40 65
REMARK SMILES IDX 23 66 24 67 33 68 25 69 26 70 32 71 34 72 27 73 28 74 29 75
REMARK SMILES IDX 30 76 31 77 57 78 58 79 67 80 59 81 60 82 66 83 68 84 61 85
REMARK SMILES IDX 62 86 63 87 64 88 65 89 41 90 42 91 51 92 43 93 44 94 50 95
REMARK SMILES IDX 52 96 45 97 46 98 47 99 48 100 49 101
REMARK H PARENT 73 51 39 62
REMARK Flexibility Score: inf
ROOT
ATOM      1  O   UNL A   1      35.052  21.800  25.232  1.00  0.00    -0.374 OA
ENDROOT
BRANCH   1   2
ATOM      2  C   UNL A   1      34.843  22.387  23.944  1.00  0.00     0.202 C 
BRANCH   2   3
ATOM      3  C   UNL A   1      34.641  23.907  23.906  1.00  0.00     0.261 C 
BRANCH   3   4
ATOM      4  O   UNL A   1      34.423  24.351  22.552  1.00  0.00    -0.463 OA
BRANCH   4   5
ATOM      5  C   UNL A   1      33.495  25.329  22.376  1.00  0.00     0.313 C 
ATOM      6  O   UNL A   1      33.600  26.249  21.575  1.00  0.00    -0.252 OA
BRANCH   5   7
ATOM      7  C   UNL A   1      32.285  25.144  23.296  1.00  0.00     0.126 C 
ATOM      8  C   UNL A   1      31.049  24.490  22.668  1.00  0.00     0.025 C 
BRANCH   7   9
ATOM      9  C   UNL A   1      31.875  26.451  23.976  1.00  0.00    -0.033 A 
ATOM     10  C   UNL A   1      30.984  27.299  23.308  1.00  0.00     0.012 A 
ATOM     11  C   UNL A   1      32.359  26.849  25.234  1.00  0.00     0.016 A 
ATOM     12  C   UNL A   1      30.587  28.528  23.853  1.00  0.00    -0.024 A 
ATOM     13  C   UNL A   1      31.962  28.059  25.815  1.00  0.00     0.023 A 
ATOM     14  C   UNL A   1      31.071  28.889  25.119  1.00  0.00     0.020 A 
BRANCH  12  15
ATOM     15  C   UNL A   1      29.701  29.456  23.127  1.00  0.00     0.020 C 
ATOM     16  C   UNL A   1      29.431  30.705  23.540  1.00  0.00     0.106 C 
BRANCH  16  17
ATOM     17  S   UNL A   1      28.270  31.686  22.711  1.00  0.00     0.168 S 
ATOM     18  C   UNL A   1      28.051  30.734  21.226  1.00  0.00     0.163 C 
ATOM     19  O   UNL A   1      27.019  31.634  23.443  1.00  0.00    -0.225 OA
ATOM     20  O   UNL A   1      28.853  32.957  22.327  1.00  0.00    -0.225 OA
ENDBRANCH  16  17
ENDBRANCH  12  15
BRANCH  13  21
ATOM     21  C   UNL A   1      32.414  28.481  27.176  1.00  0.00     0.193 C 
ATOM     22  O   UNL A   1      31.859  28.034  28.177  1.00  0.00    -0.289 OA
BRANCH  21  23
ATOM     23  C   UNL A   1      33.539  29.421  27.376  1.00  0.00     0.022 A 
ATOM     24  C   UNL A   1      33.255  30.775  27.586  1.00  0.00     0.012 A 
ATOM     25  C   UNL A   1      34.865  28.984  27.292  1.00  0.00     0.012 A 
ATOM     26  C   UNL A   1      34.299  31.686  27.761  1.00  0.00     0.001 A 
ATOM     27  C   UNL A   1      35.905  29.905  27.446  1.00  0.00     0.001 A 
ATOM     28  C   UNL A   1      35.622  31.250  27.696  1.00  0.00     0.000 A 
ENDBRANCH  21  23
ENDBRANCH  13  21
ENDBRANCH   7   9
ENDBRANCH   5   7
ENDBRANCH   4   5
ENDBRANCH   3   4
ENDBRANCH   2   3
ENDBRANCH   1   2
BRANCH   1  29
ATOM     29  C   UNL A   1      36.272  21.098  25.427  1.00  0.00     0.202 C 
BRANCH  29  30
ATOM     30  C   UNL A   1      37.565  21.751  24.938  1.00  0.00     0.261 C 
BRANCH  30  31
ATOM     31  O   UNL A   1      37.904  22.905  25.705  1.00  0.00    -0.460 OA
BRANCH  31  32
ATOM     32  C   UNL A   1      39.063  22.763  26.388  1.00  0.00     0.338 C 
ATOM     33  O   UNL A   1      39.768  21.765  26.457  1.00  0.00    -0.246 OA
BRANCH  32  34
ATOM     34  C   UNL A   1      39.479  24.071  26.904  1.00  0.00     0.060 A 
ATOM     35  C   UNL A   1      39.995  24.980  25.975  1.00  0.00     0.016 A 
ATOM     36  C   UNL A   1      39.396  24.386  28.261  1.00  0.00     0.016 A 
ATOM     37  C   UNL A   1      40.492  26.198  26.411  1.00  0.00     0.010 A 
ATOM     38  C   UNL A   1      39.905  25.609  28.699  1.00  0.00     0.010 A 
ATOM     39  C   UNL A   1      40.491  26.496  27.779  1.00  0.00    -0.014 A 
BRANCH  39  40
ATOM     40  C   UNL A   1      41.263  27.661  28.255  1.00  0.00     0.031 A 
ATOM     41  C   UNL A   1      40.516  28.815  28.861  1.00  0.00     0.074 A 
ATOM     42  C   UNL A   1      42.605  27.658  28.190  1.00  0.00     0.049 A 
ATOM     43  N   UNL A   1      40.977  29.942  29.334  1.00  0.00    -0.248 NA
ATOM     44  C   UNL A   1      39.051  28.682  28.943  1.00  0.00     0.031 C 
ATOM     45  C   UNL A   1      43.421  26.564  27.662  1.00  0.00     0.029 A 
ATOM     46  N   UNL A   1      43.516  28.605  28.572  1.00  0.00    -0.354 N 
ATOM     47  C   UNL A   1      39.863  30.656  29.759  1.00  0.00     0.074 A 
ATOM     48  C   UNL A   1      38.701  29.849  29.462  1.00  0.00     0.031 C 
ATOM     49  C   UNL A   1      44.717  26.908  27.750  1.00  0.00     0.029 A 
ATOM     50  C   UNL A   1      44.817  28.254  28.307  1.00  0.00     0.049 A 
ATOM     51  H   UNL A   1      43.264  29.457  28.996  1.00  0.00     0.167 HD
ATOM     52  C   UNL A   1      39.819  31.871  30.351  1.00  0.00     0.037 A 
ATOM     53  C   UNL A   1      45.955  28.955  28.479  1.00  0.00     0.037 A 
ATOM     54  C   UNL A   1      40.989  32.656  30.644  1.00  0.00     0.049 A 
ATOM     55  C   UNL A   1      45.874  30.332  29.082  1.00  0.00     0.074 A 
ATOM     56  C   UNL A   1      41.064  33.891  31.261  1.00  0.00     0.029 A 
ATOM     57  N   UNL A   1      42.290  32.285  30.331  1.00  0.00    -0.354 N 
ATOM     58  N   UNL A   1      44.818  30.989  29.501  1.00  0.00    -0.248 NA
ATOM     59  C   UNL A   1      47.138  31.064  29.239  1.00  0.00     0.031 C 
ATOM     60  C   UNL A   1      42.404  34.293  31.270  1.00  0.00     0.029 A 
ATOM     61  C   UNL A   1      43.172  33.280  30.714  1.00  0.00     0.049 A 
ATOM     62  H   UNL A   1      42.546  31.438  29.898  1.00  0.00     0.167 HD
ATOM     63  C   UNL A   1      45.294  32.198  30.000  1.00  0.00     0.074 A 
ATOM     64  C   UNL A   1      46.733  32.175  29.837  1.00  0.00     0.031 C 
ATOM     65  C   UNL A   1      44.604  33.232  30.545  1.00  0.00     0.037 A 
BRANCH  52  66
ATOM     66  C   UNL A   1      38.468  32.438  30.687  1.00  0.00     0.058 A 
ATOM     67  C   UNL A   1      37.835  32.180  31.913  1.00  0.00     0.135 A 
ATOM     68  C   UNL A   1      37.806  33.278  29.775  1.00  0.00     0.135 A 
ATOM     69  F   UNL A   1      38.410  31.367  32.814  1.00  0.00    -0.206 F 
ATOM     70  C   UNL A   1      36.585  32.713  32.214  1.00  0.00     0.059 A 
ATOM     71  C   UNL A   1      36.570  33.845  30.067  1.00  0.00     0.059 A 
ATOM     72  F   UNL A   1      38.363  33.552  28.585  1.00  0.00    -0.206 F 
ATOM     73  C   UNL A   1      35.961  33.546  31.284  1.00  0.00     0.060 A 
BRANCH  73  74
ATOM     74  S   UNL A   1      34.343  34.237  31.691  1.00  0.00     0.124 S 
ATOM     75  O   UNL A   1      33.719  34.312  30.374  1.00  0.00    -0.237 OA
ATOM     76  O   UNL A   1      33.796  33.233  32.597  1.00  0.00    -0.237 OA
ATOM     77  O   UNL A   1      34.667  35.521  32.306  1.00  0.00    -0.744 OA
ENDBRANCH  73  74
ENDBRANCH  52  66
BRANCH  53  78
ATOM     78  C   UNL A   1      47.258  28.368  28.070  1.00  0.00     0.058 A 
ATOM     79  C   UNL A   1      48.054  27.660  28.982  1.00  0.00     0.135 A 
ATOM     80  C   UNL A   1      47.730  28.494  26.753  1.00  0.00     0.135 A 
ATOM     81  F   UNL A   1      47.651  27.518  30.254  1.00  0.00    -0.206 F 
ATOM     82  C   UNL A   1      49.277  27.112  28.610  1.00  0.00     0.059 A 
ATOM     83  C   UNL A   1      48.936  27.933  26.350  1.00  0.00     0.059 A 
ATOM     84  F   UNL A   1      47.000  29.150  25.837  1.00  0.00    -0.206 F 
ATOM     85  C   UNL A   1      49.708  27.251  27.290  1.00  0.00     0.060 A 
BRANCH  85  86
ATOM     86  S   UNL A   1      51.274  26.494  26.806  1.00  0.00     0.124 S 
ATOM     87  O   UNL A   1      51.476  27.060  25.478  1.00  0.00    -0.237 OA
ATOM     88  O   UNL A   1      52.177  26.968  27.849  1.00  0.00    -0.237 OA
ATOM     89  O   UNL A   1      50.980  25.064  26.845  1.00  0.00    -0.744 OA
ENDBRANCH  85  86
ENDBRANCH  53  78
BRANCH  65  90
ATOM     90  C   UNL A   1      45.400  34.408  31.041  1.00  0.00     0.058 A 
ATOM     91  C   UNL A   1      45.915  34.456  32.345  1.00  0.00     0.135 A 
ATOM     92  C   UNL A   1      45.697  35.475  30.177  1.00  0.00     0.135 A 
ATOM     93  F   UNL A   1      45.656  33.465  33.212  1.00  0.00    -0.206 F 
ATOM     94  C   UNL A   1      46.677  35.534  32.785  1.00  0.00     0.059 A 
ATOM     95  C   UNL A   1      46.484  36.547  30.585  1.00  0.00     0.059 A 
ATOM     96  F   UNL A   1      45.239  35.472  28.915  1.00  0.00    -0.206 F 
ATOM     97  C   UNL A   1      46.959  36.573  31.895  1.00  0.00     0.060 A 
BRANCH  97  98
ATOM     98  S   UNL A   1      47.976  37.949  32.469  1.00  0.00     0.124 S 
ATOM     99  O   UNL A   1      49.224  37.273  32.803  1.00  0.00    -0.237 OA
ATOM    100  O   UNL A   1      48.017  38.817  31.296  1.00  0.00    -0.237 OA
ATOM    101  O   UNL A   1      47.224  38.477  33.604  1.00  0.00    -0.744 OA
ENDBRANCH  97  98
ENDBRANCH  65  90
ENDBRANCH  39  40
ENDBRANCH  32  34
ENDBRANCH  31  32
ENDBRANCH  30  31
ENDBRANCH  29  30
ENDBRANCH   1  29
TORSDOF 22
ENDMDL
MODEL 2
REMARK VINA RESULT:     -10.5      5.313      8.038
REMARK SMILES C[C@@H](C(=O)OCCOCCOC(=O)c1ccc(-c2c3nc(c(-c4c(F)cc(S(=O)(=O)[O-])cc4F)c4ccc([nH]4)c(-c4c(F)cc(S(=O)(=O)[O-])cc4F)c4nc(c(-c5c(F)cc(S(=O)(=O)[O-])cc5F)c5ccc2[nH]5)C=C4)C=C3)cc1)c1cc(/C=C/S(C)(=O)=O)cc(C(=O)c2ccccc2)c1
REMARK SMILES IDX 8 1 7 2 6 3 5 4 3 5 4 6 2 7 1 8 80 9 81 10 99 11 82 12 90 13
REMARK SMILES IDX 89 14 83 15 84 16 85 17 86 18 87 19 88 20 91 21 92 22 93 23
REMARK SMILES IDX 94 24 98 25 95 26 97 27 96 28 9 29 10 30 11 31 12 32 13 33
REMARK SMILES IDX 14 34 15 35 79 36 16 37 78 38 17 39 18 40 19 41 72 42 20 43
REMARK SMILES IDX 77 44 71 45 73 46 21 47 76 48 70 49 69 50 22 52 56 53 35 54
REMARK SMILES IDX 55 55 36 56 39 57 54 58 74 59 37 60 38 61 53 63 75 64 40 65
REMARK SMILES IDX 23 66 24 67 33 68 25 69 26 70 32 71 34 72 27 73 28 74 29 75
REMARK SMILES IDX 30 76 31 77 57 78 58 79 67 80 59 81 60 82 66 83 68 84 61 85
REMARK SMILES IDX 62 86 63 87 64 88 65 89 41 90 42 91 51 92 43 93 44 94 50 95
REMARK SMILES IDX 52 96 45 97 46 98 47 99 48 100 49 101
REMARK H PARENT 73 51 39 62
REMARK Flexibility Score: inf
ROOT
ATOM      1  O   UNL A   1      42.434  21.764  25.297  1.00  0.00    -0.374 OA
ENDROOT
BRANCH   1   2
ATOM      2  C   UNL A   1      41.433  22.082  26.269  1.00  0.00     0.202 C 
BRANCH   2   3
ATOM      3  C   UNL A   1      40.178  21.203  26.277  1.00  0.00     0.261 C 
BRANCH   3   4
ATOM      4  O   UNL A   1      38.991  22.021  26.288  1.00  0.00    -0.463 OA
BRANCH   4   5
ATOM      5  C   UNL A   1      38.043  21.727  25.359  1.00  0.00     0.313 C 
ATOM      6  O   UNL A   1      38.010  20.691  24.705  1.00  0.00    -0.252 OA
BRANCH   5   7
ATOM      7  C   UNL A   1      37.003  22.842  25.226  1.00  0.00     0.126 C 
ATOM      8  C   UNL A   1      37.229  24.087  26.091  1.00  0.00     0.025 C 
BRANCH   7   9
ATOM      9  C   UNL A   1      35.578  22.329  25.442  1.00  0.00    -0.033 A 
ATOM     10  C   UNL A   1      35.322  20.968  25.244  1.00  0.00     0.012 A 
ATOM     11  C   UNL A   1      34.509  23.161  25.818  1.00  0.00     0.016 A 
ATOM     12  C   UNL A   1      34.037  20.429  25.392  1.00  0.00    -0.024 A 
ATOM     13  C   UNL A   1      33.219  22.649  25.996  1.00  0.00     0.023 A 
ATOM     14  C   UNL A   1      32.994  21.281  25.787  1.00  0.00     0.020 A 
BRANCH  12  15
ATOM     15  C   UNL A   1      33.746  19.010  25.122  1.00  0.00     0.020 C 
ATOM     16  C   UNL A   1      34.589  18.185  24.482  1.00  0.00     0.106 C 
BRANCH  16  17
ATOM     17  S   UNL A   1      34.119  16.569  24.075  1.00  0.00     0.168 S 
ATOM     18  C   UNL A   1      32.536  16.487  24.881  1.00  0.00     0.163 C 
ATOM     19  O   UNL A   1      33.878  16.507  22.646  1.00  0.00    -0.225 OA
ATOM     20  O   UNL A   1      34.984  15.604  24.725  1.00  0.00    -0.225 OA
ENDBRANCH  16  17
ENDBRANCH  12  15
BRANCH  13  21
ATOM     21  C   UNL A   1      32.076  23.498  26.453  1.00  0.00     0.193 C 
ATOM     22  O   UNL A   1      31.715  23.469  27.626  1.00  0.00    -0.289 OA
BRANCH  21  23
ATOM     23  C   UNL A   1      31.355  24.407  25.535  1.00  0.00     0.022 A 
ATOM     24  C   UNL A   1      30.960  23.923  24.282  1.00  0.00     0.012 A 
ATOM     25  C   UNL A   1      31.129  25.744  25.877  1.00  0.00     0.012 A 
ATOM     26  C   UNL A   1      30.293  24.766  23.390  1.00  0.00     0.001 A 
ATOM     27  C   UNL A   1      30.480  26.588  24.970  1.00  0.00     0.001 A 
ATOM     28  C   UNL A   1      30.049  26.095  23.736  1.00  0.00     0.000 A 
ENDBRANCH  21  23
ENDBRANCH  13  21
ENDBRANCH   7   9
ENDBRANCH   5   7
ENDBRANCH   4   5
ENDBRANCH   3   4
ENDBRANCH   2   3
ENDBRANCH   1   2
BRANCH   1  29
ATOM     29  C   UNL A   1      43.531  22.660  25.189  1.00  0.00     0.202 C 
BRANCH  29  30
ATOM     30  C   UNL A   1      43.232  24.139  24.939  1.00  0.00     0.261 C 
BRANCH  30  31
ATOM     31  O   UNL A   1      43.170  24.883  26.155  1.00  0.00    -0.460 OA
BRANCH  31  32
ATOM     32  C   UNL A   1      42.525  26.065  26.018  1.00  0.00     0.338 C 
ATOM     33  O   UNL A   1      41.885  26.455  25.050  1.00  0.00    -0.246 OA
BRANCH  32  34
ATOM     34  C   UNL A   1      42.534  26.768  27.304  1.00  0.00     0.060 A 
ATOM     35  C   UNL A   1      41.782  26.201  28.339  1.00  0.00     0.016 A 
ATOM     36  C   UNL A   1      43.232  27.964  27.483  1.00  0.00     0.016 A 
ATOM     37  C   UNL A   1      41.673  26.865  29.550  1.00  0.00     0.010 A 
ATOM     38  C   UNL A   1      43.114  28.634  28.701  1.00  0.00     0.010 A 
ATOM     39  C   UNL A   1      42.300  28.105  29.718  1.00  0.00    -0.014 A 
BRANCH  39  40
ATOM     40  C   UNL A   1      41.957  28.923  30.899  1.00  0.00     0.031 A 
ATOM     41  C   UNL A   1      40.741  29.803  30.831  1.00  0.00     0.074 A 
ATOM     42  C   UNL A   1      42.691  28.834  32.021  1.00  0.00     0.049 A 
ATOM     43  N   UNL A   1      40.254  30.611  31.734  1.00  0.00    -0.248 NA
ATOM     44  C   UNL A   1      39.972  29.768  29.575  1.00  0.00     0.031 C 
ATOM     45  C   UNL A   1      43.860  27.973  32.198  1.00  0.00     0.029 A 
ATOM     46  N   UNL A   1      42.559  29.477  33.222  1.00  0.00    -0.354 N 
ATOM     47  C   UNL A   1      39.131  31.189  31.155  1.00  0.00     0.074 A 
ATOM     48  C   UNL A   1      39.024  30.662  29.813  1.00  0.00     0.031 C 
ATOM     49  C   UNL A   1      44.343  28.147  33.440  1.00  0.00     0.029 A 
ATOM     50  C   UNL A   1      43.538  29.153  34.129  1.00  0.00     0.049 A 
ATOM     51  H   UNL A   1      41.832  30.112  33.418  1.00  0.00     0.167 HD
ATOM     52  C   UNL A   1      38.265  32.073  31.700  1.00  0.00     0.037 A 
ATOM     53  C   UNL A   1      43.765  29.633  35.367  1.00  0.00     0.037 A 
ATOM     54  C   UNL A   1      38.385  32.581  33.041  1.00  0.00     0.049 A 
ATOM     55  C   UNL A   1      42.823  30.665  35.929  1.00  0.00     0.074 A 
ATOM     56  C   UNL A   1      37.553  33.464  33.705  1.00  0.00     0.029 A 
ATOM     57  N   UNL A   1      39.409  32.257  33.921  1.00  0.00    -0.354 N 
ATOM     58  N   UNL A   1      41.751  31.188  35.381  1.00  0.00    -0.248 NA
ATOM     59  C   UNL A   1      43.117  31.170  37.277  1.00  0.00     0.031 C 
ATOM     60  C   UNL A   1      38.104  33.718  34.965  1.00  0.00     0.029 A 
ATOM     61  C   UNL A   1      39.247  32.946  35.111  1.00  0.00     0.049 A 
ATOM     62  H   UNL A   1      40.143  31.631  33.726  1.00  0.00     0.167 HD
ATOM     63  C   UNL A   1      41.226  32.061  36.329  1.00  0.00     0.074 A 
ATOM     64  C   UNL A   1      42.094  31.986  37.487  1.00  0.00     0.031 C 
ATOM     65  C   UNL A   1      40.124  32.850  36.252  1.00  0.00     0.037 A 
BRANCH  52  66
ATOM     66  C   UNL A   1      37.137  32.572  30.839  1.00  0.00     0.058 A 
ATOM     67  C   UNL A   1      37.286  33.669  29.977  1.00  0.00     0.135 A 
ATOM     68  C   UNL A   1      35.892  31.921  30.858  1.00  0.00     0.135 A 
ATOM     69  F   UNL A   1      38.447  34.343  29.933  1.00  0.00    -0.206 F 
ATOM     70  C   UNL A   1      36.236  34.119  29.182  1.00  0.00     0.059 A 
ATOM     71  C   UNL A   1      34.837  32.335  30.051  1.00  0.00     0.059 A 
ATOM     72  F   UNL A   1      35.692  30.870  31.669  1.00  0.00    -0.206 F 
ATOM     73  C   UNL A   1      35.015  33.443  29.226  1.00  0.00     0.060 A 
BRANCH  73  74
ATOM     74  S   UNL A   1      33.664  34.034  28.183  1.00  0.00     0.124 S 
ATOM     75  O   UNL A   1      34.382  34.858  27.216  1.00  0.00    -0.237 OA
ATOM     76  O   UNL A   1      33.104  32.790  27.666  1.00  0.00    -0.237 OA
ATOM     77  O   UNL A   1      32.809  34.763  29.116  1.00  0.00    -0.744 OA
ENDBRANCH  73  74
ENDBRANCH  52  66
BRANCH  53  78
ATOM     78  C   UNL A   1      44.934  29.150  36.149  1.00  0.00     0.058 A 
ATOM     79  C   UNL A   1      46.185  29.772  36.043  1.00  0.00     0.135 A 
ATOM     80  C   UNL A   1      44.818  28.060  37.026  1.00  0.00     0.135 A 
ATOM     81  F   UNL A   1      46.349  30.813  35.213  1.00  0.00    -0.206 F 
ATOM     82  C   UNL A   1      47.286  29.323  36.767  1.00  0.00     0.059 A 
ATOM     83  C   UNL A   1      45.896  27.609  37.780  1.00  0.00     0.059 A 
ATOM     84  F   UNL A   1      43.638  27.437  37.175  1.00  0.00    -0.206 F 
ATOM     85  C   UNL A   1      47.130  28.242  37.636  1.00  0.00     0.060 A 
BRANCH  85  86
ATOM     86  S   UNL A   1      48.552  27.699  38.606  1.00  0.00     0.124 S 
ATOM     87  O   UNL A   1      48.944  28.935  39.271  1.00  0.00    -0.237 OA
ATOM     88  O   UNL A   1      47.964  26.671  39.458  1.00  0.00    -0.237 OA
ATOM     89  O   UNL A   1      49.480  27.206  37.591  1.00  0.00    -0.744 OA
ENDBRANCH  85  86
ENDBRANCH  53  78
BRANCH  65  90
ATOM     90  C   UNL A   1      39.773  33.667  37.466  1.00  0.00     0.058 A 
ATOM     91  C   UNL A   1      38.862  33.208  38.428  1.00  0.00     0.135 A 
ATOM     92  C   UNL A   1      40.405  34.901  37.693  1.00  0.00     0.135 A 
ATOM     93  F   UNL A   1      38.227  32.038  38.256  1.00  0.00    -0.206 F 
ATOM     94  C   UNL A   1      38.567  33.957  39.563  1.00  0.00     0.059 A 
ATOM     95  C   UNL A   1      40.150  35.652  38.837  1.00  0.00     0.059 A 
ATOM     96  F   UNL A   1      41.295  35.380  36.810  1.00  0.00    -0.206 F 
ATOM     97  C   UNL A   1      39.220  35.177  39.760  1.00  0.00     0.060 A 
BRANCH  97  98
ATOM     98  S   UNL A   1      38.853  36.122  41.253  1.00  0.00     0.124 S 
ATOM     99  O   UNL A   1      40.079  35.943  42.023  1.00  0.00    -0.237 OA
ATOM    100  O   UNL A   1      38.625  37.463  40.724  1.00  0.00    -0.237 OA
ATOM    101  O   UNL A   1      37.670  35.458  41.792  1.00  0.00    -0.744 OA
ENDBRANCH  97  98
ENDBRANCH  65  90
ENDBRANCH  39  40
ENDBRANCH  32  34
ENDBRANCH  31  32
ENDBRANCH  30  31
ENDBRANCH  29  30
ENDBRANCH   1  29
TORSDOF 22
ENDMDL
MODEL 3
REMARK VINA RESULT:     -10.1      2.885      8.867
REMARK SMILES C[C@@H](C(=O)OCCOCCOC(=O)c1ccc(-c2c3nc(c(-c4c(F)cc(S(=O)(=O)[O-])cc4F)c4ccc([nH]4)c(-c4c(F)cc(S(=O)(=O)[O-])cc4F)c4nc(c(-c5c(F)cc(S(=O)(=O)[O-])cc5F)c5ccc2[nH]5)C=C4)C=C3)cc1)c1cc(/C=C/S(C)(=O)=O)cc(C(=O)c2ccccc2)c1
REMARK SMILES IDX 8 1 7 2 6 3 5 4 3 5 4 6 2 7 1 8 80 9 81 10 99 11 82 12 90 13
REMARK SMILES IDX 89 14 83 15 84 16 85 17 86 18 87 19 88 20 91 21 92 22 93 23
REMARK SMILES IDX 94 24 98 25 95 26 97 27 96 28 9 29 10 30 11 31 12 32 13 33
REMARK SMILES IDX 14 34 15 35 79 36 16 37 78 38 17 39 18 40 19 41 72 42 20 43
REMARK SMILES IDX 77 44 71 45 73 46 21 47 76 48 70 49 69 50 22 52 56 53 35 54
REMARK SMILES IDX 55 55 36 56 39 57 54 58 74 59 37 60 38 61 53 63 75 64 40 65
REMARK SMILES IDX 23 66 24 67 33 68 25 69 26 70 32 71 34 72 27 73 28 74 29 75
REMARK SMILES IDX 30 76 31 77 57 78 58 79 67 80 59 81 60 82 66 83 68 84 61 85
REMARK SMILES IDX 62 86 63 87 64 88 65 89 41 90 42 91 51 92 43 93 44 94 50 95
REMARK SMILES IDX 52 96 45 97 46 98 47 99 48 100 49 101
REMARK H PARENT 73 51 39 62
REMARK Flexibility Score: inf
ROOT
ATOM      1  O   UNL A   1      33.909  33.720  30.062  1.00  0.00    -0.374 OA
ENDROOT
BRANCH   1   2
ATOM      2  C   UNL A   1      34.441  33.988  28.760  1.00  0.00     0.202 C 
BRANCH   2   3
ATOM      3  C   UNL A   1      34.031  33.026  27.639  1.00  0.00     0.261 C 
BRANCH   3   4
ATOM      4  O   UNL A   1      33.425  31.840  28.190  1.00  0.00    -0.463 OA
BRANCH   4   5
ATOM      5  C   UNL A   1      32.817  31.003  27.307  1.00  0.00     0.313 C 
ATOM      6  O   UNL A   1      31.869  31.314  26.596  1.00  0.00    -0.252 OA
BRANCH   5   7
ATOM      7  C   UNL A   1      33.463  29.616  27.292  1.00  0.00     0.126 C 
ATOM      8  C   UNL A   1      34.991  29.580  27.178  1.00  0.00     0.025 C 
BRANCH   7   9
ATOM      9  C   UNL A   1      32.855  28.710  26.220  1.00  0.00    -0.033 A 
ATOM     10  C   UNL A   1      31.810  29.211  25.437  1.00  0.00     0.012 A 
ATOM     11  C   UNL A   1      33.287  27.392  25.992  1.00  0.00     0.016 A 
ATOM     12  C   UNL A   1      31.182  28.431  24.457  1.00  0.00    -0.024 A 
ATOM     13  C   UNL A   1      32.696  26.595  25.005  1.00  0.00     0.023 A 
ATOM     14  C   UNL A   1      31.648  27.126  24.239  1.00  0.00     0.020 A 
BRANCH  12  15
ATOM     15  C   UNL A   1      30.038  28.929  23.673  1.00  0.00     0.020 C 
ATOM     16  C   UNL A   1      29.770  30.231  23.491  1.00  0.00     0.106 C 
BRANCH  16  17
ATOM     17  S   UNL A   1      28.328  30.740  22.678  1.00  0.00     0.168 S 
ATOM     18  C   UNL A   1      28.712  32.451  22.389  1.00  0.00     0.163 C 
ATOM     19  O   UNL A   1      28.275  30.086  21.385  1.00  0.00    -0.225 OA
ATOM     20  O   UNL A   1      27.191  30.700  23.578  1.00  0.00    -0.225 OA
ENDBRANCH  16  17
ENDBRANCH  12  15
BRANCH  13  21
ATOM     21  C   UNL A   1      33.172  25.211  24.700  1.00  0.00     0.193 C 
ATOM     22  O   UNL A   1      33.523  24.916  23.560  1.00  0.00    -0.289 OA
BRANCH  21  23
ATOM     23  C   UNL A   1      33.260  24.162  25.738  1.00  0.00     0.022 A 
ATOM     24  C   UNL A   1      32.080  23.552  26.180  1.00  0.00     0.012 A 
ATOM     25  C   UNL A   1      34.487  23.826  26.320  1.00  0.00     0.012 A 
ATOM     26  C   UNL A   1      32.133  22.570  27.172  1.00  0.00     0.001 A 
ATOM     27  C   UNL A   1      34.530  22.858  27.328  1.00  0.00     0.001 A 
ATOM     28  C   UNL A   1      33.357  22.220  27.741  1.00  0.00     0.000 A 
ENDBRANCH  21  23
ENDBRANCH  13  21
ENDBRANCH   7   9
ENDBRANCH   5   7
ENDBRANCH   4   5
ENDBRANCH   3   4
ENDBRANCH   2   3
ENDBRANCH   1   2
BRANCH   1  29
ATOM     29  C   UNL A   1      34.492  32.644  30.784  1.00  0.00     0.202 C 
BRANCH  29  30
ATOM     30  C   UNL A   1      36.003  32.435  30.671  1.00  0.00     0.261 C 
BRANCH  30  31
ATOM     31  O   UNL A   1      36.329  31.349  29.805  1.00  0.00    -0.460 OA
BRANCH  31  32
ATOM     32  C   UNL A   1      36.874  30.297  30.459  1.00  0.00     0.338 C 
ATOM     33  O   UNL A   1      36.294  29.465  31.142  1.00  0.00    -0.246 OA
BRANCH  32  34
ATOM     34  C   UNL A   1      38.283  30.172  30.073  1.00  0.00     0.060 A 
ATOM     35  C   UNL A   1      38.556  30.073  28.704  1.00  0.00     0.016 A 
ATOM     36  C   UNL A   1      39.304  30.118  31.023  1.00  0.00     0.016 A 
ATOM     37  C   UNL A   1      39.856  29.859  28.278  1.00  0.00     0.010 A 
ATOM     38  C   UNL A   1      40.611  29.893  30.593  1.00  0.00     0.010 A 
ATOM     39  C   UNL A   1      40.880  29.721  29.223  1.00  0.00    -0.014 A 
BRANCH  39  40
ATOM     40  C   UNL A   1      42.198  29.225  28.779  1.00  0.00     0.031 A 
ATOM     41  C   UNL A   1      43.353  30.186  28.752  1.00  0.00     0.074 A 
ATOM     42  C   UNL A   1      42.362  27.931  28.458  1.00  0.00     0.049 A 
ATOM     43  N   UNL A   1      44.591  29.981  28.390  1.00  0.00    -0.248 NA
ATOM     44  C   UNL A   1      43.073  31.565  29.190  1.00  0.00     0.031 C 
ATOM     45  C   UNL A   1      41.312  26.913  28.498  1.00  0.00     0.029 A 
ATOM     46  N   UNL A   1      43.474  27.253  28.035  1.00  0.00    -0.354 N 
ATOM     47  C   UNL A   1      45.235  31.202  28.545  1.00  0.00     0.074 A 
ATOM     48  C   UNL A   1      44.246  32.151  29.006  1.00  0.00     0.031 C 
ATOM     49  C   UNL A   1      41.833  25.736  28.109  1.00  0.00     0.029 A 
ATOM     50  C   UNL A   1      43.238  25.928  27.762  1.00  0.00     0.049 A 
ATOM     51  H   UNL A   1      44.358  27.675  27.936  1.00  0.00     0.167 HD
ATOM     52  C   UNL A   1      46.537  31.499  28.330  1.00  0.00     0.037 A 
ATOM     53  C   UNL A   1      44.066  24.986  27.268  1.00  0.00     0.037 A 
ATOM     54  C   UNL A   1      47.508  30.539  27.876  1.00  0.00     0.049 A 
ATOM     55  C   UNL A   1      45.495  25.357  26.976  1.00  0.00     0.074 A 
ATOM     56  C   UNL A   1      48.859  30.723  27.646  1.00  0.00     0.029 A 
ATOM     57  N   UNL A   1      47.228  29.212  27.577  1.00  0.00    -0.354 N 
ATOM     58  N   UNL A   1      46.100  26.509  27.147  1.00  0.00    -0.248 NA
ATOM     59  C   UNL A   1      46.357  24.302  26.426  1.00  0.00     0.031 C 
ATOM     60  C   UNL A   1      49.384  29.524  27.152  1.00  0.00     0.029 A 
ATOM     61  C   UNL A   1      48.374  28.574  27.134  1.00  0.00     0.049 A 
ATOM     62  H   UNL A   1      46.343  28.788  27.665  1.00  0.00     0.167 HD
ATOM     63  C   UNL A   1      47.420  26.309  26.756  1.00  0.00     0.074 A 
ATOM     64  C   UNL A   1      47.525  24.923  26.348  1.00  0.00     0.031 C 
ATOM     65  C   UNL A   1      48.453  27.189  26.738  1.00  0.00     0.037 A 
BRANCH  52  66
ATOM     66  C   UNL A   1      46.977  32.921  28.546  1.00  0.00     0.058 A 
ATOM     67  C   UNL A   1      46.943  33.877  27.518  1.00  0.00     0.135 A 
ATOM     68  C   UNL A   1      47.414  33.340  29.814  1.00  0.00     0.135 A 
ATOM     69  F   UNL A   1      46.555  33.527  26.281  1.00  0.00    -0.206 F 
ATOM     70  C   UNL A   1      47.349  35.190  27.732  1.00  0.00     0.059 A 
ATOM     71  C   UNL A   1      47.797  34.655  30.057  1.00  0.00     0.059 A 
ATOM     72  F   UNL A   1      47.473  32.467  30.831  1.00  0.00    -0.206 F 
ATOM     73  C   UNL A   1      47.774  35.570  29.007  1.00  0.00     0.060 A 
BRANCH  73  74
ATOM     74  S   UNL A   1      48.291  37.280  29.270  1.00  0.00     0.124 S 
ATOM     75  O   UNL A   1      47.733  37.552  30.592  1.00  0.00    -0.237 OA
ATOM     76  O   UNL A   1      49.745  37.179  29.204  1.00  0.00    -0.237 OA
ATOM     77  O   UNL A   1      47.665  37.999  28.165  1.00  0.00    -0.744 OA
ENDBRANCH  73  74
ENDBRANCH  52  66
BRANCH  53  78
ATOM     78  C   UNL A   1      43.559  23.611  27.014  1.00  0.00     0.058 A 
ATOM     79  C   UNL A   1      43.356  22.708  28.067  1.00  0.00     0.135 A 
ATOM     80  C   UNL A   1      43.258  23.178  25.714  1.00  0.00     0.135 A 
ATOM     81  F   UNL A   1      43.636  23.072  29.327  1.00  0.00    -0.206 F 
ATOM     82  C   UNL A   1      42.887  21.418  27.839  1.00  0.00     0.059 A 
ATOM     83  C   UNL A   1      42.763  21.902  25.463  1.00  0.00     0.059 A 
ATOM     84  F   UNL A   1      43.421  24.008  24.672  1.00  0.00    -0.206 F 
ATOM     85  C   UNL A   1      42.590  21.026  26.533  1.00  0.00     0.060 A 
BRANCH  85  86
ATOM     86  S   UNL A   1      41.936  19.366  26.255  1.00  0.00     0.124 S 
ATOM     87  O   UNL A   1      40.512  19.633  26.100  1.00  0.00    -0.237 OA
ATOM     88  O   UNL A   1      42.647  18.958  25.047  1.00  0.00    -0.237 OA
ATOM     89  O   UNL A   1      42.318  18.649  27.469  1.00  0.00    -0.744 OA
ENDBRANCH  85  86
ENDBRANCH  53  78
BRANCH  65  90
ATOM     90  C   UNL A   1      49.795  26.671  26.298  1.00  0.00     0.058 A 
ATOM     91  C   UNL A   1      50.254  26.826  24.982  1.00  0.00     0.135 A 
ATOM     92  C   UNL A   1      50.656  26.061  27.226  1.00  0.00     0.135 A 
ATOM     93  F   UNL A   1      49.469  27.397  24.055  1.00  0.00    -0.206 F 
ATOM     94  C   UNL A   1      51.510  26.371  24.593  1.00  0.00     0.059 A 
ATOM     95  C   UNL A   1      51.928  25.627  26.867  1.00  0.00     0.059 A 
ATOM     96  F   UNL A   1      50.271  25.899  28.503  1.00  0.00    -0.206 F 
ATOM     97  C   UNL A   1      52.341  25.776  25.545  1.00  0.00     0.060 A 
BRANCH  97  98
ATOM     98  S   UNL A   1      53.980  25.220  25.033  1.00  0.00     0.124 S 
ATOM     99  O   UNL A   1      54.805  25.671  26.149  1.00  0.00    -0.237 OA
ATOM    100  O   UNL A   1      53.798  23.776  24.921  1.00  0.00    -0.237 OA
ATOM    101  O   UNL A   1      54.196  25.919  23.770  1.00  0.00    -0.744 OA
ENDBRANCH  97  98
ENDBRANCH  65  90
ENDBRANCH  39  40
ENDBRANCH  32  34
ENDBRANCH  31  32
ENDBRANCH  30  31
ENDBRANCH  29  30
ENDBRANCH   1  29
TORSDOF 22
ENDMDL
