MODEL 1
REMARK VINA RESULT:     -10.7      0.000      0.000
REMARK SMILES O=C(CSc1nc(-c2cccc(F)c2)n[nH]1)OCCOCCOC(=O)c1ccc(-c2c3nc(c(-c4c(F)cc(S(=O)(=O)[O-])cc4F)c4ccc([nH]4)c(-c4c(F)cc(S(=O)(=O)[O-])cc4F)c4nc(c(-c5c(F)cc(S(=O)(=O)[O-])cc5F)c5ccc2[nH]5)C=C4)C=C3)cc1
REMARK SMILES IDX 20 1 19 2 18 3 17 4 2 5 1 6 3 7 4 8 5 9 6 10 16 11 7 12
REMARK SMILES IDX 15 13 8 15 9 16 14 17 10 18 12 19 11 20 13 21 21 22 22 23
REMARK SMILES IDX 23 24 24 25 25 26 26 27 27 28 91 29 28 30 90 31 29 32 30 33
REMARK SMILES IDX 31 34 84 35 32 36 89 37 83 38 85 39 33 40 88 41 82 42 81 43
REMARK SMILES IDX 34 45 68 46 47 47 67 48 48 49 51 50 66 51 86 52 49 53 50 54
REMARK SMILES IDX 65 56 87 57 52 58 35 59 36 60 45 61 37 62 38 63 44 64 46 65
REMARK SMILES IDX 39 66 40 67 41 68 42 69 43 70 69 71 70 72 79 73 71 74 72 75
REMARK SMILES IDX 78 76 80 77 73 78 74 79 75 80 76 81 77 82 53 83 54 84 63 85
REMARK SMILES IDX 55 86 56 87 62 88 64 89 57 90 58 91 59 92 60 93 61 94
REMARK H PARENT 16 14 85 44 51 55
REMARK Flexibility Score: inf
ROOT
ATOM      1  O   UNL A   1      45.584  22.418  26.447  1.00  0.00    -0.374 OA
ENDROOT
BRANCH   1   2
ATOM      2  C   UNL A   1      45.903  22.456  25.059  1.00  0.00     0.202 C 
BRANCH   2   3
ATOM      3  C   UNL A   1      46.374  21.144  24.446  1.00  0.00     0.261 C 
BRANCH   3   4
ATOM      4  O   UNL A   1      46.324  20.017  25.344  1.00  0.00    -0.463 OA
BRANCH   4   5
ATOM      5  C   UNL A   1      45.475  18.967  25.277  1.00  0.00     0.316 C 
ATOM      6  O   UNL A   1      45.940  17.829  25.361  1.00  0.00    -0.251 OA
BRANCH   5   7
ATOM      7  C   UNL A   1      43.988  19.166  25.133  1.00  0.00     0.200 C 
BRANCH   7   8
ATOM      8  S   UNL A   1      43.001  18.304  26.363  1.00  0.00    -0.075 SA
BRANCH   8   9
ATOM      9  C   UNL A   1      41.901  19.533  26.814  1.00  0.00     0.184 A 
ATOM     10  N   UNL A   1      40.900  19.927  26.082  1.00  0.00    -0.201 NA
ATOM     11  N   UNL A   1      41.981  20.279  27.949  1.00  0.00    -0.254 N 
ATOM     12  C   UNL A   1      40.408  20.990  26.791  1.00  0.00     0.182 A 
ATOM     13  N   UNL A   1      41.033  21.231  27.953  1.00  0.00    -0.153 NA
ATOM     14  H   UNL A   1      42.642  20.141  28.666  1.00  0.00     0.192 HD
BRANCH  12  15
ATOM     15  C   UNL A   1      39.362  21.807  26.223  1.00  0.00     0.024 A 
ATOM     16  C   UNL A   1      39.256  23.152  26.613  1.00  0.00     0.012 A 
ATOM     17  C   UNL A   1      38.398  21.241  25.389  1.00  0.00     0.051 A 
ATOM     18  C   UNL A   1      38.182  23.925  26.184  1.00  0.00     0.004 A 
ATOM     19  C   UNL A   1      37.324  22.017  24.982  1.00  0.00     0.123 A 
ATOM     20  C   UNL A   1      37.206  23.349  25.373  1.00  0.00     0.039 A 
ATOM     21  F   UNL A   1      36.367  21.469  24.221  1.00  0.00    -0.207 F 
ENDBRANCH  12  15
ENDBRANCH   8   9
ENDBRANCH   7   8
ENDBRANCH   5   7
ENDBRANCH   4   5
ENDBRANCH   3   4
ENDBRANCH   2   3
ENDBRANCH   1   2
BRANCH   1  22
ATOM     22  C   UNL A   1      44.250  22.816  26.790  1.00  0.00     0.202 C 
BRANCH  22  23
ATOM     23  C   UNL A   1      43.275  22.983  25.622  1.00  0.00     0.261 C 
BRANCH  23  24
ATOM     24  O   UNL A   1      42.399  24.099  25.829  1.00  0.00    -0.460 OA
BRANCH  24  25
ATOM     25  C   UNL A   1      43.024  25.298  25.890  1.00  0.00     0.338 C 
ATOM     26  O   UNL A   1      43.874  25.720  25.117  1.00  0.00    -0.246 OA
BRANCH  25  27
ATOM     27  C   UNL A   1      42.374  26.146  26.907  1.00  0.00     0.060 A 
ATOM     28  C   UNL A   1      42.826  27.467  27.020  1.00  0.00     0.016 A 
ATOM     29  C   UNL A   1      41.362  25.665  27.744  1.00  0.00     0.016 A 
ATOM     30  C   UNL A   1      42.330  28.284  28.028  1.00  0.00     0.010 A 
ATOM     31  C   UNL A   1      40.865  26.489  28.756  1.00  0.00     0.010 A 
ATOM     32  C   UNL A   1      41.386  27.782  28.932  1.00  0.00    -0.014 A 
BRANCH  32  33
ATOM     33  C   UNL A   1      41.086  28.567  30.152  1.00  0.00     0.031 A 
ATOM     34  C   UNL A   1      41.972  28.398  31.357  1.00  0.00     0.074 A 
ATOM     35  C   UNL A   1      40.098  29.480  30.143  1.00  0.00     0.049 A 
ATOM     36  N   UNL A   1      41.931  29.019  32.505  1.00  0.00    -0.248 NA
ATOM     37  C   UNL A   1      43.050  27.397  31.255  1.00  0.00     0.031 C 
ATOM     38  C   UNL A   1      39.209  29.747  29.011  1.00  0.00     0.029 A 
ATOM     39  N   UNL A   1      39.690  30.363  31.107  1.00  0.00    -0.354 N 
ATOM     40  C   UNL A   1      42.976  28.493  33.257  1.00  0.00     0.074 A 
ATOM     41  C   UNL A   1      43.608  27.472  32.455  1.00  0.00     0.031 C 
ATOM     42  C   UNL A   1      38.370  30.742  29.343  1.00  0.00     0.029 A 
ATOM     43  C   UNL A   1      38.641  31.160  30.715  1.00  0.00     0.049 A 
ATOM     44  H   UNL A   1      40.109  30.421  31.996  1.00  0.00     0.167 HD
ATOM     45  C   UNL A   1      43.380  28.848  34.499  1.00  0.00     0.037 A 
ATOM     46  C   UNL A   1      37.974  32.114  31.395  1.00  0.00     0.037 A 
ATOM     47  C   UNL A   1      42.748  29.879  35.283  1.00  0.00     0.049 A 
ATOM     48  C   UNL A   1      38.407  32.443  32.800  1.00  0.00     0.074 A 
ATOM     49  C   UNL A   1      43.088  30.325  36.547  1.00  0.00     0.029 A 
ATOM     50  N   UNL A   1      41.650  30.622  34.877  1.00  0.00    -0.354 N 
ATOM     51  N   UNL A   1      39.406  31.947  33.492  1.00  0.00    -0.248 NA
ATOM     52  C   UNL A   1      37.626  33.461  33.514  1.00  0.00     0.031 C 
ATOM     53  C   UNL A   1      42.163  31.301  36.928  1.00  0.00     0.029 A 
ATOM     54  C   UNL A   1      41.281  31.505  35.879  1.00  0.00     0.049 A 
ATOM     55  H   UNL A   1      41.199  30.535  34.006  1.00  0.00     0.167 HD
ATOM     56  C   UNL A   1      39.381  32.605  34.718  1.00  0.00     0.074 A 
ATOM     57  C   UNL A   1      38.289  33.554  34.658  1.00  0.00     0.031 C 
ATOM     58  C   UNL A   1      40.182  32.435  35.800  1.00  0.00     0.037 A 
BRANCH  45  59
ATOM     59  C   UNL A   1      44.557  28.130  35.098  1.00  0.00     0.058 A 
ATOM     60  C   UNL A   1      45.865  28.577  34.850  1.00  0.00     0.135 A 
ATOM     61  C   UNL A   1      44.400  26.944  35.834  1.00  0.00     0.135 A 
ATOM     62  F   UNL A   1      46.072  29.713  34.164  1.00  0.00    -0.206 F 
ATOM     63  C   UNL A   1      46.975  27.855  35.273  1.00  0.00     0.059 A 
ATOM     64  C   UNL A   1      45.497  26.218  36.290  1.00  0.00     0.059 A 
ATOM     65  F   UNL A   1      43.172  26.487  36.125  1.00  0.00    -0.206 F 
ATOM     66  C   UNL A   1      46.780  26.670  35.985  1.00  0.00     0.060 A 
BRANCH  66  67
ATOM     67  S   UNL A   1      48.233  25.733  36.505  1.00  0.00     0.124 S 
ATOM     68  O   UNL A   1      48.456  24.861  35.358  1.00  0.00    -0.237 OA
ATOM     69  O   UNL A   1      49.220  26.790  36.706  1.00  0.00    -0.237 OA
ATOM     70  O   UNL A   1      47.787  25.065  37.726  1.00  0.00    -0.744 OA
ENDBRANCH  66  67
ENDBRANCH  45  59
BRANCH  46  71
ATOM     71  C   UNL A   1      36.835  32.827  30.757  1.00  0.00     0.058 A 
ATOM     72  C   UNL A   1      37.047  33.935  29.921  1.00  0.00     0.135 A 
ATOM     73  C   UNL A   1      35.510  32.416  30.970  1.00  0.00     0.135 A 
ATOM     74  F   UNL A   1      38.294  34.375  29.689  1.00  0.00    -0.206 F 
ATOM     75  C   UNL A   1      35.990  34.621  29.336  1.00  0.00     0.059 A 
ATOM     76  C   UNL A   1      34.436  33.067  30.370  1.00  0.00     0.059 A 
ATOM     77  F   UNL A   1      35.255  31.356  31.751  1.00  0.00    -0.206 F 
ATOM     78  C   UNL A   1      34.686  34.179  29.566  1.00  0.00     0.060 A 
BRANCH  78  79
ATOM     79  S   UNL A   1      33.330  35.079  28.788  1.00  0.00     0.124 S 
ATOM     80  O   UNL A   1      32.708  34.030  27.984  1.00  0.00    -0.237 OA
ATOM     81  O   UNL A   1      32.562  35.532  29.944  1.00  0.00    -0.237 OA
ATOM     82  O   UNL A   1      34.009  36.129  28.036  1.00  0.00    -0.744 OA
ENDBRANCH  78  79
ENDBRANCH  46  71
BRANCH  58  83
ATOM     83  C   UNL A   1      39.907  33.295  37.003  1.00  0.00     0.058 A 
ATOM     84  C   UNL A   1      38.968  32.897  37.969  1.00  0.00     0.135 A 
ATOM     85  C   UNL A   1      40.545  34.534  37.180  1.00  0.00     0.135 A 
ATOM     86  F   UNL A   1      38.319  31.729  37.843  1.00  0.00    -0.206 F 
ATOM     87  C   UNL A   1      38.673  33.697  39.067  1.00  0.00     0.059 A 
ATOM     88  C   UNL A   1      40.290  35.333  38.290  1.00  0.00     0.059 A 
ATOM     89  F   UNL A   1      41.454  34.957  36.288  1.00  0.00    -0.206 F 
ATOM     90  C   UNL A   1      39.343  34.911  39.222  1.00  0.00     0.060 A 
BRANCH  90  91
ATOM     91  S   UNL A   1      38.993  35.906  40.688  1.00  0.00     0.124 S 
ATOM     92  O   UNL A   1      37.800  35.252  41.215  1.00  0.00    -0.237 OA
ATOM     93  O   UNL A   1      40.211  35.736  41.473  1.00  0.00    -0.237 OA
ATOM     94  O   UNL A   1      38.788  37.246  40.145  1.00  0.00    -0.744 OA
ENDBRANCH  90  91
ENDBRANCH  58  83
ENDBRANCH  32  33
ENDBRANCH  25  27
ENDBRANCH  24  25
ENDBRANCH  23  24
ENDBRANCH  22  23
ENDBRANCH   1  22
TORSDOF 20
ENDMDL
MODEL 2
REMARK VINA RESULT:     -10.5      2.201      3.386
REMARK SMILES O=C(CSc1nc(-c2cccc(F)c2)n[nH]1)OCCOCCOC(=O)c1ccc(-c2c3nc(c(-c4c(F)cc(S(=O)(=O)[O-])cc4F)c4ccc([nH]4)c(-c4c(F)cc(S(=O)(=O)[O-])cc4F)c4nc(c(-c5c(F)cc(S(=O)(=O)[O-])cc5F)c5ccc2[nH]5)C=C4)C=C3)cc1
REMARK SMILES IDX 20 1 19 2 18 3 17 4 2 5 1 6 3 7 4 8 5 9 6 10 16 11 7 12
REMARK SMILES IDX 15 13 8 15 9 16 14 17 10 18 12 19 11 20 13 21 21 22 22 23
REMARK SMILES IDX 23 24 24 25 25 26 26 27 27 28 91 29 28 30 90 31 29 32 30 33
REMARK SMILES IDX 31 34 84 35 32 36 89 37 83 38 85 39 33 40 88 41 82 42 81 43
REMARK SMILES IDX 34 45 68 46 47 47 67 48 48 49 51 50 66 51 86 52 49 53 50 54
REMARK SMILES IDX 65 56 87 57 52 58 35 59 36 60 45 61 37 62 38 63 44 64 46 65
REMARK SMILES IDX 39 66 40 67 41 68 42 69 43 70 69 71 70 72 79 73 71 74 72 75
REMARK SMILES IDX 78 76 80 77 73 78 74 79 75 80 76 81 77 82 53 83 54 84 63 85
REMARK SMILES IDX 55 86 56 87 62 88 64 89 57 90 58 91 59 92 60 93 61 94
REMARK H PARENT 16 14 85 44 51 55
REMARK Flexibility Score: inf
ROOT
ATOM      1  O   UNL A   1      41.696  20.710  25.752  1.00  0.00    -0.374 OA
ENDROOT
BRANCH   1   2
ATOM      2  C   UNL A   1      41.689  19.705  26.760  1.00  0.00     0.202 C 
BRANCH   2   3
ATOM      3  C   UNL A   1      42.479  18.440  26.447  1.00  0.00     0.261 C 
BRANCH   3   4
ATOM      4  O   UNL A   1      43.148  18.459  25.170  1.00  0.00    -0.463 OA
BRANCH   4   5
ATOM      5  C   UNL A   1      44.473  18.609  24.953  1.00  0.00     0.316 C 
ATOM      6  O   UNL A   1      45.259  17.935  25.620  1.00  0.00    -0.251 OA
BRANCH   5   7
ATOM      7  C   UNL A   1      44.995  19.556  23.902  1.00  0.00     0.200 C 
BRANCH   7   8
ATOM      8  S   UNL A   1      46.617  20.243  24.261  1.00  0.00    -0.075 SA
BRANCH   8   9
ATOM      9  C   UNL A   1      46.209  21.863  24.623  1.00  0.00     0.184 A 
ATOM     10  N   UNL A   1      46.378  22.420  25.786  1.00  0.00    -0.201 NA
ATOM     11  N   UNL A   1      45.607  22.731  23.765  1.00  0.00    -0.254 N 
ATOM     12  C   UNL A   1      45.795  23.648  25.620  1.00  0.00     0.182 A 
ATOM     13  N   UNL A   1      45.322  23.887  24.388  1.00  0.00    -0.153 NA
ATOM     14  H   UNL A   1      45.408  22.538  22.820  1.00  0.00     0.192 HD
BRANCH  12  15
ATOM     15  C   UNL A   1      45.642  24.528  26.755  1.00  0.00     0.024 A 
ATOM     16  C   UNL A   1      45.378  23.976  28.018  1.00  0.00     0.012 A 
ATOM     17  C   UNL A   1      45.639  25.911  26.580  1.00  0.00     0.051 A 
ATOM     18  C   UNL A   1      45.095  24.803  29.101  1.00  0.00     0.004 A 
ATOM     19  C   UNL A   1      45.340  26.724  27.662  1.00  0.00     0.123 A 
ATOM     20  C   UNL A   1      45.066  26.184  28.917  1.00  0.00     0.039 A 
ATOM     21  F   UNL A   1      45.287  28.052  27.493  1.00  0.00    -0.207 F 
ENDBRANCH  12  15
ENDBRANCH   8   9
ENDBRANCH   7   8
ENDBRANCH   5   7
ENDBRANCH   4   5
ENDBRANCH   3   4
ENDBRANCH   2   3
ENDBRANCH   1   2
BRANCH   1  22
ATOM     22  C   UNL A   1      42.616  21.791  25.956  1.00  0.00     0.202 C 
BRANCH  22  23
ATOM     23  C   UNL A   1      42.277  22.758  27.094  1.00  0.00     0.261 C 
BRANCH  23  24
ATOM     24  O   UNL A   1      41.296  23.721  26.685  1.00  0.00    -0.460 OA
BRANCH  24  25
ATOM     25  C   UNL A   1      41.796  24.946  26.405  1.00  0.00     0.338 C 
ATOM     26  O   UNL A   1      42.439  25.265  25.412  1.00  0.00    -0.246 OA
BRANCH  25  27
ATOM     27  C   UNL A   1      41.267  25.931  27.367  1.00  0.00     0.060 A 
ATOM     28  C   UNL A   1      41.885  27.188  27.399  1.00  0.00     0.016 A 
ATOM     29  C   UNL A   1      40.206  25.637  28.228  1.00  0.00     0.016 A 
ATOM     30  C   UNL A   1      41.505  28.123  28.353  1.00  0.00     0.010 A 
ATOM     31  C   UNL A   1      39.825  26.579  29.187  1.00  0.00     0.010 A 
ATOM     32  C   UNL A   1      40.508  27.802  29.285  1.00  0.00    -0.014 A 
BRANCH  32  33
ATOM     33  C   UNL A   1      40.318  28.693  30.453  1.00  0.00     0.031 A 
ATOM     34  C   UNL A   1      41.241  28.544  31.633  1.00  0.00     0.074 A 
ATOM     35  C   UNL A   1      39.400  29.674  30.413  1.00  0.00     0.049 A 
ATOM     36  N   UNL A   1      41.295  29.247  32.733  1.00  0.00    -0.248 NA
ATOM     37  C   UNL A   1      42.239  27.461  31.565  1.00  0.00     0.031 C 
ATOM     38  C   UNL A   1      38.484  29.926  29.299  1.00  0.00     0.029 A 
ATOM     39  N   UNL A   1      39.098  30.652  31.324  1.00  0.00    -0.354 N 
ATOM     40  C   UNL A   1      42.330  28.699  33.482  1.00  0.00     0.074 A 
ATOM     41  C   UNL A   1      42.852  27.579  32.735  1.00  0.00     0.031 C 
ATOM     42  C   UNL A   1      37.734  31.002  29.587  1.00  0.00     0.029 A 
ATOM     43  C   UNL A   1      38.094  31.495  30.914  1.00  0.00     0.049 A 
ATOM     44  H   UNL A   1      39.558  30.742  32.190  1.00  0.00     0.167 HD
ATOM     45  C   UNL A   1      42.812  29.111  34.678  1.00  0.00     0.037 A 
ATOM     46  C   UNL A   1      37.527  32.543  31.545  1.00  0.00     0.037 A 
ATOM     47  C   UNL A   1      42.291  30.239  35.406  1.00  0.00     0.049 A 
ATOM     48  C   UNL A   1      38.043  32.938  32.905  1.00  0.00     0.074 A 
ATOM     49  C   UNL A   1      42.716  30.748  36.620  1.00  0.00     0.029 A 
ATOM     50  N   UNL A   1      41.232  31.032  34.987  1.00  0.00    -0.354 N 
ATOM     51  N   UNL A   1      39.032  32.419  33.594  1.00  0.00    -0.248 NA
ATOM     52  C   UNL A   1      37.368  34.060  33.570  1.00  0.00     0.031 C 
ATOM     53  C   UNL A   1      41.880  31.815  36.962  1.00  0.00     0.029 A 
ATOM     54  C   UNL A   1      40.971  32.009  35.934  1.00  0.00     0.049 A 
ATOM     55  H   UNL A   1      40.739  30.917  34.143  1.00  0.00     0.167 HD
ATOM     56  C   UNL A   1      39.108  33.163  34.767  1.00  0.00     0.074 A 
ATOM     57  C   UNL A   1      38.085  34.185  34.678  1.00  0.00     0.031 C 
ATOM     58  C   UNL A   1      39.940  33.011  35.828  1.00  0.00     0.037 A 
BRANCH  45  59
ATOM     59  C   UNL A   1      43.959  28.351  35.284  1.00  0.00     0.058 A 
ATOM     60  C   UNL A   1      43.719  27.303  36.187  1.00  0.00     0.135 A 
ATOM     61  C   UNL A   1      45.293  28.721  35.051  1.00  0.00     0.135 A 
ATOM     62  F   UNL A   1      42.463  26.898  36.435  1.00  0.00    -0.206 F 
ATOM     63  C   UNL A   1      44.757  26.676  36.868  1.00  0.00     0.059 A 
ATOM     64  C   UNL A   1      46.350  28.091  35.702  1.00  0.00     0.059 A 
ATOM     65  F   UNL A   1      45.581  29.697  34.175  1.00  0.00    -0.206 F 
ATOM     66  C   UNL A   1      46.070  27.085  36.626  1.00  0.00     0.060 A 
BRANCH  66  67
ATOM     67  S   UNL A   1      47.402  26.276  37.537  1.00  0.00     0.124 S 
ATOM     68  O   UNL A   1      47.226  26.825  38.877  1.00  0.00    -0.237 OA
ATOM     69  O   UNL A   1      47.066  24.864  37.377  1.00  0.00    -0.237 OA
ATOM     70  O   UNL A   1      48.606  26.708  36.833  1.00  0.00    -0.744 OA
ENDBRANCH  66  67
ENDBRANCH  45  59
BRANCH  46  71
ATOM     71  C   UNL A   1      36.415  33.292  30.899  1.00  0.00     0.058 A 
ATOM     72  C   UNL A   1      36.651  34.145  29.810  1.00  0.00     0.135 A 
ATOM     73  C   UNL A   1      35.095  33.171  31.358  1.00  0.00     0.135 A 
ATOM     74  F   UNL A   1      37.897  34.304  29.335  1.00  0.00    -0.206 F 
ATOM     75  C   UNL A   1      35.624  34.866  29.211  1.00  0.00     0.059 A 
ATOM     76  C   UNL A   1      34.044  33.857  30.756  1.00  0.00     0.059 A 
ATOM     77  F   UNL A   1      34.816  32.359  32.389  1.00  0.00    -0.206 F 
ATOM     78  C   UNL A   1      34.322  34.714  29.691  1.00  0.00     0.060 A 
BRANCH  78  79
ATOM     79  S   UNL A   1      33.004  35.652  28.892  1.00  0.00     0.124 S 
ATOM     80  O   UNL A   1      32.379  34.625  28.064  1.00  0.00    -0.237 OA
ATOM     81  O   UNL A   1      32.220  36.110  30.035  1.00  0.00    -0.237 OA
ATOM     82  O   UNL A   1      33.723  36.694  28.167  1.00  0.00    -0.744 OA
ENDBRANCH  78  79
ENDBRANCH  46  71
BRANCH  58  83
ATOM     83  C   UNL A   1      39.780  33.973  36.973  1.00  0.00     0.058 A 
ATOM     84  C   UNL A   1      40.416  35.226  36.950  1.00  0.00     0.135 A 
ATOM     85  C   UNL A   1      39.028  33.640  38.112  1.00  0.00     0.135 A 
ATOM     86  F   UNL A   1      41.157  35.591  35.893  1.00  0.00    -0.206 F 
ATOM     87  C   UNL A   1      40.310  36.113  38.015  1.00  0.00     0.059 A 
ATOM     88  C   UNL A   1      38.882  34.527  39.173  1.00  0.00     0.059 A 
ATOM     89  F   UNL A   1      38.397  32.458  38.180  1.00  0.00    -0.206 F 
ATOM     90  C   UNL A   1      39.536  35.757  39.120  1.00  0.00     0.060 A 
BRANCH  90  91
ATOM     91  S   UNL A   1      39.359  36.948  40.466  1.00  0.00     0.124 S 
ATOM     92  O   UNL A   1      38.536  36.206  41.416  1.00  0.00    -0.237 OA
ATOM     93  O   UNL A   1      40.746  37.169  40.864  1.00  0.00    -0.237 OA
ATOM     94  O   UNL A   1      38.709  38.087  39.826  1.00  0.00    -0.744 OA
ENDBRANCH  90  91
ENDBRANCH  58  83
ENDBRANCH  32  33
ENDBRANCH  25  27
ENDBRANCH  24  25
ENDBRANCH  23  24
ENDBRANCH  22  23
ENDBRANCH   1  22
TORSDOF 20
ENDMDL
MODEL 3
REMARK VINA RESULT:     -10.0      5.799     13.584
REMARK SMILES O=C(CSc1nc(-c2cccc(F)c2)n[nH]1)OCCOCCOC(=O)c1ccc(-c2c3nc(c(-c4c(F)cc(S(=O)(=O)[O-])cc4F)c4ccc([nH]4)c(-c4c(F)cc(S(=O)(=O)[O-])cc4F)c4nc(c(-c5c(F)cc(S(=O)(=O)[O-])cc5F)c5ccc2[nH]5)C=C4)C=C3)cc1
REMARK SMILES IDX 20 1 19 2 18 3 17 4 2 5 1 6 3 7 4 8 5 9 6 10 16 11 7 12
REMARK SMILES IDX 15 13 8 15 9 16 14 17 10 18 12 19 11 20 13 21 21 22 22 23
REMARK SMILES IDX 23 24 24 25 25 26 26 27 27 28 91 29 28 30 90 31 29 32 30 33
REMARK SMILES IDX 31 34 84 35 32 36 89 37 83 38 85 39 33 40 88 41 82 42 81 43
REMARK SMILES IDX 34 45 68 46 47 47 67 48 48 49 51 50 66 51 86 52 49 53 50 54
REMARK SMILES IDX 65 56 87 57 52 58 35 59 36 60 45 61 37 62 38 63 44 64 46 65
REMARK SMILES IDX 39 66 40 67 41 68 42 69 43 70 69 71 70 72 79 73 71 74 72 75
REMARK SMILES IDX 78 76 80 77 73 78 74 79 75 80 76 81 77 82 53 83 54 84 63 85
REMARK SMILES IDX 55 86 56 87 62 88 64 89 57 90 58 91 59 92 60 93 61 94
REMARK H PARENT 16 14 85 44 51 55
REMARK Flexibility Score: inf
ROOT
ATOM      1  O   UNL A   1      33.737  34.087  32.169  1.00  0.00    -0.374 OA
ENDROOT
BRANCH   1   2
ATOM      2  C   UNL A   1      33.917  35.499  32.224  1.00  0.00     0.202 C 
BRANCH   2   3
ATOM      3  C   UNL A   1      32.680  36.342  31.943  1.00  0.00     0.261 C 
BRANCH   3   4
ATOM      4  O   UNL A   1      32.127  36.162  30.624  1.00  0.00    -0.463 OA
BRANCH   4   5
ATOM      5  C   UNL A   1      32.815  36.046  29.466  1.00  0.00     0.316 C 
ATOM      6  O   UNL A   1      33.147  37.074  28.873  1.00  0.00    -0.251 OA
BRANCH   5   7
ATOM      7  C   UNL A   1      33.202  34.698  28.914  1.00  0.00     0.200 C 
BRANCH   7   8
ATOM      8  S   UNL A   1      34.866  34.623  28.236  1.00  0.00    -0.075 SA
BRANCH   8   9
ATOM      9  C   UNL A   1      35.004  32.951  27.906  1.00  0.00     0.184 A 
ATOM     10  N   UNL A   1      34.059  32.225  27.386  1.00  0.00    -0.201 NA
ATOM     11  N   UNL A   1      36.085  32.180  28.204  1.00  0.00    -0.254 N 
ATOM     12  C   UNL A   1      34.586  30.962  27.437  1.00  0.00     0.182 A 
ATOM     13  N   UNL A   1      35.836  30.891  27.918  1.00  0.00    -0.153 NA
ATOM     14  H   UNL A   1      36.931  32.519  28.577  1.00  0.00     0.192 HD
BRANCH  12  15
ATOM     15  C   UNL A   1      33.766  29.828  27.082  1.00  0.00     0.024 A 
ATOM     16  C   UNL A   1      32.380  29.891  27.299  1.00  0.00     0.012 A 
ATOM     17  C   UNL A   1      34.353  28.643  26.639  1.00  0.00     0.051 A 
ATOM     18  C   UNL A   1      31.584  28.768  27.090  1.00  0.00     0.004 A 
ATOM     19  C   UNL A   1      33.552  27.527  26.451  1.00  0.00     0.123 A 
ATOM     20  C   UNL A   1      32.178  27.578  26.674  1.00  0.00     0.039 A 
ATOM     21  F   UNL A   1      34.113  26.371  26.073  1.00  0.00    -0.207 F 
ENDBRANCH  12  15
ENDBRANCH   8   9
ENDBRANCH   7   8
ENDBRANCH   5   7
ENDBRANCH   4   5
ENDBRANCH   3   4
ENDBRANCH   2   3
ENDBRANCH   1   2
BRANCH   1  22
ATOM     22  C   UNL A   1      34.837  33.301  32.645  1.00  0.00     0.202 C 
BRANCH  22  23
ATOM     23  C   UNL A   1      35.304  32.169  31.727  1.00  0.00     0.261 C 
BRANCH  23  24
ATOM     24  O   UNL A   1      36.702  32.282  31.427  1.00  0.00    -0.460 OA
BRANCH  24  25
ATOM     25  C   UNL A   1      37.506  31.529  32.214  1.00  0.00     0.338 C 
ATOM     26  O   UNL A   1      37.338  31.273  33.400  1.00  0.00    -0.246 OA
BRANCH  25  27
ATOM     27  C   UNL A   1      38.522  30.854  31.385  1.00  0.00     0.060 A 
ATOM     28  C   UNL A   1      39.456  30.050  32.049  1.00  0.00     0.016 A 
ATOM     29  C   UNL A   1      38.577  31.011  29.996  1.00  0.00     0.016 A 
ATOM     30  C   UNL A   1      40.502  29.472  31.340  1.00  0.00     0.010 A 
ATOM     31  C   UNL A   1      39.629  30.429  29.285  1.00  0.00     0.010 A 
ATOM     32  C   UNL A   1      40.622  29.703  29.964  1.00  0.00    -0.014 A 
BRANCH  32  33
ATOM     33  C   UNL A   1      41.882  29.317  29.288  1.00  0.00     0.031 A 
ATOM     34  C   UNL A   1      42.994  30.328  29.200  1.00  0.00     0.074 A 
ATOM     35  C   UNL A   1      42.057  28.058  28.850  1.00  0.00     0.049 A 
ATOM     36  N   UNL A   1      44.196  30.192  28.707  1.00  0.00    -0.248 NA
ATOM     37  C   UNL A   1      42.717  31.671  29.742  1.00  0.00     0.031 C 
ATOM     38  C   UNL A   1      41.055  26.993  28.925  1.00  0.00     0.029 A 
ATOM     39  N   UNL A   1      43.144  27.456  28.273  1.00  0.00    -0.354 N 
ATOM     40  C   UNL A   1      44.819  31.423  28.884  1.00  0.00     0.074 A 
ATOM     41  C   UNL A   1      43.851  32.308  29.490  1.00  0.00     0.031 C 
ATOM     42  C   UNL A   1      41.582  25.863  28.427  1.00  0.00     0.029 A 
ATOM     43  C   UNL A   1      42.944  26.130  27.972  1.00  0.00     0.049 A 
ATOM     44  H   UNL A   1      43.988  27.929  28.091  1.00  0.00     0.167 HD
ATOM     45  C   UNL A   1      46.091  31.772  28.583  1.00  0.00     0.037 A 
ATOM     46  C   UNL A   1      43.770  25.237  27.389  1.00  0.00     0.037 A 
ATOM     47  C   UNL A   1      47.049  30.875  27.991  1.00  0.00     0.049 A 
ATOM     48  C   UNL A   1      45.160  25.674  27.007  1.00  0.00     0.074 A 
ATOM     49  C   UNL A   1      48.368  31.126  27.659  1.00  0.00     0.029 A 
ATOM     50  N   UNL A   1      46.792  29.557  27.644  1.00  0.00    -0.354 N 
ATOM     51  N   UNL A   1      45.738  26.838  27.194  1.00  0.00    -0.248 NA
ATOM     52  C   UNL A   1      46.008  24.679  26.340  1.00  0.00     0.031 C 
ATOM     53  C   UNL A   1      48.894  29.976  27.062  1.00  0.00     0.029 A 
ATOM     54  C   UNL A   1      47.920  28.990  27.075  1.00  0.00     0.049 A 
ATOM     55  H   UNL A   1      45.935  29.093  27.783  1.00  0.00     0.167 HD
ATOM     56  C   UNL A   1      47.025  26.708  26.680  1.00  0.00     0.074 A 
ATOM     57  C   UNL A   1      47.147  25.345  26.205  1.00  0.00     0.031 C 
ATOM     58  C   UNL A   1      48.015  27.632  26.599  1.00  0.00     0.037 A 
BRANCH  45  59
ATOM     59  C   UNL A   1      46.535  33.177  28.885  1.00  0.00     0.058 A 
ATOM     60  C   UNL A   1      47.027  33.509  30.159  1.00  0.00     0.135 A 
ATOM     61  C   UNL A   1      46.380  34.215  27.953  1.00  0.00     0.135 A 
ATOM     62  F   UNL A   1      47.209  32.552  31.083  1.00  0.00    -0.206 F 
ATOM     63  C   UNL A   1      47.313  34.824  30.509  1.00  0.00     0.059 A 
ATOM     64  C   UNL A   1      46.684  35.535  28.273  1.00  0.00     0.059 A 
ATOM     65  F   UNL A   1      45.941  33.949  26.712  1.00  0.00    -0.206 F 
ATOM     66  C   UNL A   1      47.128  35.832  29.561  1.00  0.00     0.060 A 
BRANCH  66  67
ATOM     67  S   UNL A   1      47.481  37.536  30.042  1.00  0.00     0.124 S 
ATOM     68  O   UNL A   1      47.329  37.478  31.491  1.00  0.00    -0.237 OA
ATOM     69  O   UNL A   1      48.845  37.715  29.550  1.00  0.00    -0.237 OA
ATOM     70  O   UNL A   1      46.463  38.307  29.333  1.00  0.00    -0.744 OA
ENDBRANCH  66  67
ENDBRANCH  45  59
BRANCH  46  71
ATOM     71  C   UNL A   1      43.306  23.847  27.136  1.00  0.00     0.058 A 
ATOM     72  C   UNL A   1      42.845  23.454  25.868  1.00  0.00     0.135 A 
ATOM     73  C   UNL A   1      43.310  22.882  28.154  1.00  0.00     0.135 A 
ATOM     74  F   UNL A   1      42.812  24.339  24.859  1.00  0.00    -0.206 F 
ATOM     75  C   UNL A   1      42.390  22.164  25.625  1.00  0.00     0.059 A 
ATOM     76  C   UNL A   1      42.889  21.575  27.927  1.00  0.00     0.059 A 
ATOM     77  F   UNL A   1      43.752  23.204  29.379  1.00  0.00    -0.206 F 
ATOM     78  C   UNL A   1      42.416  21.230  26.662  1.00  0.00     0.060 A 
BRANCH  78  79
ATOM     79  S   UNL A   1      41.829  19.558  26.319  1.00  0.00     0.124 S 
ATOM     80  O   UNL A   1      42.249  18.851  27.526  1.00  0.00    -0.237 OA
ATOM     81  O   UNL A   1      40.392  19.764  26.172  1.00  0.00    -0.237 OA
ATOM     82  O   UNL A   1      42.539  19.195  25.097  1.00  0.00    -0.744 OA
ENDBRANCH  78  79
ENDBRANCH  46  71
BRANCH  58  83
ATOM     83  C   UNL A   1      49.314  27.198  25.977  1.00  0.00     0.058 A 
ATOM     84  C   UNL A   1      50.363  26.713  26.774  1.00  0.00     0.135 A 
ATOM     85  C   UNL A   1      49.534  27.299  24.593  1.00  0.00     0.135 A 
ATOM     86  F   UNL A   1      50.213  26.608  28.103  1.00  0.00    -0.206 F 
ATOM     87  C   UNL A   1      51.584  26.343  26.221  1.00  0.00     0.059 A 
ATOM     88  C   UNL A   1      50.736  26.902  24.015  1.00  0.00     0.059 A 
ATOM     89  F   UNL A   1      48.561  27.752  23.787  1.00  0.00    -0.206 F 
ATOM     90  C   UNL A   1      51.759  26.435  24.840  1.00  0.00     0.060 A 
BRANCH  90  91
ATOM     91  S   UNL A   1      53.328  25.891  24.133  1.00  0.00     0.124 S 
ATOM     92  O   UNL A   1      54.253  26.893  24.651  1.00  0.00    -0.237 OA
ATOM     93  O   UNL A   1      53.467  24.549  24.690  1.00  0.00    -0.237 OA
ATOM     94  O   UNL A   1      53.087  25.942  22.694  1.00  0.00    -0.744 OA
ENDBRANCH  90  91
ENDBRANCH  58  83
ENDBRANCH  32  33
ENDBRANCH  25  27
ENDBRANCH  24  25
ENDBRANCH  23  24
ENDBRANCH  22  23
ENDBRANCH   1  22
TORSDOF 20
ENDMDL
