MODEL 1
REMARK VINA RESULT:     -10.9      0.000      0.000
REMARK SMILES NS(=O)(=O)c1ccc(N2N=C(C(=O)OCCOCCOC(=O)c3ccc(-c4c5nc(c(-c6c(F)cc(S(=O)(=O)[O-])cc6F)c6ccc([nH]6)c(-c6c(F)cc(S(=O)(=O)[O-])cc6F)c6nc(c(-c7c(F)cc(S(=O)(=O)[O-])cc7F)c7ccc4[nH]7)C=C6)C=C5)cc3)C[C@H]2c2ccco2)cc1
REMARK SMILES IDX 17 1 16 2 15 3 14 4 12 5 13 6 11 7 9 8 10 9 90 10 89 11 8 12
REMARK SMILES IDX 5 13 6 14 97 15 7 16 96 17 2 18 3 19 4 20 1 21 91 24 92 25
REMARK SMILES IDX 95 26 93 27 94 28 18 29 19 30 20 31 21 32 22 33 23 34 24 35
REMARK SMILES IDX 88 36 25 37 87 38 26 39 27 40 28 41 81 42 29 43 86 44 80 45
REMARK SMILES IDX 82 46 30 47 85 48 79 49 78 50 31 52 65 53 44 54 64 55 45 56
REMARK SMILES IDX 48 57 63 58 83 59 46 60 47 61 62 63 84 64 49 65 32 66 33 67
REMARK SMILES IDX 42 68 34 69 35 70 41 71 43 72 36 73 37 74 38 75 39 76 40 77
REMARK SMILES IDX 66 78 67 79 76 80 68 81 69 82 75 83 77 84 70 85 71 86 72 87
REMARK SMILES IDX 73 88 74 89 50 90 51 91 60 92 52 93 53 94 59 95 61 96 54 97
REMARK SMILES IDX 55 98 56 99 57 100 58 101
REMARK H PARENT 1 22 1 23 82 51 48 62
REMARK Flexibility Score: inf
ROOT
ATOM      1  O   UNL A   1      41.377  20.991  25.969  1.00  0.00    -0.374 OA
ENDROOT
BRANCH   1   2
ATOM      2  C   UNL A   1      40.225  21.496  26.642  1.00  0.00     0.202 C 
BRANCH   2   3
ATOM      3  C   UNL A   1      38.876  21.281  25.951  1.00  0.00     0.261 C 
BRANCH   3   4
ATOM      4  O   UNL A   1      38.516  22.427  25.168  1.00  0.00    -0.459 OA
BRANCH   4   5
ATOM      5  C   UNL A   1      37.585  23.224  25.731  1.00  0.00     0.354 C 
ATOM      6  O   UNL A   1      37.656  23.848  26.772  1.00  0.00    -0.245 OA
BRANCH   5   7
ATOM      7  C   UNL A   1      36.437  23.388  24.771  1.00  0.00     0.148 C 
ATOM      8  N   UNL A   1      34.854  24.300  23.692  1.00  0.00    -0.254 N 
ATOM      9  N   UNL A   1      35.847  24.532  24.600  1.00  0.00    -0.169 NA
ATOM     10  C   UNL A   1      34.615  22.854  23.495  1.00  0.00     0.180 C 
ATOM     11  C   UNL A   1      35.988  22.277  23.882  1.00  0.00     0.101 C 
BRANCH   8  12
ATOM     12  C   UNL A   1      33.892  25.290  23.559  1.00  0.00     0.060 A 
ATOM     13  C   UNL A   1      32.015  27.350  23.189  1.00  0.00     0.082 A 
ATOM     14  C   UNL A   1      32.127  26.333  22.238  1.00  0.00     0.024 A 
ATOM     15  C   UNL A   1      32.848  27.365  24.306  1.00  0.00     0.024 A 
ATOM     16  C   UNL A   1      33.061  25.308  22.430  1.00  0.00     0.029 A 
ATOM     17  C   UNL A   1      33.791  26.347  24.472  1.00  0.00     0.029 A 
BRANCH  13  18
ATOM     18  S   UNL A   1      30.822  28.622  22.922  1.00  0.00     0.238 S 
ATOM     19  O   UNL A   1      30.685  29.382  24.141  1.00  0.00    -0.207 OA
ATOM     20  O   UNL A   1      29.689  28.061  22.221  1.00  0.00    -0.207 OA
BRANCH  18  21
ATOM     21  N   UNL A   1      31.546  29.668  21.821  1.00  0.00    -0.225 NA
ATOM     22  H   UNL A   1      30.883  29.893  21.080  1.00  0.00     0.137 HD
ATOM     23  H   UNL A   1      32.369  29.220  21.417  1.00  0.00     0.137 HD
ENDBRANCH  18  21
ENDBRANCH  13  18
ENDBRANCH   8  12
BRANCH  10  24
ATOM     24  C   UNL A   1      33.496  22.220  24.281  1.00  0.00     0.128 A 
ATOM     25  C   UNL A   1      32.645  22.697  25.260  1.00  0.00     0.048 A 
ATOM     26  O   UNL A   1      33.200  20.910  24.024  1.00  0.00    -0.467 OA
ATOM     27  C   UNL A   1      31.803  21.619  25.626  1.00  0.00     0.042 A 
ATOM     28  C   UNL A   1      32.169  20.560  24.831  1.00  0.00     0.195 A 
ENDBRANCH  10  24
ENDBRANCH   5   7
ENDBRANCH   4   5
ENDBRANCH   3   4
ENDBRANCH   2   3
ENDBRANCH   1   2
BRANCH   1  29
ATOM     29  C   UNL A   1      42.658  21.277  26.534  1.00  0.00     0.202 C 
BRANCH  29  30
ATOM     30  C   UNL A   1      43.295  22.632  26.191  1.00  0.00     0.261 C 
BRANCH  30  31
ATOM     31  O   UNL A   1      42.863  23.693  27.060  1.00  0.00    -0.460 OA
BRANCH  31  32
ATOM     32  C   UNL A   1      42.418  24.805  26.419  1.00  0.00     0.338 C 
ATOM     33  O   UNL A   1      42.220  24.934  25.223  1.00  0.00    -0.246 OA
BRANCH  32  34
ATOM     34  C   UNL A   1      42.013  25.825  27.405  1.00  0.00     0.060 A 
ATOM     35  C   UNL A   1      42.808  26.973  27.516  1.00  0.00     0.016 A 
ATOM     36  C   UNL A   1      40.917  25.636  28.246  1.00  0.00     0.016 A 
ATOM     37  C   UNL A   1      42.522  27.929  28.490  1.00  0.00     0.010 A 
ATOM     38  C   UNL A   1      40.637  26.593  29.228  1.00  0.00     0.010 A 
ATOM     39  C   UNL A   1      41.450  27.732  29.371  1.00  0.00    -0.014 A 
BRANCH  39  40
ATOM     40  C   UNL A   1      41.228  28.681  30.490  1.00  0.00     0.031 A 
ATOM     41  C   UNL A   1      42.056  28.565  31.738  1.00  0.00     0.074 A 
ATOM     42  C   UNL A   1      40.286  29.636  30.392  1.00  0.00     0.049 A 
ATOM     43  N   UNL A   1      41.985  29.256  32.846  1.00  0.00    -0.248 NA
ATOM     44  C   UNL A   1      43.097  27.526  31.741  1.00  0.00     0.031 C 
ATOM     45  C   UNL A   1      39.429  29.855  29.227  1.00  0.00     0.029 A 
ATOM     46  N   UNL A   1      39.876  30.584  31.296  1.00  0.00    -0.354 N 
ATOM     47  C   UNL A   1      42.959  28.728  33.686  1.00  0.00     0.074 A 
ATOM     48  C   UNL A   1      43.591  27.643  32.965  1.00  0.00     0.031 C 
ATOM     49  C   UNL A   1      38.578  30.858  29.496  1.00  0.00     0.029 A 
ATOM     50  C   UNL A   1      38.806  31.328  30.862  1.00  0.00     0.049 A 
ATOM     51  H   UNL A   1      40.308  30.718  32.170  1.00  0.00     0.167 HD
ATOM     52  C   UNL A   1      43.294  29.116  34.941  1.00  0.00     0.037 A 
ATOM     53  C   UNL A   1      38.069  32.258  31.502  1.00  0.00     0.037 A 
ATOM     54  C   UNL A   1      42.659  30.198  35.648  1.00  0.00     0.049 A 
ATOM     55  C   UNL A   1      38.430  32.646  32.911  1.00  0.00     0.074 A 
ATOM     56  C   UNL A   1      42.968  30.708  36.898  1.00  0.00     0.029 A 
ATOM     57  N   UNL A   1      41.572  30.924  35.182  1.00  0.00    -0.354 N 
ATOM     58  N   UNL A   1      39.392  32.182  33.671  1.00  0.00    -0.248 NA
ATOM     59  C   UNL A   1      37.610  33.686  33.546  1.00  0.00     0.031 C 
ATOM     60  C   UNL A   1      42.029  31.695  37.212  1.00  0.00     0.029 A 
ATOM     61  C   UNL A   1      41.170  31.847  36.135  1.00  0.00     0.049 A 
ATOM     62  H   UNL A   1      41.148  30.802  34.301  1.00  0.00     0.167 HD
ATOM     63  C   UNL A   1      39.300  32.879  34.872  1.00  0.00     0.074 A 
ATOM     64  C   UNL A   1      38.201  33.811  34.727  1.00  0.00     0.031 C 
ATOM     65  C   UNL A   1      40.060  32.759  35.990  1.00  0.00     0.037 A 
BRANCH  52  66
ATOM     66  C   UNL A   1      44.369  28.333  35.645  1.00  0.00     0.058 A 
ATOM     67  C   UNL A   1      44.077  27.223  36.456  1.00  0.00     0.135 A 
ATOM     68  C   UNL A   1      45.719  28.693  35.496  1.00  0.00     0.135 A 
ATOM     69  F   UNL A   1      42.804  26.841  36.644  1.00  0.00    -0.206 F 
ATOM     70  C   UNL A   1      45.078  26.528  37.126  1.00  0.00     0.059 A 
ATOM     71  C   UNL A   1      46.739  27.993  36.132  1.00  0.00     0.059 A 
ATOM     72  F   UNL A   1      46.057  29.744  34.732  1.00  0.00    -0.206 F 
ATOM     73  C   UNL A   1      46.407  26.924  36.962  1.00  0.00     0.060 A 
BRANCH  73  74
ATOM     74  S   UNL A   1      47.693  26.028  37.858  1.00  0.00     0.124 S 
ATOM     75  O   UNL A   1      47.968  24.924  36.943  1.00  0.00    -0.237 OA
ATOM     76  O   UNL A   1      48.747  27.030  37.978  1.00  0.00    -0.237 OA
ATOM     77  O   UNL A   1      47.040  25.656  39.110  1.00  0.00    -0.744 OA
ENDBRANCH  73  74
ENDBRANCH  52  66
BRANCH  53  78
ATOM     78  C   UNL A   1      36.899  32.859  30.810  1.00  0.00     0.058 A 
ATOM     79  C   UNL A   1      35.589  32.475  31.124  1.00  0.00     0.135 A 
ATOM     80  C   UNL A   1      37.073  33.875  29.855  1.00  0.00     0.135 A 
ATOM     81  F   UNL A   1      35.372  31.499  32.019  1.00  0.00    -0.206 F 
ATOM     82  C   UNL A   1      34.490  33.085  30.527  1.00  0.00     0.059 A 
ATOM     83  C   UNL A   1      35.992  34.515  29.263  1.00  0.00     0.059 A 
ATOM     84  F   UNL A   1      38.309  34.284  29.527  1.00  0.00    -0.206 F 
ATOM     85  C   UNL A   1      34.702  34.113  29.606  1.00  0.00     0.060 A 
BRANCH  85  86
ATOM     86  S   UNL A   1      33.268  34.968  28.915  1.00  0.00     0.124 S 
ATOM     87  O   UNL A   1      32.448  35.175  30.102  1.00  0.00    -0.237 OA
ATOM     88  O   UNL A   1      33.875  36.164  28.339  1.00  0.00    -0.237 OA
ATOM     89  O   UNL A   1      32.745  34.011  27.943  1.00  0.00    -0.744 OA
ENDBRANCH  85  86
ENDBRANCH  53  78
BRANCH  65  90
ATOM     90  C   UNL A   1      39.733  33.657  37.153  1.00  0.00     0.058 A 
ATOM     91  C   UNL A   1      38.861  33.251  38.176  1.00  0.00     0.135 A 
ATOM     92  C   UNL A   1      40.342  34.917  37.276  1.00  0.00     0.135 A 
ATOM     93  F   UNL A   1      38.246  32.060  38.105  1.00  0.00    -0.206 F 
ATOM     94  C   UNL A   1      38.588  34.069  39.268  1.00  0.00     0.059 A 
ATOM     95  C   UNL A   1      40.106  35.739  38.374  1.00  0.00     0.059 A 
ATOM     96  F   UNL A   1      41.192  35.352  36.333  1.00  0.00    -0.206 F 
ATOM     97  C   UNL A   1      39.219  35.312  39.360  1.00  0.00     0.060 A 
BRANCH  97  98
ATOM     98  S   UNL A   1      38.883  36.348  40.800  1.00  0.00     0.124 S 
ATOM     99  O   UNL A   1      38.457  37.594  40.172  1.00  0.00    -0.237 OA
ATOM    100  O   UNL A   1      37.839  35.596  41.489  1.00  0.00    -0.237 OA
ATOM    101  O   UNL A   1      40.169  36.400  41.489  1.00  0.00    -0.744 OA
ENDBRANCH  97  98
ENDBRANCH  65  90
ENDBRANCH  39  40
ENDBRANCH  32  34
ENDBRANCH  31  32
ENDBRANCH  30  31
ENDBRANCH  29  30
ENDBRANCH   1  29
TORSDOF 21
ENDMDL
MODEL 2
REMARK VINA RESULT:     -10.9      5.247     12.520
REMARK SMILES NS(=O)(=O)c1ccc(N2N=C(C(=O)OCCOCCOC(=O)c3ccc(-c4c5nc(c(-c6c(F)cc(S(=O)(=O)[O-])cc6F)c6ccc([nH]6)c(-c6c(F)cc(S(=O)(=O)[O-])cc6F)c6nc(c(-c7c(F)cc(S(=O)(=O)[O-])cc7F)c7ccc4[nH]7)C=C6)C=C5)cc3)C[C@H]2c2ccco2)cc1
REMARK SMILES IDX 17 1 16 2 15 3 14 4 12 5 13 6 11 7 9 8 10 9 90 10 89 11 8 12
REMARK SMILES IDX 5 13 6 14 97 15 7 16 96 17 2 18 3 19 4 20 1 21 91 24 92 25
REMARK SMILES IDX 95 26 93 27 94 28 18 29 19 30 20 31 21 32 22 33 23 34 24 35
REMARK SMILES IDX 88 36 25 37 87 38 26 39 27 40 28 41 81 42 29 43 86 44 80 45
REMARK SMILES IDX 82 46 30 47 85 48 79 49 78 50 31 52 65 53 44 54 64 55 45 56
REMARK SMILES IDX 48 57 63 58 83 59 46 60 47 61 62 63 84 64 49 65 32 66 33 67
REMARK SMILES IDX 42 68 34 69 35 70 41 71 43 72 36 73 37 74 38 75 39 76 40 77
REMARK SMILES IDX 66 78 67 79 76 80 68 81 69 82 75 83 77 84 70 85 71 86 72 87
REMARK SMILES IDX 73 88 74 89 50 90 51 91 60 92 52 93 53 94 59 95 61 96 54 97
REMARK SMILES IDX 55 98 56 99 57 100 58 101
REMARK H PARENT 1 22 1 23 82 51 48 62
REMARK Flexibility Score: inf
ROOT
ATOM      1  O   UNL A   1      33.605  34.049  28.073  1.00  0.00    -0.374 OA
ENDROOT
BRANCH   1   2
ATOM      2  C   UNL A   1      33.506  34.623  29.376  1.00  0.00     0.202 C 
BRANCH   2   3
ATOM      3  C   UNL A   1      34.620  34.276  30.366  1.00  0.00     0.261 C 
BRANCH   3   4
ATOM      4  O   UNL A   1      34.283  33.105  31.122  1.00  0.00    -0.459 OA
BRANCH   4   5
ATOM      5  C   UNL A   1      34.375  33.252  32.459  1.00  0.00     0.354 C 
ATOM      6  O   UNL A   1      33.481  33.246  33.283  1.00  0.00    -0.245 OA
BRANCH   5   7
ATOM      7  C   UNL A   1      35.829  33.260  32.851  1.00  0.00     0.148 C 
ATOM      8  N   UNL A   1      37.829  32.601  33.109  1.00  0.00    -0.254 N 
ATOM      9  N   UNL A   1      36.612  32.257  32.595  1.00  0.00    -0.169 NA
ATOM     10  C   UNL A   1      37.737  33.774  34.005  1.00  0.00     0.180 C 
ATOM     11  C   UNL A   1      36.476  34.463  33.452  1.00  0.00     0.101 C 
BRANCH   8  12
ATOM     12  C   UNL A   1      38.763  31.582  33.227  1.00  0.00     0.060 A 
ATOM     13  C   UNL A   1      40.715  29.564  33.355  1.00  0.00     0.082 A 
ATOM     14  C   UNL A   1      41.062  30.885  33.649  1.00  0.00     0.024 A 
ATOM     15  C   UNL A   1      39.413  29.244  32.973  1.00  0.00     0.024 A 
ATOM     16  C   UNL A   1      40.084  31.884  33.586  1.00  0.00     0.029 A 
ATOM     17  C   UNL A   1      38.454  30.257  32.893  1.00  0.00     0.029 A 
BRANCH  13  18
ATOM     18  S   UNL A   1      41.968  28.325  33.452  1.00  0.00     0.238 S 
ATOM     19  O   UNL A   1      42.160  27.767  32.135  1.00  0.00    -0.207 OA
ATOM     20  O   UNL A   1      41.728  27.507  34.619  1.00  0.00    -0.207 OA
BRANCH  18  21
ATOM     21  N   UNL A   1      43.383  29.170  33.790  1.00  0.00    -0.225 NA
ATOM     22  H   UNL A   1      43.174  30.165  33.869  1.00  0.00     0.137 HD
ATOM     23  H   UNL A   1      44.055  29.023  33.037  1.00  0.00     0.137 HD
ENDBRANCH  18  21
ENDBRANCH  13  18
ENDBRANCH   8  12
BRANCH  10  24
ATOM     24  C   UNL A   1      37.632  33.513  35.485  1.00  0.00     0.128 A 
ATOM     25  C   UNL A   1      38.569  33.223  36.459  1.00  0.00     0.048 A 
ATOM     26  O   UNL A   1      36.390  33.563  36.055  1.00  0.00    -0.467 OA
ATOM     27  C   UNL A   1      37.859  33.072  37.674  1.00  0.00     0.042 A 
ATOM     28  C   UNL A   1      36.538  33.308  37.377  1.00  0.00     0.195 A 
ENDBRANCH  10  24
ENDBRANCH   5   7
ENDBRANCH   4   5
ENDBRANCH   3   4
ENDBRANCH   2   3
ENDBRANCH   1   2
BRANCH   1  29
ATOM     29  C   UNL A   1      32.544  33.198  27.636  1.00  0.00     0.202 C 
BRANCH  29  30
ATOM     30  C   UNL A   1      32.893  31.736  27.321  1.00  0.00     0.261 C 
BRANCH  30  31
ATOM     31  O   UNL A   1      33.951  31.219  28.148  1.00  0.00    -0.460 OA
BRANCH  31  32
ATOM     32  C   UNL A   1      34.406  29.992  27.784  1.00  0.00     0.338 C 
ATOM     33  O   UNL A   1      33.824  29.163  27.106  1.00  0.00    -0.246 OA
BRANCH  32  34
ATOM     34  C   UNL A   1      35.822  29.847  28.173  1.00  0.00     0.060 A 
ATOM     35  C   UNL A   1      36.788  29.957  27.164  1.00  0.00     0.016 A 
ATOM     36  C   UNL A   1      36.195  29.547  29.483  1.00  0.00     0.016 A 
ATOM     37  C   UNL A   1      38.133  29.742  27.459  1.00  0.00     0.010 A 
ATOM     38  C   UNL A   1      37.545  29.324  29.774  1.00  0.00     0.010 A 
ATOM     39  C   UNL A   1      38.519  29.398  28.762  1.00  0.00    -0.014 A 
BRANCH  39  40
ATOM     40  C   UNL A   1      39.930  29.040  29.046  1.00  0.00     0.031 A 
ATOM     41  C   UNL A   1      40.863  30.079  29.602  1.00  0.00     0.074 A 
ATOM     42  C   UNL A   1      40.376  27.795  28.802  1.00  0.00     0.049 A 
ATOM     43  N   UNL A   1      42.140  29.987  29.870  1.00  0.00    -0.248 NA
ATOM     44  C   UNL A   1      40.281  31.399  29.888  1.00  0.00     0.031 C 
ATOM     45  C   UNL A   1      39.563  26.699  28.275  1.00  0.00     0.029 A 
ATOM     46  N   UNL A   1      41.628  27.250  28.942  1.00  0.00    -0.354 N 
ATOM     47  C   UNL A   1      42.520  31.239  30.339  1.00  0.00     0.074 A 
ATOM     48  C   UNL A   1      41.341  32.079  30.297  1.00  0.00     0.031 C 
ATOM     49  C   UNL A   1      40.343  25.619  28.113  1.00  0.00     0.029 A 
ATOM     50  C   UNL A   1      41.715  25.955  28.491  1.00  0.00     0.049 A 
ATOM     51  H   UNL A   1      42.389  27.740  29.328  1.00  0.00     0.167 HD
ATOM     52  C   UNL A   1      43.740  31.648  30.767  1.00  0.00     0.037 A 
ATOM     53  C   UNL A   1      42.783  25.143  28.364  1.00  0.00     0.037 A 
ATOM     54  C   UNL A   1      44.906  30.802  30.805  1.00  0.00     0.049 A 
ATOM     55  C   UNL A   1      44.138  25.627  28.805  1.00  0.00     0.074 A 
ATOM     56  C   UNL A   1      46.172  31.104  31.279  1.00  0.00     0.029 A 
ATOM     57  N   UNL A   1      44.960  29.499  30.332  1.00  0.00    -0.354 N 
ATOM     58  N   UNL A   1      44.472  26.793  29.304  1.00  0.00    -0.248 NA
ATOM     59  C   UNL A   1      45.259  24.687  28.670  1.00  0.00     0.031 C 
ATOM     60  C   UNL A   1      47.004  30.007  31.033  1.00  0.00     0.029 A 
ATOM     61  C   UNL A   1      46.246  28.997  30.462  1.00  0.00     0.049 A 
ATOM     62  H   UNL A   1      44.196  29.002  29.959  1.00  0.00     0.167 HD
ATOM     63  C   UNL A   1      45.839  26.724  29.553  1.00  0.00     0.074 A 
ATOM     64  C   UNL A   1      46.265  25.394  29.167  1.00  0.00     0.031 C 
ATOM     65  C   UNL A   1      46.665  27.676  30.056  1.00  0.00     0.037 A 
BRANCH  52  66
ATOM     66  C   UNL A   1      43.883  33.086  31.185  1.00  0.00     0.058 A 
ATOM     67  C   UNL A   1      43.878  33.476  32.534  1.00  0.00     0.135 A 
ATOM     68  C   UNL A   1      44.042  34.091  30.217  1.00  0.00     0.135 A 
ATOM     69  F   UNL A   1      43.718  32.560  33.502  1.00  0.00    -0.206 F 
ATOM     70  C   UNL A   1      43.981  34.813  32.905  1.00  0.00     0.059 A 
ATOM     71  C   UNL A   1      44.176  35.431  30.566  1.00  0.00     0.059 A 
ATOM     72  F   UNL A   1      44.056  33.776  28.911  1.00  0.00    -0.206 F 
ATOM     73  C   UNL A   1      44.124  35.785  31.913  1.00  0.00     0.060 A 
BRANCH  73  74
ATOM     74  S   UNL A   1      44.229  37.518  32.408  1.00  0.00     0.124 S 
ATOM     75  O   UNL A   1      45.606  37.598  32.889  1.00  0.00    -0.237 OA
ATOM     76  O   UNL A   1      43.954  38.218  31.158  1.00  0.00    -0.237 OA
ATOM     77  O   UNL A   1      43.198  37.642  33.434  1.00  0.00    -0.744 OA
ENDBRANCH  73  74
ENDBRANCH  52  66
BRANCH  53  78
ATOM     78  C   UNL A   1      42.601  23.794  27.764  1.00  0.00     0.058 A 
ATOM     79  C   UNL A   1      42.611  23.606  26.376  1.00  0.00     0.135 A 
ATOM     80  C   UNL A   1      42.470  22.658  28.579  1.00  0.00     0.135 A 
ATOM     81  F   UNL A   1      42.719  24.662  25.556  1.00  0.00    -0.206 F 
ATOM     82  C   UNL A   1      42.510  22.336  25.815  1.00  0.00     0.059 A 
ATOM     83  C   UNL A   1      42.392  21.378  28.044  1.00  0.00     0.059 A 
ATOM     84  F   UNL A   1      42.466  22.786  29.916  1.00  0.00    -0.206 F 
ATOM     85  C   UNL A   1      42.413  21.227  26.658  1.00  0.00     0.060 A 
BRANCH  85  86
ATOM     86  S   UNL A   1      42.387  19.578  25.922  1.00  0.00     0.124 S 
ATOM     87  O   UNL A   1      42.734  18.740  27.063  1.00  0.00    -0.237 OA
ATOM     88  O   UNL A   1      41.009  19.477  25.450  1.00  0.00    -0.237 OA
ATOM     89  O   UNL A   1      43.396  19.665  24.870  1.00  0.00    -0.744 OA
ENDBRANCH  85  86
ENDBRANCH  53  78
BRANCH  65  90
ATOM     90  C   UNL A   1      48.118  27.319  30.224  1.00  0.00     0.058 A 
ATOM     91  C   UNL A   1      49.065  27.597  29.225  1.00  0.00     0.135 A 
ATOM     92  C   UNL A   1      48.579  26.742  31.420  1.00  0.00     0.135 A 
ATOM     93  F   UNL A   1      48.678  28.141  28.060  1.00  0.00    -0.206 F 
ATOM     94  C   UNL A   1      50.414  27.298  29.398  1.00  0.00     0.059 A 
ATOM     95  C   UNL A   1      49.927  26.462  31.624  1.00  0.00     0.059 A 
ATOM     96  F   UNL A   1      47.720  26.464  32.412  1.00  0.00    -0.206 F 
ATOM     97  C   UNL A   1      50.836  26.733  30.602  1.00  0.00     0.060 A 
BRANCH  97  98
ATOM     98  S   UNL A   1      52.593  26.384  30.825  1.00  0.00     0.124 S 
ATOM     99  O   UNL A   1      52.551  25.124  31.560  1.00  0.00    -0.237 OA
ATOM    100  O   UNL A   1      53.072  26.299  29.449  1.00  0.00    -0.237 OA
ATOM    101  O   UNL A   1      53.076  27.535  31.582  1.00  0.00    -0.744 OA
ENDBRANCH  97  98
ENDBRANCH  65  90
ENDBRANCH  39  40
ENDBRANCH  32  34
ENDBRANCH  31  32
ENDBRANCH  30  31
ENDBRANCH  29  30
ENDBRANCH   1  29
TORSDOF 21
ENDMDL
MODEL 3
REMARK VINA RESULT:     -10.4      5.490      8.619
REMARK SMILES NS(=O)(=O)c1ccc(N2N=C(C(=O)OCCOCCOC(=O)c3ccc(-c4c5nc(c(-c6c(F)cc(S(=O)(=O)[O-])cc6F)c6ccc([nH]6)c(-c6c(F)cc(S(=O)(=O)[O-])cc6F)c6nc(c(-c7c(F)cc(S(=O)(=O)[O-])cc7F)c7ccc4[nH]7)C=C6)C=C5)cc3)C[C@H]2c2ccco2)cc1
REMARK SMILES IDX 17 1 16 2 15 3 14 4 12 5 13 6 11 7 9 8 10 9 90 10 89 11 8 12
REMARK SMILES IDX 5 13 6 14 97 15 7 16 96 17 2 18 3 19 4 20 1 21 91 24 92 25
REMARK SMILES IDX 95 26 93 27 94 28 18 29 19 30 20 31 21 32 22 33 23 34 24 35
REMARK SMILES IDX 88 36 25 37 87 38 26 39 27 40 28 41 81 42 29 43 86 44 80 45
REMARK SMILES IDX 82 46 30 47 85 48 79 49 78 50 31 52 65 53 44 54 64 55 45 56
REMARK SMILES IDX 48 57 63 58 83 59 46 60 47 61 62 63 84 64 49 65 32 66 33 67
REMARK SMILES IDX 42 68 34 69 35 70 41 71 43 72 36 73 37 74 38 75 39 76 40 77
REMARK SMILES IDX 66 78 67 79 76 80 68 81 69 82 75 83 77 84 70 85 71 86 72 87
REMARK SMILES IDX 73 88 74 89 50 90 51 91 60 92 52 93 53 94 59 95 61 96 54 97
REMARK SMILES IDX 55 98 56 99 57 100 58 101
REMARK H PARENT 1 22 1 23 82 51 48 62
REMARK Flexibility Score: inf
ROOT
ATOM      1  O   UNL A   1      41.886  18.935  25.653  1.00  0.00    -0.374 OA
ENDROOT
BRANCH   1   2
ATOM      2  C   UNL A   1      43.214  18.493  25.371  1.00  0.00     0.202 C 
BRANCH   2   3
ATOM      3  C   UNL A   1      44.353  19.408  25.824  1.00  0.00     0.261 C 
BRANCH   3   4
ATOM      4  O   UNL A   1      44.628  20.407  24.832  1.00  0.00    -0.459 OA
BRANCH   4   5
ATOM      5  C   UNL A   1      45.924  20.770  24.742  1.00  0.00     0.354 C 
ATOM      6  O   UNL A   1      46.835  20.184  24.189  1.00  0.00    -0.245 OA
BRANCH   5   7
ATOM      7  C   UNL A   1      46.084  22.157  25.304  1.00  0.00     0.148 C 
ATOM      8  N   UNL A   1      46.257  23.728  26.719  1.00  0.00    -0.254 N 
ATOM      9  N   UNL A   1      46.137  22.375  26.583  1.00  0.00    -0.169 NA
ATOM     10  C   UNL A   1      45.968  24.437  25.453  1.00  0.00     0.180 C 
ATOM     11  C   UNL A   1      46.303  23.343  24.424  1.00  0.00     0.101 C 
BRANCH   8  12
ATOM     12  C   UNL A   1      46.040  24.246  27.987  1.00  0.00     0.060 A 
ATOM     13  C   UNL A   1      45.695  25.214  30.603  1.00  0.00     0.082 A 
ATOM     14  C   UNL A   1      46.836  25.566  29.877  1.00  0.00     0.024 A 
ATOM     15  C   UNL A   1      44.740  24.364  30.049  1.00  0.00     0.024 A 
ATOM     16  C   UNL A   1      46.999  25.083  28.574  1.00  0.00     0.029 A 
ATOM     17  C   UNL A   1      44.929  23.872  28.755  1.00  0.00     0.029 A 
BRANCH  13  18
ATOM     18  S   UNL A   1      45.514  25.846  32.241  1.00  0.00     0.238 S 
ATOM     19  O   UNL A   1      44.672  24.943  32.988  1.00  0.00    -0.207 OA
ATOM     20  O   UNL A   1      45.262  27.268  32.168  1.00  0.00    -0.207 OA
BRANCH  18  21
ATOM     21  N   UNL A   1      47.043  25.705  32.929  1.00  0.00    -0.225 NA
ATOM     22  H   UNL A   1      47.657  26.421  32.541  1.00  0.00     0.137 HD
ATOM     23  H   UNL A   1      47.424  24.782  32.721  1.00  0.00     0.137 HD
ENDBRANCH  18  21
ENDBRANCH  13  18
ENDBRANCH   8  12
BRANCH  10  24
ATOM     24  C   UNL A   1      44.576  24.982  25.263  1.00  0.00     0.128 A 
ATOM     25  C   UNL A   1      43.324  24.399  25.300  1.00  0.00     0.048 A 
ATOM     26  O   UNL A   1      44.445  26.318  25.003  1.00  0.00    -0.467 OA
ATOM     27  C   UNL A   1      42.389  25.428  25.034  1.00  0.00     0.042 A 
ATOM     28  C   UNL A   1      43.121  26.581  24.880  1.00  0.00     0.195 A 
ENDBRANCH  10  24
ENDBRANCH   5   7
ENDBRANCH   4   5
ENDBRANCH   3   4
ENDBRANCH   2   3
ENDBRANCH   1   2
BRANCH   1  29
ATOM     29  C   UNL A   1      41.726  20.038  26.546  1.00  0.00     0.202 C 
BRANCH  29  30
ATOM     30  C   UNL A   1      40.351  20.720  26.588  1.00  0.00     0.261 C 
BRANCH  30  31
ATOM     31  O   UNL A   1      40.350  21.942  27.347  1.00  0.00    -0.460 OA
BRANCH  31  32
ATOM     32  C   UNL A   1      39.598  22.939  26.815  1.00  0.00     0.338 C 
ATOM     33  O   UNL A   1      38.632  22.821  26.081  1.00  0.00    -0.246 OA
BRANCH  32  34
ATOM     34  C   UNL A   1      39.995  24.234  27.401  1.00  0.00     0.060 A 
ATOM     35  C   UNL A   1      39.341  25.384  26.938  1.00  0.00     0.016 A 
ATOM     36  C   UNL A   1      41.025  24.331  28.335  1.00  0.00     0.016 A 
ATOM     37  C   UNL A   1      39.736  26.642  27.393  1.00  0.00     0.010 A 
ATOM     38  C   UNL A   1      41.424  25.595  28.784  1.00  0.00     0.010 A 
ATOM     39  C   UNL A   1      40.798  26.758  28.300  1.00  0.00    -0.014 A 
BRANCH  39  40
ATOM     40  C   UNL A   1      41.304  28.099  28.680  1.00  0.00     0.031 A 
ATOM     41  C   UNL A   1      42.775  28.392  28.590  1.00  0.00     0.074 A 
ATOM     42  C   UNL A   1      40.453  29.048  29.110  1.00  0.00     0.049 A 
ATOM     43  N   UNL A   1      43.425  29.477  28.923  1.00  0.00    -0.248 NA
ATOM     44  C   UNL A   1      43.628  27.317  28.062  1.00  0.00     0.031 C 
ATOM     45  C   UNL A   1      39.004  28.886  29.227  1.00  0.00     0.029 A 
ATOM     46  N   UNL A   1      40.687  30.327  29.549  1.00  0.00    -0.354 N 
ATOM     47  C   UNL A   1      44.764  29.212  28.662  1.00  0.00     0.074 A 
ATOM     48  C   UNL A   1      44.834  27.854  28.164  1.00  0.00     0.031 C 
ATOM     49  C   UNL A   1      38.480  30.015  29.731  1.00  0.00     0.029 A 
ATOM     50  C   UNL A   1      39.558  30.965  30.004  1.00  0.00     0.049 A 
ATOM     51  H   UNL A   1      41.577  30.746  29.540  1.00  0.00     0.167 HD
ATOM     52  C   UNL A   1      45.835  30.028  28.821  1.00  0.00     0.037 A 
ATOM     53  C   UNL A   1      39.411  32.163  30.602  1.00  0.00     0.037 A 
ATOM     54  C   UNL A   1      45.754  31.379  29.317  1.00  0.00     0.049 A 
ATOM     55  C   UNL A   1      40.618  33.039  30.810  1.00  0.00     0.074 A 
ATOM     56  C   UNL A   1      46.772  32.307  29.456  1.00  0.00     0.029 A 
ATOM     57  N   UNL A   1      44.595  31.989  29.776  1.00  0.00    -0.354 N 
ATOM     58  N   UNL A   1      41.870  32.801  30.502  1.00  0.00    -0.248 NA
ATOM     59  C   UNL A   1      40.391  34.347  31.441  1.00  0.00     0.031 C 
ATOM     60  C   UNL A   1      46.241  33.451  30.059  1.00  0.00     0.029 A 
ATOM     61  C   UNL A   1      44.880  33.264  30.240  1.00  0.00     0.049 A 
ATOM     62  H   UNL A   1      43.701  31.577  29.772  1.00  0.00     0.167 HD
ATOM     63  C   UNL A   1      42.581  33.932  30.892  1.00  0.00     0.074 A 
ATOM     64  C   UNL A   1      41.614  34.862  31.440  1.00  0.00     0.031 C 
ATOM     65  C   UNL A   1      43.912  34.177  30.802  1.00  0.00     0.037 A 
BRANCH  52  66
ATOM     66  C   UNL A   1      47.193  29.464  28.498  1.00  0.00     0.058 A 
ATOM     67  C   UNL A   1      48.006  28.867  29.474  1.00  0.00     0.135 A 
ATOM     68  C   UNL A   1      47.682  29.512  27.182  1.00  0.00     0.135 A 
ATOM     69  F   UNL A   1      47.595  28.804  30.751  1.00  0.00    -0.206 F 
ATOM     70  C   UNL A   1      49.272  28.377  29.167  1.00  0.00     0.059 A 
ATOM     71  C   UNL A   1      48.932  29.002  26.846  1.00  0.00     0.059 A 
ATOM     72  F   UNL A   1      46.947  30.069  26.207  1.00  0.00    -0.206 F 
ATOM     73  C   UNL A   1      49.729  28.454  27.850  1.00  0.00     0.060 A 
BRANCH  73  74
ATOM     74  S   UNL A   1      51.383  27.839  27.471  1.00  0.00     0.124 S 
ATOM     75  O   UNL A   1      51.845  27.419  28.792  1.00  0.00    -0.237 OA
ATOM     76  O   UNL A   1      51.108  26.765  26.525  1.00  0.00    -0.237 OA
ATOM     77  O   UNL A   1      52.061  29.006  26.913  1.00  0.00    -0.744 OA
ENDBRANCH  73  74
ENDBRANCH  52  66
BRANCH  53  78
ATOM     78  C   UNL A   1      38.063  32.580  31.070  1.00  0.00     0.058 A 
ATOM     79  C   UNL A   1      37.606  32.262  32.355  1.00  0.00     0.135 A 
ATOM     80  C   UNL A   1      37.228  33.359  30.251  1.00  0.00     0.135 A 
ATOM     81  F   UNL A   1      38.360  31.509  33.169  1.00  0.00    -0.206 F 
ATOM     82  C   UNL A   1      36.372  32.709  32.819  1.00  0.00     0.059 A 
ATOM     83  C   UNL A   1      36.003  33.838  30.700  1.00  0.00     0.059 A 
ATOM     84  F   UNL A   1      37.626  33.699  29.015  1.00  0.00    -0.206 F 
ATOM     85  C   UNL A   1      35.584  33.508  31.987  1.00  0.00     0.060 A 
BRANCH  85  86
ATOM     86  S   UNL A   1      34.033  34.169  32.636  1.00  0.00     0.124 S 
ATOM     87  O   UNL A   1      33.374  34.626  31.418  1.00  0.00    -0.237 OA
ATOM     88  O   UNL A   1      33.447  32.996  33.279  1.00  0.00    -0.237 OA
ATOM     89  O   UNL A   1      34.473  35.219  33.550  1.00  0.00    -0.744 OA
ENDBRANCH  85  86
ENDBRANCH  53  78
BRANCH  65  90
ATOM     90  C   UNL A   1      44.411  35.505  31.306  1.00  0.00     0.058 A 
ATOM     91  C   UNL A   1      44.902  35.661  32.612  1.00  0.00     0.135 A 
ATOM     92  C   UNL A   1      44.451  36.623  30.455  1.00  0.00     0.135 A 
ATOM     93  F   UNL A   1      44.880  34.628  33.469  1.00  0.00    -0.206 F 
ATOM     94  C   UNL A   1      45.395  36.882  33.064  1.00  0.00     0.059 A 
ATOM     95  C   UNL A   1      44.967  37.845  30.877  1.00  0.00     0.059 A 
ATOM     96  F   UNL A   1      44.004  36.528  29.193  1.00  0.00    -0.206 F 
ATOM     97  C   UNL A   1      45.427  37.968  32.187  1.00  0.00     0.060 A 
BRANCH  97  98
ATOM     98  S   UNL A   1      46.102  39.535  32.775  1.00  0.00     0.124 S 
ATOM     99  O   UNL A   1      46.145  40.317  31.544  1.00  0.00    -0.237 OA
ATOM    100  O   UNL A   1      45.108  39.955  33.758  1.00  0.00    -0.237 OA
ATOM    101  O   UNL A   1      47.402  39.161  33.326  1.00  0.00    -0.744 OA
ENDBRANCH  97  98
ENDBRANCH  65  90
ENDBRANCH  39  40
ENDBRANCH  32  34
ENDBRANCH  31  32
ENDBRANCH  30  31
ENDBRANCH  29  30
ENDBRANCH   1  29
TORSDOF 21
ENDMDL
