MODEL 1
REMARK VINA RESULT:     -11.9      0.000      0.000
REMARK SMILES O=C(OCCOCCOC(=O)c1cc(-c2ccccc2)nc(Nc2nc3ccccc3s2)n1)c1ccc(-c2c3nc(c(-c4c(F)cc(S(=O)(=O)[O-])cc4F)c4ccc([nH]4)c(-c4c(F)cc(S(=O)(=O)[O-])cc4F)c4nc(c(-c5c(F)cc(S(=O)(=O)[O-])cc5F)c5ccc2[nH]5)C=C4)C=C3)cc1
REMARK SMILES IDX 5 1 4 2 3 3 2 4 1 5 34 6 35 7 99 8 36 9 98 10 37 11 38 12
REMARK SMILES IDX 39 13 92 14 40 15 97 16 91 17 93 18 41 19 96 20 90 21 89 22
REMARK SMILES IDX 42 24 76 25 55 26 75 27 56 28 59 29 74 30 94 31 57 32 58 33
REMARK SMILES IDX 73 35 95 36 60 37 43 38 44 39 53 40 45 41 46 42 52 43 54 44
REMARK SMILES IDX 47 45 48 46 49 47 50 48 51 49 77 50 78 51 87 52 79 53 80 54
REMARK SMILES IDX 86 55 88 56 81 57 82 58 83 59 84 60 85 61 61 62 62 63 71 64
REMARK SMILES IDX 63 65 64 66 70 67 72 68 65 69 66 70 67 71 68 72 69 73 6 74
REMARK SMILES IDX 7 75 8 76 9 77 10 78 11 79 12 80 13 81 33 82 14 83 22 84
REMARK SMILES IDX 21 85 15 86 16 87 20 88 17 89 19 90 18 91 23 92 24 94 25 95
REMARK SMILES IDX 32 96 26 97 31 98 27 99 30 100 28 101 29 102
REMARK H PARENT 93 23 59 34 23 93
REMARK Flexibility Score: inf
ROOT
ATOM      1  C   UNL A   1      42.390  22.886  26.660  1.00  0.00     0.202 C 
ENDROOT
BRANCH   1   2
ATOM      2  C   UNL A   1      42.899  23.927  25.667  1.00  0.00     0.261 C 
BRANCH   2   3
ATOM      3  O   UNL A   1      41.907  24.939  25.455  1.00  0.00    -0.460 OA
BRANCH   3   4
ATOM      4  C   UNL A   1      42.030  26.263  25.705  1.00  0.00     0.338 C 
ATOM      5  O   UNL A   1      42.413  26.985  24.784  1.00  0.00    -0.246 OA
BRANCH   4   6
ATOM      6  C   UNL A   1      41.716  26.918  27.018  1.00  0.00     0.060 A 
ATOM      7  C   UNL A   1      40.856  26.427  28.007  1.00  0.00     0.016 A 
ATOM      8  C   UNL A   1      42.436  28.090  27.309  1.00  0.00     0.016 A 
ATOM      9  C   UNL A   1      40.708  27.057  29.235  1.00  0.00     0.010 A 
ATOM     10  C   UNL A   1      42.299  28.732  28.541  1.00  0.00     0.010 A 
ATOM     11  C   UNL A   1      41.429  28.212  29.504  1.00  0.00    -0.014 A 
BRANCH  11  12
ATOM     12  C   UNL A   1      41.159  28.931  30.756  1.00  0.00     0.031 A 
ATOM     13  C   UNL A   1      40.007  29.879  30.777  1.00  0.00     0.074 A 
ATOM     14  C   UNL A   1      41.898  28.673  31.847  1.00  0.00     0.049 A 
ATOM     15  N   UNL A   1      39.647  30.722  31.702  1.00  0.00    -0.248 NA
ATOM     16  C   UNL A   1      39.136  29.872  29.587  1.00  0.00     0.031 C 
ATOM     17  C   UNL A   1      42.954  27.662  31.929  1.00  0.00     0.029 A 
ATOM     18  N   UNL A   1      41.873  29.236  33.093  1.00  0.00    -0.354 N 
ATOM     19  C   UNL A   1      38.532  31.375  31.194  1.00  0.00     0.074 A 
ATOM     20  C   UNL A   1      38.269  30.827  29.882  1.00  0.00     0.031 C 
ATOM     21  C   UNL A   1      43.489  27.690  33.161  1.00  0.00     0.029 A 
ATOM     22  C   UNL A   1      42.857  28.759  33.925  1.00  0.00     0.049 A 
ATOM     23  H   UNL A   1      41.215  29.916  33.366  1.00  0.00     0.167 HD
ATOM     24  C   UNL A   1      37.813  32.361  31.777  1.00  0.00     0.037 A 
ATOM     25  C   UNL A   1      43.227  29.185  35.148  1.00  0.00     0.037 A 
ATOM     26  C   UNL A   1      38.128  32.886  33.077  1.00  0.00     0.049 A 
ATOM     27  C   UNL A   1      42.467  30.336  35.748  1.00  0.00     0.074 A 
ATOM     28  C   UNL A   1      37.531  33.925  33.761  1.00  0.00     0.029 A 
ATOM     29  N   UNL A   1      39.150  32.401  33.889  1.00  0.00    -0.354 N 
ATOM     30  N   UNL A   1      41.455  31.006  35.242  1.00  0.00    -0.248 NA
ATOM     31  C   UNL A   1      42.894  30.803  37.072  1.00  0.00     0.031 C 
ATOM     32  C   UNL A   1      38.217  34.097  34.969  1.00  0.00     0.029 A 
ATOM     33  C   UNL A   1      39.209  33.127  35.063  1.00  0.00     0.049 A 
ATOM     34  H   UNL A   1      39.744  31.651  33.660  1.00  0.00     0.167 HD
ATOM     35  C   UNL A   1      41.108  31.956  36.192  1.00  0.00     0.074 A 
ATOM     36  C   UNL A   1      42.020  31.774  37.306  1.00  0.00     0.031 C 
ATOM     37  C   UNL A   1      40.127  32.893  36.153  1.00  0.00     0.037 A 
BRANCH  24  38
ATOM     38  C   UNL A   1      36.706  32.967  30.962  1.00  0.00     0.058 A 
ATOM     39  C   UNL A   1      36.957  33.849  29.899  1.00  0.00     0.135 A 
ATOM     40  C   UNL A   1      35.366  32.722  31.305  1.00  0.00     0.135 A 
ATOM     41  F   UNL A   1      38.218  34.146  29.549  1.00  0.00    -0.206 F 
ATOM     42  C   UNL A   1      35.921  34.504  29.237  1.00  0.00     0.059 A 
ATOM     43  C   UNL A   1      34.314  33.345  30.639  1.00  0.00     0.059 A 
ATOM     44  F   UNL A   1      35.067  31.896  32.321  1.00  0.00    -0.206 F 
ATOM     45  C   UNL A   1      34.604  34.255  29.625  1.00  0.00     0.060 A 
BRANCH  45  46
ATOM     46  S   UNL A   1      33.274  35.159  28.805  1.00  0.00     0.124 S 
ATOM     47  O   UNL A   1      32.478  35.603  29.947  1.00  0.00    -0.237 OA
ATOM     48  O   UNL A   1      33.999  36.208  28.095  1.00  0.00    -0.237 OA
ATOM     49  O   UNL A   1      32.647  34.149  27.959  1.00  0.00    -0.744 OA
ENDBRANCH  45  46
ENDBRANCH  24  38
BRANCH  25  50
ATOM     50  C   UNL A   1      44.381  28.546  35.836  1.00  0.00     0.058 A 
ATOM     51  C   UNL A   1      44.204  27.466  36.712  1.00  0.00     0.135 A 
ATOM     52  C   UNL A   1      45.698  28.968  35.582  1.00  0.00     0.135 A 
ATOM     53  F   UNL A   1      42.967  27.029  36.996  1.00  0.00    -0.206 F 
ATOM     54  C   UNL A   1      45.287  26.824  37.307  1.00  0.00     0.059 A 
ATOM     55  C   UNL A   1      46.797  28.327  36.146  1.00  0.00     0.059 A 
ATOM     56  F   UNL A   1      45.927  29.991  34.744  1.00  0.00    -0.206 F 
ATOM     57  C   UNL A   1      46.582  27.256  37.010  1.00  0.00     0.060 A 
BRANCH  57  58
ATOM     58  S   UNL A   1      47.981  26.368  37.729  1.00  0.00     0.124 S 
ATOM     59  O   UNL A   1      49.006  27.404  37.755  1.00  0.00    -0.237 OA
ATOM     60  O   UNL A   1      47.453  25.959  39.027  1.00  0.00    -0.237 OA
ATOM     61  O   UNL A   1      48.210  25.278  36.784  1.00  0.00    -0.744 OA
ENDBRANCH  57  58
ENDBRANCH  25  50
BRANCH  37  62
ATOM     62  C   UNL A   1      39.953  33.756  37.368  1.00  0.00     0.058 A 
ATOM     63  C   UNL A   1      40.624  34.978  37.506  1.00  0.00     0.135 A 
ATOM     64  C   UNL A   1      39.013  33.398  38.349  1.00  0.00     0.135 A 
ATOM     65  F   UNL A   1      41.536  35.356  36.597  1.00  0.00    -0.206 F 
ATOM     66  C   UNL A   1      40.370  35.822  38.580  1.00  0.00     0.059 A 
ATOM     67  C   UNL A   1      38.725  34.238  39.417  1.00  0.00     0.059 A 
ATOM     68  F   UNL A   1      38.340  32.241  38.250  1.00  0.00    -0.206 F 
ATOM     69  C   UNL A   1      39.409  35.448  39.524  1.00  0.00     0.060 A 
BRANCH  69  70
ATOM     70  S   UNL A   1      39.025  36.590  40.867  1.00  0.00     0.124 S 
ATOM     71  O   UNL A   1      40.334  36.766  41.487  1.00  0.00    -0.237 OA
ATOM     72  O   UNL A   1      38.501  37.750  40.150  1.00  0.00    -0.237 OA
ATOM     73  O   UNL A   1      38.045  35.860  41.664  1.00  0.00    -0.744 OA
ENDBRANCH  69  70
ENDBRANCH  37  62
ENDBRANCH  11  12
ENDBRANCH   4   6
ENDBRANCH   3   4
ENDBRANCH   2   3
ENDBRANCH   1   2
BRANCH   1  74
ATOM     74  O   UNL A   1      41.380  22.033  26.121  1.00  0.00    -0.374 OA
BRANCH  74  75
ATOM     75  C   UNL A   1      40.088  22.112  26.718  1.00  0.00     0.202 C 
BRANCH  75  76
ATOM     76  C   UNL A   1      39.043  21.709  25.676  1.00  0.00     0.261 C 
BRANCH  76  77
ATOM     77  O   UNL A   1      37.744  21.907  26.255  1.00  0.00    -0.459 OA
BRANCH  77  78
ATOM     78  C   UNL A   1      37.051  22.962  25.741  1.00  0.00     0.357 C 
ATOM     79  O   UNL A   1      37.502  24.031  25.371  1.00  0.00    -0.244 OA
BRANCH  78  80
ATOM     80  C   UNL A   1      35.639  22.531  25.604  1.00  0.00     0.154 A 
ATOM     81  C   UNL A   1      35.363  21.377  24.933  1.00  0.00     0.065 A 
ATOM     82  N   UNL A   1      34.693  23.322  26.142  1.00  0.00    -0.206 NA
ATOM     83  C   UNL A   1      34.044  20.997  24.924  1.00  0.00     0.077 A 
ATOM     84  C   UNL A   1      33.419  22.949  25.999  1.00  0.00     0.230 A 
ATOM     85  N   UNL A   1      33.061  21.771  25.442  1.00  0.00    -0.213 NA
BRANCH  83  86
ATOM     86  C   UNL A   1      33.711  19.665  24.396  1.00  0.00     0.000 A 
ATOM     87  C   UNL A   1      32.581  19.419  23.608  1.00  0.00     0.010 A 
ATOM     88  C   UNL A   1      34.618  18.601  24.601  1.00  0.00     0.010 A 
ATOM     89  C   UNL A   1      32.393  18.165  23.011  1.00  0.00     0.001 A 
ATOM     90  C   UNL A   1      34.437  17.358  24.002  1.00  0.00     0.001 A 
ATOM     91  C   UNL A   1      33.325  17.143  23.198  1.00  0.00     0.000 A 
ENDBRANCH  83  86
BRANCH  84  92
ATOM     92  N   UNL A   1      32.405  23.745  26.527  1.00  0.00    -0.300 N 
ATOM     93  H   UNL A   1      32.094  23.540  27.437  1.00  0.00     0.172 HD
BRANCH  92  94
ATOM     94  C   UNL A   1      31.816  24.779  25.884  1.00  0.00     0.190 A 
ATOM     95  N   UNL A   1      30.607  24.772  25.363  1.00  0.00    -0.220 NA
ATOM     96  S   UNL A   1      32.622  26.304  25.780  1.00  0.00    -0.097 S 
ATOM     97  C   UNL A   1      30.325  25.986  24.748  1.00  0.00     0.084 A 
ATOM     98  C   UNL A   1      31.340  26.938  24.820  1.00  0.00     0.056 A 
ATOM     99  C   UNL A   1      29.134  26.326  24.070  1.00  0.00     0.030 A 
ATOM    100  C   UNL A   1      31.226  28.192  24.189  1.00  0.00     0.021 A 
ATOM    101  C   UNL A   1      29.013  27.562  23.429  1.00  0.00     0.002 A 
ATOM    102  C   UNL A   1      30.055  28.479  23.480  1.00  0.00     0.002 A 
ENDBRANCH  92  94
ENDBRANCH  84  92
ENDBRANCH  78  80
ENDBRANCH  77  78
ENDBRANCH  76  77
ENDBRANCH  75  76
ENDBRANCH  74  75
ENDBRANCH   1  74
TORSDOF 20
ENDMDL
MODEL 2
REMARK VINA RESULT:     -11.8      6.265     11.977
REMARK SMILES O=C(OCCOCCOC(=O)c1cc(-c2ccccc2)nc(Nc2nc3ccccc3s2)n1)c1ccc(-c2c3nc(c(-c4c(F)cc(S(=O)(=O)[O-])cc4F)c4ccc([nH]4)c(-c4c(F)cc(S(=O)(=O)[O-])cc4F)c4nc(c(-c5c(F)cc(S(=O)(=O)[O-])cc5F)c5ccc2[nH]5)C=C4)C=C3)cc1
REMARK SMILES IDX 5 1 4 2 3 3 2 4 1 5 34 6 35 7 99 8 36 9 98 10 37 11 38 12
REMARK SMILES IDX 39 13 92 14 40 15 97 16 91 17 93 18 41 19 96 20 90 21 89 22
REMARK SMILES IDX 42 24 76 25 55 26 75 27 56 28 59 29 74 30 94 31 57 32 58 33
REMARK SMILES IDX 73 35 95 36 60 37 43 38 44 39 53 40 45 41 46 42 52 43 54 44
REMARK SMILES IDX 47 45 48 46 49 47 50 48 51 49 77 50 78 51 87 52 79 53 80 54
REMARK SMILES IDX 86 55 88 56 81 57 82 58 83 59 84 60 85 61 61 62 62 63 71 64
REMARK SMILES IDX 63 65 64 66 70 67 72 68 65 69 66 70 67 71 68 72 69 73 6 74
REMARK SMILES IDX 7 75 8 76 9 77 10 78 11 79 12 80 13 81 33 82 14 83 22 84
REMARK SMILES IDX 21 85 15 86 16 87 20 88 17 89 19 90 18 91 23 92 24 94 25 95
REMARK SMILES IDX 32 96 26 97 31 98 27 99 30 100 28 101 29 102
REMARK H PARENT 93 23 59 34 23 93
REMARK Flexibility Score: inf
ROOT
ATOM      1  C   UNL A   1      35.592  32.258  28.129  1.00  0.00     0.202 C 
ENDROOT
BRANCH   1   2
ATOM      2  C   UNL A   1      35.128  32.263  29.583  1.00  0.00     0.261 C 
BRANCH   2   3
ATOM      3  O   UNL A   1      36.221  31.949  30.454  1.00  0.00    -0.460 OA
BRANCH   3   4
ATOM      4  C   UNL A   1      36.757  30.726  30.679  1.00  0.00     0.338 C 
ATOM      5  O   UNL A   1      36.098  29.927  31.345  1.00  0.00    -0.246 OA
BRANCH   4   6
ATOM      6  C   UNL A   1      38.088  30.268  30.160  1.00  0.00     0.060 A 
ATOM      7  C   UNL A   1      38.449  30.118  28.816  1.00  0.00     0.016 A 
ATOM      8  C   UNL A   1      39.088  30.064  31.127  1.00  0.00     0.016 A 
ATOM      9  C   UNL A   1      39.740  29.784  28.432  1.00  0.00     0.010 A 
ATOM     10  C   UNL A   1      40.392  29.731  30.754  1.00  0.00     0.010 A 
ATOM     11  C   UNL A   1      40.714  29.589  29.401  1.00  0.00    -0.014 A 
BRANCH  11  12
ATOM     12  C   UNL A   1      42.037  29.110  28.978  1.00  0.00     0.031 A 
ATOM     13  C   UNL A   1      43.165  30.087  28.988  1.00  0.00     0.074 A 
ATOM     14  C   UNL A   1      42.209  27.816  28.664  1.00  0.00     0.049 A 
ATOM     15  N   UNL A   1      44.380  29.952  28.539  1.00  0.00    -0.248 NA
ATOM     16  C   UNL A   1      42.882  31.401  29.594  1.00  0.00     0.031 C 
ATOM     17  C   UNL A   1      41.177  26.781  28.759  1.00  0.00     0.029 A 
ATOM     18  N   UNL A   1      43.311  27.151  28.203  1.00  0.00    -0.354 N 
ATOM     19  C   UNL A   1      44.998  31.173  28.770  1.00  0.00     0.074 A 
ATOM     20  C   UNL A   1      44.028  32.036  29.406  1.00  0.00     0.031 C 
ATOM     21  C   UNL A   1      41.695  25.611  28.351  1.00  0.00     0.029 A 
ATOM     22  C   UNL A   1      43.067  25.831  27.908  1.00  0.00     0.049 A 
ATOM     23  H   UNL A   1      44.193  27.576  28.093  1.00  0.00     0.167 HD
ATOM     24  C   UNL A   1      46.262  31.534  28.454  1.00  0.00     0.037 A 
ATOM     25  C   UNL A   1      43.859  24.927  27.301  1.00  0.00     0.037 A 
ATOM     26  C   UNL A   1      47.183  30.643  27.803  1.00  0.00     0.049 A 
ATOM     27  C   UNL A   1      45.235  25.369  26.883  1.00  0.00     0.074 A 
ATOM     28  C   UNL A   1      48.468  30.892  27.364  1.00  0.00     0.029 A 
ATOM     29  N   UNL A   1      46.899  29.317  27.491  1.00  0.00    -0.354 N 
ATOM     30  N   UNL A   1      45.801  26.545  27.036  1.00  0.00    -0.248 NA
ATOM     31  C   UNL A   1      46.078  24.380  26.204  1.00  0.00     0.031 C 
ATOM     32  C   UNL A   1      48.946  29.730  26.749  1.00  0.00     0.029 A 
ATOM     33  C   UNL A   1      47.980  28.737  26.854  1.00  0.00     0.049 A 
ATOM     34  H   UNL A   1      46.052  28.858  27.694  1.00  0.00     0.167 HD
ATOM     35  C   UNL A   1      47.074  26.433  26.495  1.00  0.00     0.074 A 
ATOM     36  C   UNL A   1      47.196  25.071  26.010  1.00  0.00     0.031 C 
ATOM     37  C   UNL A   1      48.056  27.366  26.407  1.00  0.00     0.037 A 
BRANCH  24  38
ATOM     38  C   UNL A   1      46.650  32.959  28.727  1.00  0.00     0.058 A 
ATOM     39  C   UNL A   1      46.506  33.971  27.765  1.00  0.00     0.135 A 
ATOM     40  C   UNL A   1      47.252  33.301  29.950  1.00  0.00     0.135 A 
ATOM     41  F   UNL A   1      45.968  33.694  26.567  1.00  0.00    -0.206 F 
ATOM     42  C   UNL A   1      46.990  35.258  27.985  1.00  0.00     0.059 A 
ATOM     43  C   UNL A   1      47.718  34.588  30.201  1.00  0.00     0.059 A 
ATOM     44  F   UNL A   1      47.426  32.371  30.902  1.00  0.00    -0.206 F 
ATOM     45  C   UNL A   1      47.606  35.553  29.202  1.00  0.00     0.060 A 
BRANCH  45  46
ATOM     46  S   UNL A   1      48.288  37.206  29.450  1.00  0.00     0.124 S 
ATOM     47  O   UNL A   1      48.003  37.427  30.866  1.00  0.00    -0.237 OA
ATOM     48  O   UNL A   1      49.695  37.019  29.112  1.00  0.00    -0.237 OA
ATOM     49  O   UNL A   1      47.525  38.032  28.521  1.00  0.00    -0.744 OA
ENDBRANCH  45  46
ENDBRANCH  24  38
BRANCH  25  50
ATOM     50  C   UNL A   1      43.343  23.559  27.027  1.00  0.00     0.058 A 
ATOM     51  C   UNL A   1      42.944  23.172  25.740  1.00  0.00     0.135 A 
ATOM     52  C   UNL A   1      43.295  22.587  28.042  1.00  0.00     0.135 A 
ATOM     53  F   UNL A   1      42.961  24.063  24.737  1.00  0.00    -0.206 F 
ATOM     54  C   UNL A   1      42.522  21.873  25.466  1.00  0.00     0.059 A 
ATOM     55  C   UNL A   1      42.901  21.276  27.787  1.00  0.00     0.059 A 
ATOM     56  F   UNL A   1      43.675  22.899  29.290  1.00  0.00    -0.206 F 
ATOM     57  C   UNL A   1      42.512  20.929  26.496  1.00  0.00     0.060 A 
BRANCH  57  58
ATOM     58  S   UNL A   1      42.035  19.229  26.113  1.00  0.00     0.124 S 
ATOM     59  O   UNL A   1      42.800  18.974  24.898  1.00  0.00    -0.237 OA
ATOM     60  O   UNL A   1      42.472  18.510  27.305  1.00  0.00    -0.237 OA
ATOM     61  O   UNL A   1      40.587  19.317  25.940  1.00  0.00    -0.744 OA
ENDBRANCH  57  58
ENDBRANCH  25  50
BRANCH  37  62
ATOM     62  C   UNL A   1      49.364  26.931  25.813  1.00  0.00     0.058 A 
ATOM     63  C   UNL A   1      49.663  27.137  24.459  1.00  0.00     0.135 A 
ATOM     64  C   UNL A   1      50.367  26.405  26.643  1.00  0.00     0.135 A 
ATOM     65  F   UNL A   1      48.733  27.630  23.627  1.00  0.00    -0.206 F 
ATOM     66  C   UNL A   1      50.919  26.835  23.945  1.00  0.00     0.059 A 
ATOM     67  C   UNL A   1      51.636  26.119  26.156  1.00  0.00     0.059 A 
ATOM     68  F   UNL A   1      50.126  26.201  27.948  1.00  0.00    -0.206 F 
ATOM     69  C   UNL A   1      51.902  26.337  24.805  1.00  0.00     0.060 A 
BRANCH  69  70
ATOM     70  S   UNL A   1      53.553  26.030  24.145  1.00  0.00     0.124 S 
ATOM     71  O   UNL A   1      53.294  25.995  22.710  1.00  0.00    -0.237 OA
ATOM     72  O   UNL A   1      54.302  27.188  24.627  1.00  0.00    -0.237 OA
ATOM     73  O   UNL A   1      53.928  24.755  24.748  1.00  0.00    -0.744 OA
ENDBRANCH  69  70
ENDBRANCH  37  62
ENDBRANCH  11  12
ENDBRANCH   4   6
ENDBRANCH   3   4
ENDBRANCH   2   3
ENDBRANCH   1   2
BRANCH   1  74
ATOM     74  O   UNL A   1      34.655  31.655  27.237  1.00  0.00    -0.374 OA
BRANCH  74  75
ATOM     75  C   UNL A   1      33.312  31.538  27.700  1.00  0.00     0.202 C 
BRANCH  75  76
ATOM     76  C   UNL A   1      32.769  30.170  27.285  1.00  0.00     0.261 C 
BRANCH  76  77
ATOM     77  O   UNL A   1      33.329  29.843  26.005  1.00  0.00    -0.459 OA
BRANCH  77  78
ATOM     78  C   UNL A   1      33.715  28.542  25.873  1.00  0.00     0.357 C 
ATOM     79  O   UNL A   1      34.501  27.931  26.573  1.00  0.00    -0.244 OA
BRANCH  78  80
ATOM     80  C   UNL A   1      32.908  27.957  24.774  1.00  0.00     0.154 A 
ATOM     81  C   UNL A   1      31.729  28.551  24.433  1.00  0.00     0.065 A 
ATOM     82  N   UNL A   1      33.382  26.849  24.177  1.00  0.00    -0.206 NA
ATOM     83  C   UNL A   1      31.084  28.007  23.350  1.00  0.00     0.077 A 
ATOM     84  C   UNL A   1      32.646  26.306  23.204  1.00  0.00     0.230 A 
ATOM     85  N   UNL A   1      31.520  26.885  22.731  1.00  0.00    -0.213 NA
BRANCH  83  86
ATOM     86  C   UNL A   1      29.918  28.724  22.808  1.00  0.00     0.000 A 
ATOM     87  C   UNL A   1      28.601  28.410  23.161  1.00  0.00     0.010 A 
ATOM     88  C   UNL A   1      30.131  29.844  21.975  1.00  0.00     0.010 A 
ATOM     89  C   UNL A   1      27.541  29.219  22.730  1.00  0.00     0.001 A 
ATOM     90  C   UNL A   1      29.080  30.653  21.553  1.00  0.00     0.001 A 
ATOM     91  C   UNL A   1      27.782  30.344  21.940  1.00  0.00     0.000 A 
ENDBRANCH  83  86
BRANCH  84  92
ATOM     92  N   UNL A   1      33.090  25.149  22.568  1.00  0.00    -0.300 N 
ATOM     93  H   UNL A   1      32.843  25.026  21.624  1.00  0.00     0.172 HD
BRANCH  92  94
ATOM     94  C   UNL A   1      33.835  24.182  23.149  1.00  0.00     0.190 A 
ATOM     95  N   UNL A   1      35.128  24.000  22.979  1.00  0.00    -0.220 NA
ATOM     96  S   UNL A   1      33.117  23.110  24.299  1.00  0.00    -0.097 S 
ATOM     97  C   UNL A   1      35.573  22.897  23.697  1.00  0.00     0.084 A 
ATOM     98  C   UNL A   1      34.596  22.238  24.440  1.00  0.00     0.056 A 
ATOM     99  C   UNL A   1      36.893  22.396  23.732  1.00  0.00     0.030 A 
ATOM    100  C   UNL A   1      34.881  21.066  25.166  1.00  0.00     0.021 A 
ATOM    101  C   UNL A   1      37.188  21.228  24.440  1.00  0.00     0.002 A 
ATOM    102  C   UNL A   1      36.187  20.565  25.139  1.00  0.00     0.002 A 
ENDBRANCH  92  94
ENDBRANCH  84  92
ENDBRANCH  78  80
ENDBRANCH  77  78
ENDBRANCH  76  77
ENDBRANCH  75  76
ENDBRANCH  74  75
ENDBRANCH   1  74
TORSDOF 20
ENDMDL
MODEL 3
REMARK VINA RESULT:     -11.6      1.340      3.831
REMARK SMILES O=C(OCCOCCOC(=O)c1cc(-c2ccccc2)nc(Nc2nc3ccccc3s2)n1)c1ccc(-c2c3nc(c(-c4c(F)cc(S(=O)(=O)[O-])cc4F)c4ccc([nH]4)c(-c4c(F)cc(S(=O)(=O)[O-])cc4F)c4nc(c(-c5c(F)cc(S(=O)(=O)[O-])cc5F)c5ccc2[nH]5)C=C4)C=C3)cc1
REMARK SMILES IDX 5 1 4 2 3 3 2 4 1 5 34 6 35 7 99 8 36 9 98 10 37 11 38 12
REMARK SMILES IDX 39 13 92 14 40 15 97 16 91 17 93 18 41 19 96 20 90 21 89 22
REMARK SMILES IDX 42 24 76 25 55 26 75 27 56 28 59 29 74 30 94 31 57 32 58 33
REMARK SMILES IDX 73 35 95 36 60 37 43 38 44 39 53 40 45 41 46 42 52 43 54 44
REMARK SMILES IDX 47 45 48 46 49 47 50 48 51 49 77 50 78 51 87 52 79 53 80 54
REMARK SMILES IDX 86 55 88 56 81 57 82 58 83 59 84 60 85 61 61 62 62 63 71 64
REMARK SMILES IDX 63 65 64 66 70 67 72 68 65 69 66 70 67 71 68 72 69 73 6 74
REMARK SMILES IDX 7 75 8 76 9 77 10 78 11 79 12 80 13 81 33 82 14 83 22 84
REMARK SMILES IDX 21 85 15 86 16 87 20 88 17 89 19 90 18 91 23 92 24 94 25 95
REMARK SMILES IDX 32 96 26 97 31 98 27 99 30 100 28 101 29 102
REMARK H PARENT 93 23 59 34 23 93
REMARK Flexibility Score: inf
ROOT
ATOM      1  C   UNL A   1      41.132  22.865  26.087  1.00  0.00     0.202 C 
ENDROOT
BRANCH   1   2
ATOM      2  C   UNL A   1      42.454  23.435  26.593  1.00  0.00     0.261 C 
BRANCH   2   3
ATOM      3  O   UNL A   1      42.733  24.685  25.952  1.00  0.00    -0.460 OA
BRANCH   3   4
ATOM      4  C   UNL A   1      42.002  25.822  26.030  1.00  0.00     0.338 C 
ATOM      5  O   UNL A   1      41.537  26.275  24.983  1.00  0.00    -0.246 OA
BRANCH   4   6
ATOM      6  C   UNL A   1      41.703  26.560  27.301  1.00  0.00     0.060 A 
ATOM      7  C   UNL A   1      40.743  26.210  28.259  1.00  0.00     0.016 A 
ATOM      8  C   UNL A   1      42.540  27.652  27.591  1.00  0.00     0.016 A 
ATOM      9  C   UNL A   1      40.609  26.901  29.455  1.00  0.00     0.010 A 
ATOM     10  C   UNL A   1      42.418  28.353  28.792  1.00  0.00     0.010 A 
ATOM     11  C   UNL A   1      41.447  27.975  29.723  1.00  0.00    -0.014 A 
BRANCH  11  12
ATOM     12  C   UNL A   1      41.200  28.769  30.934  1.00  0.00     0.031 A 
ATOM     13  C   UNL A   1      40.058  29.730  30.914  1.00  0.00     0.074 A 
ATOM     14  C   UNL A   1      41.951  28.567  32.029  1.00  0.00     0.049 A 
ATOM     15  N   UNL A   1      39.719  30.629  31.792  1.00  0.00    -0.248 NA
ATOM     16  C   UNL A   1      39.172  29.662  29.738  1.00  0.00     0.031 C 
ATOM     17  C   UNL A   1      42.998  27.551  32.157  1.00  0.00     0.029 A 
ATOM     18  N   UNL A   1      41.949  29.203  33.240  1.00  0.00    -0.354 N 
ATOM     19  C   UNL A   1      38.605  31.264  31.261  1.00  0.00     0.074 A 
ATOM     20  C   UNL A   1      38.319  30.643  29.987  1.00  0.00     0.031 C 
ATOM     21  C   UNL A   1      43.550  27.645  33.378  1.00  0.00     0.029 A 
ATOM     22  C   UNL A   1      42.938  28.765  34.086  1.00  0.00     0.049 A 
ATOM     23  H   UNL A   1      41.302  29.905  33.481  1.00  0.00     0.167 HD
ATOM     24  C   UNL A   1      37.904  32.290  31.794  1.00  0.00     0.037 A 
ATOM     25  C   UNL A   1      43.329  29.257  35.277  1.00  0.00     0.037 A 
ATOM     26  C   UNL A   1      38.242  32.887  33.057  1.00  0.00     0.049 A 
ATOM     27  C   UNL A   1      42.589  30.450  35.818  1.00  0.00     0.074 A 
ATOM     28  C   UNL A   1      37.665  33.971  33.686  1.00  0.00     0.029 A 
ATOM     29  N   UNL A   1      39.269  32.439  33.883  1.00  0.00    -0.354 N 
ATOM     30  N   UNL A   1      41.578  31.100  35.286  1.00  0.00    -0.248 NA
ATOM     31  C   UNL A   1      43.039  30.989  37.106  1.00  0.00     0.031 C 
ATOM     32  C   UNL A   1      38.369  34.206  34.873  1.00  0.00     0.029 A 
ATOM     33  C   UNL A   1      39.351  33.233  35.011  1.00  0.00     0.049 A 
ATOM     34  H   UNL A   1      39.853  31.671  33.691  1.00  0.00     0.167 HD
ATOM     35  C   UNL A   1      41.253  32.109  36.183  1.00  0.00     0.074 A 
ATOM     36  C   UNL A   1      42.178  31.982  37.294  1.00  0.00     0.031 C 
ATOM     37  C   UNL A   1      40.281  33.052  36.101  1.00  0.00     0.037 A 
BRANCH  24  38
ATOM     38  C   UNL A   1      36.793  32.860  30.959  1.00  0.00     0.058 A 
ATOM     39  C   UNL A   1      37.028  33.797  29.940  1.00  0.00     0.135 A 
ATOM     40  C   UNL A   1      35.459  32.521  31.239  1.00  0.00     0.135 A 
ATOM     41  F   UNL A   1      38.281  34.183  29.652  1.00  0.00    -0.206 F 
ATOM     42  C   UNL A   1      35.979  34.414  29.263  1.00  0.00     0.059 A 
ATOM     43  C   UNL A   1      34.396  33.104  30.556  1.00  0.00     0.059 A 
ATOM     44  F   UNL A   1      35.174  31.639  32.211  1.00  0.00    -0.206 F 
ATOM     45  C   UNL A   1      34.666  34.070  29.588  1.00  0.00     0.060 A 
BRANCH  45  46
ATOM     46  S   UNL A   1      33.314  34.924  28.751  1.00  0.00     0.124 S 
ATOM     47  O   UNL A   1      32.488  35.339  29.882  1.00  0.00    -0.237 OA
ATOM     48  O   UNL A   1      34.008  35.998  28.048  1.00  0.00    -0.237 OA
ATOM     49  O   UNL A   1      32.736  33.890  27.898  1.00  0.00    -0.744 OA
ENDBRANCH  45  46
ENDBRANCH  24  38
BRANCH  25  50
ATOM     50  C   UNL A   1      44.485  28.647  35.986  1.00  0.00     0.058 A 
ATOM     51  C   UNL A   1      44.317  27.571  36.869  1.00  0.00     0.135 A 
ATOM     52  C   UNL A   1      45.797  29.093  35.748  1.00  0.00     0.135 A 
ATOM     53  F   UNL A   1      43.085  27.112  37.139  1.00  0.00    -0.206 F 
ATOM     54  C   UNL A   1      45.404  26.955  37.485  1.00  0.00     0.059 A 
ATOM     55  C   UNL A   1      46.901  28.478  36.332  1.00  0.00     0.059 A 
ATOM     56  F   UNL A   1      46.018  30.113  34.905  1.00  0.00    -0.206 F 
ATOM     57  C   UNL A   1      46.694  27.410  37.203  1.00  0.00     0.060 A 
BRANCH  57  58
ATOM     58  S   UNL A   1      48.100  26.556  37.949  1.00  0.00     0.124 S 
ATOM     59  O   UNL A   1      49.151  26.807  36.971  1.00  0.00    -0.237 OA
ATOM     60  O   UNL A   1      48.238  27.247  39.227  1.00  0.00    -0.237 OA
ATOM     61  O   UNL A   1      47.643  25.172  38.042  1.00  0.00    -0.744 OA
ENDBRANCH  57  58
ENDBRANCH  25  50
BRANCH  37  62
ATOM     62  C   UNL A   1      40.133  33.987  37.266  1.00  0.00     0.058 A 
ATOM     63  C   UNL A   1      40.715  35.262  37.267  1.00  0.00     0.135 A 
ATOM     64  C   UNL A   1      39.300  33.634  38.341  1.00  0.00     0.135 A 
ATOM     65  F   UNL A   1      41.523  35.638  36.263  1.00  0.00    -0.206 F 
ATOM     66  C   UNL A   1      40.476  36.161  38.298  1.00  0.00     0.059 A 
ATOM     67  C   UNL A   1      39.029  34.527  39.370  1.00  0.00     0.059 A 
ATOM     68  F   UNL A   1      38.715  32.427  38.376  1.00  0.00    -0.206 F 
ATOM     69  C   UNL A   1      39.623  35.788  39.340  1.00  0.00     0.060 A 
BRANCH  69  70
ATOM     70  S   UNL A   1      39.253  36.995  40.630  1.00  0.00     0.124 S 
ATOM     71  O   UNL A   1      40.586  37.304  41.135  1.00  0.00    -0.237 OA
ATOM     72  O   UNL A   1      38.595  38.062  39.880  1.00  0.00    -0.237 OA
ATOM     73  O   UNL A   1      38.388  36.258  41.546  1.00  0.00    -0.744 OA
ENDBRANCH  69  70
ENDBRANCH  37  62
ENDBRANCH  11  12
ENDBRANCH   4   6
ENDBRANCH   3   4
ENDBRANCH   2   3
ENDBRANCH   1   2
BRANCH   1  74
ATOM     74  O   UNL A   1      40.220  22.532  27.134  1.00  0.00    -0.374 OA
BRANCH  74  75
ATOM     75  C   UNL A   1      39.123  23.420  27.335  1.00  0.00     0.202 C 
BRANCH  75  76
ATOM     76  C   UNL A   1      38.730  24.023  25.986  1.00  0.00     0.261 C 
BRANCH  76  77
ATOM     77  O   UNL A   1      37.307  24.214  25.986  1.00  0.00    -0.459 OA
BRANCH  77  78
ATOM     78  C   UNL A   1      36.633  23.436  25.092  1.00  0.00     0.357 C 
ATOM     79  O   UNL A   1      37.098  22.579  24.362  1.00  0.00    -0.244 OA
BRANCH  78  80
ATOM     80  C   UNL A   1      35.190  23.742  25.248  1.00  0.00     0.154 A 
ATOM     81  C   UNL A   1      34.825  24.933  25.801  1.00  0.00     0.065 A 
ATOM     82  N   UNL A   1      34.309  22.807  24.848  1.00  0.00    -0.206 NA
ATOM     83  C   UNL A   1      33.476  25.183  25.831  1.00  0.00     0.077 A 
ATOM     84  C   UNL A   1      33.010  23.070  25.011  1.00  0.00     0.230 A 
ATOM     85  N   UNL A   1      32.557  24.264  25.450  1.00  0.00    -0.213 NA
BRANCH  83  86
ATOM     86  C   UNL A   1      33.030  26.530  26.224  1.00  0.00     0.000 A 
ATOM     87  C   UNL A   1      31.727  26.804  26.656  1.00  0.00     0.010 A 
ATOM     88  C   UNL A   1      33.976  27.578  26.268  1.00  0.00     0.010 A 
ATOM     89  C   UNL A   1      31.400  28.070  27.158  1.00  0.00     0.001 A 
ATOM     90  C   UNL A   1      33.654  28.834  26.775  1.00  0.00     0.001 A 
ATOM     91  C   UNL A   1      32.364  29.077  27.228  1.00  0.00     0.000 A 
ENDBRANCH  83  86
BRANCH  84  92
ATOM     92  N   UNL A   1      32.063  22.125  24.624  1.00  0.00    -0.300 N 
ATOM     93  H   UNL A   1      31.156  22.448  24.421  1.00  0.00     0.172 HD
BRANCH  92  94
ATOM     94  C   UNL A   1      32.294  20.798  24.505  1.00  0.00     0.190 A 
ATOM     95  N   UNL A   1      32.312  19.929  25.494  1.00  0.00    -0.220 NA
ATOM     96  S   UNL A   1      32.501  20.093  22.941  1.00  0.00    -0.097 S 
ATOM     97  C   UNL A   1      32.612  18.654  25.028  1.00  0.00     0.084 A 
ATOM     98  C   UNL A   1      32.810  18.555  23.653  1.00  0.00     0.056 A 
ATOM     99  C   UNL A   1      32.736  17.484  25.809  1.00  0.00     0.030 A 
ATOM    100  C   UNL A   1      33.184  17.343  23.043  1.00  0.00     0.021 A 
ATOM    101  C   UNL A   1      33.117  16.276  25.219  1.00  0.00     0.002 A 
ATOM    102  C   UNL A   1      33.351  16.213  23.851  1.00  0.00     0.002 A 
ENDBRANCH  92  94
ENDBRANCH  84  92
ENDBRANCH  78  80
ENDBRANCH  77  78
ENDBRANCH  76  77
ENDBRANCH  75  76
ENDBRANCH  74  75
ENDBRANCH   1  74
TORSDOF 20
ENDMDL
