MODEL 1
REMARK VINA RESULT:      -9.8      0.000      0.000
REMARK SMILES CN(CC(C)(C)C)C(=O)N1CCO[C@@H](CC(=O)OCCOCCOC(=O)c2ccc(-c3c4nc(c(-c5c(F)cc(S(=O)(=O)[O-])cc5F)c5ccc([nH]5)c(-c5c(F)cc(S(=O)(=O)[O-])cc5F)c5nc(c(-c6c(F)cc(S(=O)(=O)[O-])cc6F)c6ccc3[nH]6)C=C5)C=C4)cc2)C1
REMARK SMILES IDX 20 1 19 2 18 3 16 4 17 5 15 6 14 7 10 8 11 9 93 10 12 11
REMARK SMILES IDX 13 12 8 13 9 14 2 15 1 16 3 17 4 18 5 19 6 20 7 21 21 22
REMARK SMILES IDX 22 23 23 24 24 25 25 26 26 27 27 28 28 29 92 30 29 31 91 32
REMARK SMILES IDX 30 33 31 34 32 35 85 36 33 37 90 38 84 39 86 40 34 41 89 42
REMARK SMILES IDX 83 43 82 44 35 46 69 47 48 48 68 49 49 50 52 51 67 52 87 53
REMARK SMILES IDX 50 54 51 55 66 57 88 58 53 59 36 60 37 61 46 62 38 63 39 64
REMARK SMILES IDX 45 65 47 66 40 67 41 68 42 69 43 70 44 71 70 72 71 73 80 74
REMARK SMILES IDX 72 75 73 76 79 77 81 78 74 79 75 80 76 81 77 82 78 83 54 84
REMARK SMILES IDX 55 85 64 86 56 87 57 88 63 89 65 90 58 91 59 92 60 93 61 94
REMARK SMILES IDX 62 95
REMARK H PARENT 86 45 52 56
REMARK Flexibility Score: inf
ROOT
ATOM      1  C   UNL A   1      33.169  29.300  25.617  1.00  0.00     0.202 C 
ENDROOT
BRANCH   1   2
ATOM      2  C   UNL A   1      31.829  29.268  24.882  1.00  0.00     0.261 C 
BRANCH   2   3
ATOM      3  O   UNL A   1      31.926  28.492  23.676  1.00  0.00    -0.463 OA
BRANCH   3   4
ATOM      4  C   UNL A   1      30.762  28.018  23.170  1.00  0.00     0.308 C 
ATOM      5  O   UNL A   1      30.411  28.100  22.002  1.00  0.00    -0.252 OA
BRANCH   4   6
ATOM      6  C   UNL A   1      29.908  27.402  24.242  1.00  0.00     0.156 C 
BRANCH   6   7
ATOM      7  C   UNL A   1      30.025  25.889  24.458  1.00  0.00     0.149 C 
ATOM      8  N   UNL A   1      31.692  24.001  24.471  1.00  0.00    -0.320 N 
ATOM      9  C   UNL A   1      31.705  24.139  25.908  1.00  0.00     0.150 C 
ATOM     10  C   UNL A   1      31.318  25.270  23.842  1.00  0.00     0.154 C 
ATOM     11  C   UNL A   1      30.300  24.457  26.377  1.00  0.00     0.182 C 
ATOM     12  O   UNL A   1      29.939  25.754  25.903  1.00  0.00    -0.374 OA
BRANCH   8  13
ATOM     13  C   UNL A   1      32.524  23.142  23.783  1.00  0.00     0.319 C 
ATOM     14  O   UNL A   1      32.017  22.242  23.110  1.00  0.00    -0.248 OA
BRANCH  13  15
ATOM     15  N   UNL A   1      33.909  23.219  23.957  1.00  0.00    -0.327 N 
ATOM     16  C   UNL A   1      34.455  24.575  23.884  1.00  0.00     0.148 C 
BRANCH  15  17
ATOM     17  C   UNL A   1      34.913  22.157  23.802  1.00  0.00     0.127 C 
BRANCH  17  18
ATOM     18  C   UNL A   1      35.046  21.122  24.979  1.00  0.00    -0.020 C 
ATOM     19  C   UNL A   1      36.427  20.460  25.013  1.00  0.00     0.012 C 
ATOM     20  C   UNL A   1      34.861  21.890  26.303  1.00  0.00     0.012 C 
ATOM     21  C   UNL A   1      34.018  19.979  24.947  1.00  0.00     0.012 C 
ENDBRANCH  17  18
ENDBRANCH  15  17
ENDBRANCH  13  15
ENDBRANCH   8  13
ENDBRANCH   6   7
ENDBRANCH   4   6
ENDBRANCH   3   4
ENDBRANCH   2   3
ENDBRANCH   1   2
BRANCH   1  22
ATOM     22  O   UNL A   1      33.260  30.191  26.730  1.00  0.00    -0.374 OA
BRANCH  22  23
ATOM     23  C   UNL A   1      34.508  30.219  27.420  1.00  0.00     0.202 C 
BRANCH  23  24
ATOM     24  C   UNL A   1      34.678  31.277  28.519  1.00  0.00     0.261 C 
BRANCH  24  25
ATOM     25  O   UNL A   1      36.046  31.444  28.922  1.00  0.00    -0.460 OA
BRANCH  25  26
ATOM     26  C   UNL A   1      36.520  30.493  29.772  1.00  0.00     0.338 C 
ATOM     27  O   UNL A   1      35.883  29.870  30.598  1.00  0.00    -0.246 OA
BRANCH  26  28
ATOM     28  C   UNL A   1      37.929  30.191  29.429  1.00  0.00     0.060 A 
ATOM     29  C   UNL A   1      38.269  29.895  28.106  1.00  0.00     0.016 A 
ATOM     30  C   UNL A   1      38.912  30.195  30.410  1.00  0.00     0.016 A 
ATOM     31  C   UNL A   1      39.594  29.577  27.781  1.00  0.00     0.010 A 
ATOM     32  C   UNL A   1      40.236  29.901  30.089  1.00  0.00     0.010 A 
ATOM     33  C   UNL A   1      40.580  29.551  28.778  1.00  0.00    -0.014 A 
BRANCH  33  34
ATOM     34  C   UNL A   1      41.952  29.060  28.496  1.00  0.00     0.031 A 
ATOM     35  C   UNL A   1      43.087  30.046  28.445  1.00  0.00     0.074 A 
ATOM     36  C   UNL A   1      42.176  27.758  28.239  1.00  0.00     0.049 A 
ATOM     37  N   UNL A   1      44.351  29.846  28.173  1.00  0.00    -0.248 NA
ATOM     38  C   UNL A   1      42.747  31.452  28.719  1.00  0.00     0.031 C 
ATOM     39  C   UNL A   1      41.151  26.717  28.215  1.00  0.00     0.029 A 
ATOM     40  N   UNL A   1      43.337  27.098  27.920  1.00  0.00    -0.354 N 
ATOM     41  C   UNL A   1      44.957  31.096  28.249  1.00  0.00     0.074 A 
ATOM     42  C   UNL A   1      43.912  32.055  28.533  1.00  0.00     0.031 C 
ATOM     43  C   UNL A   1      41.726  25.548  27.887  1.00  0.00     0.029 A 
ATOM     44  C   UNL A   1      43.153  25.763  27.647  1.00  0.00     0.049 A 
ATOM     45  H   UNL A   1      44.217  27.538  27.891  1.00  0.00     0.167 HD
ATOM     46  C   UNL A   1      46.267  31.412  28.116  1.00  0.00     0.037 A 
ATOM     47  C   UNL A   1      44.028  24.829  27.227  1.00  0.00     0.037 A 
ATOM     48  C   UNL A   1      47.298  30.451  27.816  1.00  0.00     0.049 A 
ATOM     49  C   UNL A   1      45.474  25.204  27.035  1.00  0.00     0.074 A 
ATOM     50  C   UNL A   1      48.662  30.657  27.706  1.00  0.00     0.029 A 
ATOM     51  N   UNL A   1      47.074  29.106  27.554  1.00  0.00    -0.354 N 
ATOM     52  N   UNL A   1      46.051  26.371  27.200  1.00  0.00    -0.248 NA
ATOM     53  C   UNL A   1      46.391  24.138  26.604  1.00  0.00     0.031 C 
ATOM     54  C   UNL A   1      49.255  29.451  27.319  1.00  0.00     0.029 A 
ATOM     55  C   UNL A   1      48.270  28.478  27.244  1.00  0.00     0.049 A 
ATOM     56  H   UNL A   1      46.196  28.664  27.584  1.00  0.00     0.167 HD
ATOM     57  C   UNL A   1      47.397  26.179  26.904  1.00  0.00     0.074 A 
ATOM     58  C   UNL A   1      47.553  24.777  26.570  1.00  0.00     0.031 C 
ATOM     59  C   UNL A   1      48.410  27.081  26.905  1.00  0.00     0.037 A 
BRANCH  46  60
ATOM     60  C   UNL A   1      46.654  32.858  28.285  1.00  0.00     0.058 A 
ATOM     61  C   UNL A   1      47.048  33.374  29.530  1.00  0.00     0.135 A 
ATOM     62  C   UNL A   1      46.639  33.739  27.191  1.00  0.00     0.135 A 
ATOM     63  F   UNL A   1      47.073  32.583  30.615  1.00  0.00    -0.206 F 
ATOM     64  C   UNL A   1      47.367  34.719  29.695  1.00  0.00     0.059 A 
ATOM     65  C   UNL A   1      46.986  35.081  27.325  1.00  0.00     0.059 A 
ATOM     66  F   UNL A   1      46.274  33.302  25.975  1.00  0.00    -0.206 F 
ATOM     67  C   UNL A   1      47.328  35.566  28.587  1.00  0.00     0.060 A 
BRANCH  67  68
ATOM     68  S   UNL A   1      47.714  37.313  28.825  1.00  0.00     0.124 S 
ATOM     69  O   UNL A   1      49.096  37.372  28.356  1.00  0.00    -0.237 OA
ATOM     70  O   UNL A   1      46.728  37.969  27.971  1.00  0.00    -0.237 OA
ATOM     71  O   UNL A   1      47.530  37.513  30.258  1.00  0.00    -0.744 OA
ENDBRANCH  67  68
ENDBRANCH  46  60
BRANCH  47  72
ATOM     72  C   UNL A   1      43.547  23.448  26.953  1.00  0.00     0.058 A 
ATOM     73  C   UNL A   1      43.399  22.973  25.643  1.00  0.00     0.135 A 
ATOM     74  C   UNL A   1      43.269  22.558  28.005  1.00  0.00     0.135 A 
ATOM     75  F   UNL A   1      43.637  23.788  24.603  1.00  0.00    -0.206 F 
ATOM     76  C   UNL A   1      42.998  21.667  25.382  1.00  0.00     0.059 A 
ATOM     77  C   UNL A   1      42.893  21.240  27.770  1.00  0.00     0.059 A 
ATOM     78  F   UNL A   1      43.403  22.960  29.278  1.00  0.00    -0.206 F 
ATOM     79  C   UNL A   1      42.757  20.804  26.454  1.00  0.00     0.060 A 
BRANCH  79  80
ATOM     80  S   UNL A   1      42.319  19.088  26.100  1.00  0.00     0.124 S 
ATOM     81  O   UNL A   1      42.611  18.440  27.373  1.00  0.00    -0.237 OA
ATOM     82  O   UNL A   1      40.906  19.201  25.751  1.00  0.00    -0.237 OA
ATOM     83  O   UNL A   1      43.203  18.735  24.993  1.00  0.00    -0.744 OA
ENDBRANCH  79  80
ENDBRANCH  47  72
BRANCH  59  84
ATOM     84  C   UNL A   1      49.785  26.592  26.536  1.00  0.00     0.058 A 
ATOM     85  C   UNL A   1      50.669  26.088  27.505  1.00  0.00     0.135 A 
ATOM     86  C   UNL A   1      50.192  26.542  25.192  1.00  0.00     0.135 A 
ATOM     87  F   UNL A   1      50.335  26.119  28.805  1.00  0.00    -0.206 F 
ATOM     88  C   UNL A   1      51.906  25.557  27.154  1.00  0.00     0.059 A 
ATOM     89  C   UNL A   1      51.413  25.991  24.817  1.00  0.00     0.059 A 
ATOM     90  F   UNL A   1      49.384  27.004  24.224  1.00  0.00    -0.206 F 
ATOM     91  C   UNL A   1      52.266  25.504  25.806  1.00  0.00     0.060 A 
BRANCH  91  92
ATOM     92  S   UNL A   1      53.845  24.749  25.364  1.00  0.00     0.124 S 
ATOM     93  O   UNL A   1      54.280  25.596  24.259  1.00  0.00    -0.237 OA
ATOM     94  O   UNL A   1      54.608  24.879  26.601  1.00  0.00    -0.237 OA
ATOM     95  O   UNL A   1      53.481  23.383  24.999  1.00  0.00    -0.744 OA
ENDBRANCH  91  92
ENDBRANCH  59  84
ENDBRANCH  33  34
ENDBRANCH  26  28
ENDBRANCH  25  26
ENDBRANCH  24  25
ENDBRANCH  23  24
ENDBRANCH  22  23
ENDBRANCH   1  22
TORSDOF 22
ENDMDL
MODEL 2
REMARK VINA RESULT:      -9.8      5.090      9.462
REMARK SMILES CN(CC(C)(C)C)C(=O)N1CCO[C@@H](CC(=O)OCCOCCOC(=O)c2ccc(-c3c4nc(c(-c5c(F)cc(S(=O)(=O)[O-])cc5F)c5ccc([nH]5)c(-c5c(F)cc(S(=O)(=O)[O-])cc5F)c5nc(c(-c6c(F)cc(S(=O)(=O)[O-])cc6F)c6ccc3[nH]6)C=C5)C=C4)cc2)C1
REMARK SMILES IDX 20 1 19 2 18 3 16 4 17 5 15 6 14 7 10 8 11 9 93 10 12 11
REMARK SMILES IDX 13 12 8 13 9 14 2 15 1 16 3 17 4 18 5 19 6 20 7 21 21 22
REMARK SMILES IDX 22 23 23 24 24 25 25 26 26 27 27 28 28 29 92 30 29 31 91 32
REMARK SMILES IDX 30 33 31 34 32 35 85 36 33 37 90 38 84 39 86 40 34 41 89 42
REMARK SMILES IDX 83 43 82 44 35 46 69 47 48 48 68 49 49 50 52 51 67 52 87 53
REMARK SMILES IDX 50 54 51 55 66 57 88 58 53 59 36 60 37 61 46 62 38 63 39 64
REMARK SMILES IDX 45 65 47 66 40 67 41 68 42 69 43 70 44 71 70 72 71 73 80 74
REMARK SMILES IDX 72 75 73 76 79 77 81 78 74 79 75 80 76 81 77 82 78 83 54 84
REMARK SMILES IDX 55 85 64 86 56 87 57 88 63 89 65 90 58 91 59 92 60 93 61 94
REMARK SMILES IDX 62 95
REMARK H PARENT 86 45 52 56
REMARK Flexibility Score: inf
ROOT
ATOM      1  C   UNL A   1      32.940  28.991  23.841  1.00  0.00     0.202 C 
ENDROOT
BRANCH   1   2
ATOM      2  C   UNL A   1      32.311  28.271  22.648  1.00  0.00     0.261 C 
BRANCH   2   3
ATOM      3  O   UNL A   1      33.276  27.430  21.994  1.00  0.00    -0.463 OA
BRANCH   3   4
ATOM      4  C   UNL A   1      32.868  26.176  21.684  1.00  0.00     0.308 C 
ATOM      5  O   UNL A   1      33.178  25.559  20.674  1.00  0.00    -0.252 OA
BRANCH   4   6
ATOM      6  C   UNL A   1      31.933  25.630  22.725  1.00  0.00     0.156 C 
BRANCH   6   7
ATOM      7  C   UNL A   1      32.488  24.581  23.694  1.00  0.00     0.149 C 
ATOM      8  N   UNL A   1      33.260  22.187  23.812  1.00  0.00    -0.320 N 
ATOM      9  C   UNL A   1      34.603  22.707  23.712  1.00  0.00     0.150 C 
ATOM     10  C   UNL A   1      32.310  23.114  23.195  1.00  0.00     0.154 C 
ATOM     11  C   UNL A   1      34.683  23.997  24.502  1.00  0.00     0.182 C 
ATOM     12  O   UNL A   1      33.876  24.982  23.857  1.00  0.00    -0.374 OA
BRANCH   8  13
ATOM     13  C   UNL A   1      32.966  20.838  23.809  1.00  0.00     0.319 C 
ATOM     14  O   UNL A   1      32.144  20.416  22.992  1.00  0.00    -0.248 OA
BRANCH  13  15
ATOM     15  N   UNL A   1      33.495  20.004  24.798  1.00  0.00    -0.327 N 
ATOM     16  C   UNL A   1      33.409  20.542  26.156  1.00  0.00     0.148 C 
BRANCH  15  17
ATOM     17  C   UNL A   1      34.450  18.896  24.648  1.00  0.00     0.127 C 
BRANCH  17  18
ATOM     18  C   UNL A   1      33.850  17.462  24.410  1.00  0.00    -0.020 C 
ATOM     19  C   UNL A   1      33.799  17.095  22.924  1.00  0.00     0.012 C 
ATOM     20  C   UNL A   1      34.771  16.444  25.114  1.00  0.00     0.012 C 
ATOM     21  C   UNL A   1      32.425  17.265  24.954  1.00  0.00     0.012 C 
ENDBRANCH  17  18
ENDBRANCH  15  17
ENDBRANCH  13  15
ENDBRANCH   8  13
ENDBRANCH   6   7
ENDBRANCH   4   6
ENDBRANCH   3   4
ENDBRANCH   2   3
ENDBRANCH   1   2
BRANCH   1  22
ATOM     22  O   UNL A   1      32.089  29.211  24.969  1.00  0.00    -0.374 OA
BRANCH  22  23
ATOM     23  C   UNL A   1      31.970  28.132  25.894  1.00  0.00     0.202 C 
BRANCH  23  24
ATOM     24  C   UNL A   1      32.749  28.250  27.212  1.00  0.00     0.261 C 
BRANCH  24  25
ATOM     25  O   UNL A   1      34.143  28.525  27.009  1.00  0.00    -0.460 OA
BRANCH  25  26
ATOM     26  C   UNL A   1      34.525  29.806  27.270  1.00  0.00     0.338 C 
ATOM     27  O   UNL A   1      33.879  30.814  27.070  1.00  0.00    -0.246 OA
BRANCH  26  28
ATOM     28  C   UNL A   1      35.809  29.791  28.009  1.00  0.00     0.060 A 
ATOM     29  C   UNL A   1      36.991  30.130  27.346  1.00  0.00     0.016 A 
ATOM     30  C   UNL A   1      35.846  29.441  29.352  1.00  0.00     0.016 A 
ATOM     31  C   UNL A   1      38.212  30.086  28.031  1.00  0.00     0.010 A 
ATOM     32  C   UNL A   1      37.056  29.417  30.045  1.00  0.00     0.010 A 
ATOM     33  C   UNL A   1      38.254  29.702  29.379  1.00  0.00    -0.014 A 
BRANCH  33  34
ATOM     34  C   UNL A   1      39.542  29.488  30.083  1.00  0.00     0.031 A 
ATOM     35  C   UNL A   1      40.449  28.377  29.628  1.00  0.00     0.074 A 
ATOM     36  C   UNL A   1      39.876  30.240  31.148  1.00  0.00     0.049 A 
ATOM     37  N   UNL A   1      41.595  27.984  30.122  1.00  0.00    -0.248 NA
ATOM     38  C   UNL A   1      39.995  27.592  28.469  1.00  0.00     0.031 C 
ATOM     39  C   UNL A   1      39.059  31.314  31.709  1.00  0.00     0.029 A 
ATOM     40  N   UNL A   1      40.980  30.194  31.962  1.00  0.00    -0.354 N 
ATOM     41  C   UNL A   1      42.000  26.912  29.334  1.00  0.00     0.074 A 
ATOM     42  C   UNL A   1      40.949  26.680  28.367  1.00  0.00     0.031 C 
ATOM     43  C   UNL A   1      39.684  31.820  32.785  1.00  0.00     0.029 A 
ATOM     44  C   UNL A   1      40.930  31.085  33.008  1.00  0.00     0.049 A 
ATOM     45  H   UNL A   1      41.737  29.582  31.811  1.00  0.00     0.167 HD
ATOM     46  C   UNL A   1      43.151  26.201  29.397  1.00  0.00     0.037 A 
ATOM     47  C   UNL A   1      41.777  31.269  34.040  1.00  0.00     0.037 A 
ATOM     48  C   UNL A   1      44.183  26.430  30.375  1.00  0.00     0.049 A 
ATOM     49  C   UNL A   1      43.030  30.439  34.125  1.00  0.00     0.074 A 
ATOM     50  C   UNL A   1      45.409  25.799  30.498  1.00  0.00     0.029 A 
ATOM     51  N   UNL A   1      44.100  27.347  31.414  1.00  0.00    -0.354 N 
ATOM     52  N   UNL A   1      43.446  29.490  33.319  1.00  0.00    -0.248 NA
ATOM     53  C   UNL A   1      43.932  30.703  35.256  1.00  0.00     0.031 C 
ATOM     54  C   UNL A   1      46.039  26.291  31.645  1.00  0.00     0.029 A 
ATOM     55  C   UNL A   1      45.235  27.272  32.205  1.00  0.00     0.049 A 
ATOM     56  H   UNL A   1      43.346  27.961  31.565  1.00  0.00     0.167 HD
ATOM     57  C   UNL A   1      44.660  29.052  33.838  1.00  0.00     0.074 A 
ATOM     58  C   UNL A   1      44.923  29.854  35.015  1.00  0.00     0.031 C 
ATOM     59  C   UNL A   1      45.481  28.072  33.382  1.00  0.00     0.037 A 
BRANCH  46  60
ATOM     60  C   UNL A   1      43.346  25.104  28.382  1.00  0.00     0.058 A 
ATOM     61  C   UNL A   1      43.797  25.376  27.080  1.00  0.00     0.135 A 
ATOM     62  C   UNL A   1      43.087  23.764  28.714  1.00  0.00     0.135 A 
ATOM     63  F   UNL A   1      44.052  26.639  26.701  1.00  0.00    -0.206 F 
ATOM     64  C   UNL A   1      43.940  24.368  26.132  1.00  0.00     0.059 A 
ATOM     65  C   UNL A   1      43.254  22.735  27.792  1.00  0.00     0.059 A 
ATOM     66  F   UNL A   1      42.657  23.442  29.945  1.00  0.00    -0.206 F 
ATOM     67  C   UNL A   1      43.660  23.050  26.495  1.00  0.00     0.060 A 
BRANCH  67  68
ATOM     68  S   UNL A   1      43.820  21.759  25.244  1.00  0.00     0.124 S 
ATOM     69  O   UNL A   1      45.128  21.199  25.570  1.00  0.00    -0.237 OA
ATOM     70  O   UNL A   1      42.675  20.902  25.534  1.00  0.00    -0.237 OA
ATOM     71  O   UNL A   1      43.748  22.492  23.984  1.00  0.00    -0.744 OA
ENDBRANCH  67  68
ENDBRANCH  46  60
BRANCH  47  72
ATOM     72  C   UNL A   1      41.452  32.285  35.078  1.00  0.00     0.058 A 
ATOM     73  C   UNL A   1      41.967  33.587  35.010  1.00  0.00     0.135 A 
ATOM     74  C   UNL A   1      40.579  31.982  36.136  1.00  0.00     0.135 A 
ATOM     75  F   UNL A   1      42.817  33.922  34.028  1.00  0.00    -0.206 F 
ATOM     76  C   UNL A   1      41.627  34.555  35.951  1.00  0.00     0.059 A 
ATOM     77  C   UNL A   1      40.203  32.940  37.072  1.00  0.00     0.059 A 
ATOM     78  F   UNL A   1      40.052  30.753  36.243  1.00  0.00    -0.206 F 
ATOM     79  C   UNL A   1      40.735  34.223  36.973  1.00  0.00     0.060 A 
BRANCH  79  80
ATOM     80  S   UNL A   1      40.237  35.512  38.136  1.00  0.00     0.124 S 
ATOM     81  O   UNL A   1      41.468  35.722  38.890  1.00  0.00    -0.237 OA
ATOM     82  O   UNL A   1      39.844  36.595  37.241  1.00  0.00    -0.237 OA
ATOM     83  O   UNL A   1      39.141  34.893  38.876  1.00  0.00    -0.744 OA
ENDBRANCH  79  80
ENDBRANCH  47  72
BRANCH  59  84
ATOM     84  C   UNL A   1      46.747  27.804  34.151  1.00  0.00     0.058 A 
ATOM     85  C   UNL A   1      47.895  28.591  33.970  1.00  0.00     0.135 A 
ATOM     86  C   UNL A   1      46.786  26.808  35.142  1.00  0.00     0.135 A 
ATOM     87  F   UNL A   1      47.917  29.551  33.032  1.00  0.00    -0.206 F 
ATOM     88  C   UNL A   1      49.038  28.398  34.741  1.00  0.00     0.059 A 
ATOM     89  C   UNL A   1      47.908  26.616  35.942  1.00  0.00     0.059 A 
ATOM     90  F   UNL A   1      45.714  26.031  35.362  1.00  0.00    -0.206 F 
ATOM     91  C   UNL A   1      49.031  27.414  35.732  1.00  0.00     0.060 A 
BRANCH  91  92
ATOM     92  S   UNL A   1      50.498  27.224  36.768  1.00  0.00     0.124 S 
ATOM     93  O   UNL A   1      50.025  27.741  38.048  1.00  0.00    -0.237 OA
ATOM     94  O   UNL A   1      50.733  25.785  36.712  1.00  0.00    -0.237 OA
ATOM     95  O   UNL A   1      51.501  28.044  36.094  1.00  0.00    -0.744 OA
ENDBRANCH  91  92
ENDBRANCH  59  84
ENDBRANCH  33  34
ENDBRANCH  26  28
ENDBRANCH  25  26
ENDBRANCH  24  25
ENDBRANCH  23  24
ENDBRANCH  22  23
ENDBRANCH   1  22
TORSDOF 22
ENDMDL
MODEL 3
REMARK VINA RESULT:      -9.6      6.704      8.849
REMARK SMILES CN(CC(C)(C)C)C(=O)N1CCO[C@@H](CC(=O)OCCOCCOC(=O)c2ccc(-c3c4nc(c(-c5c(F)cc(S(=O)(=O)[O-])cc5F)c5ccc([nH]5)c(-c5c(F)cc(S(=O)(=O)[O-])cc5F)c5nc(c(-c6c(F)cc(S(=O)(=O)[O-])cc6F)c6ccc3[nH]6)C=C5)C=C4)cc2)C1
REMARK SMILES IDX 20 1 19 2 18 3 16 4 17 5 15 6 14 7 10 8 11 9 93 10 12 11
REMARK SMILES IDX 13 12 8 13 9 14 2 15 1 16 3 17 4 18 5 19 6 20 7 21 21 22
REMARK SMILES IDX 22 23 23 24 24 25 25 26 26 27 27 28 28 29 92 30 29 31 91 32
REMARK SMILES IDX 30 33 31 34 32 35 85 36 33 37 90 38 84 39 86 40 34 41 89 42
REMARK SMILES IDX 83 43 82 44 35 46 69 47 48 48 68 49 49 50 52 51 67 52 87 53
REMARK SMILES IDX 50 54 51 55 66 57 88 58 53 59 36 60 37 61 46 62 38 63 39 64
REMARK SMILES IDX 45 65 47 66 40 67 41 68 42 69 43 70 44 71 70 72 71 73 80 74
REMARK SMILES IDX 72 75 73 76 79 77 81 78 74 79 75 80 76 81 77 82 78 83 54 84
REMARK SMILES IDX 55 85 64 86 56 87 57 88 63 89 65 90 58 91 59 92 60 93 61 94
REMARK SMILES IDX 62 95
REMARK H PARENT 86 45 52 56
REMARK Flexibility Score: inf
ROOT
ATOM      1  C   UNL A   1      34.544  34.068  27.789  1.00  0.00     0.202 C 
ENDROOT
BRANCH   1   2
ATOM      2  C   UNL A   1      35.563  32.970  28.097  1.00  0.00     0.261 C 
BRANCH   2   3
ATOM      3  O   UNL A   1      34.904  31.773  28.542  1.00  0.00    -0.463 OA
BRANCH   3   4
ATOM      4  C   UNL A   1      35.079  30.670  27.776  1.00  0.00     0.308 C 
ATOM      5  O   UNL A   1      36.154  30.144  27.524  1.00  0.00    -0.252 OA
BRANCH   4   6
ATOM      6  C   UNL A   1      33.774  30.176  27.218  1.00  0.00     0.156 C 
BRANCH   6   7
ATOM      7  C   UNL A   1      33.824  29.008  26.227  1.00  0.00     0.149 C 
ATOM      8  N   UNL A   1      32.708  26.821  25.667  1.00  0.00    -0.320 N 
ATOM      9  C   UNL A   1      31.975  27.553  24.662  1.00  0.00     0.150 C 
ATOM     10  C   UNL A   1      33.120  27.717  26.749  1.00  0.00     0.154 C 
ATOM     11  C   UNL A   1      32.897  28.583  24.043  1.00  0.00     0.182 C 
ATOM     12  O   UNL A   1      33.219  29.564  25.029  1.00  0.00    -0.374 OA
BRANCH   8  13
ATOM     13  C   UNL A   1      32.474  25.493  25.960  1.00  0.00     0.319 C 
ATOM     14  O   UNL A   1      31.672  25.220  26.857  1.00  0.00    -0.248 OA
BRANCH  13  15
ATOM     15  N   UNL A   1      33.229  24.494  25.339  1.00  0.00    -0.327 N 
ATOM     16  C   UNL A   1      34.660  24.786  25.245  1.00  0.00     0.148 C 
BRANCH  15  17
ATOM     17  C   UNL A   1      32.771  23.424  24.441  1.00  0.00     0.127 C 
BRANCH  17  18
ATOM     18  C   UNL A   1      32.377  22.054  25.105  1.00  0.00    -0.020 C 
ATOM     19  C   UNL A   1      30.964  22.084  25.697  1.00  0.00     0.012 C 
ATOM     20  C   UNL A   1      32.401  20.974  24.005  1.00  0.00     0.012 C 
ATOM     21  C   UNL A   1      33.311  21.596  26.237  1.00  0.00     0.012 C 
ENDBRANCH  17  18
ENDBRANCH  15  17
ENDBRANCH  13  15
ENDBRANCH   8  13
ENDBRANCH   6   7
ENDBRANCH   4   6
ENDBRANCH   3   4
ENDBRANCH   2   3
ENDBRANCH   1   2
BRANCH   1  22
ATOM     22  O   UNL A   1      33.796  34.568  28.899  1.00  0.00    -0.374 OA
BRANCH  22  23
ATOM     23  C   UNL A   1      33.597  35.980  28.946  1.00  0.00     0.202 C 
BRANCH  23  24
ATOM     24  C   UNL A   1      32.628  36.517  30.008  1.00  0.00     0.261 C 
BRANCH  24  25
ATOM     25  O   UNL A   1      33.230  36.620  31.307  1.00  0.00    -0.460 OA
BRANCH  25  26
ATOM     26  C   UNL A   1      32.912  35.622  32.176  1.00  0.00     0.338 C 
ATOM     27  O   UNL A   1      31.807  35.351  32.602  1.00  0.00    -0.246 OA
BRANCH  26  28
ATOM     28  C   UNL A   1      34.106  34.778  32.409  1.00  0.00     0.060 A 
ATOM     29  C   UNL A   1      33.955  33.505  32.965  1.00  0.00     0.016 A 
ATOM     30  C   UNL A   1      35.374  35.243  32.084  1.00  0.00     0.016 A 
ATOM     31  C   UNL A   1      35.083  32.715  33.218  1.00  0.00     0.010 A 
ATOM     32  C   UNL A   1      36.499  34.453  32.313  1.00  0.00     0.010 A 
ATOM     33  C   UNL A   1      36.366  33.197  32.918  1.00  0.00    -0.014 A 
BRANCH  33  34
ATOM     34  C   UNL A   1      37.585  32.456  33.324  1.00  0.00     0.031 A 
ATOM     35  C   UNL A   1      38.315  32.875  34.572  1.00  0.00     0.074 A 
ATOM     36  C   UNL A   1      38.066  31.456  32.563  1.00  0.00     0.049 A 
ATOM     37  N   UNL A   1      39.420  32.401  35.088  1.00  0.00    -0.248 NA
ATOM     38  C   UNL A   1      37.729  33.992  35.331  1.00  0.00     0.031 C 
ATOM     39  C   UNL A   1      37.472  30.991  31.312  1.00  0.00     0.029 A 
ATOM     40  N   UNL A   1      39.181  30.671  32.722  1.00  0.00    -0.354 N 
ATOM     41  C   UNL A   1      39.658  33.155  36.231  1.00  0.00     0.074 A 
ATOM     42  C   UNL A   1      38.617  34.156  36.300  1.00  0.00     0.031 C 
ATOM     43  C   UNL A   1      38.236  30.007  30.807  1.00  0.00     0.029 A 
ATOM     44  C   UNL A   1      39.389  29.795  31.683  1.00  0.00     0.049 A 
ATOM     45  H   UNL A   1      39.776  30.729  33.505  1.00  0.00     0.167 HD
ATOM     46  C   UNL A   1      40.643  33.013  37.150  1.00  0.00     0.037 A 
ATOM     47  C   UNL A   1      40.404  28.939  31.452  1.00  0.00     0.037 A 
ATOM     48  C   UNL A   1      41.686  32.024  37.063  1.00  0.00     0.049 A 
ATOM     49  C   UNL A   1      41.518  28.824  32.458  1.00  0.00     0.074 A 
ATOM     50  C   UNL A   1      42.704  31.762  37.963  1.00  0.00     0.029 A 
ATOM     51  N   UNL A   1      41.858  31.147  35.999  1.00  0.00    -0.354 N 
ATOM     52  N   UNL A   1      41.683  29.480  33.583  1.00  0.00    -0.248 NA
ATOM     53  C   UNL A   1      42.583  27.853  32.169  1.00  0.00     0.031 C 
ATOM     54  C   UNL A   1      43.526  30.772  37.416  1.00  0.00     0.029 A 
ATOM     55  C   UNL A   1      42.989  30.371  36.202  1.00  0.00     0.049 A 
ATOM     56  H   UNL A   1      41.265  31.086  35.217  1.00  0.00     0.167 HD
ATOM     57  C   UNL A   1      42.862  28.995  34.140  1.00  0.00     0.074 A 
ATOM     58  C   UNL A   1      43.358  27.975  33.239  1.00  0.00     0.031 C 
ATOM     59  C   UNL A   1      43.478  29.363  35.291  1.00  0.00     0.037 A 
BRANCH  46  60
ATOM     60  C   UNL A   1      40.639  33.958  38.324  1.00  0.00     0.058 A 
ATOM     61  C   UNL A   1      41.392  35.143  38.319  1.00  0.00     0.135 A 
ATOM     62  C   UNL A   1      39.869  33.682  39.466  1.00  0.00     0.135 A 
ATOM     63  F   UNL A   1      42.156  35.456  37.260  1.00  0.00    -0.206 F 
ATOM     64  C   UNL A   1      41.420  35.996  39.418  1.00  0.00     0.059 A 
ATOM     65  C   UNL A   1      39.854  34.537  40.564  1.00  0.00     0.059 A 
ATOM     66  F   UNL A   1      39.125  32.566  39.528  1.00  0.00    -0.206 F 
ATOM     67  C   UNL A   1      40.651  35.682  40.539  1.00  0.00     0.060 A 
BRANCH  67  68
ATOM     68  S   UNL A   1      40.722  36.782  41.968  1.00  0.00     0.124 S 
ATOM     69  O   UNL A   1      41.726  37.752  41.539  1.00  0.00    -0.237 OA
ATOM     70  O   UNL A   1      39.353  37.281  42.045  1.00  0.00    -0.237 OA
ATOM     71  O   UNL A   1      41.128  35.902  43.059  1.00  0.00    -0.744 OA
ENDBRANCH  67  68
ENDBRANCH  46  60
BRANCH  47  72
ATOM     72  C   UNL A   1      40.406  28.129  30.203  1.00  0.00     0.058 A 
ATOM     73  C   UNL A   1      41.286  28.416  29.150  1.00  0.00     0.135 A 
ATOM     74  C   UNL A   1      39.555  27.021  30.059  1.00  0.00     0.135 A 
ATOM     75  F   UNL A   1      42.109  29.472  29.232  1.00  0.00    -0.206 F 
ATOM     76  C   UNL A   1      41.327  27.632  28.001  1.00  0.00     0.059 A 
ATOM     77  C   UNL A   1      39.596  26.206  28.932  1.00  0.00     0.059 A 
ATOM     78  F   UNL A   1      38.698  26.699  31.041  1.00  0.00    -0.206 F 
ATOM     79  C   UNL A   1      40.485  26.522  27.907  1.00  0.00     0.060 A 
BRANCH  79  80
ATOM     80  S   UNL A   1      40.608  25.465  26.447  1.00  0.00     0.124 S 
ATOM     81  O   UNL A   1      41.017  26.420  25.424  1.00  0.00    -0.237 OA
ATOM     82  O   UNL A   1      41.621  24.497  26.857  1.00  0.00    -0.237 OA
ATOM     83  O   UNL A   1      39.259  24.926  26.306  1.00  0.00    -0.744 OA
ENDBRANCH  79  80
ENDBRANCH  47  72
BRANCH  59  84
ATOM     84  C   UNL A   1      44.761  28.665  35.655  1.00  0.00     0.058 A 
ATOM     85  C   UNL A   1      44.763  27.480  36.409  1.00  0.00     0.135 A 
ATOM     86  C   UNL A   1      45.994  29.133  35.170  1.00  0.00     0.135 A 
ATOM     87  F   UNL A   1      43.614  26.992  36.904  1.00  0.00    -0.206 F 
ATOM     88  C   UNL A   1      45.940  26.788  36.673  1.00  0.00     0.059 A 
ATOM     89  C   UNL A   1      47.180  28.442  35.399  1.00  0.00     0.059 A 
ATOM     90  F   UNL A   1      46.049  30.257  34.438  1.00  0.00    -0.206 F 
ATOM     91  C   UNL A   1      47.144  27.271  36.154  1.00  0.00     0.060 A 
BRANCH  91  92
ATOM     92  S   UNL A   1      48.652  26.323  36.449  1.00  0.00     0.124 S 
ATOM     93  O   UNL A   1      49.581  26.946  35.512  1.00  0.00    -0.237 OA
ATOM     94  O   UNL A   1      48.909  26.579  37.862  1.00  0.00    -0.237 OA
ATOM     95  O   UNL A   1      48.263  24.953  36.126  1.00  0.00    -0.744 OA
ENDBRANCH  91  92
ENDBRANCH  59  84
ENDBRANCH  33  34
ENDBRANCH  26  28
ENDBRANCH  25  26
ENDBRANCH  24  25
ENDBRANCH  23  24
ENDBRANCH  22  23
ENDBRANCH   1  22
TORSDOF 22
ENDMDL
