MODEL 1
REMARK VINA RESULT:     -11.4      0.000      0.000
REMARK SMILES C[C@H]1CC[C@@]1(C(=O)OCCOCCOC(=O)c1ccc(-c2c3nc(c(-c4c(F)cc(S(=O)(=O)[O-])cc4F)c4ccc([nH]4)c(-c4c(F)cc(S(=O)(=O)[O-])cc4F)c4nc(c(-c5c(F)cc(S(=O)(=O)[O-])cc5F)c5ccc2[nH]5)C=C4)C=C3)cc1)c1cc(F)cc(F)c1
REMARK SMILES IDX 12 1 11 2 10 3 9 4 8 5 6 6 7 7 5 8 1 9 2 10 3 11 4 12 83 13
REMARK SMILES IDX 84 14 90 15 85 16 88 17 86 18 87 19 89 20 13 21 14 22 15 23
REMARK SMILES IDX 16 24 17 25 18 26 82 27 19 28 81 29 20 30 21 31 22 32 75 33
REMARK SMILES IDX 23 34 80 35 74 36 76 37 24 38 79 39 73 40 72 41 25 43 59 44
REMARK SMILES IDX 38 45 58 46 39 47 42 48 57 49 77 50 40 51 41 52 56 54 78 55
REMARK SMILES IDX 43 56 26 57 27 58 36 59 28 60 29 61 35 62 37 63 30 64 31 65
REMARK SMILES IDX 32 66 33 67 34 68 60 69 61 70 70 71 62 72 63 73 69 74 71 75
REMARK SMILES IDX 64 76 65 77 66 78 67 79 68 80 44 81 45 82 54 83 46 84 47 85
REMARK SMILES IDX 53 86 55 87 48 88 49 89 50 90 51 91 52 92
REMARK H PARENT 76 42 42 53
REMARK Flexibility Score: inf
ROOT
ATOM      1  C   UNL A   1      39.922  21.832  26.133  1.00  0.00     0.202 C 
ENDROOT
BRANCH   1   2
ATOM      2  O   UNL A   1      38.540  22.018  25.821  1.00  0.00    -0.374 OA
BRANCH   2   3
ATOM      3  C   UNL A   1      37.960  21.136  24.861  1.00  0.00     0.202 C 
BRANCH   3   4
ATOM      4  C   UNL A   1      36.586  20.547  25.197  1.00  0.00     0.261 C 
BRANCH   4   5
ATOM      5  O   UNL A   1      35.500  21.444  24.890  1.00  0.00    -0.463 OA
BRANCH   5   6
ATOM      6  C   UNL A   1      34.403  21.315  25.697  1.00  0.00     0.316 C 
ATOM      7  O   UNL A   1      34.438  21.682  26.876  1.00  0.00    -0.251 OA
BRANCH   6   8
ATOM      8  C   UNL A   1      33.097  20.623  25.007  1.00  0.00     0.096 C 
ATOM      9  C   UNL A   1      32.117  21.024  22.378  1.00  0.00     0.009 C 
ATOM     10  C   UNL A   1      32.744  21.495  23.678  1.00  0.00     0.008 C 
ATOM     11  C   UNL A   1      31.797  22.330  24.574  1.00  0.00     0.006 C 
ATOM     12  C   UNL A   1      31.734  21.159  25.570  1.00  0.00     0.024 C 
BRANCH   8  13
ATOM     13  C   UNL A   1      33.165  18.962  24.866  1.00  0.00    -0.025 A 
ATOM     14  C   UNL A   1      33.724  18.344  23.720  1.00  0.00     0.044 A 
ATOM     15  C   UNL A   1      32.635  18.029  25.784  1.00  0.00     0.044 A 
ATOM     16  C   UNL A   1      33.861  16.961  23.563  1.00  0.00     0.126 A 
ATOM     17  C   UNL A   1      32.765  16.639  25.616  1.00  0.00     0.126 A 
ATOM     18  F   UNL A   1      34.445  16.480  22.459  1.00  0.00    -0.207 F 
ATOM     19  C   UNL A   1      33.401  16.092  24.523  1.00  0.00     0.078 A 
ATOM     20  F   UNL A   1      32.262  15.815  26.540  1.00  0.00    -0.207 F 
ENDBRANCH   8  13
ENDBRANCH   6   8
ENDBRANCH   5   6
ENDBRANCH   4   5
ENDBRANCH   3   4
ENDBRANCH   2   3
ENDBRANCH   1   2
BRANCH   1  21
ATOM     21  C   UNL A   1      40.650  23.029  26.760  1.00  0.00     0.261 C 
BRANCH  21  22
ATOM     22  O   UNL A   1      39.917  24.254  26.567  1.00  0.00    -0.460 OA
BRANCH  22  23
ATOM     23  C   UNL A   1      40.669  25.363  26.378  1.00  0.00     0.338 C 
ATOM     24  O   UNL A   1      41.094  25.789  25.310  1.00  0.00    -0.246 OA
BRANCH  23  25
ATOM     25  C   UNL A   1      40.737  26.144  27.629  1.00  0.00     0.060 A 
ATOM     26  C   UNL A   1      39.687  26.003  28.545  1.00  0.00     0.016 A 
ATOM     27  C   UNL A   1      41.776  27.038  27.889  1.00  0.00     0.016 A 
ATOM     28  C   UNL A   1      39.646  26.794  29.692  1.00  0.00     0.010 A 
ATOM     29  C   UNL A   1      41.745  27.819  29.049  1.00  0.00     0.010 A 
ATOM     30  C   UNL A   1      40.654  27.738  29.933  1.00  0.00    -0.014 A 
BRANCH  30  31
ATOM     31  C   UNL A   1      40.469  28.764  30.991  1.00  0.00     0.031 A 
ATOM     32  C   UNL A   1      41.340  28.696  32.219  1.00  0.00     0.074 A 
ATOM     33  C   UNL A   1      39.574  29.759  30.856  1.00  0.00     0.049 A 
ATOM     34  N   UNL A   1      41.341  29.463  33.280  1.00  0.00    -0.248 NA
ATOM     35  C   UNL A   1      42.342  27.617  32.259  1.00  0.00     0.031 C 
ATOM     36  C   UNL A   1      38.696  29.957  29.705  1.00  0.00     0.029 A 
ATOM     37  N   UNL A   1      39.255  30.791  31.704  1.00  0.00    -0.354 N 
ATOM     38  C   UNL A   1      42.331  28.953  34.113  1.00  0.00     0.074 A 
ATOM     39  C   UNL A   1      42.884  27.792  33.454  1.00  0.00     0.031 C 
ATOM     40  C   UNL A   1      37.933  31.044  29.919  1.00  0.00     0.029 A 
ATOM     41  C   UNL A   1      38.247  31.600  31.235  1.00  0.00     0.049 A 
ATOM     42  H   UNL A   1      39.706  30.939  32.566  1.00  0.00     0.167 HD
ATOM     43  C   UNL A   1      42.754  29.420  35.311  1.00  0.00     0.037 A 
ATOM     44  C   UNL A   1      37.634  32.656  31.810  1.00  0.00     0.037 A 
ATOM     45  C   UNL A   1      42.215  30.584  35.962  1.00  0.00     0.049 A 
ATOM     46  C   UNL A   1      38.078  33.121  33.175  1.00  0.00     0.074 A 
ATOM     47  C   UNL A   1      42.595  31.149  37.166  1.00  0.00     0.029 A 
ATOM     48  N   UNL A   1      41.177  31.358  35.466  1.00  0.00    -0.354 N 
ATOM     49  N   UNL A   1      39.034  32.646  33.937  1.00  0.00    -0.248 NA
ATOM     50  C   UNL A   1      37.362  34.267  33.755  1.00  0.00     0.031 C 
ATOM     51  C   UNL A   1      41.755  32.238  37.422  1.00  0.00     0.029 A 
ATOM     52  C   UNL A   1      40.887  32.382  36.352  1.00  0.00     0.049 A 
ATOM     53  H   UNL A   1      40.714  31.203  34.611  1.00  0.00     0.167 HD
ATOM     54  C   UNL A   1      39.054  33.453  35.071  1.00  0.00     0.074 A 
ATOM     55  C   UNL A   1      38.017  34.448  34.895  1.00  0.00     0.031 C 
ATOM     56  C   UNL A   1      39.862  33.379  36.157  1.00  0.00     0.037 A 
BRANCH  43  57
ATOM     57  C   UNL A   1      43.846  28.657  36.008  1.00  0.00     0.058 A 
ATOM     58  C   UNL A   1      43.572  27.523  36.790  1.00  0.00     0.135 A 
ATOM     59  C   UNL A   1      45.187  29.047  35.868  1.00  0.00     0.135 A 
ATOM     60  F   UNL A   1      42.305  27.117  36.971  1.00  0.00    -0.206 F 
ATOM     61  C   UNL A   1      44.586  26.821  37.431  1.00  0.00     0.059 A 
ATOM     62  C   UNL A   1      46.221  28.344  36.478  1.00  0.00     0.059 A 
ATOM     63  F   UNL A   1      45.504  30.125  35.132  1.00  0.00    -0.206 F 
ATOM     64  C   UNL A   1      45.908  27.240  37.270  1.00  0.00     0.060 A 
BRANCH  64  65
ATOM     65  S   UNL A   1      47.215  26.319  38.109  1.00  0.00     0.124 S 
ATOM     66  O   UNL A   1      47.275  27.006  39.396  1.00  0.00    -0.237 OA
ATOM     67  O   UNL A   1      46.672  24.964  38.140  1.00  0.00    -0.237 OA
ATOM     68  O   UNL A   1      48.374  26.507  37.243  1.00  0.00    -0.744 OA
ENDBRANCH  64  65
ENDBRANCH  43  57
BRANCH  44  69
ATOM     69  C   UNL A   1      36.525  33.347  31.099  1.00  0.00     0.058 A 
ATOM     70  C   UNL A   1      35.200  33.242  31.544  1.00  0.00     0.135 A 
ATOM     71  C   UNL A   1      36.771  34.127  29.958  1.00  0.00     0.135 A 
ATOM     72  F   UNL A   1      34.912  32.498  32.622  1.00  0.00    -0.206 F 
ATOM     73  C   UNL A   1      34.155  33.878  30.880  1.00  0.00     0.059 A 
ATOM     74  C   UNL A   1      35.748  34.791  29.291  1.00  0.00     0.059 A 
ATOM     75  F   UNL A   1      38.023  34.265  29.495  1.00  0.00    -0.206 F 
ATOM     76  C   UNL A   1      34.441  34.654  29.755  1.00  0.00     0.060 A 
BRANCH  76  77
ATOM     77  S   UNL A   1      33.086  35.519  28.931  1.00  0.00     0.124 S 
ATOM     78  O   UNL A   1      33.801  36.563  28.206  1.00  0.00    -0.237 OA
ATOM     79  O   UNL A   1      32.498  34.461  28.116  1.00  0.00    -0.237 OA
ATOM     80  O   UNL A   1      32.257  35.977  30.042  1.00  0.00    -0.744 OA
ENDBRANCH  76  77
ENDBRANCH  44  69
BRANCH  56  81
ATOM     81  C   UNL A   1      39.701  34.420  37.230  1.00  0.00     0.058 A 
ATOM     82  C   UNL A   1      38.914  34.192  38.369  1.00  0.00     0.135 A 
ATOM     83  C   UNL A   1      40.420  35.624  37.161  1.00  0.00     0.135 A 
ATOM     84  F   UNL A   1      38.201  33.060  38.482  1.00  0.00    -0.206 F 
ATOM     85  C   UNL A   1      38.839  35.125  39.398  1.00  0.00     0.059 A 
ATOM     86  C   UNL A   1      40.380  36.560  38.190  1.00  0.00     0.059 A 
ATOM     87  F   UNL A   1      41.197  35.888  36.098  1.00  0.00    -0.206 F 
ATOM     88  C   UNL A   1      39.582  36.303  39.304  1.00  0.00     0.060 A 
BRANCH  88  89
ATOM     89  S   UNL A   1      39.527  37.476  40.676  1.00  0.00     0.124 S 
ATOM     90  O   UNL A   1      38.480  38.393  40.238  1.00  0.00    -0.237 OA
ATOM     91  O   UNL A   1      39.185  36.618  41.807  1.00  0.00    -0.237 OA
ATOM     92  O   UNL A   1      40.876  38.031  40.705  1.00  0.00    -0.744 OA
ENDBRANCH  88  89
ENDBRANCH  56  81
ENDBRANCH  30  31
ENDBRANCH  23  25
ENDBRANCH  22  23
ENDBRANCH  21  22
ENDBRANCH   1  21
TORSDOF 18
ENDMDL
MODEL 2
REMARK VINA RESULT:     -11.3      2.327      3.511
REMARK SMILES C[C@H]1CC[C@@]1(C(=O)OCCOCCOC(=O)c1ccc(-c2c3nc(c(-c4c(F)cc(S(=O)(=O)[O-])cc4F)c4ccc([nH]4)c(-c4c(F)cc(S(=O)(=O)[O-])cc4F)c4nc(c(-c5c(F)cc(S(=O)(=O)[O-])cc5F)c5ccc2[nH]5)C=C4)C=C3)cc1)c1cc(F)cc(F)c1
REMARK SMILES IDX 12 1 11 2 10 3 9 4 8 5 6 6 7 7 5 8 1 9 2 10 3 11 4 12 83 13
REMARK SMILES IDX 84 14 90 15 85 16 88 17 86 18 87 19 89 20 13 21 14 22 15 23
REMARK SMILES IDX 16 24 17 25 18 26 82 27 19 28 81 29 20 30 21 31 22 32 75 33
REMARK SMILES IDX 23 34 80 35 74 36 76 37 24 38 79 39 73 40 72 41 25 43 59 44
REMARK SMILES IDX 38 45 58 46 39 47 42 48 57 49 77 50 40 51 41 52 56 54 78 55
REMARK SMILES IDX 43 56 26 57 27 58 36 59 28 60 29 61 35 62 37 63 30 64 31 65
REMARK SMILES IDX 32 66 33 67 34 68 60 69 61 70 70 71 62 72 63 73 69 74 71 75
REMARK SMILES IDX 64 76 65 77 66 78 67 79 68 80 44 81 45 82 54 83 46 84 47 85
REMARK SMILES IDX 53 86 55 87 48 88 49 89 50 90 51 91 52 92
REMARK H PARENT 76 42 42 53
REMARK Flexibility Score: inf
ROOT
ATOM      1  C   UNL A   1      39.403  21.745  26.067  1.00  0.00     0.202 C 
ENDROOT
BRANCH   1   2
ATOM      2  O   UNL A   1      38.158  22.094  25.459  1.00  0.00    -0.374 OA
BRANCH   2   3
ATOM      3  C   UNL A   1      37.219  21.043  25.239  1.00  0.00     0.202 C 
BRANCH   3   4
ATOM      4  C   UNL A   1      35.826  21.447  24.744  1.00  0.00     0.261 C 
BRANCH   4   5
ATOM      5  O   UNL A   1      35.480  22.804  25.087  1.00  0.00    -0.463 OA
BRANCH   5   6
ATOM      6  C   UNL A   1      34.142  23.028  25.263  1.00  0.00     0.316 C 
ATOM      7  O   UNL A   1      33.523  22.478  26.180  1.00  0.00    -0.251 OA
BRANCH   6   8
ATOM      8  C   UNL A   1      33.443  24.021  24.175  1.00  0.00     0.096 C 
ATOM      9  C   UNL A   1      30.700  24.158  23.471  1.00  0.00     0.009 C 
ATOM     10  C   UNL A   1      31.967  23.413  23.855  1.00  0.00     0.008 C 
ATOM     11  C   UNL A   1      32.626  22.640  22.687  1.00  0.00     0.006 C 
ATOM     12  C   UNL A   1      33.781  23.657  22.686  1.00  0.00     0.024 C 
BRANCH   8  13
ATOM     13  C   UNL A   1      33.568  25.650  24.518  1.00  0.00    -0.025 A 
ATOM     14  C   UNL A   1      33.704  26.610  23.484  1.00  0.00     0.044 A 
ATOM     15  C   UNL A   1      33.628  26.225  25.806  1.00  0.00     0.044 A 
ATOM     16  C   UNL A   1      33.758  27.991  23.700  1.00  0.00     0.126 A 
ATOM     17  C   UNL A   1      33.695  27.612  26.017  1.00  0.00     0.126 A 
ATOM     18  F   UNL A   1      33.842  28.816  22.649  1.00  0.00    -0.207 F 
ATOM     19  C   UNL A   1      33.732  28.509  24.972  1.00  0.00     0.078 A 
ATOM     20  F   UNL A   1      33.720  28.087  27.266  1.00  0.00    -0.207 F 
ENDBRANCH   8  13
ENDBRANCH   6   8
ENDBRANCH   5   6
ENDBRANCH   4   5
ENDBRANCH   3   4
ENDBRANCH   2   3
ENDBRANCH   1   2
BRANCH   1  21
ATOM     21  C   UNL A   1      40.144  22.869  26.806  1.00  0.00     0.261 C 
BRANCH  21  22
ATOM     22  O   UNL A   1      39.511  24.147  26.596  1.00  0.00    -0.460 OA
BRANCH  22  23
ATOM     23  C   UNL A   1      40.349  25.189  26.392  1.00  0.00     0.338 C 
ATOM     24  O   UNL A   1      40.812  25.561  25.320  1.00  0.00    -0.246 OA
BRANCH  23  25
ATOM     25  C   UNL A   1      40.472  25.985  27.630  1.00  0.00     0.060 A 
ATOM     26  C   UNL A   1      39.434  25.900  28.567  1.00  0.00     0.016 A 
ATOM     27  C   UNL A   1      41.551  26.840  27.857  1.00  0.00     0.016 A 
ATOM     28  C   UNL A   1      39.447  26.709  29.702  1.00  0.00     0.010 A 
ATOM     29  C   UNL A   1      41.573  27.639  29.006  1.00  0.00     0.010 A 
ATOM     30  C   UNL A   1      40.497  27.614  29.910  1.00  0.00    -0.014 A 
BRANCH  30  31
ATOM     31  C   UNL A   1      40.373  28.662  30.955  1.00  0.00     0.031 A 
ATOM     32  C   UNL A   1      41.286  28.596  32.153  1.00  0.00     0.074 A 
ATOM     33  C   UNL A   1      39.496  29.675  30.835  1.00  0.00     0.049 A 
ATOM     34  N   UNL A   1      41.342  29.381  33.198  1.00  0.00    -0.248 NA
ATOM     35  C   UNL A   1      42.265  27.496  32.175  1.00  0.00     0.031 C 
ATOM     36  C   UNL A   1      38.580  29.873  29.712  1.00  0.00     0.029 A 
ATOM     37  N   UNL A   1      39.231  30.729  31.674  1.00  0.00    -0.354 N 
ATOM     38  C   UNL A   1      42.350  28.864  34.004  1.00  0.00     0.074 A 
ATOM     39  C   UNL A   1      42.854  27.679  33.346  1.00  0.00     0.031 C 
ATOM     40  C   UNL A   1      37.850  30.980  29.935  1.00  0.00     0.029 A 
ATOM     41  C   UNL A   1      38.223  31.552  31.228  1.00  0.00     0.049 A 
ATOM     42  H   UNL A   1      39.715  30.881  32.517  1.00  0.00     0.167 HD
ATOM     43  C   UNL A   1      42.828  29.342  35.178  1.00  0.00     0.037 A 
ATOM     44  C   UNL A   1      37.655  32.631  31.806  1.00  0.00     0.037 A 
ATOM     45  C   UNL A   1      42.338  30.528  35.826  1.00  0.00     0.049 A 
ATOM     46  C   UNL A   1      38.159  33.110  33.144  1.00  0.00     0.074 A 
ATOM     47  C   UNL A   1      42.774  31.106  37.006  1.00  0.00     0.029 A 
ATOM     48  N   UNL A   1      41.300  31.317  35.354  1.00  0.00    -0.354 N 
ATOM     49  N   UNL A   1      39.131  32.627  33.880  1.00  0.00    -0.248 NA
ATOM     50  C   UNL A   1      37.490  34.281  33.730  1.00  0.00     0.031 C 
ATOM     51  C   UNL A   1      41.968  32.217  37.271  1.00  0.00     0.029 A 
ATOM     52  C   UNL A   1      41.065  32.363  36.231  1.00  0.00     0.049 A 
ATOM     53  H   UNL A   1      40.803  31.158  34.519  1.00  0.00     0.167 HD
ATOM     54  C   UNL A   1      39.210  33.453  34.999  1.00  0.00     0.074 A 
ATOM     55  C   UNL A   1      38.190  34.468  34.841  1.00  0.00     0.031 C 
ATOM     56  C   UNL A   1      40.056  33.379  36.056  1.00  0.00     0.037 A 
BRANCH  43  57
ATOM     57  C   UNL A   1      43.927  28.566  35.848  1.00  0.00     0.058 A 
ATOM     58  C   UNL A   1      45.282  28.865  35.630  1.00  0.00     0.135 A 
ATOM     59  C   UNL A   1      43.621  27.528  36.743  1.00  0.00     0.135 A 
ATOM     60  F   UNL A   1      45.629  29.836  34.770  1.00  0.00    -0.206 F 
ATOM     61  C   UNL A   1      46.294  28.144  36.253  1.00  0.00     0.059 A 
ATOM     62  C   UNL A   1      44.617  26.811  37.399  1.00  0.00     0.059 A 
ATOM     63  F   UNL A   1      42.342  27.200  36.986  1.00  0.00    -0.206 F 
ATOM     64  C   UNL A   1      45.952  27.117  37.135  1.00  0.00     0.060 A 
BRANCH  64  65
ATOM     65  S   UNL A   1      47.277  26.189  37.937  1.00  0.00     0.124 S 
ATOM     66  O   UNL A   1      47.738  27.148  38.937  1.00  0.00    -0.237 OA
ATOM     67  O   UNL A   1      46.570  25.023  38.458  1.00  0.00    -0.237 OA
ATOM     68  O   UNL A   1      48.211  25.920  36.849  1.00  0.00    -0.744 OA
ENDBRANCH  64  65
ENDBRANCH  43  57
BRANCH  44  69
ATOM     69  C   UNL A   1      36.537  33.335  31.122  1.00  0.00     0.058 A 
ATOM     70  C   UNL A   1      35.226  33.262  31.613  1.00  0.00     0.135 A 
ATOM     71  C   UNL A   1      36.760  34.095  29.963  1.00  0.00     0.135 A 
ATOM     72  F   UNL A   1      34.959  32.538  32.710  1.00  0.00    -0.206 F 
ATOM     73  C   UNL A   1      34.171  33.909  30.975  1.00  0.00     0.059 A 
ATOM     74  C   UNL A   1      35.727  34.770  29.321  1.00  0.00     0.059 A 
ATOM     75  F   UNL A   1      37.998  34.202  29.457  1.00  0.00    -0.206 F 
ATOM     76  C   UNL A   1      34.434  34.665  29.831  1.00  0.00     0.060 A 
BRANCH  76  77
ATOM     77  S   UNL A   1      33.069  35.546  29.041  1.00  0.00     0.124 S 
ATOM     78  O   UNL A   1      33.768  36.650  28.393  1.00  0.00    -0.237 OA
ATOM     79  O   UNL A   1      32.521  34.527  28.152  1.00  0.00    -0.237 OA
ATOM     80  O   UNL A   1      32.213  35.913  30.165  1.00  0.00    -0.744 OA
ENDBRANCH  76  77
ENDBRANCH  44  69
BRANCH  56  81
ATOM     81  C   UNL A   1      39.957  34.442  37.115  1.00  0.00     0.058 A 
ATOM     82  C   UNL A   1      40.664  35.650  37.018  1.00  0.00     0.135 A 
ATOM     83  C   UNL A   1      39.071  34.286  38.193  1.00  0.00     0.135 A 
ATOM     84  F   UNL A   1      41.529  35.847  36.009  1.00  0.00    -0.206 F 
ATOM     85  C   UNL A   1      40.501  36.664  37.957  1.00  0.00     0.059 A 
ATOM     86  C   UNL A   1      38.874  35.296  39.130  1.00  0.00     0.059 A 
ATOM     87  F   UNL A   1      38.363  33.153  38.328  1.00  0.00    -0.206 F 
ATOM     88  C   UNL A   1      39.597  36.481  39.005  1.00  0.00     0.060 A 
BRANCH  88  89
ATOM     89  S   UNL A   1      39.347  37.830  40.179  1.00  0.00     0.124 S 
ATOM     90  O   UNL A   1      39.081  37.100  41.415  1.00  0.00    -0.237 OA
ATOM     91  O   UNL A   1      40.624  38.535  40.123  1.00  0.00    -0.237 OA
ATOM     92  O   UNL A   1      38.211  38.559  39.625  1.00  0.00    -0.744 OA
ENDBRANCH  88  89
ENDBRANCH  56  81
ENDBRANCH  30  31
ENDBRANCH  23  25
ENDBRANCH  22  23
ENDBRANCH  21  22
ENDBRANCH   1  21
TORSDOF 18
ENDMDL
MODEL 3
REMARK VINA RESULT:     -11.1      5.761     12.115
REMARK SMILES C[C@H]1CC[C@@]1(C(=O)OCCOCCOC(=O)c1ccc(-c2c3nc(c(-c4c(F)cc(S(=O)(=O)[O-])cc4F)c4ccc([nH]4)c(-c4c(F)cc(S(=O)(=O)[O-])cc4F)c4nc(c(-c5c(F)cc(S(=O)(=O)[O-])cc5F)c5ccc2[nH]5)C=C4)C=C3)cc1)c1cc(F)cc(F)c1
REMARK SMILES IDX 12 1 11 2 10 3 9 4 8 5 6 6 7 7 5 8 1 9 2 10 3 11 4 12 83 13
REMARK SMILES IDX 84 14 90 15 85 16 88 17 86 18 87 19 89 20 13 21 14 22 15 23
REMARK SMILES IDX 16 24 17 25 18 26 82 27 19 28 81 29 20 30 21 31 22 32 75 33
REMARK SMILES IDX 23 34 80 35 74 36 76 37 24 38 79 39 73 40 72 41 25 43 59 44
REMARK SMILES IDX 38 45 58 46 39 47 42 48 57 49 77 50 40 51 41 52 56 54 78 55
REMARK SMILES IDX 43 56 26 57 27 58 36 59 28 60 29 61 35 62 37 63 30 64 31 65
REMARK SMILES IDX 32 66 33 67 34 68 60 69 61 70 70 71 62 72 63 73 69 74 71 75
REMARK SMILES IDX 64 76 65 77 66 78 67 79 68 80 44 81 45 82 54 83 46 84 47 85
REMARK SMILES IDX 53 86 55 87 48 88 49 89 50 90 51 91 52 92
REMARK H PARENT 76 42 42 53
REMARK Flexibility Score: inf
ROOT
ATOM      1  C   UNL A   1      33.747  34.132  28.985  1.00  0.00     0.202 C 
ENDROOT
BRANCH   1   2
ATOM      2  O   UNL A   1      33.682  34.201  30.411  1.00  0.00    -0.374 OA
BRANCH   2   3
ATOM      3  C   UNL A   1      34.917  34.186  31.125  1.00  0.00     0.202 C 
BRANCH   3   4
ATOM      4  C   UNL A   1      35.118  33.060  32.145  1.00  0.00     0.261 C 
BRANCH   4   5
ATOM      5  O   UNL A   1      36.496  32.659  32.275  1.00  0.00    -0.463 OA
BRANCH   5   6
ATOM      6  C   UNL A   1      36.961  32.609  33.560  1.00  0.00     0.316 C 
ATOM      7  O   UNL A   1      36.185  32.686  34.518  1.00  0.00    -0.251 OA
BRANCH   6   8
ATOM      8  C   UNL A   1      38.579  32.480  33.721  1.00  0.00     0.096 C 
ATOM      9  C   UNL A   1      40.120  32.881  36.067  1.00  0.00     0.009 C 
ATOM     10  C   UNL A   1      38.977  33.209  35.122  1.00  0.00     0.008 C 
ATOM     11  C   UNL A   1      39.188  34.502  34.296  1.00  0.00     0.006 C 
ATOM     12  C   UNL A   1      39.372  33.645  33.032  1.00  0.00     0.024 C 
BRANCH   8  13
ATOM     13  C   UNL A   1      39.204  30.963  33.416  1.00  0.00    -0.025 A 
ATOM     14  C   UNL A   1      38.357  29.862  33.135  1.00  0.00     0.044 A 
ATOM     15  C   UNL A   1      40.567  30.599  33.476  1.00  0.00     0.044 A 
ATOM     16  C   UNL A   1      38.817  28.580  32.817  1.00  0.00     0.126 A 
ATOM     17  C   UNL A   1      41.023  29.306  33.167  1.00  0.00     0.126 A 
ATOM     18  F   UNL A   1      37.932  27.620  32.523  1.00  0.00    -0.207 F 
ATOM     19  C   UNL A   1      40.160  28.293  32.809  1.00  0.00     0.078 A 
ATOM     20  F   UNL A   1      42.332  29.041  33.217  1.00  0.00    -0.207 F 
ENDBRANCH   8  13
ENDBRANCH   6   8
ENDBRANCH   5   6
ENDBRANCH   4   5
ENDBRANCH   3   4
ENDBRANCH   2   3
ENDBRANCH   1   2
BRANCH   1  21
ATOM     21  C   UNL A   1      34.626  33.022  28.392  1.00  0.00     0.261 C 
BRANCH  21  22
ATOM     22  O   UNL A   1      34.270  31.728  28.918  1.00  0.00    -0.460 OA
BRANCH  22  23
ATOM     23  C   UNL A   1      34.444  30.686  28.073  1.00  0.00     0.338 C 
ATOM     24  O   UNL A   1      33.690  30.336  27.172  1.00  0.00    -0.246 OA
BRANCH  23  25
ATOM     25  C   UNL A   1      35.803  30.130  28.232  1.00  0.00     0.060 A 
ATOM     26  C   UNL A   1      36.194  29.715  29.511  1.00  0.00     0.016 A 
ATOM     27  C   UNL A   1      36.704  30.060  27.168  1.00  0.00     0.016 A 
ATOM     28  C   UNL A   1      37.500  29.283  29.739  1.00  0.00     0.010 A 
ATOM     29  C   UNL A   1      38.008  29.609  27.393  1.00  0.00     0.010 A 
ATOM     30  C   UNL A   1      38.429  29.265  28.690  1.00  0.00    -0.014 A 
BRANCH  30  31
ATOM     31  C   UNL A   1      39.873  29.078  28.984  1.00  0.00     0.031 A 
ATOM     32  C   UNL A   1      40.509  27.752  28.655  1.00  0.00     0.074 A 
ATOM     33  C   UNL A   1      40.619  30.072  29.500  1.00  0.00     0.049 A 
ATOM     34  N   UNL A   1      41.740  27.351  28.846  1.00  0.00    -0.248 NA
ATOM     35  C   UNL A   1      39.639  26.741  28.030  1.00  0.00     0.031 C 
ATOM     36  C   UNL A   1      40.134  31.411  29.831  1.00  0.00     0.029 A 
ATOM     37  N   UNL A   1      41.949  30.103  29.838  1.00  0.00    -0.354 N 
ATOM     38  C   UNL A   1      41.788  26.044  28.377  1.00  0.00     0.074 A 
ATOM     39  C   UNL A   1      40.457  25.705  27.926  1.00  0.00     0.031 C 
ATOM     40  C   UNL A   1      41.153  32.132  30.330  1.00  0.00     0.029 A 
ATOM     41  C   UNL A   1      42.354  31.299  30.382  1.00  0.00     0.049 A 
ATOM     42  H   UNL A   1      42.557  29.341  29.705  1.00  0.00     0.167 HD
ATOM     43  C   UNL A   1      42.849  25.205  28.309  1.00  0.00     0.037 A 
ATOM     44  C   UNL A   1      43.550  31.673  30.882  1.00  0.00     0.037 A 
ATOM     45  C   UNL A   1      44.177  25.545  28.744  1.00  0.00     0.049 A 
ATOM     46  C   UNL A   1      44.703  30.701  30.856  1.00  0.00     0.074 A 
ATOM     47  C   UNL A   1      45.323  24.771  28.694  1.00  0.00     0.029 A 
ATOM     48  N   UNL A   1      44.538  26.758  29.313  1.00  0.00    -0.354 N 
ATOM     49  N   UNL A   1      44.741  29.479  30.383  1.00  0.00    -0.248 NA
ATOM     50  C   UNL A   1      45.977  31.161  31.429  1.00  0.00     0.031 C 
ATOM     51  C   UNL A   1      46.366  25.498  29.276  1.00  0.00     0.029 A 
ATOM     52  C   UNL A   1      45.883  26.744  29.641  1.00  0.00     0.049 A 
ATOM     53  H   UNL A   1      43.928  27.516  29.462  1.00  0.00     0.167 HD
ATOM     54  C   UNL A   1      46.047  29.035  30.574  1.00  0.00     0.074 A 
ATOM     55  C   UNL A   1      46.769  30.121  31.202  1.00  0.00     0.031 C 
ATOM     56  C   UNL A   1      46.597  27.838  30.251  1.00  0.00     0.037 A 
BRANCH  43  57
ATOM     57  C   UNL A   1      42.611  23.826  27.761  1.00  0.00     0.058 A 
ATOM     58  C   UNL A   1      42.535  23.583  26.380  1.00  0.00     0.135 A 
ATOM     59  C   UNL A   1      42.485  22.728  28.627  1.00  0.00     0.135 A 
ATOM     60  F   UNL A   1      42.631  24.600  25.508  1.00  0.00    -0.206 F 
ATOM     61  C   UNL A   1      42.314  22.305  25.879  1.00  0.00     0.059 A 
ATOM     62  C   UNL A   1      42.291  21.436  28.147  1.00  0.00     0.059 A 
ATOM     63  F   UNL A   1      42.548  22.906  29.957  1.00  0.00    -0.206 F 
ATOM     64  C   UNL A   1      42.192  21.238  26.771  1.00  0.00     0.060 A 
BRANCH  64  65
ATOM     65  S   UNL A   1      41.906  19.584  26.106  1.00  0.00     0.124 S 
ATOM     66  O   UNL A   1      42.332  18.745  27.222  1.00  0.00    -0.237 OA
ATOM     67  O   UNL A   1      40.472  19.599  25.837  1.00  0.00    -0.237 OA
ATOM     68  O   UNL A   1      42.763  19.539  24.925  1.00  0.00    -0.744 OA
ENDBRANCH  64  65
ENDBRANCH  43  57
BRANCH  44  69
ATOM     69  C   UNL A   1      43.721  33.034  31.458  1.00  0.00     0.058 A 
ATOM     70  C   UNL A   1      44.154  34.108  30.668  1.00  0.00     0.135 A 
ATOM     71  C   UNL A   1      43.452  33.286  32.813  1.00  0.00     0.135 A 
ATOM     72  F   UNL A   1      44.437  33.915  29.370  1.00  0.00    -0.206 F 
ATOM     73  C   UNL A   1      44.326  35.382  31.200  1.00  0.00     0.059 A 
ATOM     74  C   UNL A   1      43.593  34.556  33.362  1.00  0.00     0.059 A 
ATOM     75  F   UNL A   1      43.028  32.294  33.610  1.00  0.00    -0.206 F 
ATOM     76  C   UNL A   1      44.038  35.597  32.549  1.00  0.00     0.060 A 
BRANCH  76  77
ATOM     77  S   UNL A   1      44.210  37.265  33.219  1.00  0.00     0.124 S 
ATOM     78  O   UNL A   1      45.430  37.141  34.009  1.00  0.00    -0.237 OA
ATOM     79  O   UNL A   1      44.312  38.072  32.007  1.00  0.00    -0.237 OA
ATOM     80  O   UNL A   1      42.979  37.449  33.981  1.00  0.00    -0.744 OA
ENDBRANCH  76  77
ENDBRANCH  44  69
BRANCH  56  81
ATOM     81  C   UNL A   1      48.062  27.638  30.526  1.00  0.00     0.058 A 
ATOM     82  C   UNL A   1      48.517  27.049  31.715  1.00  0.00     0.135 A 
ATOM     83  C   UNL A   1      49.015  27.954  29.545  1.00  0.00     0.135 A 
ATOM     84  F   UNL A   1      47.647  26.733  32.689  1.00  0.00    -0.206 F 
ATOM     85  C   UNL A   1      49.868  26.787  31.925  1.00  0.00     0.059 A 
ATOM     86  C   UNL A   1      50.367  27.679  29.723  1.00  0.00     0.059 A 
ATOM     87  F   UNL A   1      48.632  28.511  28.384  1.00  0.00    -0.206 F 
ATOM     88  C   UNL A   1      50.785  27.098  30.920  1.00  0.00     0.060 A 
BRANCH  88  89
ATOM     89  S   UNL A   1      52.526  26.694  31.178  1.00  0.00     0.124 S 
ATOM     90  O   UNL A   1      53.010  27.894  31.852  1.00  0.00    -0.237 OA
ATOM     91  O   UNL A   1      52.448  25.492  32.004  1.00  0.00    -0.237 OA
ATOM     92  O   UNL A   1      53.032  26.485  29.826  1.00  0.00    -0.744 OA
ENDBRANCH  88  89
ENDBRANCH  56  81
ENDBRANCH  30  31
ENDBRANCH  23  25
ENDBRANCH  22  23
ENDBRANCH  21  22
ENDBRANCH   1  21
TORSDOF 18
ENDMDL
