MODEL 1
REMARK VINA RESULT:     -11.5      0.000      0.000
REMARK SMILES Cc1cc(C(=O)OCCOCCOC(=O)c2ccc(-c3c4nc(c(-c5c(F)cc(S(=O)(=O)[O-])cc5F)c5ccc([nH]5)c(-c5c(F)cc(S(=O)(=O)[O-])cc5F)c5nc(c(-c6c(F)cc(S(=O)(=O)[O-])cc6F)c6ccc3[nH]6)C=C5)C=C4)cc2)ccc1NC(=O)c1ccc(=O)n(CCOc2ccccc2)n1
REMARK SMILES IDX 8 1 7 2 5 3 6 4 4 5 1 6 2 7 3 8 84 9 83 10 82 11 85 12 86 13
REMARK SMILES IDX 87 15 88 16 89 17 103 18 90 19 93 20 91 21 92 22 94 23 95 24
REMARK SMILES IDX 96 25 97 26 98 27 102 28 99 29 101 30 100 31 9 32 10 33
REMARK SMILES IDX 11 34 12 35 13 36 14 37 15 38 16 39 17 40 81 41 18 42 80 43
REMARK SMILES IDX 19 44 20 45 21 46 74 47 22 48 79 49 73 50 75 51 23 52 78 53
REMARK SMILES IDX 72 54 71 55 24 57 58 58 37 59 57 60 38 61 41 62 56 63 76 64
REMARK SMILES IDX 39 65 40 66 55 68 77 69 42 70 25 71 26 72 35 73 27 74 28 75
REMARK SMILES IDX 34 76 36 77 29 78 30 79 31 80 32 81 33 82 59 83 60 84 69 85
REMARK SMILES IDX 61 86 62 87 68 88 70 89 63 90 64 91 65 92 66 93 67 94 43 95
REMARK SMILES IDX 44 96 53 97 45 98 46 99 52 100 54 101 47 102 48 103 49 104
REMARK SMILES IDX 50 105 51 106
REMARK H PARENT 85 14 75 56 41 67
REMARK Flexibility Score: inf
ROOT
ATOM      1  C   UNL A   1      38.138  23.985  26.515  1.00  0.00     0.261 C 
ENDROOT
BRANCH   1   2
ATOM      2  O   UNL A   1      37.478  23.449  25.342  1.00  0.00    -0.460 OA
BRANCH   2   3
ATOM      3  C   UNL A   1      36.478  22.522  25.409  1.00  0.00     0.338 C 
ATOM      4  O   UNL A   1      36.406  21.508  26.055  1.00  0.00    -0.246 OA
BRANCH   3   5
ATOM      5  C   UNL A   1      35.406  23.026  24.523  1.00  0.00     0.060 A 
ATOM      6  C   UNL A   1      32.313  21.876  22.668  1.00  0.00     0.046 C 
ATOM      7  C   UNL A   1      33.455  22.763  23.078  1.00  0.00    -0.027 A 
ATOM      8  C   UNL A   1      34.471  22.198  23.894  1.00  0.00     0.021 A 
ATOM      9  C   UNL A   1      33.459  24.147  22.865  1.00  0.00     0.044 A 
ATOM     10  C   UNL A   1      34.166  24.904  23.765  1.00  0.00     0.027 A 
ATOM     11  C   UNL A   1      35.206  24.391  24.490  1.00  0.00     0.018 A 
BRANCH   9  12
ATOM     12  N   UNL A   1      32.828  24.792  21.777  1.00  0.00    -0.320 N 
ATOM     13  C   UNL A   1      31.799  25.749  21.815  1.00  0.00     0.276 C 
ATOM     14  H   UNL A   1      33.149  24.540  20.881  1.00  0.00     0.170 HD
ATOM     15  O   UNL A   1      31.330  26.225  20.785  1.00  0.00    -0.267 OA
BRANCH  13  16
ATOM     16  C   UNL A   1      31.189  26.186  23.156  1.00  0.00     0.149 A 
ATOM     17  C   UNL A   1      30.305  25.171  23.784  1.00  0.00     0.042 A 
ATOM     18  N   UNL A   1      31.514  27.320  23.715  1.00  0.00    -0.164 NA
ATOM     19  C   UNL A   1      30.311  25.178  25.119  1.00  0.00     0.076 A 
ATOM     20  N   UNL A   1      31.224  27.413  25.092  1.00  0.00    -0.226 N 
ATOM     21  C   UNL A   1      31.035  26.252  25.841  1.00  0.00     0.266 A 
ATOM     22  O   UNL A   1      31.336  26.081  27.016  1.00  0.00    -0.268 OA
BRANCH  20  23
ATOM     23  C   UNL A   1      31.509  28.673  25.791  1.00  0.00     0.190 C 
BRANCH  23  24
ATOM     24  C   UNL A   1      32.973  29.157  25.659  1.00  0.00     0.253 C 
BRANCH  24  25
ATOM     25  O   UNL A   1      33.868  28.752  26.723  1.00  0.00    -0.492 OA
BRANCH  25  26
ATOM     26  C   UNL A   1      34.639  29.774  27.198  1.00  0.00     0.119 A 
ATOM     27  C   UNL A   1      34.167  31.078  27.287  1.00  0.00     0.046 A 
ATOM     28  C   UNL A   1      35.972  29.524  27.481  1.00  0.00     0.046 A 
ATOM     29  C   UNL A   1      34.993  32.078  27.819  1.00  0.00     0.004 A 
ATOM     30  C   UNL A   1      36.770  30.484  28.098  1.00  0.00     0.004 A 
ATOM     31  C   UNL A   1      36.272  31.766  28.284  1.00  0.00     0.000 A 
ENDBRANCH  25  26
ENDBRANCH  24  25
ENDBRANCH  23  24
ENDBRANCH  20  23
ENDBRANCH  13  16
ENDBRANCH   9  12
ENDBRANCH   3   5
ENDBRANCH   2   3
ENDBRANCH   1   2
BRANCH   1  32
ATOM     32  C   UNL A   1      39.588  23.661  26.596  1.00  0.00     0.202 C 
BRANCH  32  33
ATOM     33  O   UNL A   1      40.054  24.312  27.768  1.00  0.00    -0.374 OA
BRANCH  33  34
ATOM     34  C   UNL A   1      41.104  25.224  27.568  1.00  0.00     0.202 C 
BRANCH  34  35
ATOM     35  C   UNL A   1      41.453  25.406  26.087  1.00  0.00     0.261 C 
BRANCH  35  36
ATOM     36  O   UNL A   1      40.975  26.683  25.604  1.00  0.00    -0.460 OA
BRANCH  36  37
ATOM     37  C   UNL A   1      41.883  27.707  25.556  1.00  0.00     0.338 C 
ATOM     38  O   UNL A   1      42.694  27.844  24.657  1.00  0.00    -0.246 OA
BRANCH  37  39
ATOM     39  C   UNL A   1      41.665  28.668  26.680  1.00  0.00     0.060 A 
ATOM     40  C   UNL A   1      42.731  29.309  27.340  1.00  0.00     0.016 A 
ATOM     41  C   UNL A   1      40.377  28.803  27.180  1.00  0.00     0.016 A 
ATOM     42  C   UNL A   1      42.527  29.945  28.584  1.00  0.00     0.010 A 
ATOM     43  C   UNL A   1      40.195  29.355  28.428  1.00  0.00     0.010 A 
ATOM     44  C   UNL A   1      41.264  29.897  29.168  1.00  0.00    -0.014 A 
BRANCH  44  45
ATOM     45  C   UNL A   1      40.888  30.257  30.546  1.00  0.00     0.031 A 
ATOM     46  C   UNL A   1      40.058  31.476  30.710  1.00  0.00     0.074 A 
ATOM     47  C   UNL A   1      40.927  29.336  31.548  1.00  0.00     0.049 A 
ATOM     48  N   UNL A   1      39.569  31.857  31.831  1.00  0.00    -0.248 NA
ATOM     49  C   UNL A   1      39.706  32.389  29.621  1.00  0.00     0.031 C 
ATOM     50  C   UNL A   1      40.040  29.201  32.711  1.00  0.00     0.029 A 
ATOM     51  N   UNL A   1      41.765  28.230  31.708  1.00  0.00    -0.354 N 
ATOM     52  C   UNL A   1      38.603  32.801  31.585  1.00  0.00     0.074 A 
ATOM     53  C   UNL A   1      38.810  33.186  30.215  1.00  0.00     0.031 C 
ATOM     54  C   UNL A   1      40.546  28.303  33.579  1.00  0.00     0.029 A 
ATOM     55  C   UNL A   1      41.843  27.895  33.065  1.00  0.00     0.049 A 
ATOM     56  H   UNL A   1      42.230  27.759  30.979  1.00  0.00     0.167 HD
ATOM     57  C   UNL A   1      37.691  33.032  32.571  1.00  0.00     0.037 A 
ATOM     58  C   UNL A   1      43.049  27.901  33.689  1.00  0.00     0.037 A 
ATOM     59  C   UNL A   1      38.116  32.350  33.807  1.00  0.00     0.049 A 
ATOM     60  C   UNL A   1      42.985  29.047  34.654  1.00  0.00     0.074 A 
ATOM     61  C   UNL A   1      37.661  31.247  34.509  1.00  0.00     0.029 A 
ATOM     62  N   UNL A   1      39.393  32.626  34.308  1.00  0.00    -0.354 N 
ATOM     63  N   UNL A   1      42.216  30.087  34.450  1.00  0.00    -0.248 NA
ATOM     64  C   UNL A   1      43.557  29.018  35.995  1.00  0.00     0.031 C 
ATOM     65  C   UNL A   1      38.734  30.798  35.346  1.00  0.00     0.029 A 
ATOM     66  C   UNL A   1      39.827  31.641  35.175  1.00  0.00     0.049 A 
ATOM     67  H   UNL A   1      39.917  33.424  34.070  1.00  0.00     0.167 HD
ATOM     68  C   UNL A   1      42.045  30.743  35.626  1.00  0.00     0.074 A 
ATOM     69  C   UNL A   1      42.960  30.088  36.550  1.00  0.00     0.031 C 
ATOM     70  C   UNL A   1      41.139  31.743  35.814  1.00  0.00     0.037 A 
BRANCH  57  71
ATOM     71  C   UNL A   1      36.365  33.755  32.418  1.00  0.00     0.058 A 
ATOM     72  C   UNL A   1      36.103  34.912  33.185  1.00  0.00     0.135 A 
ATOM     73  C   UNL A   1      35.281  33.339  31.610  1.00  0.00     0.135 A 
ATOM     74  F   UNL A   1      37.022  35.408  34.026  1.00  0.00    -0.206 F 
ATOM     75  C   UNL A   1      34.886  35.603  33.144  1.00  0.00     0.059 A 
ATOM     76  C   UNL A   1      34.070  34.038  31.519  1.00  0.00     0.059 A 
ATOM     77  F   UNL A   1      35.310  32.204  30.905  1.00  0.00    -0.206 F 
ATOM     78  C   UNL A   1      33.876  35.166  32.299  1.00  0.00     0.060 A 
BRANCH  78  79
ATOM     79  S   UNL A   1      32.318  36.072  32.243  1.00  0.00     0.124 S 
ATOM     80  O   UNL A   1      32.262  36.492  30.847  1.00  0.00    -0.237 OA
ATOM     81  O   UNL A   1      31.352  35.051  32.639  1.00  0.00    -0.237 OA
ATOM     82  O   UNL A   1      32.512  37.149  33.209  1.00  0.00    -0.744 OA
ENDBRANCH  78  79
ENDBRANCH  57  71
BRANCH  58  83
ATOM     83  C   UNL A   1      44.136  27.388  32.787  1.00  0.00     0.058 A 
ATOM     84  C   UNL A   1      44.240  25.977  32.691  1.00  0.00     0.135 A 
ATOM     85  C   UNL A   1      44.604  28.117  31.682  1.00  0.00     0.135 A 
ATOM     86  F   UNL A   1      43.830  25.216  33.719  1.00  0.00    -0.206 F 
ATOM     87  C   UNL A   1      44.609  25.323  31.512  1.00  0.00     0.059 A 
ATOM     88  C   UNL A   1      44.976  27.480  30.483  1.00  0.00     0.059 A 
ATOM     89  F   UNL A   1      44.542  29.456  31.685  1.00  0.00    -0.206 F 
ATOM     90  C   UNL A   1      44.916  26.086  30.388  1.00  0.00     0.060 A 
BRANCH  90  91
ATOM     91  S   UNL A   1      44.983  25.263  28.766  1.00  0.00     0.124 S 
ATOM     92  O   UNL A   1      44.678  26.354  27.851  1.00  0.00    -0.237 OA
ATOM     93  O   UNL A   1      46.354  24.758  28.715  1.00  0.00    -0.237 OA
ATOM     94  O   UNL A   1      43.964  24.225  28.879  1.00  0.00    -0.744 OA
ENDBRANCH  90  91
ENDBRANCH  58  83
BRANCH  70  95
ATOM     95  C   UNL A   1      41.478  32.913  36.688  1.00  0.00     0.058 A 
ATOM     96  C   UNL A   1      42.516  33.811  36.375  1.00  0.00     0.135 A 
ATOM     97  C   UNL A   1      40.653  33.276  37.773  1.00  0.00     0.135 A 
ATOM     98  F   UNL A   1      43.277  33.670  35.278  1.00  0.00    -0.206 F 
ATOM     99  C   UNL A   1      42.800  34.917  37.159  1.00  0.00     0.059 A 
ATOM    100  C   UNL A   1      40.869  34.423  38.522  1.00  0.00     0.059 A 
ATOM    101  F   UNL A   1      39.593  32.539  38.135  1.00  0.00    -0.206 F 
ATOM    102  C   UNL A   1      41.979  35.207  38.238  1.00  0.00     0.060 A 
BRANCH 102 103
ATOM    103  S   UNL A   1      42.382  36.615  39.271  1.00  0.00     0.124 S 
ATOM    104  O   UNL A   1      42.662  37.631  38.262  1.00  0.00    -0.237 OA
ATOM    105  O   UNL A   1      41.155  36.807  40.039  1.00  0.00    -0.237 OA
ATOM    106  O   UNL A   1      43.531  36.151  40.041  1.00  0.00    -0.744 OA
ENDBRANCH 102 103
ENDBRANCH  70  95
ENDBRANCH  44  45
ENDBRANCH  37  39
ENDBRANCH  36  37
ENDBRANCH  35  36
ENDBRANCH  34  35
ENDBRANCH  33  34
ENDBRANCH  32  33
ENDBRANCH   1  32
TORSDOF 23
ENDMDL
MODEL 2
REMARK VINA RESULT:     -11.4      3.712      9.874
REMARK SMILES Cc1cc(C(=O)OCCOCCOC(=O)c2ccc(-c3c4nc(c(-c5c(F)cc(S(=O)(=O)[O-])cc5F)c5ccc([nH]5)c(-c5c(F)cc(S(=O)(=O)[O-])cc5F)c5nc(c(-c6c(F)cc(S(=O)(=O)[O-])cc6F)c6ccc3[nH]6)C=C5)C=C4)cc2)ccc1NC(=O)c1ccc(=O)n(CCOc2ccccc2)n1
REMARK SMILES IDX 8 1 7 2 5 3 6 4 4 5 1 6 2 7 3 8 84 9 83 10 82 11 85 12 86 13
REMARK SMILES IDX 87 15 88 16 89 17 103 18 90 19 93 20 91 21 92 22 94 23 95 24
REMARK SMILES IDX 96 25 97 26 98 27 102 28 99 29 101 30 100 31 9 32 10 33
REMARK SMILES IDX 11 34 12 35 13 36 14 37 15 38 16 39 17 40 81 41 18 42 80 43
REMARK SMILES IDX 19 44 20 45 21 46 74 47 22 48 79 49 73 50 75 51 23 52 78 53
REMARK SMILES IDX 72 54 71 55 24 57 58 58 37 59 57 60 38 61 41 62 56 63 76 64
REMARK SMILES IDX 39 65 40 66 55 68 77 69 42 70 25 71 26 72 35 73 27 74 28 75
REMARK SMILES IDX 34 76 36 77 29 78 30 79 31 80 32 81 33 82 59 83 60 84 69 85
REMARK SMILES IDX 61 86 62 87 68 88 70 89 63 90 64 91 65 92 66 93 67 94 43 95
REMARK SMILES IDX 44 96 53 97 45 98 46 99 52 100 54 101 47 102 48 103 49 104
REMARK SMILES IDX 50 105 51 106
REMARK H PARENT 85 14 75 56 41 67
REMARK Flexibility Score: inf
ROOT
ATOM      1  C   UNL A   1      32.722  28.819  22.857  1.00  0.00     0.261 C 
ENDROOT
BRANCH   1   2
ATOM      2  O   UNL A   1      32.568  27.382  22.968  1.00  0.00    -0.460 OA
BRANCH   2   3
ATOM      3  C   UNL A   1      33.392  26.496  22.336  1.00  0.00     0.338 C 
ATOM      4  O   UNL A   1      33.652  26.379  21.166  1.00  0.00    -0.246 OA
BRANCH   3   5
ATOM      5  C   UNL A   1      33.986  25.668  23.408  1.00  0.00     0.060 A 
ATOM      6  C   UNL A   1      36.664  23.058  23.996  1.00  0.00     0.046 C 
ATOM      7  C   UNL A   1      35.464  23.921  24.263  1.00  0.00    -0.027 A 
ATOM      8  C   UNL A   1      34.920  24.655  23.175  1.00  0.00     0.021 A 
ATOM      9  C   UNL A   1      34.989  24.188  25.554  1.00  0.00     0.044 A 
ATOM     10  C   UNL A   1      34.357  25.392  25.738  1.00  0.00     0.027 A 
ATOM     11  C   UNL A   1      33.752  26.062  24.711  1.00  0.00     0.018 A 
BRANCH   9  12
ATOM     12  N   UNL A   1      35.081  23.292  26.643  1.00  0.00    -0.320 N 
ATOM     13  C   UNL A   1      34.244  22.203  26.944  1.00  0.00     0.276 C 
ATOM     14  H   UNL A   1      35.825  23.450  27.269  1.00  0.00     0.170 HD
ATOM     15  O   UNL A   1      34.433  21.507  27.936  1.00  0.00    -0.267 OA
BRANCH  13  16
ATOM     16  C   UNL A   1      33.026  21.889  26.061  1.00  0.00     0.149 A 
ATOM     17  C   UNL A   1      31.745  22.442  26.570  1.00  0.00     0.042 A 
ATOM     18  N   UNL A   1      33.152  21.267  24.920  1.00  0.00    -0.164 NA
ATOM     19  C   UNL A   1      30.874  22.792  25.621  1.00  0.00     0.076 A 
ATOM     20  N   UNL A   1      32.061  21.408  24.038  1.00  0.00    -0.226 N 
ATOM     21  C   UNL A   1      31.166  22.464  24.205  1.00  0.00     0.266 A 
ATOM     22  O   UNL A   1      30.571  23.066  23.319  1.00  0.00    -0.268 OA
BRANCH  20  23
ATOM     23  C   UNL A   1      32.096  20.698  22.752  1.00  0.00     0.190 C 
BRANCH  23  24
ATOM     24  C   UNL A   1      32.160  19.157  22.878  1.00  0.00     0.253 C 
BRANCH  24  25
ATOM     25  O   UNL A   1      31.921  18.623  24.203  1.00  0.00    -0.492 OA
BRANCH  25  26
ATOM     26  C   UNL A   1      32.857  17.711  24.595  1.00  0.00     0.119 A 
ATOM     27  C   UNL A   1      32.533  16.600  25.364  1.00  0.00     0.046 A 
ATOM     28  C   UNL A   1      34.191  17.969  24.322  1.00  0.00     0.046 A 
ATOM     29  C   UNL A   1      33.533  15.677  25.703  1.00  0.00     0.004 A 
ATOM     30  C   UNL A   1      35.175  17.015  24.568  1.00  0.00     0.004 A 
ATOM     31  C   UNL A   1      34.842  15.853  25.249  1.00  0.00     0.000 A 
ENDBRANCH  25  26
ENDBRANCH  24  25
ENDBRANCH  23  24
ENDBRANCH  20  23
ENDBRANCH  13  16
ENDBRANCH   9  12
ENDBRANCH   3   5
ENDBRANCH   2   3
ENDBRANCH   1   2
BRANCH   1  32
ATOM     32  C   UNL A   1      32.034  29.586  23.931  1.00  0.00     0.202 C 
BRANCH  32  33
ATOM     33  O   UNL A   1      32.750  29.293  25.121  1.00  0.00    -0.374 OA
BRANCH  33  34
ATOM     34  C   UNL A   1      32.095  29.640  26.314  1.00  0.00     0.202 C 
BRANCH  34  35
ATOM     35  C   UNL A   1      32.594  30.966  26.895  1.00  0.00     0.261 C 
BRANCH  35  36
ATOM     36  O   UNL A   1      33.541  30.730  27.963  1.00  0.00    -0.460 OA
BRANCH  36  37
ATOM     37  C   UNL A   1      34.773  31.317  27.841  1.00  0.00     0.338 C 
ATOM     38  O   UNL A   1      34.935  32.471  27.488  1.00  0.00    -0.246 OA
BRANCH  37  39
ATOM     39  C   UNL A   1      35.853  30.391  28.299  1.00  0.00     0.060 A 
ATOM     40  C   UNL A   1      35.910  29.893  29.615  1.00  0.00     0.016 A 
ATOM     41  C   UNL A   1      36.912  30.148  27.434  1.00  0.00     0.016 A 
ATOM     42  C   UNL A   1      37.092  29.296  30.107  1.00  0.00     0.010 A 
ATOM     43  C   UNL A   1      38.087  29.638  27.938  1.00  0.00     0.010 A 
ATOM     44  C   UNL A   1      38.213  29.242  29.284  1.00  0.00    -0.014 A 
BRANCH  44  45
ATOM     45  C   UNL A   1      39.599  28.908  29.660  1.00  0.00     0.031 A 
ATOM     46  C   UNL A   1      40.088  27.564  29.265  1.00  0.00     0.074 A 
ATOM     47  C   UNL A   1      40.498  29.884  29.962  1.00  0.00     0.049 A 
ATOM     48  N   UNL A   1      41.296  27.171  29.430  1.00  0.00    -0.248 NA
ATOM     49  C   UNL A   1      39.254  26.529  28.650  1.00  0.00     0.031 C 
ATOM     50  C   UNL A   1      41.943  29.920  29.696  1.00  0.00     0.029 A 
ATOM     51  N   UNL A   1      40.290  31.141  30.534  1.00  0.00    -0.354 N 
ATOM     52  C   UNL A   1      41.492  26.042  28.674  1.00  0.00     0.074 A 
ATOM     53  C   UNL A   1      40.169  25.614  28.308  1.00  0.00     0.031 C 
ATOM     54  C   UNL A   1      42.509  30.956  30.346  1.00  0.00     0.029 A 
ATOM     55  C   UNL A   1      41.469  31.575  31.152  1.00  0.00     0.049 A 
ATOM     56  H   UNL A   1      39.444  31.644  30.508  1.00  0.00     0.167 HD
ATOM     57  C   UNL A   1      42.779  25.704  28.381  1.00  0.00     0.037 A 
ATOM     58  C   UNL A   1      41.469  31.847  32.482  1.00  0.00     0.037 A 
ATOM     59  C   UNL A   1      43.702  26.537  29.172  1.00  0.00     0.049 A 
ATOM     60  C   UNL A   1      42.318  30.778  33.101  1.00  0.00     0.074 A 
ATOM     61  C   UNL A   1      44.568  27.573  28.873  1.00  0.00     0.029 A 
ATOM     62  N   UNL A   1      43.551  26.550  30.563  1.00  0.00    -0.354 N 
ATOM     63  N   UNL A   1      42.459  29.596  32.555  1.00  0.00    -0.248 NA
ATOM     64  C   UNL A   1      43.247  31.008  34.202  1.00  0.00     0.031 C 
ATOM     65  C   UNL A   1      44.832  28.279  30.092  1.00  0.00     0.029 A 
ATOM     66  C   UNL A   1      44.152  27.656  31.134  1.00  0.00     0.049 A 
ATOM     67  H   UNL A   1      43.074  25.856  31.073  1.00  0.00     0.167 HD
ATOM     68  C   UNL A   1      43.560  28.999  33.077  1.00  0.00     0.074 A 
ATOM     69  C   UNL A   1      43.980  29.882  34.156  1.00  0.00     0.031 C 
ATOM     70  C   UNL A   1      44.112  27.857  32.582  1.00  0.00     0.037 A 
BRANCH  57  71
ATOM     71  C   UNL A   1      43.230  24.726  27.310  1.00  0.00     0.058 A 
ATOM     72  C   UNL A   1      43.910  23.544  27.679  1.00  0.00     0.135 A 
ATOM     73  C   UNL A   1      43.107  24.910  25.913  1.00  0.00     0.135 A 
ATOM     74  F   UNL A   1      44.135  23.249  28.968  1.00  0.00    -0.206 F 
ATOM     75  C   UNL A   1      44.407  22.621  26.752  1.00  0.00     0.059 A 
ATOM     76  C   UNL A   1      43.557  23.981  24.967  1.00  0.00     0.059 A 
ATOM     77  F   UNL A   1      42.594  26.024  25.382  1.00  0.00    -0.206 F 
ATOM     78  C   UNL A   1      44.217  22.840  25.395  1.00  0.00     0.060 A 
BRANCH  78  79
ATOM     79  S   UNL A   1      44.849  21.638  24.209  1.00  0.00     0.124 S 
ATOM     80  O   UNL A   1      44.399  22.199  22.940  1.00  0.00    -0.237 OA
ATOM     81  O   UNL A   1      46.287  21.689  24.453  1.00  0.00    -0.237 OA
ATOM     82  O   UNL A   1      44.198  20.392  24.603  1.00  0.00    -0.744 OA
ENDBRANCH  78  79
ENDBRANCH  57  71
BRANCH  58  83
ATOM     83  C   UNL A   1      40.184  32.501  32.908  1.00  0.00     0.058 A 
ATOM     84  C   UNL A   1      39.933  33.781  32.353  1.00  0.00     0.135 A 
ATOM     85  C   UNL A   1      39.053  31.762  33.290  1.00  0.00     0.135 A 
ATOM     86  F   UNL A   1      40.968  34.553  31.983  1.00  0.00    -0.206 F 
ATOM     87  C   UNL A   1      38.648  34.225  32.024  1.00  0.00     0.059 A 
ATOM     88  C   UNL A   1      37.751  32.188  32.965  1.00  0.00     0.059 A 
ATOM     89  F   UNL A   1      39.197  30.540  33.822  1.00  0.00    -0.206 F 
ATOM     90  C   UNL A   1      37.563  33.391  32.279  1.00  0.00     0.060 A 
BRANCH  90  91
ATOM     91  S   UNL A   1      35.968  33.768  31.487  1.00  0.00     0.124 S 
ATOM     92  O   UNL A   1      35.542  34.965  32.199  1.00  0.00    -0.237 OA
ATOM     93  O   UNL A   1      36.340  33.964  30.086  1.00  0.00    -0.237 OA
ATOM     94  O   UNL A   1      35.181  32.567  31.738  1.00  0.00    -0.744 OA
ENDBRANCH  90  91
ENDBRANCH  58  83
BRANCH  70  95
ATOM     95  C   UNL A   1      44.696  26.837  33.513  1.00  0.00     0.058 A 
ATOM     96  C   UNL A   1      46.083  26.714  33.723  1.00  0.00     0.135 A 
ATOM     97  C   UNL A   1      43.872  26.072  34.365  1.00  0.00     0.135 A 
ATOM     98  F   UNL A   1      46.972  27.496  33.092  1.00  0.00    -0.206 F 
ATOM     99  C   UNL A   1      46.619  25.802  34.618  1.00  0.00     0.059 A 
ATOM    100  C   UNL A   1      44.387  25.212  35.325  1.00  0.00     0.059 A 
ATOM    101  F   UNL A   1      42.534  26.144  34.310  1.00  0.00    -0.206 F 
ATOM    102  C   UNL A   1      45.762  25.047  35.404  1.00  0.00     0.060 A 
BRANCH 102 103
ATOM    103  S   UNL A   1      46.466  23.839  36.526  1.00  0.00     0.124 S 
ATOM    104  O   UNL A   1      47.401  23.150  35.643  1.00  0.00    -0.237 OA
ATOM    105  O   UNL A   1      47.070  24.677  37.557  1.00  0.00    -0.237 OA
ATOM    106  O   UNL A   1      45.309  23.061  36.955  1.00  0.00    -0.744 OA
ENDBRANCH 102 103
ENDBRANCH  70  95
ENDBRANCH  44  45
ENDBRANCH  37  39
ENDBRANCH  36  37
ENDBRANCH  35  36
ENDBRANCH  34  35
ENDBRANCH  33  34
ENDBRANCH  32  33
ENDBRANCH   1  32
TORSDOF 23
ENDMDL
MODEL 3
REMARK VINA RESULT:     -10.8      4.500     11.201
REMARK SMILES Cc1cc(C(=O)OCCOCCOC(=O)c2ccc(-c3c4nc(c(-c5c(F)cc(S(=O)(=O)[O-])cc5F)c5ccc([nH]5)c(-c5c(F)cc(S(=O)(=O)[O-])cc5F)c5nc(c(-c6c(F)cc(S(=O)(=O)[O-])cc6F)c6ccc3[nH]6)C=C5)C=C4)cc2)ccc1NC(=O)c1ccc(=O)n(CCOc2ccccc2)n1
REMARK SMILES IDX 8 1 7 2 5 3 6 4 4 5 1 6 2 7 3 8 84 9 83 10 82 11 85 12 86 13
REMARK SMILES IDX 87 15 88 16 89 17 103 18 90 19 93 20 91 21 92 22 94 23 95 24
REMARK SMILES IDX 96 25 97 26 98 27 102 28 99 29 101 30 100 31 9 32 10 33
REMARK SMILES IDX 11 34 12 35 13 36 14 37 15 38 16 39 17 40 81 41 18 42 80 43
REMARK SMILES IDX 19 44 20 45 21 46 74 47 22 48 79 49 73 50 75 51 23 52 78 53
REMARK SMILES IDX 72 54 71 55 24 57 58 58 37 59 57 60 38 61 41 62 56 63 76 64
REMARK SMILES IDX 39 65 40 66 55 68 77 69 42 70 25 71 26 72 35 73 27 74 28 75
REMARK SMILES IDX 34 76 36 77 29 78 30 79 31 80 32 81 33 82 59 83 60 84 69 85
REMARK SMILES IDX 61 86 62 87 68 88 70 89 63 90 64 91 65 92 66 93 67 94 43 95
REMARK SMILES IDX 44 96 53 97 45 98 46 99 52 100 54 101 47 102 48 103 49 104
REMARK SMILES IDX 50 105 51 106
REMARK H PARENT 85 14 75 56 41 67
REMARK Flexibility Score: inf
ROOT
ATOM      1  C   UNL A   1      34.304  31.255  27.781  1.00  0.00     0.261 C 
ENDROOT
BRANCH   1   2
ATOM      2  O   UNL A   1      33.187  30.386  27.472  1.00  0.00    -0.460 OA
BRANCH   2   3
ATOM      3  C   UNL A   1      32.138  30.774  26.688  1.00  0.00     0.338 C 
ATOM      4  O   UNL A   1      31.344  31.665  26.844  1.00  0.00    -0.246 OA
BRANCH   3   5
ATOM      5  C   UNL A   1      32.165  29.877  25.512  1.00  0.00     0.060 A 
ATOM      6  C   UNL A   1      34.540  28.432  22.943  1.00  0.00     0.046 C 
ATOM      7  C   UNL A   1      33.241  28.802  23.601  1.00  0.00    -0.027 A 
ATOM      8  C   UNL A   1      33.288  29.704  24.698  1.00  0.00     0.021 A 
ATOM      9  C   UNL A   1      32.032  28.154  23.318  1.00  0.00     0.044 A 
ATOM     10  C   UNL A   1      31.110  28.105  24.334  1.00  0.00     0.027 A 
ATOM     11  C   UNL A   1      31.093  29.024  25.346  1.00  0.00     0.018 A 
BRANCH   9  12
ATOM     12  N   UNL A   1      31.695  27.599  22.063  1.00  0.00    -0.320 N 
ATOM     13  C   UNL A   1      31.783  26.256  21.657  1.00  0.00     0.276 C 
ATOM     14  H   UNL A   1      31.356  28.231  21.389  1.00  0.00     0.170 HD
ATOM     15  O   UNL A   1      31.465  25.908  20.524  1.00  0.00    -0.267 OA
BRANCH  13  16
ATOM     16  C   UNL A   1      32.341  25.188  22.611  1.00  0.00     0.149 A 
ATOM     17  C   UNL A   1      33.812  25.006  22.531  1.00  0.00     0.042 A 
ATOM     18  N   UNL A   1      31.573  24.576  23.473  1.00  0.00    -0.164 NA
ATOM     19  C   UNL A   1      34.394  24.663  23.683  1.00  0.00     0.076 A 
ATOM     20  N   UNL A   1      32.252  23.951  24.539  1.00  0.00    -0.226 N 
ATOM     21  C   UNL A   1      33.551  24.342  24.860  1.00  0.00     0.266 A 
ATOM     22  O   UNL A   1      34.053  24.368  25.977  1.00  0.00    -0.268 OA
BRANCH  20  23
ATOM     23  C   UNL A   1      31.470  23.194  25.527  1.00  0.00     0.190 C 
BRANCH  23  24
ATOM     24  C   UNL A   1      31.584  21.657  25.386  1.00  0.00     0.253 C 
BRANCH  24  25
ATOM     25  O   UNL A   1      31.958  21.172  24.073  1.00  0.00    -0.492 OA
BRANCH  25  26
ATOM     26  C   UNL A   1      32.792  20.092  24.114  1.00  0.00     0.119 A 
ATOM     27  C   UNL A   1      34.046  20.147  24.711  1.00  0.00     0.046 A 
ATOM     28  C   UNL A   1      32.427  18.945  23.429  1.00  0.00     0.046 A 
ATOM     29  C   UNL A   1      34.842  18.994  24.756  1.00  0.00     0.004 A 
ATOM     30  C   UNL A   1      33.164  17.769  23.548  1.00  0.00     0.004 A 
ATOM     31  C   UNL A   1      34.372  17.789  24.230  1.00  0.00     0.000 A 
ENDBRANCH  25  26
ENDBRANCH  24  25
ENDBRANCH  23  24
ENDBRANCH  20  23
ENDBRANCH  13  16
ENDBRANCH   9  12
ENDBRANCH   3   5
ENDBRANCH   2   3
ENDBRANCH   1   2
BRANCH   1  32
ATOM     32  C   UNL A   1      33.956  32.399  28.667  1.00  0.00     0.202 C 
BRANCH  32  33
ATOM     33  O   UNL A   1      34.840  32.302  29.772  1.00  0.00    -0.374 OA
BRANCH  33  34
ATOM     34  C   UNL A   1      35.842  31.325  29.653  1.00  0.00     0.202 C 
BRANCH  34  35
ATOM     35  C   UNL A   1      36.135  30.616  30.979  1.00  0.00     0.261 C 
BRANCH  35  36
ATOM     36  O   UNL A   1      36.879  29.397  30.753  1.00  0.00    -0.460 OA
BRANCH  36  37
ATOM     37  C   UNL A   1      37.567  28.883  31.820  1.00  0.00     0.338 C 
ATOM     38  O   UNL A   1      37.101  28.796  32.941  1.00  0.00    -0.246 OA
BRANCH  37  39
ATOM     39  C   UNL A   1      38.899  28.356  31.392  1.00  0.00     0.060 A 
ATOM     40  C   UNL A   1      40.078  28.609  32.120  1.00  0.00     0.016 A 
ATOM     41  C   UNL A   1      38.985  27.731  30.155  1.00  0.00     0.016 A 
ATOM     42  C   UNL A   1      41.344  28.384  31.537  1.00  0.00     0.010 A 
ATOM     43  C   UNL A   1      40.219  27.587  29.560  1.00  0.00     0.010 A 
ATOM     44  C   UNL A   1      41.411  27.945  30.218  1.00  0.00    -0.014 A 
BRANCH  44  45
ATOM     45  C   UNL A   1      42.594  27.891  29.339  1.00  0.00     0.031 A 
ATOM     46  C   UNL A   1      43.169  26.548  29.083  1.00  0.00     0.074 A 
ATOM     47  C   UNL A   1      42.884  28.915  28.491  1.00  0.00     0.049 A 
ATOM     48  N   UNL A   1      44.129  26.331  28.262  1.00  0.00    -0.248 NA
ATOM     49  C   UNL A   1      42.719  25.317  29.737  1.00  0.00     0.031 C 
ATOM     50  C   UNL A   1      43.483  28.860  27.150  1.00  0.00     0.029 A 
ATOM     51  N   UNL A   1      42.627  30.282  28.624  1.00  0.00    -0.354 N 
ATOM     52  C   UNL A   1      44.192  24.982  28.015  1.00  0.00     0.074 A 
ATOM     53  C   UNL A   1      43.383  24.385  29.043  1.00  0.00     0.031 C 
ATOM     54  C   UNL A   1      43.808  30.101  26.736  1.00  0.00     0.029 A 
ATOM     55  C   UNL A   1      43.533  31.006  27.839  1.00  0.00     0.049 A 
ATOM     56  H   UNL A   1      41.920  30.675  29.185  1.00  0.00     0.167 HD
ATOM     57  C   UNL A   1      44.847  24.585  26.889  1.00  0.00     0.037 A 
ATOM     58  C   UNL A   1      44.357  31.911  28.427  1.00  0.00     0.037 A 
ATOM     59  C   UNL A   1      45.559  25.733  26.299  1.00  0.00     0.049 A 
ATOM     60  C   UNL A   1      45.732  31.327  28.302  1.00  0.00     0.074 A 
ATOM     61  C   UNL A   1      45.379  26.506  25.166  1.00  0.00     0.029 A 
ATOM     62  N   UNL A   1      46.456  26.440  27.109  1.00  0.00    -0.354 N 
ATOM     63  N   UNL A   1      45.936  30.037  28.218  1.00  0.00    -0.248 NA
ATOM     64  C   UNL A   1      46.929  32.111  28.016  1.00  0.00     0.031 C 
ATOM     65  C   UNL A   1      46.083  27.737  25.368  1.00  0.00     0.029 A 
ATOM     66  C   UNL A   1      46.713  27.702  26.608  1.00  0.00     0.049 A 
ATOM     67  H   UNL A   1      46.853  26.082  27.935  1.00  0.00     0.167 HD
ATOM     68  C   UNL A   1      47.178  29.820  27.715  1.00  0.00     0.074 A 
ATOM     69  C   UNL A   1      47.793  31.139  27.673  1.00  0.00     0.031 C 
ATOM     70  C   UNL A   1      47.630  28.602  27.305  1.00  0.00     0.037 A 
BRANCH  57  71
ATOM     71  C   UNL A   1      44.764  23.216  26.235  1.00  0.00     0.058 A 
ATOM     72  C   UNL A   1      45.928  22.622  25.699  1.00  0.00     0.135 A 
ATOM     73  C   UNL A   1      43.583  22.466  26.027  1.00  0.00     0.135 A 
ATOM     74  F   UNL A   1      47.120  23.231  25.786  1.00  0.00    -0.206 F 
ATOM     75  C   UNL A   1      45.925  21.391  25.032  1.00  0.00     0.059 A 
ATOM     76  C   UNL A   1      43.561  21.213  25.403  1.00  0.00     0.059 A 
ATOM     77  F   UNL A   1      42.375  22.927  26.367  1.00  0.00    -0.206 F 
ATOM     78  C   UNL A   1      44.738  20.685  24.897  1.00  0.00     0.060 A 
BRANCH  78  79
ATOM     79  S   UNL A   1      44.749  19.094  24.050  1.00  0.00     0.124 S 
ATOM     80  O   UNL A   1      43.735  18.350  24.790  1.00  0.00    -0.237 OA
ATOM     81  O   UNL A   1      44.393  19.468  22.684  1.00  0.00    -0.237 OA
ATOM     82  O   UNL A   1      46.119  18.620  24.225  1.00  0.00    -0.744 OA
ENDBRANCH  78  79
ENDBRANCH  57  71
BRANCH  58  83
ATOM     83  C   UNL A   1      43.660  32.648  29.536  1.00  0.00     0.058 A 
ATOM     84  C   UNL A   1      42.897  33.775  29.140  1.00  0.00     0.135 A 
ATOM     85  C   UNL A   1      43.256  32.016  30.723  1.00  0.00     0.135 A 
ATOM     86  F   UNL A   1      43.238  34.442  28.026  1.00  0.00    -0.206 F 
ATOM     87  C   UNL A   1      41.703  34.141  29.770  1.00  0.00     0.059 A 
ATOM     88  C   UNL A   1      42.056  32.365  31.371  1.00  0.00     0.059 A 
ATOM     89  F   UNL A   1      43.919  30.941  31.171  1.00  0.00    -0.206 F 
ATOM     90  C   UNL A   1      41.257  33.388  30.853  1.00  0.00     0.060 A 
BRANCH  90  91
ATOM     91  S   UNL A   1      39.533  33.588  31.402  1.00  0.00     0.124 S 
ATOM     92  O   UNL A   1      39.663  34.543  32.494  1.00  0.00    -0.237 OA
ATOM     93  O   UNL A   1      38.865  34.087  30.201  1.00  0.00    -0.237 OA
ATOM     94  O   UNL A   1      39.148  32.235  31.786  1.00  0.00    -0.744 OA
ENDBRANCH  90  91
ENDBRANCH  58  83
BRANCH  70  95
ATOM     95  C   UNL A   1      49.058  28.210  27.543  1.00  0.00     0.058 A 
ATOM     96  C   UNL A   1      49.534  27.833  28.814  1.00  0.00     0.135 A 
ATOM     97  C   UNL A   1      49.952  28.022  26.468  1.00  0.00     0.135 A 
ATOM     98  F   UNL A   1      48.741  27.813  29.896  1.00  0.00    -0.206 F 
ATOM     99  C   UNL A   1      50.842  27.428  29.024  1.00  0.00     0.059 A 
ATOM    100  C   UNL A   1      51.240  27.539  26.645  1.00  0.00     0.059 A 
ATOM    101  F   UNL A   1      49.600  28.283  25.201  1.00  0.00    -0.206 F 
ATOM    102  C   UNL A   1      51.690  27.297  27.935  1.00  0.00     0.060 A 
BRANCH 102 103
ATOM    103  S   UNL A   1      53.392  26.815  28.224  1.00  0.00     0.124 S 
ATOM    104  O   UNL A   1      53.507  25.655  27.346  1.00  0.00    -0.237 OA
ATOM    105  O   UNL A   1      54.135  28.001  27.806  1.00  0.00    -0.237 OA
ATOM    106  O   UNL A   1      53.425  26.532  29.655  1.00  0.00    -0.744 OA
ENDBRANCH 102 103
ENDBRANCH  70  95
ENDBRANCH  44  45
ENDBRANCH  37  39
ENDBRANCH  36  37
ENDBRANCH  35  36
ENDBRANCH  34  35
ENDBRANCH  33  34
ENDBRANCH  32  33
ENDBRANCH   1  32
TORSDOF 23
ENDMDL
