MODEL 1
REMARK VINA RESULT:     -11.7      0.000      0.000
REMARK SMILES O=C(OCCOCCOC(=O)[C@@H]1CC2(CC[NH2+]CC2)C[N@H+]1Cc1cccc2nonc12)c1ccc(-c2c3nc(c(-c4c(F)cc(S(=O)(=O)[O-])cc4F)c4ccc([nH]4)c(-c4c(F)cc(S(=O)(=O)[O-])cc4F)c4nc(c(-c5c(F)cc(S(=O)(=O)[O-])cc5F)c5ccc2[nH]5)C=C4)C=C3)cc1
REMARK SMILES IDX 5 1 4 2 3 3 2 4 1 5 32 6 33 7 97 8 34 9 96 10 35 11 36 12
REMARK SMILES IDX 37 13 90 14 38 15 95 16 89 17 91 18 39 19 94 20 88 21 87 22
REMARK SMILES IDX 40 24 74 25 53 26 73 27 54 28 57 29 72 30 92 31 55 32 56 33
REMARK SMILES IDX 71 35 93 36 58 37 41 38 42 39 51 40 43 41 44 42 50 43 52 44
REMARK SMILES IDX 45 45 46 46 47 47 48 48 49 49 75 50 76 51 85 52 77 53 78 54
REMARK SMILES IDX 84 55 86 56 79 57 80 58 81 59 82 60 83 61 59 62 60 63 69 64
REMARK SMILES IDX 61 65 62 66 68 67 70 68 63 69 64 70 65 71 66 72 67 73 6 74
REMARK SMILES IDX 7 75 8 76 9 77 10 78 11 79 12 80 13 81 21 82 14 83 20 84
REMARK SMILES IDX 15 86 19 87 16 88 18 89 17 90 22 93 23 94 24 95 31 96 25 97
REMARK SMILES IDX 27 98 30 99 26 100 28 101 29 102
REMARK H PARENT 91 23 57 34 21 85 17 91 17 92
REMARK Flexibility Score: inf
ROOT
ATOM      1  C   UNL A   1      32.404  28.579  23.215  1.00  0.00     0.202 C 
ENDROOT
BRANCH   1   2
ATOM      2  C   UNL A   1      32.615  28.493  24.732  1.00  0.00     0.261 C 
BRANCH   2   3
ATOM      3  O   UNL A   1      33.501  29.516  25.252  1.00  0.00    -0.460 OA
BRANCH   3   4
ATOM      4  C   UNL A   1      33.314  30.300  26.344  1.00  0.00     0.338 C 
ATOM      5  O   UNL A   1      32.399  31.115  26.394  1.00  0.00    -0.246 OA
BRANCH   4   6
ATOM      6  C   UNL A   1      34.416  30.385  27.327  1.00  0.00     0.060 A 
ATOM      7  C   UNL A   1      34.599  31.557  28.084  1.00  0.00     0.016 A 
ATOM      8  C   UNL A   1      35.271  29.324  27.532  1.00  0.00     0.016 A 
ATOM      9  C   UNL A   1      35.683  31.685  28.973  1.00  0.00     0.010 A 
ATOM     10  C   UNL A   1      36.375  29.480  28.355  1.00  0.00     0.010 A 
ATOM     11  C   UNL A   1      36.608  30.645  29.104  1.00  0.00    -0.014 A 
BRANCH  11  12
ATOM     12  C   UNL A   1      37.701  30.644  30.125  1.00  0.00     0.031 A 
ATOM     13  C   UNL A   1      38.717  29.538  29.901  1.00  0.00     0.074 A 
ATOM     14  C   UNL A   1      38.092  31.779  30.749  1.00  0.00     0.049 A 
ATOM     15  N   UNL A   1      39.771  29.582  29.133  1.00  0.00    -0.248 NA
ATOM     16  C   UNL A   1      38.313  28.171  30.268  1.00  0.00     0.031 C 
ATOM     17  C   UNL A   1      38.909  32.805  30.093  1.00  0.00     0.029 A 
ATOM     18  N   UNL A   1      38.384  31.931  32.099  1.00  0.00    -0.354 N 
ATOM     19  C   UNL A   1      40.135  28.259  28.872  1.00  0.00     0.074 A 
ATOM     20  C   UNL A   1      39.173  27.428  29.562  1.00  0.00     0.031 C 
ATOM     21  C   UNL A   1      39.702  33.391  31.012  1.00  0.00     0.029 A 
ATOM     22  C   UNL A   1      39.466  32.781  32.321  1.00  0.00     0.049 A 
ATOM     23  H   UNL A   1      37.881  31.487  32.820  1.00  0.00     0.167 HD
ATOM     24  C   UNL A   1      41.196  27.876  28.110  1.00  0.00     0.037 A 
ATOM     25  C   UNL A   1      40.393  32.617  33.313  1.00  0.00     0.037 A 
ATOM     26  C   UNL A   1      42.087  28.922  27.719  1.00  0.00     0.049 A 
ATOM     27  C   UNL A   1      41.497  31.908  32.563  1.00  0.00     0.074 A 
ATOM     28  C   UNL A   1      42.420  29.649  26.598  1.00  0.00     0.029 A 
ATOM     29  N   UNL A   1      42.950  29.382  28.687  1.00  0.00    -0.354 N 
ATOM     30  N   UNL A   1      42.376  32.434  31.750  1.00  0.00    -0.248 NA
ATOM     31  C   UNL A   1      41.348  30.456  32.437  1.00  0.00     0.031 C 
ATOM     32  C   UNL A   1      43.099  30.812  27.092  1.00  0.00     0.029 A 
ATOM     33  C   UNL A   1      43.104  30.727  28.483  1.00  0.00     0.049 A 
ATOM     34  H   UNL A   1      43.376  28.845  29.393  1.00  0.00     0.167 HD
ATOM     35  C   UNL A   1      42.661  31.429  30.816  1.00  0.00     0.074 A 
ATOM     36  C   UNL A   1      42.044  30.226  31.334  1.00  0.00     0.031 C 
ATOM     37  C   UNL A   1      43.200  31.666  29.581  1.00  0.00     0.037 A 
BRANCH  24  38
ATOM     38  C   UNL A   1      41.629  26.469  27.929  1.00  0.00     0.058 A 
ATOM     39  C   UNL A   1      41.099  25.756  26.842  1.00  0.00     0.135 A 
ATOM     40  C   UNL A   1      42.358  25.756  28.889  1.00  0.00     0.135 A 
ATOM     41  F   UNL A   1      40.397  26.405  25.897  1.00  0.00    -0.206 F 
ATOM     42  C   UNL A   1      41.226  24.380  26.739  1.00  0.00     0.059 A 
ATOM     43  C   UNL A   1      42.511  24.371  28.801  1.00  0.00     0.059 A 
ATOM     44  F   UNL A   1      42.890  26.392  29.946  1.00  0.00    -0.206 F 
ATOM     45  C   UNL A   1      41.914  23.690  27.736  1.00  0.00     0.060 A 
BRANCH  45  46
ATOM     46  S   UNL A   1      41.963  21.888  27.628  1.00  0.00     0.124 S 
ATOM     47  O   UNL A   1      40.589  21.529  27.960  1.00  0.00    -0.237 OA
ATOM     48  O   UNL A   1      42.355  21.681  26.237  1.00  0.00    -0.237 OA
ATOM     49  O   UNL A   1      42.967  21.513  28.619  1.00  0.00    -0.744 OA
ENDBRANCH  45  46
ENDBRANCH  24  38
BRANCH  25  50
ATOM     50  C   UNL A   1      39.885  32.185  34.659  1.00  0.00     0.058 A 
ATOM     51  C   UNL A   1      40.041  33.074  35.742  1.00  0.00     0.135 A 
ATOM     52  C   UNL A   1      39.194  30.994  34.940  1.00  0.00     0.135 A 
ATOM     53  F   UNL A   1      40.822  34.161  35.616  1.00  0.00    -0.206 F 
ATOM     54  C   UNL A   1      39.365  32.909  36.945  1.00  0.00     0.059 A 
ATOM     55  C   UNL A   1      38.484  30.812  36.129  1.00  0.00     0.059 A 
ATOM     56  F   UNL A   1      39.146  29.992  34.050  1.00  0.00    -0.206 F 
ATOM     57  C   UNL A   1      38.528  31.808  37.099  1.00  0.00     0.060 A 
BRANCH  57  58
ATOM     58  S   UNL A   1      37.427  31.770  38.527  1.00  0.00     0.124 S 
ATOM     59  O   UNL A   1      36.443  32.791  38.184  1.00  0.00    -0.237 OA
ATOM     60  O   UNL A   1      36.952  30.389  38.487  1.00  0.00    -0.237 OA
ATOM     61  O   UNL A   1      38.307  32.092  39.644  1.00  0.00    -0.744 OA
ENDBRANCH  57  58
ENDBRANCH  25  50
BRANCH  37  62
ATOM     62  C   UNL A   1      43.697  33.050  29.335  1.00  0.00     0.058 A 
ATOM     63  C   UNL A   1      45.065  33.331  29.455  1.00  0.00     0.135 A 
ATOM     64  C   UNL A   1      42.848  34.089  28.919  1.00  0.00     0.135 A 
ATOM     65  F   UNL A   1      45.926  32.370  29.830  1.00  0.00    -0.206 F 
ATOM     66  C   UNL A   1      45.576  34.588  29.157  1.00  0.00     0.059 A 
ATOM     67  C   UNL A   1      43.343  35.345  28.583  1.00  0.00     0.059 A 
ATOM     68  F   UNL A   1      41.523  33.894  28.810  1.00  0.00    -0.206 F 
ATOM     69  C   UNL A   1      44.710  35.585  28.706  1.00  0.00     0.060 A 
BRANCH  69  70
ATOM     70  S   UNL A   1      45.407  37.178  28.229  1.00  0.00     0.124 S 
ATOM     71  O   UNL A   1      46.372  37.421  29.296  1.00  0.00    -0.237 OA
ATOM     72  O   UNL A   1      45.975  36.888  26.915  1.00  0.00    -0.237 OA
ATOM     73  O   UNL A   1      44.250  38.070  28.218  1.00  0.00    -0.744 OA
ENDBRANCH  69  70
ENDBRANCH  37  62
ENDBRANCH  11  12
ENDBRANCH   4   6
ENDBRANCH   3   4
ENDBRANCH   2   3
ENDBRANCH   1   2
BRANCH   1  74
ATOM     74  O   UNL A   1      31.073  28.272  22.803  1.00  0.00    -0.374 OA
BRANCH  74  75
ATOM     75  C   UNL A   1      30.908  27.008  22.145  1.00  0.00     0.202 C 
BRANCH  75  76
ATOM     76  C   UNL A   1      32.067  26.034  22.303  1.00  0.00     0.261 C 
BRANCH  76  77
ATOM     77  O   UNL A   1      31.705  24.955  23.164  1.00  0.00    -0.459 OA
BRANCH  77  78
ATOM     78  C   UNL A   1      32.684  24.043  23.393  1.00  0.00     0.365 C 
ATOM     79  O   UNL A   1      33.385  23.527  22.539  1.00  0.00    -0.245 OA
BRANCH  78  80
ATOM     80  C   UNL A   1      32.803  23.663  24.863  1.00  0.00     0.296 C 
ATOM     81  C   UNL A   1      34.168  24.204  25.328  1.00  0.00     0.091 C 
ATOM     82  N   UNL A   1      32.903  22.230  25.173  1.00  0.00    -0.319 N 
ATOM     83  C   UNL A   1      35.013  22.941  25.604  1.00  0.00     0.036 C 
ATOM     84  C   UNL A   1      33.926  22.024  26.176  1.00  0.00     0.270 C 
ATOM     85  H   UNL A   1      33.185  21.799  24.293  1.00  0.00     0.349 HD
ATOM     86  C   UNL A   1      36.159  23.215  26.580  1.00  0.00     0.074 C 
ATOM     87  C   UNL A   1      35.622  22.321  24.309  1.00  0.00     0.074 C 
ATOM     88  C   UNL A   1      37.272  24.031  25.913  1.00  0.00     0.261 C 
ATOM     89  C   UNL A   1      36.757  23.152  23.723  1.00  0.00     0.261 C 
ATOM     90  N   UNL A   1      37.802  23.374  24.721  1.00  0.00    -0.346 N 
ATOM     91  H   UNL A   1      38.201  22.474  24.989  1.00  0.00     0.346 HD
ATOM     92  H   UNL A   1      38.513  23.979  24.312  1.00  0.00     0.346 HD
BRANCH  82  93
ATOM     93  C   UNL A   1      31.793  21.310  25.057  1.00  0.00     0.302 C 
BRANCH  93  94
ATOM     94  C   UNL A   1      32.187  20.107  24.227  1.00  0.00     0.038 A 
ATOM     95  C   UNL A   1      32.237  20.131  22.808  1.00  0.00     0.012 A 
ATOM     96  C   UNL A   1      32.470  18.821  24.733  1.00  0.00     0.144 A 
ATOM     97  C   UNL A   1      32.369  18.986  21.978  1.00  0.00     0.003 A 
ATOM     98  C   UNL A   1      32.603  17.639  23.884  1.00  0.00     0.135 A 
ATOM     99  N   UNL A   1      32.661  18.435  25.999  1.00  0.00    -0.049 NA
ATOM    100  C   UNL A   1      32.507  17.690  22.487  1.00  0.00     0.034 A 
ATOM    101  N   UNL A   1      32.815  16.577  24.667  1.00  0.00    -0.050 NA
ATOM    102  O   UNL A   1      32.884  17.072  25.955  1.00  0.00    -0.243 OA
ENDBRANCH  93  94
ENDBRANCH  82  93
ENDBRANCH  78  80
ENDBRANCH  77  78
ENDBRANCH  76  77
ENDBRANCH  75  76
ENDBRANCH  74  75
ENDBRANCH   1  74
TORSDOF 19
ENDMDL
MODEL 2
REMARK VINA RESULT:     -11.5      1.825      3.178
REMARK SMILES O=C(OCCOCCOC(=O)[C@@H]1CC2(CC[NH2+]CC2)C[N@H+]1Cc1cccc2nonc12)c1ccc(-c2c3nc(c(-c4c(F)cc(S(=O)(=O)[O-])cc4F)c4ccc([nH]4)c(-c4c(F)cc(S(=O)(=O)[O-])cc4F)c4nc(c(-c5c(F)cc(S(=O)(=O)[O-])cc5F)c5ccc2[nH]5)C=C4)C=C3)cc1
REMARK SMILES IDX 5 1 4 2 3 3 2 4 1 5 32 6 33 7 97 8 34 9 96 10 35 11 36 12
REMARK SMILES IDX 37 13 90 14 38 15 95 16 89 17 91 18 39 19 94 20 88 21 87 22
REMARK SMILES IDX 40 24 74 25 53 26 73 27 54 28 57 29 72 30 92 31 55 32 56 33
REMARK SMILES IDX 71 35 93 36 58 37 41 38 42 39 51 40 43 41 44 42 50 43 52 44
REMARK SMILES IDX 45 45 46 46 47 47 48 48 49 49 75 50 76 51 85 52 77 53 78 54
REMARK SMILES IDX 84 55 86 56 79 57 80 58 81 59 82 60 83 61 59 62 60 63 69 64
REMARK SMILES IDX 61 65 62 66 68 67 70 68 63 69 64 70 65 71 66 72 67 73 6 74
REMARK SMILES IDX 7 75 8 76 9 77 10 78 11 79 12 80 13 81 21 82 14 83 20 84
REMARK SMILES IDX 15 86 19 87 16 88 18 89 17 90 22 93 23 94 24 95 31 96 25 97
REMARK SMILES IDX 27 98 30 99 26 100 28 101 29 102
REMARK H PARENT 91 23 57 34 21 85 17 91 17 92
REMARK Flexibility Score: inf
ROOT
ATOM      1  C   UNL A   1      31.914  28.853  23.980  1.00  0.00     0.202 C 
ENDROOT
BRANCH   1   2
ATOM      2  C   UNL A   1      33.076  28.542  24.932  1.00  0.00     0.261 C 
BRANCH   2   3
ATOM      3  O   UNL A   1      33.705  29.727  25.483  1.00  0.00    -0.460 OA
BRANCH   3   4
ATOM      4  C   UNL A   1      33.399  30.366  26.641  1.00  0.00     0.338 C 
ATOM      5  O   UNL A   1      32.335  30.961  26.779  1.00  0.00    -0.246 OA
BRANCH   4   6
ATOM      6  C   UNL A   1      34.496  30.608  27.603  1.00  0.00     0.060 A 
ATOM      7  C   UNL A   1      34.573  31.833  28.293  1.00  0.00     0.016 A 
ATOM      8  C   UNL A   1      35.449  29.646  27.854  1.00  0.00     0.016 A 
ATOM      9  C   UNL A   1      35.648  32.110  29.160  1.00  0.00     0.010 A 
ATOM     10  C   UNL A   1      36.540  29.950  28.653  1.00  0.00     0.010 A 
ATOM     11  C   UNL A   1      36.668  31.170  29.335  1.00  0.00    -0.014 A 
BRANCH  11  12
ATOM     12  C   UNL A   1      37.764  31.329  30.340  1.00  0.00     0.031 A 
ATOM     13  C   UNL A   1      38.794  30.215  30.270  1.00  0.00     0.074 A 
ATOM     14  C   UNL A   1      38.143  32.546  30.794  1.00  0.00     0.049 A 
ATOM     15  N   UNL A   1      39.844  30.162  29.498  1.00  0.00    -0.248 NA
ATOM     16  C   UNL A   1      38.409  28.909  30.830  1.00  0.00     0.031 C 
ATOM     17  C   UNL A   1      38.943  33.479  29.994  1.00  0.00     0.029 A 
ATOM     18  N   UNL A   1      38.437  32.893  32.107  1.00  0.00    -0.354 N 
ATOM     19  C   UNL A   1      40.224  28.820  29.426  1.00  0.00     0.074 A 
ATOM     20  C   UNL A   1      39.276  28.084  30.233  1.00  0.00     0.031 C 
ATOM     21  C   UNL A   1      39.732  34.199  30.817  1.00  0.00     0.029 A 
ATOM     22  C   UNL A   1      39.508  33.778  32.200  1.00  0.00     0.049 A 
ATOM     23  H   UNL A   1      37.942  32.550  32.886  1.00  0.00     0.167 HD
ATOM     24  C   UNL A   1      41.288  28.346  28.722  1.00  0.00     0.037 A 
ATOM     25  C   UNL A   1      40.440  33.769  33.201  1.00  0.00     0.037 A 
ATOM     26  C   UNL A   1      42.164  29.336  28.181  1.00  0.00     0.049 A 
ATOM     27  C   UNL A   1      41.552  32.974  32.553  1.00  0.00     0.074 A 
ATOM     28  C   UNL A   1      42.484  29.901  26.966  1.00  0.00     0.029 A 
ATOM     29  N   UNL A   1      43.024  29.941  29.069  1.00  0.00    -0.354 N 
ATOM     30  N   UNL A   1      42.420  33.390  31.669  1.00  0.00    -0.248 NA
ATOM     31  C   UNL A   1      41.421  31.518  32.636  1.00  0.00     0.031 C 
ATOM     32  C   UNL A   1      43.149  31.130  27.286  1.00  0.00     0.029 A 
ATOM     33  C   UNL A   1      43.160  31.244  28.675  1.00  0.00     0.049 A 
ATOM     34  H   UNL A   1      43.459  29.515  29.842  1.00  0.00     0.167 HD
ATOM     35  C   UNL A   1      42.716  32.266  30.886  1.00  0.00     0.074 A 
ATOM     36  C   UNL A   1      42.116  31.141  31.574  1.00  0.00     0.031 C 
ATOM     37  C   UNL A   1      43.247  32.331  29.627  1.00  0.00     0.037 A 
BRANCH  24  38
ATOM     38  C   UNL A   1      41.739  26.932  28.740  1.00  0.00     0.058 A 
ATOM     39  C   UNL A   1      42.755  26.581  29.642  1.00  0.00     0.135 A 
ATOM     40  C   UNL A   1      41.364  25.991  27.773  1.00  0.00     0.135 A 
ATOM     41  F   UNL A   1      43.141  27.456  30.587  1.00  0.00    -0.206 F 
ATOM     42  C   UNL A   1      43.425  25.371  29.553  1.00  0.00     0.059 A 
ATOM     43  C   UNL A   1      42.016  24.760  27.671  1.00  0.00     0.059 A 
ATOM     44  F   UNL A   1      40.394  26.277  26.888  1.00  0.00    -0.206 F 
ATOM     45  C   UNL A   1      43.065  24.474  28.548  1.00  0.00     0.060 A 
BRANCH  45  46
ATOM     46  S   UNL A   1      44.033  22.957  28.392  1.00  0.00     0.124 S 
ATOM     47  O   UNL A   1      45.182  23.412  27.619  1.00  0.00    -0.237 OA
ATOM     48  O   UNL A   1      44.299  22.626  29.789  1.00  0.00    -0.237 OA
ATOM     49  O   UNL A   1      43.129  22.045  27.697  1.00  0.00    -0.744 OA
ENDBRANCH  45  46
ENDBRANCH  24  38
BRANCH  25  50
ATOM     50  C   UNL A   1      39.943  33.526  34.597  1.00  0.00     0.058 A 
ATOM     51  C   UNL A   1      38.687  34.060  34.954  1.00  0.00     0.135 A 
ATOM     52  C   UNL A   1      40.578  32.748  35.579  1.00  0.00     0.135 A 
ATOM     53  F   UNL A   1      38.076  34.945  34.148  1.00  0.00    -0.206 F 
ATOM     54  C   UNL A   1      38.008  33.663  36.099  1.00  0.00     0.059 A 
ATOM     55  C   UNL A   1      39.911  32.314  36.726  1.00  0.00     0.059 A 
ATOM     56  F   UNL A   1      41.849  32.346  35.432  1.00  0.00    -0.206 F 
ATOM     57  C   UNL A   1      38.601  32.730  36.943  1.00  0.00     0.060 A 
BRANCH  57  58
ATOM     58  S   UNL A   1      37.591  31.995  38.244  1.00  0.00     0.124 S 
ATOM     59  O   UNL A   1      36.413  32.856  38.243  1.00  0.00    -0.237 OA
ATOM     60  O   UNL A   1      37.393  30.644  37.726  1.00  0.00    -0.237 OA
ATOM     61  O   UNL A   1      38.440  32.088  39.426  1.00  0.00    -0.744 OA
ENDBRANCH  57  58
ENDBRANCH  25  50
BRANCH  37  62
ATOM     62  C   UNL A   1      43.726  33.672  29.184  1.00  0.00     0.058 A 
ATOM     63  C   UNL A   1      42.821  34.591  28.636  1.00  0.00     0.135 A 
ATOM     64  C   UNL A   1      45.058  34.086  29.354  1.00  0.00     0.135 A 
ATOM     65  F   UNL A   1      41.530  34.256  28.471  1.00  0.00    -0.206 F 
ATOM     66  C   UNL A   1      43.214  35.877  28.287  1.00  0.00     0.059 A 
ATOM     67  C   UNL A   1      45.466  35.379  29.043  1.00  0.00     0.059 A 
ATOM     68  F   UNL A   1      45.983  33.245  29.848  1.00  0.00    -0.206 F 
ATOM     69  C   UNL A   1      44.536  36.268  28.508  1.00  0.00     0.060 A 
BRANCH  69  70
ATOM     70  S   UNL A   1      45.000  37.971  28.141  1.00  0.00     0.124 S 
ATOM     71  O   UNL A   1      44.224  38.246  26.937  1.00  0.00    -0.237 OA
ATOM     72  O   UNL A   1      44.573  38.676  29.346  1.00  0.00    -0.237 OA
ATOM     73  O   UNL A   1      46.446  37.897  27.949  1.00  0.00    -0.744 OA
ENDBRANCH  69  70
ENDBRANCH  37  62
ENDBRANCH  11  12
ENDBRANCH   4   6
ENDBRANCH   3   4
ENDBRANCH   2   3
ENDBRANCH   1   2
BRANCH   1  74
ATOM     74  O   UNL A   1      30.867  27.884  24.019  1.00  0.00    -0.374 OA
BRANCH  74  75
ATOM     75  C   UNL A   1      30.474  27.350  22.747  1.00  0.00     0.202 C 
BRANCH  75  76
ATOM     76  C   UNL A   1      31.538  26.534  22.026  1.00  0.00     0.261 C 
BRANCH  76  77
ATOM     77  O   UNL A   1      32.060  25.518  22.881  1.00  0.00    -0.459 OA
BRANCH  77  78
ATOM     78  C   UNL A   1      33.246  24.985  22.492  1.00  0.00     0.365 C 
ATOM     79  O   UNL A   1      34.155  25.596  21.957  1.00  0.00    -0.245 OA
BRANCH  78  80
ATOM     80  C   UNL A   1      33.328  23.485  22.743  1.00  0.00     0.296 C 
ATOM     81  C   UNL A   1      32.069  23.124  23.553  1.00  0.00     0.091 C 
ATOM     82  N   UNL A   1      34.415  23.016  23.614  1.00  0.00    -0.319 N 
ATOM     83  C   UNL A   1      32.604  22.730  24.948  1.00  0.00     0.036 C 
ATOM     84  C   UNL A   1      33.901  22.026  24.536  1.00  0.00     0.270 C 
ATOM     85  H   UNL A   1      34.709  23.849  24.124  1.00  0.00     0.349 HD
ATOM     86  C   UNL A   1      31.629  21.825  25.704  1.00  0.00     0.074 C 
ATOM     87  C   UNL A   1      32.916  23.962  25.851  1.00  0.00     0.074 C 
ATOM     88  C   UNL A   1      30.411  22.612  26.198  1.00  0.00     0.261 C 
ATOM     89  C   UNL A   1      31.663  24.671  26.351  1.00  0.00     0.261 C 
ATOM     90  N   UNL A   1      30.786  23.736  27.053  1.00  0.00    -0.346 N 
ATOM     91  H   UNL A   1      31.273  23.378  27.875  1.00  0.00     0.346 HD
ATOM     92  H   UNL A   1      29.937  24.232  27.321  1.00  0.00     0.346 HD
BRANCH  82  93
ATOM     93  C   UNL A   1      35.805  22.994  23.213  1.00  0.00     0.302 C 
BRANCH  93  94
ATOM     94  C   UNL A   1      36.706  22.928  24.427  1.00  0.00     0.038 A 
ATOM     95  C   UNL A   1      36.916  24.034  25.294  1.00  0.00     0.012 A 
ATOM     96  C   UNL A   1      37.493  21.819  24.802  1.00  0.00     0.144 A 
ATOM     97  C   UNL A   1      37.917  24.102  26.299  1.00  0.00     0.003 A 
ATOM     98  C   UNL A   1      38.527  21.885  25.834  1.00  0.00     0.135 A 
ATOM     99  N   UNL A   1      37.467  20.568  24.332  1.00  0.00    -0.049 NA
ATOM    100  C   UNL A   1      38.794  23.045  26.572  1.00  0.00     0.034 A 
ATOM    101  N   UNL A   1      39.123  20.691  25.911  1.00  0.00    -0.050 NA
ATOM    102  O   UNL A   1      38.451  19.880  25.018  1.00  0.00    -0.243 OA
ENDBRANCH  93  94
ENDBRANCH  82  93
ENDBRANCH  78  80
ENDBRANCH  77  78
ENDBRANCH  76  77
ENDBRANCH  75  76
ENDBRANCH  74  75
ENDBRANCH   1  74
TORSDOF 19
ENDMDL
MODEL 3
REMARK VINA RESULT:     -11.5      4.196      9.228
REMARK SMILES O=C(OCCOCCOC(=O)[C@@H]1CC2(CC[NH2+]CC2)C[N@H+]1Cc1cccc2nonc12)c1ccc(-c2c3nc(c(-c4c(F)cc(S(=O)(=O)[O-])cc4F)c4ccc([nH]4)c(-c4c(F)cc(S(=O)(=O)[O-])cc4F)c4nc(c(-c5c(F)cc(S(=O)(=O)[O-])cc5F)c5ccc2[nH]5)C=C4)C=C3)cc1
REMARK SMILES IDX 5 1 4 2 3 3 2 4 1 5 32 6 33 7 97 8 34 9 96 10 35 11 36 12
REMARK SMILES IDX 37 13 90 14 38 15 95 16 89 17 91 18 39 19 94 20 88 21 87 22
REMARK SMILES IDX 40 24 74 25 53 26 73 27 54 28 57 29 72 30 92 31 55 32 56 33
REMARK SMILES IDX 71 35 93 36 58 37 41 38 42 39 51 40 43 41 44 42 50 43 52 44
REMARK SMILES IDX 45 45 46 46 47 47 48 48 49 49 75 50 76 51 85 52 77 53 78 54
REMARK SMILES IDX 84 55 86 56 79 57 80 58 81 59 82 60 83 61 59 62 60 63 69 64
REMARK SMILES IDX 61 65 62 66 68 67 70 68 63 69 64 70 65 71 66 72 67 73 6 74
REMARK SMILES IDX 7 75 8 76 9 77 10 78 11 79 12 80 13 81 21 82 14 83 20 84
REMARK SMILES IDX 15 86 19 87 16 88 18 89 17 90 22 93 23 94 24 95 31 96 25 97
REMARK SMILES IDX 27 98 30 99 26 100 28 101 29 102
REMARK H PARENT 91 23 57 34 21 85 17 91 17 92
REMARK Flexibility Score: inf
ROOT
ATOM      1  C   UNL A   1      36.683  22.420  25.877  1.00  0.00     0.202 C 
ENDROOT
BRANCH   1   2
ATOM      2  C   UNL A   1      37.357  21.085  25.533  1.00  0.00     0.261 C 
BRANCH   2   3
ATOM      3  O   UNL A   1      38.775  21.208  25.259  1.00  0.00    -0.460 OA
BRANCH   3   4
ATOM      4  C   UNL A   1      39.806  21.031  26.125  1.00  0.00     0.338 C 
ATOM      5  O   UNL A   1      39.949  19.979  26.740  1.00  0.00    -0.246 OA
BRANCH   4   6
ATOM      6  C   UNL A   1      40.555  22.231  26.557  1.00  0.00     0.060 A 
ATOM      7  C   UNL A   1      39.941  23.184  27.391  1.00  0.00     0.016 A 
ATOM      8  C   UNL A   1      41.861  22.434  26.169  1.00  0.00     0.016 A 
ATOM      9  C   UNL A   1      40.611  24.368  27.755  1.00  0.00     0.010 A 
ATOM     10  C   UNL A   1      42.491  23.631  26.472  1.00  0.00     0.010 A 
ATOM     11  C   UNL A   1      41.901  24.619  27.277  1.00  0.00    -0.014 A 
BRANCH  11  12
ATOM     12  C   UNL A   1      42.731  25.777  27.729  1.00  0.00     0.031 A 
ATOM     13  C   UNL A   1      41.919  27.045  27.925  1.00  0.00     0.074 A 
ATOM     14  C   UNL A   1      43.862  25.603  28.452  1.00  0.00     0.049 A 
ATOM     15  N   UNL A   1      41.273  27.407  28.999  1.00  0.00    -0.248 NA
ATOM     16  C   UNL A   1      41.496  27.765  26.713  1.00  0.00     0.031 C 
ATOM     17  C   UNL A   1      43.848  25.249  29.875  1.00  0.00     0.029 A 
ATOM     18  N   UNL A   1      45.071  26.266  28.283  1.00  0.00    -0.354 N 
ATOM     19  C   UNL A   1      40.328  28.355  28.600  1.00  0.00     0.074 A 
ATOM     20  C   UNL A   1      40.480  28.505  27.170  1.00  0.00     0.031 C 
ATOM     21  C   UNL A   1      44.918  25.805  30.477  1.00  0.00     0.029 A 
ATOM     22  C   UNL A   1      45.693  26.564  29.495  1.00  0.00     0.049 A 
ATOM     23  H   UNL A   1      45.448  26.500  27.405  1.00  0.00     0.167 HD
ATOM     24  C   UNL A   1      39.455  28.986  29.432  1.00  0.00     0.037 A 
ATOM     25  C   UNL A   1      46.415  27.699  29.740  1.00  0.00     0.037 A 
ATOM     26  C   UNL A   1      39.672  28.780  30.829  1.00  0.00     0.049 A 
ATOM     27  C   UNL A   1      45.374  28.564  30.413  1.00  0.00     0.074 A 
ATOM     28  C   UNL A   1      39.118  28.093  31.885  1.00  0.00     0.029 A 
ATOM     29  N   UNL A   1      40.714  29.480  31.394  1.00  0.00    -0.354 N 
ATOM     30  N   UNL A   1      44.955  28.494  31.650  1.00  0.00    -0.248 NA
ATOM     31  C   UNL A   1      44.485  29.302  29.513  1.00  0.00     0.031 C 
ATOM     32  C   UNL A   1      40.146  28.040  32.882  1.00  0.00     0.029 A 
ATOM     33  C   UNL A   1      41.269  28.674  32.351  1.00  0.00     0.049 A 
ATOM     34  H   UNL A   1      41.006  30.388  31.155  1.00  0.00     0.167 HD
ATOM     35  C   UNL A   1      43.619  28.914  31.611  1.00  0.00     0.074 A 
ATOM     36  C   UNL A   1      43.417  29.453  30.282  1.00  0.00     0.031 C 
ATOM     37  C   UNL A   1      42.697  28.617  32.578  1.00  0.00     0.037 A 
BRANCH  24  38
ATOM     38  C   UNL A   1      38.529  30.065  29.009  1.00  0.00     0.058 A 
ATOM     39  C   UNL A   1      38.802  31.371  29.445  1.00  0.00     0.135 A 
ATOM     40  C   UNL A   1      37.298  29.824  28.386  1.00  0.00     0.135 A 
ATOM     41  F   UNL A   1      39.974  31.644  30.044  1.00  0.00    -0.206 F 
ATOM     42  C   UNL A   1      37.868  32.389  29.333  1.00  0.00     0.059 A 
ATOM     43  C   UNL A   1      36.345  30.836  28.250  1.00  0.00     0.059 A 
ATOM     44  F   UNL A   1      36.990  28.593  27.947  1.00  0.00    -0.206 F 
ATOM     45  C   UNL A   1      36.631  32.108  28.755  1.00  0.00     0.060 A 
BRANCH  45  46
ATOM     46  S   UNL A   1      35.399  33.428  28.727  1.00  0.00     0.124 S 
ATOM     47  O   UNL A   1      35.578  33.979  27.388  1.00  0.00    -0.237 OA
ATOM     48  O   UNL A   1      34.160  32.688  28.948  1.00  0.00    -0.237 OA
ATOM     49  O   UNL A   1      35.807  34.300  29.824  1.00  0.00    -0.744 OA
ENDBRANCH  45  46
ENDBRANCH  24  38
BRANCH  25  50
ATOM     50  C   UNL A   1      47.323  28.182  28.645  1.00  0.00     0.058 A 
ATOM     51  C   UNL A   1      48.696  28.316  28.937  1.00  0.00     0.135 A 
ATOM     52  C   UNL A   1      46.949  28.449  27.318  1.00  0.00     0.135 A 
ATOM     53  F   UNL A   1      49.128  28.239  30.207  1.00  0.00    -0.206 F 
ATOM     54  C   UNL A   1      49.655  28.472  27.943  1.00  0.00     0.059 A 
ATOM     55  C   UNL A   1      47.892  28.584  26.296  1.00  0.00     0.059 A 
ATOM     56  F   UNL A   1      45.659  28.540  26.964  1.00  0.00    -0.206 F 
ATOM     57  C   UNL A   1      49.245  28.531  26.616  1.00  0.00     0.060 A 
BRANCH  57  58
ATOM     58  S   UNL A   1      50.504  28.418  25.329  1.00  0.00     0.124 S 
ATOM     59  O   UNL A   1      51.347  27.332  25.818  1.00  0.00    -0.237 OA
ATOM     60  O   UNL A   1      49.690  28.114  24.155  1.00  0.00    -0.237 OA
ATOM     61  O   UNL A   1      51.114  29.743  25.335  1.00  0.00    -0.744 OA
ENDBRANCH  57  58
ENDBRANCH  25  50
BRANCH  37  62
ATOM     62  C   UNL A   1      43.229  28.001  33.826  1.00  0.00     0.058 A 
ATOM     63  C   UNL A   1      43.577  28.814  34.913  1.00  0.00     0.135 A 
ATOM     64  C   UNL A   1      43.340  26.609  33.987  1.00  0.00     0.135 A 
ATOM     65  F   UNL A   1      43.472  30.150  34.822  1.00  0.00    -0.206 F 
ATOM     66  C   UNL A   1      44.000  28.271  36.120  1.00  0.00     0.059 A 
ATOM     67  C   UNL A   1      43.729  26.043  35.197  1.00  0.00     0.059 A 
ATOM     68  F   UNL A   1      43.049  25.774  32.975  1.00  0.00    -0.206 F 
ATOM     69  C   UNL A   1      44.059  26.883  36.258  1.00  0.00     0.060 A 
BRANCH  69  70
ATOM     70  S   UNL A   1      44.514  26.198  37.862  1.00  0.00     0.124 S 
ATOM     71  O   UNL A   1      44.744  24.794  37.541  1.00  0.00    -0.237 OA
ATOM     72  O   UNL A   1      45.704  26.973  38.205  1.00  0.00    -0.237 OA
ATOM     73  O   UNL A   1      43.344  26.465  38.694  1.00  0.00    -0.744 OA
ENDBRANCH  69  70
ENDBRANCH  37  62
ENDBRANCH  11  12
ENDBRANCH   4   6
ENDBRANCH   3   4
ENDBRANCH   2   3
ENDBRANCH   1   2
BRANCH   1  74
ATOM     74  O   UNL A   1      35.547  22.714  25.064  1.00  0.00    -0.374 OA
BRANCH  74  75
ATOM     75  C   UNL A   1      35.207  24.103  24.960  1.00  0.00     0.202 C 
BRANCH  75  76
ATOM     76  C   UNL A   1      34.622  24.532  23.622  1.00  0.00     0.261 C 
BRANCH  76  77
ATOM     77  O   UNL A   1      33.770  25.666  23.784  1.00  0.00    -0.459 OA
BRANCH  77  78
ATOM     78  C   UNL A   1      33.321  26.223  22.631  1.00  0.00     0.365 C 
ATOM     79  O   UNL A   1      33.914  26.223  21.565  1.00  0.00    -0.245 OA
BRANCH  78  80
ATOM     80  C   UNL A   1      31.978  26.924  22.799  1.00  0.00     0.296 C 
ATOM     81  C   UNL A   1      32.293  28.285  23.447  1.00  0.00     0.091 C 
ATOM     82  N   UNL A   1      31.032  26.326  23.752  1.00  0.00    -0.319 N 
ATOM     83  C   UNL A   1      31.686  28.190  24.864  1.00  0.00     0.036 C 
ATOM     84  C   UNL A   1      30.430  27.371  24.552  1.00  0.00     0.270 C 
ATOM     85  H   UNL A   1      31.609  25.725  24.339  1.00  0.00     0.349 HD
ATOM     86  C   UNL A   1      31.387  29.569  25.456  1.00  0.00     0.074 C 
ATOM     87  C   UNL A   1      32.602  27.425  25.868  1.00  0.00     0.074 C 
ATOM     88  C   UNL A   1      32.677  30.290  25.863  1.00  0.00     0.261 C 
ATOM     89  C   UNL A   1      33.840  28.214  26.272  1.00  0.00     0.261 C 
ATOM     90  N   UNL A   1      33.466  29.517  26.818  1.00  0.00    -0.346 N 
ATOM     91  H   UNL A   1      32.915  29.376  27.665  1.00  0.00     0.346 HD
ATOM     92  H   UNL A   1      34.319  30.037  27.023  1.00  0.00     0.346 HD
BRANCH  82  93
ATOM     93  C   UNL A   1      30.322  25.091  23.501  1.00  0.00     0.302 C 
BRANCH  93  94
ATOM     94  C   UNL A   1      31.069  23.919  24.098  1.00  0.00     0.038 A 
ATOM     95  C   UNL A   1      31.585  22.852  23.315  1.00  0.00     0.012 A 
ATOM     96  C   UNL A   1      31.278  23.698  25.476  1.00  0.00     0.144 A 
ATOM     97  C   UNL A   1      32.082  21.627  23.834  1.00  0.00     0.003 A 
ATOM     98  C   UNL A   1      31.787  22.438  26.016  1.00  0.00     0.135 A 
ATOM     99  N   UNL A   1      31.071  24.526  26.505  1.00  0.00    -0.049 NA
ATOM    100  C   UNL A   1      32.155  21.356  25.205  1.00  0.00     0.034 A 
ATOM    101  N   UNL A   1      31.817  22.531  27.348  1.00  0.00    -0.050 NA
ATOM    102  O   UNL A   1      31.413  23.818  27.642  1.00  0.00    -0.243 OA
ENDBRANCH  93  94
ENDBRANCH  82  93
ENDBRANCH  78  80
ENDBRANCH  77  78
ENDBRANCH  76  77
ENDBRANCH  75  76
ENDBRANCH  74  75
ENDBRANCH   1  74
TORSDOF 19
ENDMDL
