MODEL 1
REMARK VINA RESULT:     -10.4      0.000      0.000
REMARK SMILES O=C(CCCN1C(=O)c2ccc3c4c(ccc(c24)C1=O)C(=O)NC3=O)OCCOCCOC(=O)c1ccc(-c2c3nc(c(-c4c(F)cc(S(=O)(=O)[O-])cc4F)c4ccc([nH]4)c(-c4c(F)cc(S(=O)(=O)[O-])cc4F)c4nc(c(-c5c(F)cc(S(=O)(=O)[O-])cc5F)c5ccc2[nH]5)C=C4)C=C3)cc1
REMARK SMILES IDX 29 1 28 2 27 3 26 4 2 5 1 6 3 7 4 8 5 9 6 10 19 11 7 12
REMARK SMILES IDX 20 13 17 14 9 15 8 16 16 17 18 18 10 19 15 20 13 21 11 22
REMARK SMILES IDX 14 23 12 24 21 25 24 26 23 27 22 28 25 29 30 31 31 32 32 33
REMARK SMILES IDX 33 34 34 35 35 36 36 37 100 38 37 39 99 40 38 41 39 42 40 43
REMARK SMILES IDX 93 44 41 45 98 46 92 47 94 48 42 49 97 50 91 51 90 52 43 54
REMARK SMILES IDX 77 55 56 56 76 57 57 58 60 59 75 60 95 61 58 62 59 63 74 65
REMARK SMILES IDX 96 66 61 67 44 68 45 69 54 70 46 71 47 72 53 73 55 74 48 75
REMARK SMILES IDX 49 76 50 77 51 78 52 79 78 80 79 81 88 82 80 83 81 84 87 85
REMARK SMILES IDX 89 86 82 87 83 88 84 89 85 90 86 91 62 92 63 93 72 94 64 95
REMARK SMILES IDX 65 96 71 97 73 98 66 99 67 100 68 101 69 102 70 103
REMARK H PARENT 23 30 94 53 60 64
REMARK Flexibility Score: inf
ROOT
ATOM      1  O   UNL A   1      41.395  18.858  25.764  1.00  0.00    -0.374 OA
ENDROOT
BRANCH   1   2
ATOM      2  C   UNL A   1      42.689  19.467  25.758  1.00  0.00     0.202 C 
BRANCH   2   3
ATOM      3  C   UNL A   1      43.850  18.490  25.960  1.00  0.00     0.261 C 
BRANCH   3   4
ATOM      4  O   UNL A   1      44.818  18.299  24.914  1.00  0.00    -0.463 OA
BRANCH   4   5
ATOM      5  C   UNL A   1      45.063  19.324  24.079  1.00  0.00     0.305 C 
ATOM      6  O   UNL A   1      44.496  19.451  22.999  1.00  0.00    -0.252 OA
BRANCH   5   7
ATOM      7  C   UNL A   1      46.112  20.287  24.580  1.00  0.00     0.124 C 
BRANCH   7   8
ATOM      8  C   UNL A   1      45.672  21.606  25.213  1.00  0.00     0.034 C 
BRANCH   8   9
ATOM      9  C   UNL A   1      45.369  22.844  24.353  1.00  0.00     0.130 C 
BRANCH   9  10
ATOM     10  N   UNL A   1      45.636  24.216  24.798  1.00  0.00    -0.274 N 
ATOM     11  C   UNL A   1      44.500  24.906  25.252  1.00  0.00     0.261 C 
ATOM     12  C   UNL A   1      46.844  24.859  24.560  1.00  0.00     0.261 C 
ATOM     13  O   UNL A   1      43.382  24.400  25.334  1.00  0.00    -0.269 OA
ATOM     14  C   UNL A   1      44.655  26.331  25.625  1.00  0.00     0.049 A 
ATOM     15  C   UNL A   1      47.044  26.169  25.231  1.00  0.00     0.049 A 
ATOM     16  O   UNL A   1      47.708  24.473  23.780  1.00  0.00    -0.269 OA
ATOM     17  C   UNL A   1      43.530  27.097  25.965  1.00  0.00     0.015 A 
ATOM     18  C   UNL A   1      45.932  26.891  25.672  1.00  0.00     0.009 A 
ATOM     19  C   UNL A   1      48.331  26.713  25.341  1.00  0.00     0.015 A 
ATOM     20  C   UNL A   1      43.680  28.423  26.367  1.00  0.00     0.015 A 
ATOM     21  C   UNL A   1      46.098  28.215  26.150  1.00  0.00     0.009 A 
ATOM     22  C   UNL A   1      48.507  27.989  25.880  1.00  0.00     0.015 A 
ATOM     23  C   UNL A   1      44.961  28.972  26.475  1.00  0.00     0.048 A 
ATOM     24  C   UNL A   1      47.393  28.741  26.268  1.00  0.00     0.048 A 
ATOM     25  C   UNL A   1      45.128  30.377  26.913  1.00  0.00     0.258 C 
ATOM     26  C   UNL A   1      47.574  30.111  26.803  1.00  0.00     0.258 C 
ATOM     27  N   UNL A   1      46.421  30.804  27.098  1.00  0.00    -0.288 N 
ATOM     28  O   UNL A   1      44.166  31.117  27.069  1.00  0.00    -0.269 OA
ATOM     29  O   UNL A   1      48.684  30.609  26.937  1.00  0.00    -0.269 OA
ATOM     30  H   UNL A   1      46.536  31.703  27.481  1.00  0.00     0.173 HD
ENDBRANCH   9  10
ENDBRANCH   8   9
ENDBRANCH   7   8
ENDBRANCH   5   7
ENDBRANCH   4   5
ENDBRANCH   3   4
ENDBRANCH   2   3
ENDBRANCH   1   2
BRANCH   1  31
ATOM     31  C   UNL A   1      40.336  19.808  25.991  1.00  0.00     0.202 C 
BRANCH  31  32
ATOM     32  C   UNL A   1      40.729  20.986  26.889  1.00  0.00     0.261 C 
BRANCH  32  33
ATOM     33  O   UNL A   1      40.628  22.228  26.179  1.00  0.00    -0.460 OA
BRANCH  33  34
ATOM     34  C   UNL A   1      39.417  22.833  26.275  1.00  0.00     0.338 C 
ATOM     35  O   UNL A   1      38.331  22.353  26.017  1.00  0.00    -0.246 OA
BRANCH  34  36
ATOM     36  C   UNL A   1      39.569  24.132  26.961  1.00  0.00     0.060 A 
ATOM     37  C   UNL A   1      40.169  25.172  26.234  1.00  0.00     0.016 A 
ATOM     38  C   UNL A   1      39.105  24.346  28.260  1.00  0.00     0.016 A 
ATOM     39  C   UNL A   1      40.343  26.422  26.819  1.00  0.00     0.010 A 
ATOM     40  C   UNL A   1      39.293  25.594  28.851  1.00  0.00     0.010 A 
ATOM     41  C   UNL A   1      39.942  26.622  28.144  1.00  0.00    -0.014 A 
BRANCH  41  42
ATOM     42  C   UNL A   1      40.380  27.834  28.866  1.00  0.00     0.031 A 
ATOM     43  C   UNL A   1      41.736  27.809  29.512  1.00  0.00     0.074 A 
ATOM     44  C   UNL A   1      39.589  28.916  28.949  1.00  0.00     0.049 A 
ATOM     45  N   UNL A   1      42.299  28.693  30.290  1.00  0.00    -0.248 NA
ATOM     46  C   UNL A   1      42.564  26.619  29.252  1.00  0.00     0.031 C 
ATOM     47  C   UNL A   1      38.275  29.054  28.322  1.00  0.00     0.029 A 
ATOM     48  N   UNL A   1      39.772  30.099  29.617  1.00  0.00    -0.354 N 
ATOM     49  C   UNL A   1      43.537  28.160  30.627  1.00  0.00     0.074 A 
ATOM     50  C   UNL A   1      43.637  26.868  29.987  1.00  0.00     0.031 C 
ATOM     51  C   UNL A   1      37.758  30.249  28.658  1.00  0.00     0.029 A 
ATOM     52  C   UNL A   1      38.687  30.940  29.549  1.00  0.00     0.049 A 
ATOM     53  H   UNL A   1      40.601  30.325  30.098  1.00  0.00     0.167 HD
ATOM     54  C   UNL A   1      44.504  28.704  31.400  1.00  0.00     0.037 A 
ATOM     55  C   UNL A   1      38.465  32.117  30.167  1.00  0.00     0.037 A 
ATOM     56  C   UNL A   1      44.388  29.992  32.030  1.00  0.00     0.049 A 
ATOM     57  C   UNL A   1      39.536  32.682  31.065  1.00  0.00     0.074 A 
ATOM     58  C   UNL A   1      45.311  30.649  32.823  1.00  0.00     0.029 A 
ATOM     59  N   UNL A   1      43.276  30.817  31.940  1.00  0.00    -0.354 N 
ATOM     60  N   UNL A   1      40.709  32.177  31.368  1.00  0.00    -0.248 NA
ATOM     61  C   UNL A   1      39.257  33.977  31.700  1.00  0.00     0.031 C 
ATOM     62  C   UNL A   1      44.737  31.851  33.251  1.00  0.00     0.029 A 
ATOM     63  C   UNL A   1      43.479  31.968  32.680  1.00  0.00     0.049 A 
ATOM     64  H   UNL A   1      42.461  30.613  31.425  1.00  0.00     0.167 HD
ATOM     65  C   UNL A   1      41.318  33.104  32.209  1.00  0.00     0.074 A 
ATOM     66  C   UNL A   1      40.387  34.203  32.357  1.00  0.00     0.031 C 
ATOM     67  C   UNL A   1      42.537  33.052  32.804  1.00  0.00     0.037 A 
BRANCH  54  68
ATOM     68  C   UNL A   1      45.749  27.894  31.632  1.00  0.00     0.058 A 
ATOM     69  C   UNL A   1      46.889  28.039  30.825  1.00  0.00     0.135 A 
ATOM     70  C   UNL A   1      45.807  26.972  32.690  1.00  0.00     0.135 A 
ATOM     71  F   UNL A   1      46.878  28.886  29.784  1.00  0.00    -0.206 F 
ATOM     72  C   UNL A   1      48.036  27.284  31.046  1.00  0.00     0.059 A 
ATOM     73  C   UNL A   1      46.953  26.226  32.946  1.00  0.00     0.059 A 
ATOM     74  F   UNL A   1      44.742  26.787  33.485  1.00  0.00    -0.206 F 
ATOM     75  C   UNL A   1      48.059  26.380  32.111  1.00  0.00     0.060 A 
BRANCH  75  76
ATOM     76  S   UNL A   1      49.558  25.416  32.392  1.00  0.00     0.124 S 
ATOM     77  O   UNL A   1      50.471  26.438  32.897  1.00  0.00    -0.237 OA
ATOM     78  O   UNL A   1      49.114  24.425  33.368  1.00  0.00    -0.237 OA
ATOM     79  O   UNL A   1      49.876  24.889  31.069  1.00  0.00    -0.744 OA
ENDBRANCH  75  76
ENDBRANCH  54  68
BRANCH  55  80
ATOM     80  C   UNL A   1      37.173  32.827  29.972  1.00  0.00     0.058 A 
ATOM     81  C   UNL A   1      36.058  32.538  30.771  1.00  0.00     0.135 A 
ATOM     82  C   UNL A   1      37.031  33.818  28.987  1.00  0.00     0.135 A 
ATOM     83  F   UNL A   1      36.139  31.592  31.719  1.00  0.00    -0.206 F 
ATOM     84  C   UNL A   1      34.845  33.196  30.596  1.00  0.00     0.059 A 
ATOM     85  C   UNL A   1      35.835  34.508  28.809  1.00  0.00     0.059 A 
ATOM     86  F   UNL A   1      38.071  34.139  28.202  1.00  0.00    -0.206 F 
ATOM     87  C   UNL A   1      34.745  34.184  29.614  1.00  0.00     0.060 A 
BRANCH  87  88
ATOM     88  S   UNL A   1      33.182  35.073  29.434  1.00  0.00     0.124 S 
ATOM     89  O   UNL A   1      33.641  36.392  29.017  1.00  0.00    -0.237 OA
ATOM     90  O   UNL A   1      32.497  34.283  28.415  1.00  0.00    -0.237 OA
ATOM     91  O   UNL A   1      32.600  34.998  30.770  1.00  0.00    -0.744 OA
ENDBRANCH  87  88
ENDBRANCH  55  80
BRANCH  67  92
ATOM     92  C   UNL A   1      42.951  34.235  33.634  1.00  0.00     0.058 A 
ATOM     93  C   UNL A   1      42.695  34.296  35.013  1.00  0.00     0.135 A 
ATOM     94  C   UNL A   1      43.668  35.293  33.051  1.00  0.00     0.135 A 
ATOM     95  F   UNL A   1      42.012  33.313  35.618  1.00  0.00    -0.206 F 
ATOM     96  C   UNL A   1      43.114  35.379  35.779  1.00  0.00     0.059 A 
ATOM     97  C   UNL A   1      44.120  36.371  33.803  1.00  0.00     0.059 A 
ATOM     98  F   UNL A   1      43.950  35.276  31.738  1.00  0.00    -0.206 F 
ATOM     99  C   UNL A   1      43.827  36.410  35.166  1.00  0.00     0.060 A 
BRANCH  99 100
ATOM    100  S   UNL A   1      44.390  37.795  36.177  1.00  0.00     0.124 S 
ATOM    101  O   UNL A   1      44.007  38.936  35.353  1.00  0.00    -0.237 OA
ATOM    102  O   UNL A   1      43.625  37.616  37.407  1.00  0.00    -0.237 OA
ATOM    103  O   UNL A   1      45.826  37.564  36.301  1.00  0.00    -0.744 OA
ENDBRANCH  99 100
ENDBRANCH  67  92
ENDBRANCH  41  42
ENDBRANCH  34  36
ENDBRANCH  33  34
ENDBRANCH  32  33
ENDBRANCH  31  32
ENDBRANCH   1  31
TORSDOF 20
ENDMDL
MODEL 2
REMARK VINA RESULT:     -10.2      4.487     11.528
REMARK SMILES O=C(CCCN1C(=O)c2ccc3c4c(ccc(c24)C1=O)C(=O)NC3=O)OCCOCCOC(=O)c1ccc(-c2c3nc(c(-c4c(F)cc(S(=O)(=O)[O-])cc4F)c4ccc([nH]4)c(-c4c(F)cc(S(=O)(=O)[O-])cc4F)c4nc(c(-c5c(F)cc(S(=O)(=O)[O-])cc5F)c5ccc2[nH]5)C=C4)C=C3)cc1
REMARK SMILES IDX 29 1 28 2 27 3 26 4 2 5 1 6 3 7 4 8 5 9 6 10 19 11 7 12
REMARK SMILES IDX 20 13 17 14 9 15 8 16 16 17 18 18 10 19 15 20 13 21 11 22
REMARK SMILES IDX 14 23 12 24 21 25 24 26 23 27 22 28 25 29 30 31 31 32 32 33
REMARK SMILES IDX 33 34 34 35 35 36 36 37 100 38 37 39 99 40 38 41 39 42 40 43
REMARK SMILES IDX 93 44 41 45 98 46 92 47 94 48 42 49 97 50 91 51 90 52 43 54
REMARK SMILES IDX 77 55 56 56 76 57 57 58 60 59 75 60 95 61 58 62 59 63 74 65
REMARK SMILES IDX 96 66 61 67 44 68 45 69 54 70 46 71 47 72 53 73 55 74 48 75
REMARK SMILES IDX 49 76 50 77 51 78 52 79 78 80 79 81 88 82 80 83 81 84 87 85
REMARK SMILES IDX 89 86 82 87 83 88 84 89 85 90 86 91 62 92 63 93 72 94 64 95
REMARK SMILES IDX 65 96 71 97 73 98 66 99 67 100 68 101 69 102 70 103
REMARK H PARENT 23 30 94 53 60 64
REMARK Flexibility Score: inf
ROOT
ATOM      1  O   UNL A   1      31.879  29.870  25.229  1.00  0.00    -0.374 OA
ENDROOT
BRANCH   1   2
ATOM      2  C   UNL A   1      33.084  29.168  24.913  1.00  0.00     0.202 C 
BRANCH   2   3
ATOM      3  C   UNL A   1      33.069  28.466  23.553  1.00  0.00     0.261 C 
BRANCH   3   4
ATOM      4  O   UNL A   1      32.096  28.840  22.563  1.00  0.00    -0.463 OA
BRANCH   4   5
ATOM      5  C   UNL A   1      30.996  28.078  22.432  1.00  0.00     0.305 C 
ATOM      6  O   UNL A   1      29.997  28.452  21.827  1.00  0.00    -0.252 OA
BRANCH   5   7
ATOM      7  C   UNL A   1      31.094  26.735  23.115  1.00  0.00     0.124 C 
BRANCH   7   8
ATOM      8  C   UNL A   1      30.204  26.445  24.323  1.00  0.00     0.034 C 
BRANCH   8   9
ATOM      9  C   UNL A   1      30.449  25.221  25.220  1.00  0.00     0.130 C 
BRANCH   9  10
ATOM     10  N   UNL A   1      31.706  24.464  25.219  1.00  0.00    -0.274 N 
ATOM     11  C   UNL A   1      31.567  23.118  24.843  1.00  0.00     0.261 C 
ATOM     12  C   UNL A   1      32.879  24.957  25.776  1.00  0.00     0.261 C 
ATOM     13  O   UNL A   1      30.503  22.616  24.485  1.00  0.00    -0.269 OA
ATOM     14  C   UNL A   1      32.765  22.250  24.912  1.00  0.00     0.049 A 
ATOM     15  C   UNL A   1      34.114  24.169  25.535  1.00  0.00     0.049 A 
ATOM     16  O   UNL A   1      32.954  25.934  26.515  1.00  0.00    -0.269 OA
ATOM     17  C   UNL A   1      32.653  20.873  24.668  1.00  0.00     0.015 A 
ATOM     18  C   UNL A   1      34.009  22.820  25.183  1.00  0.00     0.009 A 
ATOM     19  C   UNL A   1      35.371  24.751  25.742  1.00  0.00     0.015 A 
ATOM     20  C   UNL A   1      33.788  20.063  24.680  1.00  0.00     0.015 A 
ATOM     21  C   UNL A   1      35.175  22.016  25.125  1.00  0.00     0.009 A 
ATOM     22  C   UNL A   1      36.529  23.980  25.613  1.00  0.00     0.015 A 
ATOM     23  C   UNL A   1      35.045  20.639  24.891  1.00  0.00     0.048 A 
ATOM     24  C   UNL A   1      36.428  22.616  25.321  1.00  0.00     0.048 A 
ATOM     25  C   UNL A   1      36.256  19.786  24.893  1.00  0.00     0.258 C 
ATOM     26  C   UNL A   1      37.653  21.787  25.223  1.00  0.00     0.258 C 
ATOM     27  N   UNL A   1      37.458  20.443  24.998  1.00  0.00    -0.288 N 
ATOM     28  O   UNL A   1      36.179  18.566  24.836  1.00  0.00    -0.269 OA
ATOM     29  O   UNL A   1      38.769  22.266  25.373  1.00  0.00    -0.269 OA
ATOM     30  H   UNL A   1      38.269  19.893  24.902  1.00  0.00     0.173 HD
ENDBRANCH   9  10
ENDBRANCH   8   9
ENDBRANCH   7   8
ENDBRANCH   5   7
ENDBRANCH   4   5
ENDBRANCH   3   4
ENDBRANCH   2   3
ENDBRANCH   1   2
BRANCH   1  31
ATOM     31  C   UNL A   1      31.923  30.489  26.529  1.00  0.00     0.202 C 
BRANCH  31  32
ATOM     32  C   UNL A   1      33.112  30.057  27.393  1.00  0.00     0.261 C 
BRANCH  32  33
ATOM     33  O   UNL A   1      34.182  31.009  27.307  1.00  0.00    -0.460 OA
BRANCH  33  34
ATOM     34  C   UNL A   1      34.750  31.323  28.499  1.00  0.00     0.338 C 
ATOM     35  O   UNL A   1      34.229  31.897  29.435  1.00  0.00    -0.246 OA
BRANCH  34  36
ATOM     36  C   UNL A   1      36.070  30.669  28.602  1.00  0.00     0.060 A 
ATOM     37  C   UNL A   1      36.479  30.252  29.878  1.00  0.00     0.016 A 
ATOM     38  C   UNL A   1      36.871  30.432  27.484  1.00  0.00     0.016 A 
ATOM     39  C   UNL A   1      37.711  29.629  30.047  1.00  0.00     0.010 A 
ATOM     40  C   UNL A   1      38.113  29.822  27.656  1.00  0.00     0.010 A 
ATOM     41  C   UNL A   1      38.547  29.451  28.941  1.00  0.00    -0.014 A 
BRANCH  41  42
ATOM     42  C   UNL A   1      39.959  29.066  29.145  1.00  0.00     0.031 A 
ATOM     43  C   UNL A   1      40.904  30.119  29.648  1.00  0.00     0.074 A 
ATOM     44  C   UNL A   1      40.383  27.819  28.880  1.00  0.00     0.049 A 
ATOM     45  N   UNL A   1      42.199  30.066  29.801  1.00  0.00    -0.248 NA
ATOM     46  C   UNL A   1      40.304  31.413  30.022  1.00  0.00     0.031 C 
ATOM     47  C   UNL A   1      39.538  26.715  28.428  1.00  0.00     0.029 A 
ATOM     48  N   UNL A   1      41.642  27.281  28.936  1.00  0.00    -0.354 N 
ATOM     49  C   UNL A   1      42.572  31.320  30.269  1.00  0.00     0.074 A 
ATOM     50  C   UNL A   1      41.372  32.121  30.356  1.00  0.00     0.031 C 
ATOM     51  C   UNL A   1      40.310  25.634  28.221  1.00  0.00     0.029 A 
ATOM     52  C   UNL A   1      41.703  25.981  28.492  1.00  0.00     0.049 A 
ATOM     53  H   UNL A   1      42.428  27.777  29.262  1.00  0.00     0.167 HD
ATOM     54  C   UNL A   1      43.808  31.761  30.598  1.00  0.00     0.037 A 
ATOM     55  C   UNL A   1      42.771  25.182  28.299  1.00  0.00     0.037 A 
ATOM     56  C   UNL A   1      44.992  30.950  30.505  1.00  0.00     0.049 A 
ATOM     57  C   UNL A   1      44.144  25.710  28.625  1.00  0.00     0.074 A 
ATOM     58  C   UNL A   1      46.295  31.288  30.824  1.00  0.00     0.029 A 
ATOM     59  N   UNL A   1      45.017  29.638  30.051  1.00  0.00    -0.354 N 
ATOM     60  N   UNL A   1      44.487  26.894  29.078  1.00  0.00    -0.248 NA
ATOM     61  C   UNL A   1      45.275  24.795  28.417  1.00  0.00     0.031 C 
ATOM     62  C   UNL A   1      47.113  30.195  30.520  1.00  0.00     0.029 A 
ATOM     63  C   UNL A   1      46.314  29.158  30.064  1.00  0.00     0.049 A 
ATOM     64  H   UNL A   1      44.227  29.125  29.764  1.00  0.00     0.167 HD
ATOM     65  C   UNL A   1      45.870  26.857  29.234  1.00  0.00     0.074 A 
ATOM     66  C   UNL A   1      46.297  25.531  28.836  1.00  0.00     0.031 C 
ATOM     67  C   UNL A   1      46.711  27.829  29.669  1.00  0.00     0.037 A 
BRANCH  54  68
ATOM     68  C   UNL A   1      43.941  33.187  31.053  1.00  0.00     0.058 A 
ATOM     69  C   UNL A   1      44.137  34.239  30.145  1.00  0.00     0.135 A 
ATOM     70  C   UNL A   1      43.850  33.506  32.418  1.00  0.00     0.135 A 
ATOM     71  F   UNL A   1      44.258  33.987  28.832  1.00  0.00    -0.206 F 
ATOM     72  C   UNL A   1      44.260  35.557  30.576  1.00  0.00     0.059 A 
ATOM     73  C   UNL A   1      43.943  34.819  32.868  1.00  0.00     0.059 A 
ATOM     74  F   UNL A   1      43.673  32.537  33.329  1.00  0.00    -0.206 F 
ATOM     75  C   UNL A   1      44.160  35.837  31.940  1.00  0.00     0.060 A 
BRANCH  75  76
ATOM     76  S   UNL A   1      44.310  37.552  32.482  1.00  0.00     0.124 S 
ATOM     77  O   UNL A   1      43.277  37.623  33.511  1.00  0.00    -0.237 OA
ATOM     78  O   UNL A   1      45.687  37.608  32.962  1.00  0.00    -0.237 OA
ATOM     79  O   UNL A   1      44.040  38.316  31.268  1.00  0.00    -0.744 OA
ENDBRANCH  75  76
ENDBRANCH  54  68
BRANCH  55  80
ATOM     80  C   UNL A   1      42.584  23.810  27.756  1.00  0.00     0.058 A 
ATOM     81  C   UNL A   1      42.482  22.700  28.607  1.00  0.00     0.135 A 
ATOM     82  C   UNL A   1      42.490  23.583  26.374  1.00  0.00     0.135 A 
ATOM     83  F   UNL A   1      42.576  22.863  29.936  1.00  0.00    -0.206 F 
ATOM     84  C   UNL A   1      42.308  21.413  28.109  1.00  0.00     0.059 A 
ATOM     85  C   UNL A   1      42.290  22.308  25.852  1.00  0.00     0.059 A 
ATOM     86  F   UNL A   1      42.570  24.613  25.517  1.00  0.00    -0.206 F 
ATOM     87  C   UNL A   1      42.208  21.228  26.729  1.00  0.00     0.060 A 
BRANCH  87  88
ATOM     88  S   UNL A   1      41.923  19.559  26.096  1.00  0.00     0.124 S 
ATOM     89  O   UNL A   1      42.827  19.520  24.954  1.00  0.00    -0.237 OA
ATOM     90  O   UNL A   1      42.299  18.732  27.238  1.00  0.00    -0.237 OA
ATOM     91  O   UNL A   1      40.499  19.562  25.777  1.00  0.00    -0.744 OA
ENDBRANCH  87  88
ENDBRANCH  55  80
BRANCH  67  92
ATOM     92  C   UNL A   1      48.170  27.483  29.777  1.00  0.00     0.058 A 
ATOM     93  C   UNL A   1      49.061  27.699  28.714  1.00  0.00     0.135 A 
ATOM     94  C   UNL A   1      48.692  26.987  30.982  1.00  0.00     0.135 A 
ATOM     95  F   UNL A   1      48.612  28.170  27.540  1.00  0.00    -0.206 F 
ATOM     96  C   UNL A   1      50.416  27.409  28.836  1.00  0.00     0.059 A 
ATOM     97  C   UNL A   1      50.047  26.717  31.135  1.00  0.00     0.059 A 
ATOM     98  F   UNL A   1      47.884  26.776  32.034  1.00  0.00    -0.206 F 
ATOM     99  C   UNL A   1      50.900  26.921  30.050  1.00  0.00     0.060 A 
BRANCH  99 100
ATOM    100  S   UNL A   1      52.665  26.577  30.205  1.00  0.00     0.124 S 
ATOM    101  O   UNL A   1      53.015  26.218  28.835  1.00  0.00    -0.237 OA
ATOM    102  O   UNL A   1      53.191  27.852  30.681  1.00  0.00    -0.237 OA
ATOM    103  O   UNL A   1      52.715  25.485  31.173  1.00  0.00    -0.744 OA
ENDBRANCH  99 100
ENDBRANCH  67  92
ENDBRANCH  41  42
ENDBRANCH  34  36
ENDBRANCH  33  34
ENDBRANCH  32  33
ENDBRANCH  31  32
ENDBRANCH   1  31
TORSDOF 20
ENDMDL
MODEL 3
REMARK VINA RESULT:     -10.1      4.490      7.525
REMARK SMILES O=C(CCCN1C(=O)c2ccc3c4c(ccc(c24)C1=O)C(=O)NC3=O)OCCOCCOC(=O)c1ccc(-c2c3nc(c(-c4c(F)cc(S(=O)(=O)[O-])cc4F)c4ccc([nH]4)c(-c4c(F)cc(S(=O)(=O)[O-])cc4F)c4nc(c(-c5c(F)cc(S(=O)(=O)[O-])cc5F)c5ccc2[nH]5)C=C4)C=C3)cc1
REMARK SMILES IDX 29 1 28 2 27 3 26 4 2 5 1 6 3 7 4 8 5 9 6 10 19 11 7 12
REMARK SMILES IDX 20 13 17 14 9 15 8 16 16 17 18 18 10 19 15 20 13 21 11 22
REMARK SMILES IDX 14 23 12 24 21 25 24 26 23 27 22 28 25 29 30 31 31 32 32 33
REMARK SMILES IDX 33 34 34 35 35 36 36 37 100 38 37 39 99 40 38 41 39 42 40 43
REMARK SMILES IDX 93 44 41 45 98 46 92 47 94 48 42 49 97 50 91 51 90 52 43 54
REMARK SMILES IDX 77 55 56 56 76 57 57 58 60 59 75 60 95 61 58 62 59 63 74 65
REMARK SMILES IDX 96 66 61 67 44 68 45 69 54 70 46 71 47 72 53 73 55 74 48 75
REMARK SMILES IDX 49 76 50 77 51 78 52 79 78 80 79 81 88 82 80 83 81 84 87 85
REMARK SMILES IDX 89 86 82 87 83 88 84 89 85 90 86 91 62 92 63 93 72 94 64 95
REMARK SMILES IDX 65 96 71 97 73 98 66 99 67 100 68 101 69 102 70 103
REMARK H PARENT 23 30 94 53 60 64
REMARK Flexibility Score: inf
ROOT
ATOM      1  O   UNL A   1      42.675  20.997  26.366  1.00  0.00    -0.374 OA
ENDROOT
BRANCH   1   2
ATOM      2  C   UNL A   1      41.426  21.204  27.033  1.00  0.00     0.202 C 
BRANCH   2   3
ATOM      3  C   UNL A   1      40.198  20.782  26.222  1.00  0.00     0.261 C 
BRANCH   3   4
ATOM      4  O   UNL A   1      39.075  21.671  26.105  1.00  0.00    -0.463 OA
BRANCH   4   5
ATOM      5  C   UNL A   1      38.075  21.329  25.273  1.00  0.00     0.305 C 
ATOM      6  O   UNL A   1      37.840  20.167  24.960  1.00  0.00    -0.252 OA
BRANCH   5   7
ATOM      7  C   UNL A   1      37.286  22.503  24.746  1.00  0.00     0.124 C 
BRANCH   7   8
ATOM      8  C   UNL A   1      36.053  22.245  23.881  1.00  0.00     0.034 C 
BRANCH   8   9
ATOM      9  C   UNL A   1      34.635  22.511  24.411  1.00  0.00     0.130 C 
BRANCH   9  10
ATOM     10  N   UNL A   1      34.001  23.835  24.379  1.00  0.00    -0.274 N 
ATOM     11  C   UNL A   1      33.131  24.030  23.294  1.00  0.00     0.261 C 
ATOM     12  C   UNL A   1      34.408  24.881  25.197  1.00  0.00     0.261 C 
ATOM     13  O   UNL A   1      32.866  23.160  22.467  1.00  0.00    -0.269 OA
ATOM     14  C   UNL A   1      32.525  25.370  23.122  1.00  0.00     0.049 A 
ATOM     15  C   UNL A   1      33.557  26.098  25.195  1.00  0.00     0.049 A 
ATOM     16  O   UNL A   1      35.450  24.908  25.843  1.00  0.00    -0.269 OA
ATOM     17  C   UNL A   1      31.751  25.653  21.987  1.00  0.00     0.015 A 
ATOM     18  C   UNL A   1      32.700  26.333  24.117  1.00  0.00     0.009 A 
ATOM     19  C   UNL A   1      33.678  27.042  26.223  1.00  0.00     0.015 A 
ATOM     20  C   UNL A   1      31.136  26.897  21.850  1.00  0.00     0.015 A 
ATOM     21  C   UNL A   1      32.018  27.572  24.018  1.00  0.00     0.009 A 
ATOM     22  C   UNL A   1      32.951  28.233  26.167  1.00  0.00     0.015 A 
ATOM     23  C   UNL A   1      31.256  27.844  22.871  1.00  0.00     0.048 A 
ATOM     24  C   UNL A   1      32.138  28.502  25.062  1.00  0.00     0.048 A 
ATOM     25  C   UNL A   1      30.596  29.163  22.736  1.00  0.00     0.258 C 
ATOM     26  C   UNL A   1      31.396  29.782  24.981  1.00  0.00     0.258 C 
ATOM     27  N   UNL A   1      30.672  29.993  23.829  1.00  0.00    -0.288 N 
ATOM     28  O   UNL A   1      30.043  29.498  21.698  1.00  0.00    -0.269 OA
ATOM     29  O   UNL A   1      31.458  30.620  25.872  1.00  0.00    -0.269 OA
ATOM     30  H   UNL A   1      30.154  30.828  23.783  1.00  0.00     0.173 HD
ENDBRANCH   9  10
ENDBRANCH   8   9
ENDBRANCH   7   8
ENDBRANCH   5   7
ENDBRANCH   4   5
ENDBRANCH   3   4
ENDBRANCH   2   3
ENDBRANCH   1   2
BRANCH   1  31
ATOM     31  C   UNL A   1      43.467  22.198  26.290  1.00  0.00     0.202 C 
BRANCH  31  32
ATOM     32  C   UNL A   1      42.813  23.335  25.498  1.00  0.00     0.261 C 
BRANCH  32  33
ATOM     33  O   UNL A   1      42.749  24.535  26.280  1.00  0.00    -0.460 OA
BRANCH  33  34
ATOM     34  C   UNL A   1      41.493  25.006  26.484  1.00  0.00     0.338 C 
ATOM     35  O   UNL A   1      40.471  24.644  25.933  1.00  0.00    -0.246 OA
BRANCH  34  36
ATOM     36  C   UNL A   1      41.488  25.904  27.656  1.00  0.00     0.060 A 
ATOM     37  C   UNL A   1      40.396  25.804  28.534  1.00  0.00     0.016 A 
ATOM     38  C   UNL A   1      42.534  26.790  27.918  1.00  0.00     0.016 A 
ATOM     39  C   UNL A   1      40.329  26.619  29.658  1.00  0.00     0.010 A 
ATOM     40  C   UNL A   1      42.457  27.618  29.037  1.00  0.00     0.010 A 
ATOM     41  C   UNL A   1      41.340  27.557  29.888  1.00  0.00    -0.014 A 
BRANCH  41  42
ATOM     42  C   UNL A   1      41.140  28.617  30.898  1.00  0.00     0.031 A 
ATOM     43  C   UNL A   1      41.991  28.574  32.133  1.00  0.00     0.074 A 
ATOM     44  C   UNL A   1      40.221  29.581  30.718  1.00  0.00     0.049 A 
ATOM     45  N   UNL A   1      41.933  29.314  33.207  1.00  0.00    -0.248 NA
ATOM     46  C   UNL A   1      43.048  27.546  32.166  1.00  0.00     0.031 C 
ATOM     47  C   UNL A   1      39.375  29.735  29.536  1.00  0.00     0.029 A 
ATOM     48  N   UNL A   1      39.835  30.602  31.546  1.00  0.00    -0.354 N 
ATOM     49  C   UNL A   1      42.928  28.832  34.048  1.00  0.00     0.074 A 
ATOM     50  C   UNL A   1      43.563  27.724  33.372  1.00  0.00     0.031 C 
ATOM     51  C   UNL A   1      38.548  30.778  29.727  1.00  0.00     0.029 A 
ATOM     52  C   UNL A   1      38.783  31.339  31.056  1.00  0.00     0.049 A 
ATOM     53  H   UNL A   1      40.270  30.792  32.410  1.00  0.00     0.167 HD
ATOM     54  C   UNL A   1      43.280  29.280  35.276  1.00  0.00     0.037 A 
ATOM     55  C   UNL A   1      38.076  32.329  31.634  1.00  0.00     0.037 A 
ATOM     56  C   UNL A   1      42.637  30.385  35.934  1.00  0.00     0.049 A 
ATOM     57  C   UNL A   1      38.453  32.778  33.023  1.00  0.00     0.074 A 
ATOM     58  C   UNL A   1      42.920  30.934  37.171  1.00  0.00     0.029 A 
ATOM     59  N   UNL A   1      41.575  31.108  35.408  1.00  0.00    -0.354 N 
ATOM     60  N   UNL A   1      39.403  32.325  33.807  1.00  0.00    -0.248 NA
ATOM     61  C   UNL A   1      37.666  33.874  33.604  1.00  0.00     0.031 C 
ATOM     62  C   UNL A   1      41.998  31.958  37.413  1.00  0.00     0.029 A 
ATOM     63  C   UNL A   1      41.177  32.084  36.303  1.00  0.00     0.049 A 
ATOM     64  H   UNL A   1      41.166  30.948  34.526  1.00  0.00     0.167 HD
ATOM     65  C   UNL A   1      39.345  33.098  34.963  1.00  0.00     0.074 A 
ATOM     66  C   UNL A   1      38.272  34.052  34.770  1.00  0.00     0.031 C 
ATOM     67  C   UNL A   1      40.110  33.027  36.082  1.00  0.00     0.037 A 
BRANCH  54  68
ATOM     68  C   UNL A   1      44.383  28.553  35.992  1.00  0.00     0.058 A 
ATOM     69  C   UNL A   1      44.122  27.488  36.869  1.00  0.00     0.135 A 
ATOM     70  C   UNL A   1      45.724  28.915  35.782  1.00  0.00     0.135 A 
ATOM     71  F   UNL A   1      42.857  27.118  37.127  1.00  0.00    -0.206 F 
ATOM     72  C   UNL A   1      45.149  26.821  37.528  1.00  0.00     0.059 A 
ATOM     73  C   UNL A   1      46.768  28.245  36.410  1.00  0.00     0.059 A 
ATOM     74  F   UNL A   1      46.028  29.933  34.962  1.00  0.00    -0.206 F 
ATOM     75  C   UNL A   1      46.471  27.207  37.291  1.00  0.00     0.060 A 
BRANCH  75  76
ATOM     76  S   UNL A   1      47.793  26.324  38.145  1.00  0.00     0.124 S 
ATOM     77  O   UNL A   1      48.531  25.749  37.025  1.00  0.00    -0.237 OA
ATOM     78  O   UNL A   1      48.470  27.399  38.866  1.00  0.00    -0.237 OA
ATOM     79  O   UNL A   1      47.077  25.367  38.983  1.00  0.00    -0.744 OA
ENDBRANCH  75  76
ENDBRANCH  54  68
BRANCH  55  80
ATOM     80  C   UNL A   1      36.933  32.947  30.910  1.00  0.00     0.058 A 
ATOM     81  C   UNL A   1      35.608  32.618  31.230  1.00  0.00     0.135 A 
ATOM     82  C   UNL A   1      37.144  33.889  29.890  1.00  0.00     0.135 A 
ATOM     83  F   UNL A   1      35.354  31.715  32.190  1.00  0.00    -0.206 F 
ATOM     84  C   UNL A   1      34.532  33.189  30.558  1.00  0.00     0.059 A 
ATOM     85  C   UNL A   1      36.084  34.493  29.221  1.00  0.00     0.059 A 
ATOM     86  F   UNL A   1      38.392  34.246  29.553  1.00  0.00    -0.206 F 
ATOM     87  C   UNL A   1      34.781  34.131  29.557  1.00  0.00     0.060 A 
BRANCH  87  88
ATOM     88  S   UNL A   1      33.375  34.910  28.732  1.00  0.00     0.124 S 
ATOM     89  O   UNL A   1      32.983  33.877  27.781  1.00  0.00    -0.237 OA
ATOM     90  O   UNL A   1      32.456  35.138  29.843  1.00  0.00    -0.237 OA
ATOM     91  O   UNL A   1      33.956  36.117  28.151  1.00  0.00    -0.744 OA
ENDBRANCH  87  88
ENDBRANCH  55  80
BRANCH  67  92
ATOM     92  C   UNL A   1      39.842  34.034  37.166  1.00  0.00     0.058 A 
ATOM     93  C   UNL A   1      38.992  33.749  38.246  1.00  0.00     0.135 A 
ATOM     94  C   UNL A   1      40.495  35.278  37.154  1.00  0.00     0.135 A 
ATOM     95  F   UNL A   1      38.343  32.576  38.303  1.00  0.00    -0.206 F 
ATOM     96  C   UNL A   1      38.779  34.674  39.263  1.00  0.00     0.059 A 
ATOM     97  C   UNL A   1      40.318  36.205  38.174  1.00  0.00     0.059 A 
ATOM     98  F   UNL A   1      41.329  35.593  36.150  1.00  0.00    -0.206 F 
ATOM     99  C   UNL A   1      39.447  35.898  39.219  1.00  0.00     0.060 A 
BRANCH  99 100
ATOM    100  S   UNL A   1      39.185  37.077  40.560  1.00  0.00     0.124 S 
ATOM    101  O   UNL A   1      38.572  36.232  41.579  1.00  0.00    -0.237 OA
ATOM    102  O   UNL A   1      40.543  37.533  40.846  1.00  0.00    -0.237 OA
ATOM    103  O   UNL A   1      38.308  38.080  39.965  1.00  0.00    -0.744 OA
ENDBRANCH  99 100
ENDBRANCH  67  92
ENDBRANCH  41  42
ENDBRANCH  34  36
ENDBRANCH  33  34
ENDBRANCH  32  33
ENDBRANCH  31  32
ENDBRANCH   1  31
TORSDOF 20
ENDMDL
