MODEL 1
REMARK VINA RESULT:      -9.4      0.000      0.000
REMARK SMILES CS(=O)(=O)c1ccc(/C=C(/C(=O)OCCOCCOC(=O)c2ccc(-c3c4nc(c(-c5c(F)cc(S(=O)(=O)[O-])cc5F)c5ccc([nH]5)c(-c5c(F)cc(S(=O)(=O)[O-])cc5F)c5nc(c(-c6c(F)cc(S(=O)(=O)[O-])cc6F)c6ccc3[nH]6)C=C5)C=C4)cc2)c2ccc(-c3ccc(F)cc3F)cc2)cc1
REMARK SMILES IDX 17 1 16 2 15 3 14 4 13 5 11 6 12 7 10 8 9 9 8 10 5 11 6 12
REMARK SMILES IDX 103 13 7 14 102 15 2 16 1 17 3 18 4 19 88 20 89 21 101 22
REMARK SMILES IDX 90 23 100 24 91 25 92 26 93 27 98 28 94 29 97 30 99 31 95 32
REMARK SMILES IDX 96 33 18 34 19 35 20 36 21 37 22 38 23 39 87 40 24 41 86 42
REMARK SMILES IDX 25 43 26 44 27 45 80 46 28 47 85 48 79 49 81 50 29 51 84 52
REMARK SMILES IDX 78 53 77 54 30 56 64 57 43 58 63 59 44 60 47 61 62 62 82 63
REMARK SMILES IDX 45 64 46 65 61 67 83 68 48 69 31 70 32 71 41 72 33 73 34 74
REMARK SMILES IDX 40 75 42 76 35 77 36 78 37 79 38 80 39 81 65 82 66 83 75 84
REMARK SMILES IDX 67 85 68 86 74 87 76 88 69 89 70 90 71 91 72 92 73 93 49 94
REMARK SMILES IDX 50 95 59 96 51 97 52 98 58 99 60 100 53 101 54 102 55 103
REMARK SMILES IDX 56 104 57 105
REMARK H PARENT 81 55 47 66
REMARK Flexibility Score: inf
ROOT
ATOM      1  C   UNL A   1      34.433  32.703  31.133  1.00  0.00     0.202 C 
ENDROOT
BRANCH   1   2
ATOM      2  O   UNL A   1      33.886  32.816  32.442  1.00  0.00    -0.374 OA
BRANCH   2   3
ATOM      3  C   UNL A   1      34.210  33.976  33.205  1.00  0.00     0.202 C 
BRANCH   3   4
ATOM      4  C   UNL A   1      35.059  35.066  32.541  1.00  0.00     0.261 C 
BRANCH   4   5
ATOM      5  O   UNL A   1      36.276  35.324  33.263  1.00  0.00    -0.460 OA
BRANCH   5   6
ATOM      6  C   UNL A   1      37.335  34.580  32.849  1.00  0.00     0.338 C 
ATOM      7  O   UNL A   1      37.679  34.426  31.685  1.00  0.00    -0.246 OA
BRANCH   6   8
ATOM      8  C   UNL A   1      38.153  34.058  33.992  1.00  0.00     0.067 C 
ATOM      9  C   UNL A   1      37.888  34.421  35.270  1.00  0.00     0.024 C 
BRANCH   9  10
ATOM     10  C   UNL A   1      38.399  33.767  36.502  1.00  0.00    -0.025 A 
ATOM     11  C   UNL A   1      39.103  33.048  39.124  1.00  0.00     0.067 A 
ATOM     12  C   UNL A   1      38.088  32.357  38.462  1.00  0.00     0.021 A 
ATOM     13  C   UNL A   1      39.861  34.000  38.444  1.00  0.00     0.021 A 
ATOM     14  C   UNL A   1      37.770  32.692  37.144  1.00  0.00     0.009 A 
ATOM     15  C   UNL A   1      39.507  34.352  37.135  1.00  0.00     0.009 A 
BRANCH  11  16
ATOM     16  S   UNL A   1      39.331  32.753  40.861  1.00  0.00     0.175 S 
ATOM     17  C   UNL A   1      38.645  34.145  41.706  1.00  0.00     0.163 C 
ATOM     18  O   UNL A   1      40.760  32.766  41.112  1.00  0.00    -0.224 OA
ATOM     19  O   UNL A   1      38.531  31.588  41.189  1.00  0.00    -0.224 OA
ENDBRANCH  11  16
ENDBRANCH   9  10
BRANCH   8  20
ATOM     20  C   UNL A   1      39.184  33.070  33.619  1.00  0.00    -0.011 A 
ATOM     21  C   UNL A   1      40.419  33.515  33.133  1.00  0.00     0.009 A 
ATOM     22  C   UNL A   1      38.956  31.700  33.740  1.00  0.00     0.009 A 
ATOM     23  C   UNL A   1      41.406  32.605  32.756  1.00  0.00     0.009 A 
ATOM     24  C   UNL A   1      39.957  30.792  33.385  1.00  0.00     0.009 A 
ATOM     25  C   UNL A   1      41.193  31.223  32.868  1.00  0.00    -0.015 A 
BRANCH  25  26
ATOM     26  C   UNL A   1      42.222  30.264  32.425  1.00  0.00     0.018 A 
ATOM     27  C   UNL A   1      41.909  28.908  32.202  1.00  0.00     0.015 A 
ATOM     28  C   UNL A   1      43.560  30.656  32.237  1.00  0.00     0.133 A 
ATOM     29  C   UNL A   1      42.897  27.993  31.824  1.00  0.00     0.040 A 
ATOM     30  C   UNL A   1      44.548  29.754  31.854  1.00  0.00     0.079 A 
ATOM     31  F   UNL A   1      43.932  31.928  32.448  1.00  0.00    -0.206 F 
ATOM     32  C   UNL A   1      44.206  28.427  31.655  1.00  0.00     0.126 A 
ATOM     33  F   UNL A   1      45.150  27.549  31.297  1.00  0.00    -0.207 F 
ENDBRANCH  25  26
ENDBRANCH   8  20
ENDBRANCH   6   8
ENDBRANCH   5   6
ENDBRANCH   4   5
ENDBRANCH   3   4
ENDBRANCH   2   3
ENDBRANCH   1   2
BRANCH   1  34
ATOM     34  C   UNL A   1      35.539  31.674  30.875  1.00  0.00     0.261 C 
BRANCH  34  35
ATOM     35  O   UNL A   1      36.505  32.112  29.910  1.00  0.00    -0.460 OA
BRANCH  35  36
ATOM     36  C   UNL A   1      36.517  31.388  28.764  1.00  0.00     0.338 C 
ATOM     37  O   UNL A   1      35.734  31.473  27.826  1.00  0.00    -0.246 OA
BRANCH  36  38
ATOM     38  C   UNL A   1      37.749  30.588  28.708  1.00  0.00     0.060 A 
ATOM     39  C   UNL A   1      38.584  30.578  29.834  1.00  0.00     0.016 A 
ATOM     40  C   UNL A   1      38.106  29.903  27.545  1.00  0.00     0.016 A 
ATOM     41  C   UNL A   1      39.806  29.914  29.789  1.00  0.00     0.010 A 
ATOM     42  C   UNL A   1      39.338  29.253  27.497  1.00  0.00     0.010 A 
ATOM     43  C   UNL A   1      40.207  29.287  28.604  1.00  0.00    -0.014 A 
BRANCH  43  44
ATOM     44  C   UNL A   1      41.602  28.823  28.438  1.00  0.00     0.031 A 
ATOM     45  C   UNL A   1      42.700  29.848  28.489  1.00  0.00     0.074 A 
ATOM     46  C   UNL A   1      41.880  27.526  28.218  1.00  0.00     0.049 A 
ATOM     47  N   UNL A   1      43.969  29.719  28.208  1.00  0.00    -0.248 NA
ATOM     48  C   UNL A   1      42.306  31.207  28.899  1.00  0.00     0.031 C 
ATOM     49  C   UNL A   1      40.900  26.442  28.202  1.00  0.00     0.029 A 
ATOM     50  N   UNL A   1      43.073  26.911  27.938  1.00  0.00    -0.354 N 
ATOM     51  C   UNL A   1      44.522  30.982  28.383  1.00  0.00     0.074 A 
ATOM     52  C   UNL A   1      43.447  31.869  28.772  1.00  0.00     0.031 C 
ATOM     53  C   UNL A   1      41.530  25.293  27.899  1.00  0.00     0.029 A 
ATOM     54  C   UNL A   1      42.944  25.571  27.655  1.00  0.00     0.049 A 
ATOM     55  H   UNL A   1      43.937  27.381  27.940  1.00  0.00     0.167 HD
ATOM     56  C   UNL A   1      45.811  31.365  28.232  1.00  0.00     0.037 A 
ATOM     57  C   UNL A   1      43.858  24.686  27.212  1.00  0.00     0.037 A 
ATOM     58  C   UNL A   1      46.869  30.468  27.848  1.00  0.00     0.049 A 
ATOM     59  C   UNL A   1      45.277  25.146  26.987  1.00  0.00     0.074 A 
ATOM     60  C   UNL A   1      48.212  30.746  27.676  1.00  0.00     0.029 A 
ATOM     61  N   UNL A   1      46.700  29.118  27.573  1.00  0.00    -0.354 N 
ATOM     62  N   UNL A   1      45.792  26.342  27.153  1.00  0.00    -0.248 NA
ATOM     63  C   UNL A   1      46.238  24.140  26.514  1.00  0.00     0.031 C 
ATOM     64  C   UNL A   1      48.848  29.577  27.246  1.00  0.00     0.029 A 
ATOM     65  C   UNL A   1      47.912  28.554  27.214  1.00  0.00     0.049 A 
ATOM     66  H   UNL A   1      45.845  28.633  27.624  1.00  0.00     0.167 HD
ATOM     67  C   UNL A   1      47.145  26.220  26.849  1.00  0.00     0.074 A 
ATOM     68  C   UNL A   1      47.366  24.838  26.482  1.00  0.00     0.031 C 
ATOM     69  C   UNL A   1      48.116  27.166  26.879  1.00  0.00     0.037 A 
BRANCH  56  70
ATOM     70  C   UNL A   1      46.140  32.815  28.448  1.00  0.00     0.058 A 
ATOM     71  C   UNL A   1      46.449  33.327  29.718  1.00  0.00     0.135 A 
ATOM     72  C   UNL A   1      46.176  33.703  27.360  1.00  0.00     0.135 A 
ATOM     73  F   UNL A   1      46.411  32.528  30.796  1.00  0.00    -0.206 F 
ATOM     74  C   UNL A   1      46.755  34.671  29.906  1.00  0.00     0.059 A 
ATOM     75  C   UNL A   1      46.509  35.045  27.519  1.00  0.00     0.059 A 
ATOM     76  F   UNL A   1      45.883  33.269  26.123  1.00  0.00    -0.206 F 
ATOM     77  C   UNL A   1      46.784  35.521  28.800  1.00  0.00     0.060 A 
BRANCH  77  78
ATOM     78  S   UNL A   1      47.188  37.261  29.061  1.00  0.00     0.124 S 
ATOM     79  O   UNL A   1      46.114  37.679  29.956  1.00  0.00    -0.237 OA
ATOM     80  O   UNL A   1      48.517  37.185  29.658  1.00  0.00    -0.237 OA
ATOM     81  O   UNL A   1      47.139  37.827  27.716  1.00  0.00    -0.744 OA
ENDBRANCH  77  78
ENDBRANCH  56  70
BRANCH  57  82
ATOM     82  C   UNL A   1      43.459  23.280  26.937  1.00  0.00     0.058 A 
ATOM     83  C   UNL A   1      43.167  22.392  27.982  1.00  0.00     0.135 A 
ATOM     84  C   UNL A   1      43.356  22.796  25.622  1.00  0.00     0.135 A 
ATOM     85  F   UNL A   1      43.259  22.804  29.256  1.00  0.00    -0.206 F 
ATOM     86  C   UNL A   1      42.803  21.072  27.739  1.00  0.00     0.059 A 
ATOM     87  C   UNL A   1      42.967  21.488  25.352  1.00  0.00     0.059 A 
ATOM     88  F   UNL A   1      43.613  23.607  24.583  1.00  0.00    -0.206 F 
ATOM     89  C   UNL A   1      42.703  20.630  26.418  1.00  0.00     0.060 A 
BRANCH  89  90
ATOM     90  S   UNL A   1      42.185  18.927  26.113  1.00  0.00     0.124 S 
ATOM     91  O   UNL A   1      42.443  18.305  27.405  1.00  0.00    -0.237 OA
ATOM     92  O   UNL A   1      40.780  19.096  25.752  1.00  0.00    -0.237 OA
ATOM     93  O   UNL A   1      43.057  18.503  25.022  1.00  0.00    -0.744 OA
ENDBRANCH  89  90
ENDBRANCH  57  82
BRANCH  69  94
ATOM     94  C   UNL A   1      49.526  26.735  26.578  1.00  0.00     0.058 A 
ATOM     95  C   UNL A   1      50.347  26.142  27.549  1.00  0.00     0.135 A 
ATOM     96  C   UNL A   1      50.026  26.838  25.269  1.00  0.00     0.135 A 
ATOM     97  F   UNL A   1      49.920  26.025  28.816  1.00  0.00    -0.206 F 
ATOM     98  C   UNL A   1      51.620  25.674  27.234  1.00  0.00     0.059 A 
ATOM     99  C   UNL A   1      51.283  26.351  24.925  1.00  0.00     0.059 A 
ATOM    100  F   UNL A   1      49.276  27.388  24.300  1.00  0.00    -0.206 F 
ATOM    101  C   UNL A   1      52.075  25.777  25.917  1.00  0.00     0.060 A 
BRANCH 101 102
ATOM    102  S   UNL A   1      53.702  25.109  25.510  1.00  0.00     0.124 S 
ATOM    103  O   UNL A   1      54.481  25.496  26.682  1.00  0.00    -0.237 OA
ATOM    104  O   UNL A   1      53.428  23.682  25.374  1.00  0.00    -0.237 OA
ATOM    105  O   UNL A   1      54.052  25.796  24.270  1.00  0.00    -0.744 OA
ENDBRANCH 101 102
ENDBRANCH  69  94
ENDBRANCH  43  44
ENDBRANCH  36  38
ENDBRANCH  35  36
ENDBRANCH  34  35
ENDBRANCH   1  34
TORSDOF 21
ENDMDL
MODEL 2
REMARK VINA RESULT:      -9.2      4.855     12.683
REMARK SMILES CS(=O)(=O)c1ccc(/C=C(/C(=O)OCCOCCOC(=O)c2ccc(-c3c4nc(c(-c5c(F)cc(S(=O)(=O)[O-])cc5F)c5ccc([nH]5)c(-c5c(F)cc(S(=O)(=O)[O-])cc5F)c5nc(c(-c6c(F)cc(S(=O)(=O)[O-])cc6F)c6ccc3[nH]6)C=C5)C=C4)cc2)c2ccc(-c3ccc(F)cc3F)cc2)cc1
REMARK SMILES IDX 17 1 16 2 15 3 14 4 13 5 11 6 12 7 10 8 9 9 8 10 5 11 6 12
REMARK SMILES IDX 103 13 7 14 102 15 2 16 1 17 3 18 4 19 88 20 89 21 101 22
REMARK SMILES IDX 90 23 100 24 91 25 92 26 93 27 98 28 94 29 97 30 99 31 95 32
REMARK SMILES IDX 96 33 18 34 19 35 20 36 21 37 22 38 23 39 87 40 24 41 86 42
REMARK SMILES IDX 25 43 26 44 27 45 80 46 28 47 85 48 79 49 81 50 29 51 84 52
REMARK SMILES IDX 78 53 77 54 30 56 64 57 43 58 63 59 44 60 47 61 62 62 82 63
REMARK SMILES IDX 45 64 46 65 61 67 83 68 48 69 31 70 32 71 41 72 33 73 34 74
REMARK SMILES IDX 40 75 42 76 35 77 36 78 37 79 38 80 39 81 65 82 66 83 75 84
REMARK SMILES IDX 67 85 68 86 74 87 76 88 69 89 70 90 71 91 72 92 73 93 49 94
REMARK SMILES IDX 50 95 59 96 51 97 52 98 58 99 60 100 53 101 54 102 55 103
REMARK SMILES IDX 56 104 57 105
REMARK H PARENT 81 55 47 66
REMARK Flexibility Score: inf
ROOT
ATOM      1  C   UNL A   1      44.744  25.502  25.413  1.00  0.00     0.202 C 
ENDROOT
BRANCH   1   2
ATOM      2  O   UNL A   1      45.169  26.860  25.413  1.00  0.00    -0.374 OA
BRANCH   2   3
ATOM      3  C   UNL A   1      46.563  27.125  25.548  1.00  0.00     0.202 C 
BRANCH   3   4
ATOM      4  C   UNL A   1      47.020  28.045  26.686  1.00  0.00     0.261 C 
BRANCH   4   5
ATOM      5  O   UNL A   1      47.270  27.322  27.904  1.00  0.00    -0.460 OA
BRANCH   5   6
ATOM      6  C   UNL A   1      46.434  27.647  28.924  1.00  0.00     0.338 C 
ATOM      7  O   UNL A   1      45.845  28.714  29.043  1.00  0.00    -0.246 OA
BRANCH   6   8
ATOM      8  C   UNL A   1      46.183  26.496  29.852  1.00  0.00     0.067 C 
ATOM      9  C   UNL A   1      46.660  26.498  31.119  1.00  0.00     0.024 C 
BRANCH   9  10
ATOM     10  C   UNL A   1      46.246  25.596  32.224  1.00  0.00    -0.025 A 
ATOM     11  C   UNL A   1      45.667  24.378  34.688  1.00  0.00     0.067 A 
ATOM     12  C   UNL A   1      44.630  24.847  33.884  1.00  0.00     0.021 A 
ATOM     13  C   UNL A   1      46.979  24.385  34.215  1.00  0.00     0.021 A 
ATOM     14  C   UNL A   1      44.921  25.414  32.640  1.00  0.00     0.009 A 
ATOM     15  C   UNL A   1      47.261  24.991  32.983  1.00  0.00     0.009 A 
BRANCH  11  16
ATOM     16  S   UNL A   1      45.286  23.869  36.347  1.00  0.00     0.175 S 
ATOM     17  C   UNL A   1      45.817  22.190  36.497  1.00  0.00     0.163 C 
ATOM     18  O   UNL A   1      43.840  23.869  36.471  1.00  0.00    -0.224 OA
ATOM     19  O   UNL A   1      46.106  24.681  37.225  1.00  0.00    -0.224 OA
ENDBRANCH  11  16
ENDBRANCH   9  10
BRANCH   8  20
ATOM     20  C   UNL A   1      45.316  25.435  29.305  1.00  0.00    -0.011 A 
ATOM     21  C   UNL A   1      45.898  24.289  28.750  1.00  0.00     0.009 A 
ATOM     22  C   UNL A   1      43.927  25.546  29.328  1.00  0.00     0.009 A 
ATOM     23  C   UNL A   1      45.106  23.276  28.210  1.00  0.00     0.009 A 
ATOM     24  C   UNL A   1      43.135  24.518  28.809  1.00  0.00     0.009 A 
ATOM     25  C   UNL A   1      43.706  23.373  28.222  1.00  0.00    -0.015 A 
BRANCH  25  26
ATOM     26  C   UNL A   1      42.873  22.323  27.608  1.00  0.00     0.018 A 
ATOM     27  C   UNL A   1      41.687  21.877  28.225  1.00  0.00     0.015 A 
ATOM     28  C   UNL A   1      43.245  21.702  26.401  1.00  0.00     0.133 A 
ATOM     29  C   UNL A   1      40.924  20.850  27.661  1.00  0.00     0.040 A 
ATOM     30  C   UNL A   1      42.487  20.685  25.829  1.00  0.00     0.079 A 
ATOM     31  F   UNL A   1      44.372  22.065  25.768  1.00  0.00    -0.206 F 
ATOM     32  C   UNL A   1      41.333  20.265  26.469  1.00  0.00     0.126 A 
ATOM     33  F   UNL A   1      40.604  19.280  25.933  1.00  0.00    -0.207 F 
ENDBRANCH  25  26
ENDBRANCH   8  20
ENDBRANCH   6   8
ENDBRANCH   5   6
ENDBRANCH   4   5
ENDBRANCH   3   4
ENDBRANCH   2   3
ENDBRANCH   1   2
BRANCH   1  34
ATOM     34  C   UNL A   1      43.351  25.158  24.874  1.00  0.00     0.261 C 
BRANCH  34  35
ATOM     35  O   UNL A   1      42.434  26.259  24.931  1.00  0.00    -0.460 OA
BRANCH  35  36
ATOM     36  C   UNL A   1      41.357  26.048  25.724  1.00  0.00     0.338 C 
ATOM     37  O   UNL A   1      40.474  25.214  25.569  1.00  0.00    -0.246 OA
BRANCH  36  38
ATOM     38  C   UNL A   1      41.487  26.857  26.946  1.00  0.00     0.060 A 
ATOM     39  C   UNL A   1      40.625  26.580  28.017  1.00  0.00     0.016 A 
ATOM     40  C   UNL A   1      42.404  27.906  27.016  1.00  0.00     0.016 A 
ATOM     41  C   UNL A   1      40.647  27.383  29.153  1.00  0.00     0.010 A 
ATOM     42  C   UNL A   1      42.413  28.719  28.149  1.00  0.00     0.010 A 
ATOM     43  C   UNL A   1      41.511  28.483  29.204  1.00  0.00    -0.014 A 
BRANCH  43  44
ATOM     44  C   UNL A   1      41.359  29.505  30.263  1.00  0.00     0.031 A 
ATOM     45  C   UNL A   1      42.337  29.494  31.404  1.00  0.00     0.074 A 
ATOM     46  C   UNL A   1      40.356  30.400  30.223  1.00  0.00     0.049 A 
ATOM     47  N   UNL A   1      42.314  30.168  32.522  1.00  0.00    -0.248 NA
ATOM     48  C   UNL A   1      43.489  28.586  31.268  1.00  0.00     0.031 C 
ATOM     49  C   UNL A   1      39.385  30.535  29.140  1.00  0.00     0.029 A 
ATOM     50  N   UNL A   1      39.978  31.348  31.139  1.00  0.00    -0.354 N 
ATOM     51  C   UNL A   1      43.432  29.750  33.234  1.00  0.00     0.074 A 
ATOM     52  C   UNL A   1      44.100  28.748  32.433  1.00  0.00     0.031 C 
ATOM     53  C   UNL A   1      38.502  31.495  29.466  1.00  0.00     0.029 A 
ATOM     54  C   UNL A   1      38.819  32.005  30.799  1.00  0.00     0.049 A 
ATOM     55  H   UNL A   1      40.486  31.539  31.960  1.00  0.00     0.167 HD
ATOM     56  C   UNL A   1      43.861  30.167  34.448  1.00  0.00     0.037 A 
ATOM     57  C   UNL A   1      38.084  32.888  31.503  1.00  0.00     0.037 A 
ATOM     58  C   UNL A   1      43.187  31.169  35.231  1.00  0.00     0.049 A 
ATOM     59  C   UNL A   1      38.543  33.292  32.882  1.00  0.00     0.074 A 
ATOM     60  C   UNL A   1      43.540  31.674  36.469  1.00  0.00     0.029 A 
ATOM     61  N   UNL A   1      42.018  31.814  34.852  1.00  0.00    -0.354 N 
ATOM     62  N   UNL A   1      39.600  32.892  33.549  1.00  0.00    -0.248 NA
ATOM     63  C   UNL A   1      37.711  34.265  33.604  1.00  0.00     0.031 C 
ATOM     64  C   UNL A   1      42.557  32.588  36.862  1.00  0.00     0.029 A 
ATOM     65  C   UNL A   1      41.626  32.700  35.840  1.00  0.00     0.049 A 
ATOM     66  H   UNL A   1      41.538  31.664  34.005  1.00  0.00     0.167 HD
ATOM     67  C   UNL A   1      39.584  33.598  34.748  1.00  0.00     0.074 A 
ATOM     68  C   UNL A   1      38.409  34.443  34.717  1.00  0.00     0.031 C 
ATOM     69  C   UNL A   1      40.466  33.555  35.777  1.00  0.00     0.037 A 
BRANCH  56  70
ATOM     70  C   UNL A   1      45.093  29.519  35.016  1.00  0.00     0.058 A 
ATOM     71  C   UNL A   1      46.375  30.050  34.808  1.00  0.00     0.135 A 
ATOM     72  C   UNL A   1      44.984  28.362  35.805  1.00  0.00     0.135 A 
ATOM     73  F   UNL A   1      46.540  31.142  34.045  1.00  0.00    -0.206 F 
ATOM     74  C   UNL A   1      47.509  29.443  35.340  1.00  0.00     0.059 A 
ATOM     75  C   UNL A   1      46.101  27.756  36.373  1.00  0.00     0.059 A 
ATOM     76  F   UNL A   1      43.782  27.808  36.032  1.00  0.00    -0.206 F 
ATOM     77  C   UNL A   1      47.361  28.297  36.123  1.00  0.00     0.060 A 
BRANCH  77  78
ATOM     78  S   UNL A   1      48.840  27.525  36.811  1.00  0.00     0.124 S 
ATOM     79  O   UNL A   1      49.216  26.609  35.739  1.00  0.00    -0.237 OA
ATOM     80  O   UNL A   1      49.725  28.669  37.006  1.00  0.00    -0.237 OA
ATOM     81  O   UNL A   1      48.357  26.894  38.035  1.00  0.00    -0.744 OA
ENDBRANCH  77  78
ENDBRANCH  56  70
BRANCH  57  82
ATOM     82  C   UNL A   1      36.828  33.437  30.924  1.00  0.00     0.058 A 
ATOM     83  C   UNL A   1      36.861  34.362  29.871  1.00  0.00     0.135 A 
ATOM     84  C   UNL A   1      35.570  33.046  31.410  1.00  0.00     0.135 A 
ATOM     85  F   UNL A   1      38.039  34.775  29.377  1.00  0.00    -0.206 F 
ATOM     86  C   UNL A   1      35.695  34.892  29.328  1.00  0.00     0.059 A 
ATOM     87  C   UNL A   1      34.389  33.540  30.866  1.00  0.00     0.059 A 
ATOM     88  F   UNL A   1      35.481  32.154  32.410  1.00  0.00    -0.206 F 
ATOM     89  C   UNL A   1      34.462  34.471  29.832  1.00  0.00     0.060 A 
BRANCH  89  90
ATOM     90  S   UNL A   1      32.954  35.131  29.089  1.00  0.00     0.124 S 
ATOM     91  O   UNL A   1      32.095  35.286  30.257  1.00  0.00    -0.237 OA
ATOM     92  O   UNL A   1      33.431  36.366  28.476  1.00  0.00    -0.237 OA
ATOM     93  O   UNL A   1      32.559  34.085  28.150  1.00  0.00    -0.744 OA
ENDBRANCH  89  90
ENDBRANCH  57  82
BRANCH  69  94
ATOM     94  C   UNL A   1      40.247  34.498  36.930  1.00  0.00     0.058 A 
ATOM     95  C   UNL A   1      40.744  35.809  36.925  1.00  0.00     0.135 A 
ATOM     96  C   UNL A   1      39.448  34.102  38.016  1.00  0.00     0.135 A 
ATOM     97  F   UNL A   1      41.518  36.236  35.914  1.00  0.00    -0.206 F 
ATOM     98  C   UNL A   1      40.463  36.694  37.962  1.00  0.00     0.059 A 
ATOM     99  C   UNL A   1      39.131  34.978  39.049  1.00  0.00     0.059 A 
ATOM    100  F   UNL A   1      38.940  32.859  38.064  1.00  0.00    -0.206 F 
ATOM    101  C   UNL A   1      39.649  36.271  39.015  1.00  0.00     0.060 A 
BRANCH 101 102
ATOM    102  S   UNL A   1      39.243  37.449  40.321  1.00  0.00     0.124 S 
ATOM    103  O   UNL A   1      38.416  38.413  39.602  1.00  0.00    -0.237 OA
ATOM    104  O   UNL A   1      38.542  36.611  41.289  1.00  0.00    -0.237 OA
ATOM    105  O   UNL A   1      40.547  37.941  40.755  1.00  0.00    -0.744 OA
ENDBRANCH 101 102
ENDBRANCH  69  94
ENDBRANCH  43  44
ENDBRANCH  36  38
ENDBRANCH  35  36
ENDBRANCH  34  35
ENDBRANCH   1  34
TORSDOF 21
ENDMDL
MODEL 3
REMARK VINA RESULT:      -9.2      4.663      8.015
REMARK SMILES CS(=O)(=O)c1ccc(/C=C(/C(=O)OCCOCCOC(=O)c2ccc(-c3c4nc(c(-c5c(F)cc(S(=O)(=O)[O-])cc5F)c5ccc([nH]5)c(-c5c(F)cc(S(=O)(=O)[O-])cc5F)c5nc(c(-c6c(F)cc(S(=O)(=O)[O-])cc6F)c6ccc3[nH]6)C=C5)C=C4)cc2)c2ccc(-c3ccc(F)cc3F)cc2)cc1
REMARK SMILES IDX 17 1 16 2 15 3 14 4 13 5 11 6 12 7 10 8 9 9 8 10 5 11 6 12
REMARK SMILES IDX 103 13 7 14 102 15 2 16 1 17 3 18 4 19 88 20 89 21 101 22
REMARK SMILES IDX 90 23 100 24 91 25 92 26 93 27 98 28 94 29 97 30 99 31 95 32
REMARK SMILES IDX 96 33 18 34 19 35 20 36 21 37 22 38 23 39 87 40 24 41 86 42
REMARK SMILES IDX 25 43 26 44 27 45 80 46 28 47 85 48 79 49 81 50 29 51 84 52
REMARK SMILES IDX 78 53 77 54 30 56 64 57 43 58 63 59 44 60 47 61 62 62 82 63
REMARK SMILES IDX 45 64 46 65 61 67 83 68 48 69 31 70 32 71 41 72 33 73 34 74
REMARK SMILES IDX 40 75 42 76 35 77 36 78 37 79 38 80 39 81 65 82 66 83 75 84
REMARK SMILES IDX 67 85 68 86 74 87 76 88 69 89 70 90 71 91 72 92 73 93 49 94
REMARK SMILES IDX 50 95 59 96 51 97 52 98 58 99 60 100 53 101 54 102 55 103
REMARK SMILES IDX 56 104 57 105
REMARK H PARENT 81 55 47 66
REMARK Flexibility Score: inf
ROOT
ATOM      1  C   UNL A   1      34.700  35.644  32.764  1.00  0.00     0.202 C 
ENDROOT
BRANCH   1   2
ATOM      2  O   UNL A   1      33.851  35.111  31.754  1.00  0.00    -0.374 OA
BRANCH   2   3
ATOM      3  C   UNL A   1      33.171  36.026  30.899  1.00  0.00     0.202 C 
BRANCH   3   4
ATOM      4  C   UNL A   1      33.314  35.844  29.383  1.00  0.00     0.261 C 
BRANCH   4   5
ATOM      5  O   UNL A   1      33.321  34.458  29.000  1.00  0.00    -0.460 OA
BRANCH   5   6
ATOM      6  C   UNL A   1      34.295  34.133  28.111  1.00  0.00     0.338 C 
ATOM      7  O   UNL A   1      34.747  34.879  27.252  1.00  0.00    -0.246 OA
BRANCH   6   8
ATOM      8  C   UNL A   1      34.882  32.778  28.371  1.00  0.00     0.067 C 
ATOM      9  C   UNL A   1      35.959  32.622  29.179  1.00  0.00     0.024 C 
BRANCH   9  10
ATOM     10  C   UNL A   1      36.453  31.349  29.762  1.00  0.00    -0.025 A 
ATOM     11  C   UNL A   1      37.869  29.316  31.085  1.00  0.00     0.067 A 
ATOM     12  C   UNL A   1      36.669  29.786  31.616  1.00  0.00     0.021 A 
ATOM     13  C   UNL A   1      38.298  29.751  29.832  1.00  0.00     0.021 A 
ATOM     14  C   UNL A   1      35.947  30.768  30.933  1.00  0.00     0.009 A 
ATOM     15  C   UNL A   1      37.586  30.763  29.175  1.00  0.00     0.009 A 
BRANCH  11  16
ATOM     16  S   UNL A   1      38.868  28.236  32.081  1.00  0.00     0.175 S 
ATOM     17  C   UNL A   1      39.791  29.270  33.179  1.00  0.00     0.163 C 
ATOM     18  O   UNL A   1      39.824  27.600  31.194  1.00  0.00    -0.224 OA
ATOM     19  O   UNL A   1      37.950  27.442  32.876  1.00  0.00    -0.224 OA
ENDBRANCH  11  16
ENDBRANCH   9  10
BRANCH   8  20
ATOM     20  C   UNL A   1      34.147  31.653  27.760  1.00  0.00    -0.011 A 
ATOM     21  C   UNL A   1      34.822  30.457  27.489  1.00  0.00     0.009 A 
ATOM     22  C   UNL A   1      32.793  31.754  27.447  1.00  0.00     0.009 A 
ATOM     23  C   UNL A   1      34.159  29.383  26.898  1.00  0.00     0.009 A 
ATOM     24  C   UNL A   1      32.126  30.667  26.876  1.00  0.00     0.009 A 
ATOM     25  C   UNL A   1      32.797  29.468  26.572  1.00  0.00    -0.015 A 
BRANCH  25  26
ATOM     26  C   UNL A   1      32.110  28.347  25.904  1.00  0.00     0.018 A 
ATOM     27  C   UNL A   1      31.435  27.356  26.645  1.00  0.00     0.015 A 
ATOM     28  C   UNL A   1      32.129  28.204  24.504  1.00  0.00     0.133 A 
ATOM     29  C   UNL A   1      30.824  26.272  26.008  1.00  0.00     0.040 A 
ATOM     30  C   UNL A   1      31.517  27.133  23.862  1.00  0.00     0.079 A 
ATOM     31  F   UNL A   1      32.769  29.101  23.737  1.00  0.00    -0.206 F 
ATOM     32  C   UNL A   1      30.872  26.172  24.623  1.00  0.00     0.126 A 
ATOM     33  F   UNL A   1      30.290  25.131  24.016  1.00  0.00    -0.207 F 
ENDBRANCH  25  26
ENDBRANCH   8  20
ENDBRANCH   6   8
ENDBRANCH   5   6
ENDBRANCH   4   5
ENDBRANCH   3   4
ENDBRANCH   2   3
ENDBRANCH   1   2
BRANCH   1  34
ATOM     34  C   UNL A   1      35.050  34.777  33.978  1.00  0.00     0.261 C 
BRANCH  34  35
ATOM     35  O   UNL A   1      35.748  33.574  33.632  1.00  0.00    -0.460 OA
BRANCH  35  36
ATOM     36  C   UNL A   1      36.770  33.262  34.464  1.00  0.00     0.338 C 
ATOM     37  O   UNL A   1      36.703  33.028  35.665  1.00  0.00    -0.246 OA
BRANCH  36  38
ATOM     38  C   UNL A   1      37.992  33.048  33.675  1.00  0.00     0.060 A 
ATOM     39  C   UNL A   1      39.164  32.686  34.355  1.00  0.00     0.016 A 
ATOM     40  C   UNL A   1      37.999  33.254  32.295  1.00  0.00     0.016 A 
ATOM     41  C   UNL A   1      40.364  32.570  33.660  1.00  0.00     0.010 A 
ATOM     42  C   UNL A   1      39.205  33.152  31.604  1.00  0.00     0.010 A 
ATOM     43  C   UNL A   1      40.396  32.846  32.288  1.00  0.00    -0.014 A 
BRANCH  43  44
ATOM     44  C   UNL A   1      41.690  33.005  31.588  1.00  0.00     0.031 A 
ATOM     45  C   UNL A   1      42.428  34.305  31.748  1.00  0.00     0.074 A 
ATOM     46  C   UNL A   1      42.179  32.027  30.806  1.00  0.00     0.049 A 
ATOM     47  N   UNL A   1      43.481  34.744  31.113  1.00  0.00    -0.248 NA
ATOM     48  C   UNL A   1      41.893  35.240  32.752  1.00  0.00     0.031 C 
ATOM     49  C   UNL A   1      41.575  30.709  30.622  1.00  0.00     0.029 A 
ATOM     50  N   UNL A   1      43.287  32.008  29.999  1.00  0.00    -0.354 N 
ATOM     51  C   UNL A   1      43.721  36.015  31.621  1.00  0.00     0.074 A 
ATOM     52  C   UNL A   1      42.692  36.286  32.601  1.00  0.00     0.031 C 
ATOM     53  C   UNL A   1      42.308  30.016  29.733  1.00  0.00     0.029 A 
ATOM     54  C   UNL A   1      43.401  30.859  29.253  1.00  0.00     0.049 A 
ATOM     55  H   UNL A   1      43.938  32.745  29.958  1.00  0.00     0.167 HD
ATOM     56  C   UNL A   1      44.713  36.877  31.298  1.00  0.00     0.037 A 
ATOM     57  C   UNL A   1      44.268  30.545  28.269  1.00  0.00     0.037 A 
ATOM     58  C   UNL A   1      45.733  36.589  30.323  1.00  0.00     0.049 A 
ATOM     59  C   UNL A   1      45.327  31.545  27.877  1.00  0.00     0.074 A 
ATOM     60  C   UNL A   1      46.791  37.385  29.926  1.00  0.00     0.029 A 
ATOM     61  N   UNL A   1      45.817  35.414  29.591  1.00  0.00    -0.354 N 
ATOM     62  N   UNL A   1      45.548  32.745  28.361  1.00  0.00    -0.248 NA
ATOM     63  C   UNL A   1      46.253  31.151  26.807  1.00  0.00     0.031 C 
ATOM     64  C   UNL A   1      47.486  36.713  28.915  1.00  0.00     0.029 A 
ATOM     65  C   UNL A   1      46.899  35.471  28.729  1.00  0.00     0.049 A 
ATOM     66  H   UNL A   1      45.199  34.652  29.671  1.00  0.00     0.167 HD
ATOM     67  C   UNL A   1      46.664  33.229  27.686  1.00  0.00     0.074 A 
ATOM     68  C   UNL A   1      47.069  32.196  26.756  1.00  0.00     0.031 C 
ATOM     69  C   UNL A   1      47.302  34.418  27.830  1.00  0.00     0.037 A 
BRANCH  56  70
ATOM     70  C   UNL A   1      44.724  38.218  31.976  1.00  0.00     0.058 A 
ATOM     71  C   UNL A   1      44.047  39.326  31.444  1.00  0.00     0.135 A 
ATOM     72  C   UNL A   1      45.401  38.389  33.195  1.00  0.00     0.135 A 
ATOM     73  F   UNL A   1      43.402  39.225  30.271  1.00  0.00    -0.206 F 
ATOM     74  C   UNL A   1      44.062  40.563  32.081  1.00  0.00     0.059 A 
ATOM     75  C   UNL A   1      45.404  39.608  33.867  1.00  0.00     0.059 A 
ATOM     76  F   UNL A   1      46.070  37.365  33.748  1.00  0.00    -0.206 F 
ATOM     77  C   UNL A   1      44.742  40.693  33.293  1.00  0.00     0.060 A 
BRANCH  77  78
ATOM     78  S   UNL A   1      44.746  42.302  34.110  1.00  0.00     0.124 S 
ATOM     79  O   UNL A   1      44.325  41.946  35.461  1.00  0.00    -0.237 OA
ATOM     80  O   UNL A   1      46.138  42.718  33.970  1.00  0.00    -0.237 OA
ATOM     81  O   UNL A   1      43.781  43.079  33.337  1.00  0.00    -0.744 OA
ENDBRANCH  77  78
ENDBRANCH  56  70
BRANCH  57  82
ATOM     82  C   UNL A   1      44.161  29.234  27.576  1.00  0.00     0.058 A 
ATOM     83  C   UNL A   1      44.950  28.142  27.966  1.00  0.00     0.135 A 
ATOM     84  C   UNL A   1      43.265  29.044  26.511  1.00  0.00     0.135 A 
ATOM     85  F   UNL A   1      45.828  28.276  28.972  1.00  0.00    -0.206 F 
ATOM     86  C   UNL A   1      44.868  26.914  27.318  1.00  0.00     0.059 A 
ATOM     87  C   UNL A   1      43.144  27.818  25.865  1.00  0.00     0.059 A 
ATOM     88  F   UNL A   1      42.478  30.052  26.105  1.00  0.00    -0.206 F 
ATOM     89  C   UNL A   1      43.958  26.761  26.270  1.00  0.00     0.060 A 
BRANCH  89  90
ATOM     90  S   UNL A   1      43.827  25.149  25.467  1.00  0.00     0.124 S 
ATOM     91  O   UNL A   1      43.674  24.261  26.613  1.00  0.00    -0.237 OA
ATOM     92  O   UNL A   1      42.646  25.322  24.628  1.00  0.00    -0.237 OA
ATOM     93  O   UNL A   1      45.090  25.033  24.743  1.00  0.00    -0.744 OA
ENDBRANCH  89  90
ENDBRANCH  57  82
BRANCH  69  94
ATOM     94  C   UNL A   1      48.549  34.649  27.020  1.00  0.00     0.058 A 
ATOM     95  C   UNL A   1      49.811  34.225  27.459  1.00  0.00     0.135 A 
ATOM     96  C   UNL A   1      48.457  35.225  25.741  1.00  0.00     0.135 A 
ATOM     97  F   UNL A   1      49.956  33.674  28.675  1.00  0.00    -0.206 F 
ATOM     98  C   UNL A   1      50.943  34.373  26.662  1.00  0.00     0.059 A 
ATOM     99  C   UNL A   1      49.569  35.356  24.917  1.00  0.00     0.059 A 
ATOM    100  F   UNL A   1      47.269  35.639  25.270  1.00  0.00    -0.206 F 
ATOM    101  C   UNL A   1      50.809  34.933  25.389  1.00  0.00     0.060 A 
BRANCH 101 102
ATOM    102  S   UNL A   1      52.274  35.061  24.342  1.00  0.00     0.124 S 
ATOM    103  O   UNL A   1      51.939  36.208  23.505  1.00  0.00    -0.237 OA
ATOM    104  O   UNL A   1      53.337  35.278  25.318  1.00  0.00    -0.237 OA
ATOM    105  O   UNL A   1      52.315  33.774  23.654  1.00  0.00    -0.744 OA
ENDBRANCH 101 102
ENDBRANCH  69  94
ENDBRANCH  43  44
ENDBRANCH  36  38
ENDBRANCH  35  36
ENDBRANCH  34  35
ENDBRANCH   1  34
TORSDOF 21
ENDMDL
