MODEL 1
REMARK VINA RESULT:     -10.0      0.000      0.000
REMARK SMILES O=C(OCCOCCOC(=O)[C@H](F)[C@H](O)C1CCOCC1)c1ccc(-c2c3nc(c(-c4c(F)cc(S(=O)(=O)[O-])cc4F)c4ccc([nH]4)c(-c4c(F)cc(S(=O)(=O)[O-])cc4F)c4nc(c(-c5c(F)cc(S(=O)(=O)[O-])cc5F)c5ccc2[nH]5)C=C4)C=C3)cc1
REMARK SMILES IDX 5 1 4 2 3 3 2 4 1 5 22 6 23 7 87 8 24 9 86 10 25 11 26 12
REMARK SMILES IDX 27 13 80 14 28 15 85 16 79 17 81 18 29 19 84 20 78 21 77 22
REMARK SMILES IDX 30 24 64 25 43 26 63 27 44 28 47 29 62 30 82 31 45 32 46 33
REMARK SMILES IDX 61 35 83 36 48 37 31 38 32 39 41 40 33 41 34 42 40 43 42 44
REMARK SMILES IDX 35 45 36 46 37 47 38 48 39 49 65 50 66 51 75 52 67 53 68 54
REMARK SMILES IDX 74 55 76 56 69 57 70 58 71 59 72 60 73 61 49 62 50 63 59 64
REMARK SMILES IDX 51 65 52 66 58 67 60 68 53 69 54 70 55 71 56 72 57 73 6 74
REMARK SMILES IDX 7 75 8 76 9 77 10 78 11 79 12 80 13 81 14 82 16 83 17 84
REMARK SMILES IDX 21 85 18 86 20 87 19 88 15 89
REMARK H PARENT 81 23 47 34 15 90
REMARK Flexibility Score: inf
ROOT
ATOM      1  C   UNL A   1      39.365  21.807  26.136  1.00  0.00     0.202 C 
ENDROOT
BRANCH   1   2
ATOM      2  C   UNL A   1      39.952  22.964  26.944  1.00  0.00     0.261 C 
BRANCH   2   3
ATOM      3  O   UNL A   1      39.540  24.218  26.378  1.00  0.00    -0.460 OA
BRANCH   3   4
ATOM      4  C   UNL A   1      40.247  25.374  26.469  1.00  0.00     0.338 C 
ATOM      5  O   UNL A   1      40.843  25.800  25.482  1.00  0.00    -0.246 OA
BRANCH   4   6
ATOM      6  C   UNL A   1      40.207  26.222  27.694  1.00  0.00     0.060 A 
ATOM      7  C   UNL A   1      39.356  26.015  28.785  1.00  0.00     0.016 A 
ATOM      8  C   UNL A   1      41.170  27.236  27.776  1.00  0.00     0.016 A 
ATOM      9  C   UNL A   1      39.410  26.825  29.904  1.00  0.00     0.010 A 
ATOM     10  C   UNL A   1      41.260  28.030  28.920  1.00  0.00     0.010 A 
ATOM     11  C   UNL A   1      40.367  27.829  29.981  1.00  0.00    -0.014 A 
BRANCH  11  12
ATOM     12  C   UNL A   1      40.330  28.729  31.143  1.00  0.00     0.031 A 
ATOM     13  C   UNL A   1      39.307  29.819  31.148  1.00  0.00     0.074 A 
ATOM     14  C   UNL A   1      41.129  28.486  32.198  1.00  0.00     0.049 A 
ATOM     15  N   UNL A   1      39.154  30.804  31.986  1.00  0.00    -0.248 NA
ATOM     16  C   UNL A   1      38.319  29.795  30.054  1.00  0.00     0.031 C 
ATOM     17  C   UNL A   1      42.053  27.353  32.313  1.00  0.00     0.029 A 
ATOM     18  N   UNL A   1      41.278  29.155  33.380  1.00  0.00    -0.354 N 
ATOM     19  C   UNL A   1      38.084  31.543  31.497  1.00  0.00     0.074 A 
ATOM     20  C   UNL A   1      37.627  30.899  30.289  1.00  0.00     0.031 C 
ATOM     21  C   UNL A   1      42.659  27.399  33.510  1.00  0.00     0.029 A 
ATOM     22  C   UNL A   1      42.232  28.606  34.204  1.00  0.00     0.049 A 
ATOM     23  H   UNL A   1      40.752  29.954  33.619  1.00  0.00     0.167 HD
ATOM     24  C   UNL A   1      37.551  32.669  32.023  1.00  0.00     0.037 A 
ATOM     25  C   UNL A   1      42.732  29.067  35.365  1.00  0.00     0.037 A 
ATOM     26  C   UNL A   1      38.039  33.260  33.239  1.00  0.00     0.049 A 
ATOM     27  C   UNL A   1      42.183  30.370  35.883  1.00  0.00     0.074 A 
ATOM     28  C   UNL A   1      37.632  34.425  33.860  1.00  0.00     0.029 A 
ATOM     29  N   UNL A   1      39.051  32.716  34.023  1.00  0.00    -0.354 N 
ATOM     30  N   UNL A   1      41.228  31.118  35.377  1.00  0.00    -0.248 NA
ATOM     31  C   UNL A   1      42.783  30.904  37.109  1.00  0.00     0.031 C 
ATOM     32  C   UNL A   1      38.433  34.609  34.993  1.00  0.00     0.029 A 
ATOM     33  C   UNL A   1      39.296  33.528  35.113  1.00  0.00     0.049 A 
ATOM     34  H   UNL A   1      39.523  31.873  33.829  1.00  0.00     0.167 HD
ATOM     35  C   UNL A   1      41.097  32.203  36.235  1.00  0.00     0.074 A 
ATOM     36  C   UNL A   1      42.062  32.000  37.300  1.00  0.00     0.031 C 
ATOM     37  C   UNL A   1      40.264  33.270  36.154  1.00  0.00     0.037 A 
BRANCH  24  38
ATOM     38  C   UNL A   1      36.460  33.345  31.242  1.00  0.00     0.058 A 
ATOM     39  C   UNL A   1      36.707  34.030  30.042  1.00  0.00     0.135 A 
ATOM     40  C   UNL A   1      35.142  33.336  31.728  1.00  0.00     0.135 A 
ATOM     41  F   UNL A   1      37.954  34.103  29.548  1.00  0.00    -0.206 F 
ATOM     42  C   UNL A   1      35.694  34.706  29.366  1.00  0.00     0.059 A 
ATOM     43  C   UNL A   1      34.108  33.981  31.056  1.00  0.00     0.059 A 
ATOM     44  F   UNL A   1      34.850  32.714  32.881  1.00  0.00    -0.206 F 
ATOM     45  C   UNL A   1      34.397  34.676  29.883  1.00  0.00     0.060 A 
BRANCH  45  46
ATOM     46  S   UNL A   1      33.095  35.561  29.000  1.00  0.00     0.124 S 
ATOM     47  O   UNL A   1      33.870  36.529  28.229  1.00  0.00    -0.237 OA
ATOM     48  O   UNL A   1      32.466  34.495  28.226  1.00  0.00    -0.237 OA
ATOM     49  O   UNL A   1      32.277  36.122  30.070  1.00  0.00    -0.744 OA
ENDBRANCH  45  46
ENDBRANCH  24  38
BRANCH  25  50
ATOM     50  C   UNL A   1      43.827  28.337  36.063  1.00  0.00     0.058 A 
ATOM     51  C   UNL A   1      45.175  28.664  35.852  1.00  0.00     0.135 A 
ATOM     52  C   UNL A   1      43.549  27.297  36.967  1.00  0.00     0.135 A 
ATOM     53  F   UNL A   1      45.501  29.644  34.995  1.00  0.00    -0.206 F 
ATOM     54  C   UNL A   1      46.203  27.978  36.494  1.00  0.00     0.059 A 
ATOM     55  C   UNL A   1      44.557  26.618  37.645  1.00  0.00     0.059 A 
ATOM     56  F   UNL A   1      42.278  26.944  37.217  1.00  0.00    -0.206 F 
ATOM     57  C   UNL A   1      45.885  26.958  37.391  1.00  0.00     0.060 A 
BRANCH  57  58
ATOM     58  S   UNL A   1      47.225  26.092  38.237  1.00  0.00     0.124 S 
ATOM     59  O   UNL A   1      48.334  27.022  38.060  1.00  0.00    -0.237 OA
ATOM     60  O   UNL A   1      46.703  25.971  39.594  1.00  0.00    -0.237 OA
ATOM     61  O   UNL A   1      47.333  24.835  37.502  1.00  0.00    -0.744 OA
ENDBRANCH  57  58
ENDBRANCH  25  50
BRANCH  37  62
ATOM     62  C   UNL A   1      40.333  34.268  37.272  1.00  0.00     0.058 A 
ATOM     63  C   UNL A   1      41.178  35.385  37.212  1.00  0.00     0.135 A 
ATOM     64  C   UNL A   1      39.489  34.132  38.386  1.00  0.00     0.135 A 
ATOM     65  F   UNL A   1      42.008  35.552  36.170  1.00  0.00    -0.206 F 
ATOM     66  C   UNL A   1      41.199  36.328  38.233  1.00  0.00     0.059 A 
ATOM     67  C   UNL A   1      39.470  35.080  39.400  1.00  0.00     0.059 A 
ATOM     68  F   UNL A   1      38.655  33.084  38.481  1.00  0.00    -0.206 F 
ATOM     69  C   UNL A   1      40.336  36.169  39.320  1.00  0.00     0.060 A 
BRANCH  69  70
ATOM     70  S   UNL A   1      40.339  37.425  40.613  1.00  0.00     0.124 S 
ATOM     71  O   UNL A   1      40.349  38.655  39.827  1.00  0.00    -0.237 OA
ATOM     72  O   UNL A   1      39.099  37.139  41.327  1.00  0.00    -0.237 OA
ATOM     73  O   UNL A   1      41.564  37.144  41.357  1.00  0.00    -0.744 OA
ENDBRANCH  69  70
ENDBRANCH  37  62
ENDBRANCH  11  12
ENDBRANCH   4   6
ENDBRANCH   3   4
ENDBRANCH   2   3
ENDBRANCH   1   2
BRANCH   1  74
ATOM     74  O   UNL A   1      38.257  22.244  25.359  1.00  0.00    -0.374 OA
BRANCH  74  75
ATOM     75  C   UNL A   1      37.040  21.516  25.467  1.00  0.00     0.202 C 
BRANCH  75  76
ATOM     76  C   UNL A   1      35.887  22.411  25.016  1.00  0.00     0.261 C 
BRANCH  76  77
ATOM     77  O   UNL A   1      34.858  21.607  24.412  1.00  0.00    -0.461 OA
BRANCH  77  78
ATOM     78  C   UNL A   1      33.693  21.581  25.134  1.00  0.00     0.343 C 
ATOM     79  O   UNL A   1      33.531  22.149  26.198  1.00  0.00    -0.249 OA
BRANCH  78  80
ATOM     80  C   UNL A   1      32.665  20.715  24.446  1.00  0.00     0.304 C 
ATOM     81  F   UNL A   1      31.578  20.499  25.258  1.00  0.00    -0.232 F 
BRANCH  80  82
ATOM     82  C   UNL A   1      33.158  19.349  23.908  1.00  0.00     0.163 C 
BRANCH  82  83
ATOM     83  C   UNL A   1      33.581  18.199  24.880  1.00  0.00     0.026 C 
ATOM     84  C   UNL A   1      34.790  17.394  24.366  1.00  0.00     0.035 C 
ATOM     85  C   UNL A   1      32.430  17.345  25.460  1.00  0.00     0.035 C 
ATOM     86  C   UNL A   1      34.945  16.083  25.106  1.00  0.00     0.160 C 
ATOM     87  C   UNL A   1      32.642  15.825  25.540  1.00  0.00     0.160 C 
ATOM     88  O   UNL A   1      33.780  15.318  24.863  1.00  0.00    -0.381 OA
ENDBRANCH  82  83
BRANCH  82  89
ATOM     89  O   UNL A   1      32.279  18.832  22.891  1.00  0.00    -0.389 OA
ATOM     90  H   UNL A   1      32.602  17.968  22.593  1.00  0.00     0.211 HD
ENDBRANCH  82  89
ENDBRANCH  80  82
ENDBRANCH  78  80
ENDBRANCH  77  78
ENDBRANCH  76  77
ENDBRANCH  75  76
ENDBRANCH  74  75
ENDBRANCH   1  74
TORSDOF 20
ENDMDL
MODEL 2
REMARK VINA RESULT:     -10.0      7.851     12.627
REMARK SMILES O=C(OCCOCCOC(=O)[C@H](F)[C@H](O)C1CCOCC1)c1ccc(-c2c3nc(c(-c4c(F)cc(S(=O)(=O)[O-])cc4F)c4ccc([nH]4)c(-c4c(F)cc(S(=O)(=O)[O-])cc4F)c4nc(c(-c5c(F)cc(S(=O)(=O)[O-])cc5F)c5ccc2[nH]5)C=C4)C=C3)cc1
REMARK SMILES IDX 5 1 4 2 3 3 2 4 1 5 22 6 23 7 87 8 24 9 86 10 25 11 26 12
REMARK SMILES IDX 27 13 80 14 28 15 85 16 79 17 81 18 29 19 84 20 78 21 77 22
REMARK SMILES IDX 30 24 64 25 43 26 63 27 44 28 47 29 62 30 82 31 45 32 46 33
REMARK SMILES IDX 61 35 83 36 48 37 31 38 32 39 41 40 33 41 34 42 40 43 42 44
REMARK SMILES IDX 35 45 36 46 37 47 38 48 39 49 65 50 66 51 75 52 67 53 68 54
REMARK SMILES IDX 74 55 76 56 69 57 70 58 71 59 72 60 73 61 49 62 50 63 59 64
REMARK SMILES IDX 51 65 52 66 58 67 60 68 53 69 54 70 55 71 56 72 57 73 6 74
REMARK SMILES IDX 7 75 8 76 9 77 10 78 11 79 12 80 13 81 14 82 16 83 17 84
REMARK SMILES IDX 21 85 18 86 20 87 19 88 15 89
REMARK H PARENT 81 23 47 34 15 90
REMARK Flexibility Score: inf
ROOT
ATOM      1  C   UNL A   1      33.166  29.951  27.059  1.00  0.00     0.202 C 
ENDROOT
BRANCH   1   2
ATOM      2  C   UNL A   1      34.210  30.889  27.664  1.00  0.00     0.261 C 
BRANCH   2   3
ATOM      3  O   UNL A   1      35.208  30.130  28.363  1.00  0.00    -0.460 OA
BRANCH   3   4
ATOM      4  C   UNL A   1      36.240  30.672  29.061  1.00  0.00     0.338 C 
ATOM      5  O   UNL A   1      36.009  31.488  29.950  1.00  0.00    -0.246 OA
BRANCH   4   6
ATOM      6  C   UNL A   1      37.641  30.198  28.880  1.00  0.00     0.060 A 
ATOM      7  C   UNL A   1      38.561  29.999  29.915  1.00  0.00     0.016 A 
ATOM      8  C   UNL A   1      38.009  29.837  27.576  1.00  0.00     0.016 A 
ATOM      9  C   UNL A   1      39.833  29.517  29.666  1.00  0.00     0.010 A 
ATOM     10  C   UNL A   1      39.275  29.308  27.323  1.00  0.00     0.010 A 
ATOM     11  C   UNL A   1      40.191  29.160  28.371  1.00  0.00    -0.014 A 
BRANCH  11  12
ATOM     12  C   UNL A   1      41.581  28.742  28.133  1.00  0.00     0.031 A 
ATOM     13  C   UNL A   1      42.651  29.780  28.249  1.00  0.00     0.074 A 
ATOM     14  C   UNL A   1      41.857  27.442  27.926  1.00  0.00     0.049 A 
ATOM     15  N   UNL A   1      43.919  29.693  27.969  1.00  0.00    -0.248 NA
ATOM     16  C   UNL A   1      42.230  31.100  28.752  1.00  0.00     0.031 C 
ATOM     17  C   UNL A   1      40.871  26.357  27.939  1.00  0.00     0.029 A 
ATOM     18  N   UNL A   1      43.045  26.806  27.690  1.00  0.00    -0.354 N 
ATOM     19  C   UNL A   1      44.440  30.956  28.215  1.00  0.00     0.074 A 
ATOM     20  C   UNL A   1      43.354  31.795  28.663  1.00  0.00     0.031 C 
ATOM     21  C   UNL A   1      41.500  25.188  27.737  1.00  0.00     0.029 A 
ATOM     22  C   UNL A   1      42.912  25.452  27.496  1.00  0.00     0.049 A 
ATOM     23  H   UNL A   1      43.911  27.274  27.662  1.00  0.00     0.167 HD
ATOM     24  C   UNL A   1      45.720  31.365  28.063  1.00  0.00     0.037 A 
ATOM     25  C   UNL A   1      43.829  24.545  27.115  1.00  0.00     0.037 A 
ATOM     26  C   UNL A   1      46.766  30.481  27.626  1.00  0.00     0.049 A 
ATOM     27  C   UNL A   1      45.228  25.043  26.866  1.00  0.00     0.074 A 
ATOM     28  C   UNL A   1      48.095  30.767  27.377  1.00  0.00     0.029 A 
ATOM     29  N   UNL A   1      46.591  29.124  27.375  1.00  0.00    -0.354 N 
ATOM     30  N   UNL A   1      45.707  26.258  27.016  1.00  0.00    -0.248 NA
ATOM     31  C   UNL A   1      46.206  24.065  26.380  1.00  0.00     0.031 C 
ATOM     32  C   UNL A   1      48.710  29.593  26.928  1.00  0.00     0.029 A 
ATOM     33  C   UNL A   1      47.782  28.560  26.958  1.00  0.00     0.049 A 
ATOM     34  H   UNL A   1      45.742  28.636  27.481  1.00  0.00     0.167 HD
ATOM     35  C   UNL A   1      47.048  26.187  26.663  1.00  0.00     0.074 A 
ATOM     36  C   UNL A   1      47.305  24.803  26.308  1.00  0.00     0.031 C 
ATOM     37  C   UNL A   1      47.983  27.169  26.629  1.00  0.00     0.037 A 
BRANCH  24  38
ATOM     38  C   UNL A   1      46.012  32.820  28.294  1.00  0.00     0.058 A 
ATOM     39  C   UNL A   1      45.919  33.778  27.272  1.00  0.00     0.135 A 
ATOM     40  C   UNL A   1      46.429  33.259  29.561  1.00  0.00     0.135 A 
ATOM     41  F   UNL A   1      45.561  33.411  26.031  1.00  0.00    -0.206 F 
ATOM     42  C   UNL A   1      46.257  35.111  27.489  1.00  0.00     0.059 A 
ATOM     43  C   UNL A   1      46.745  34.591  29.810  1.00  0.00     0.059 A 
ATOM     44  F   UNL A   1      46.555  32.384  30.573  1.00  0.00    -0.206 F 
ATOM     45  C   UNL A   1      46.670  35.508  28.763  1.00  0.00     0.060 A 
BRANCH  45  46
ATOM     46  S   UNL A   1      47.110  37.239  29.029  1.00  0.00     0.124 S 
ATOM     47  O   UNL A   1      47.687  37.595  27.736  1.00  0.00    -0.237 OA
ATOM     48  O   UNL A   1      45.817  37.843  29.333  1.00  0.00    -0.237 OA
ATOM     49  O   UNL A   1      48.051  37.184  30.143  1.00  0.00    -0.744 OA
ENDBRANCH  45  46
ENDBRANCH  24  38
BRANCH  25  50
ATOM     50  C   UNL A   1      43.446  23.122  26.894  1.00  0.00     0.058 A 
ATOM     51  C   UNL A   1      43.320  22.223  27.963  1.00  0.00     0.135 A 
ATOM     52  C   UNL A   1      43.189  22.630  25.602  1.00  0.00     0.135 A 
ATOM     53  F   UNL A   1      43.560  22.636  29.217  1.00  0.00    -0.206 F 
ATOM     54  C   UNL A   1      42.972  20.890  27.761  1.00  0.00     0.059 A 
ATOM     55  C   UNL A   1      42.809  21.310  25.377  1.00  0.00     0.059 A 
ATOM     56  F   UNL A   1      43.285  23.445  24.539  1.00  0.00    -0.206 F 
ATOM     57  C   UNL A   1      42.717  20.442  26.464  1.00  0.00     0.060 A 
BRANCH  57  58
ATOM     58  S   UNL A   1      42.242  18.717  26.215  1.00  0.00     0.124 S 
ATOM     59  O   UNL A   1      43.213  18.286  25.217  1.00  0.00    -0.237 OA
ATOM     60  O   UNL A   1      42.410  18.158  27.553  1.00  0.00    -0.237 OA
ATOM     61  O   UNL A   1      40.861  18.810  25.752  1.00  0.00    -0.744 OA
ENDBRANCH  57  58
ENDBRANCH  25  50
BRANCH  37  62
ATOM     62  C   UNL A   1      49.375  26.763  26.239  1.00  0.00     0.058 A 
ATOM     63  C   UNL A   1      49.836  26.884  24.920  1.00  0.00     0.135 A 
ATOM     64  C   UNL A   1      50.274  26.312  27.218  1.00  0.00     0.135 A 
ATOM     65  F   UNL A   1      49.009  27.303  23.949  1.00  0.00    -0.206 F 
ATOM     66  C   UNL A   1      51.141  26.550  24.581  1.00  0.00     0.059 A 
ATOM     67  C   UNL A   1      51.592  26.006  26.907  1.00  0.00     0.059 A 
ATOM     68  F   UNL A   1      49.880  26.192  28.497  1.00  0.00    -0.206 F 
ATOM     69  C   UNL A   1      52.013  26.118  25.583  1.00  0.00     0.060 A 
BRANCH  69  70
ATOM     70  S   UNL A   1      53.717  25.735  25.136  1.00  0.00     0.124 S 
ATOM     71  O   UNL A   1      54.458  26.657  25.990  1.00  0.00    -0.237 OA
ATOM     72  O   UNL A   1      53.820  24.322  25.486  1.00  0.00    -0.237 OA
ATOM     73  O   UNL A   1      53.767  26.025  23.705  1.00  0.00    -0.744 OA
ENDBRANCH  69  70
ENDBRANCH  37  62
ENDBRANCH  11  12
ENDBRANCH   4   6
ENDBRANCH   3   4
ENDBRANCH   2   3
ENDBRANCH   1   2
BRANCH   1  74
ATOM     74  O   UNL A   1      33.669  29.327  25.885  1.00  0.00    -0.374 OA
BRANCH  74  75
ATOM     75  C   UNL A   1      33.081  28.096  25.481  1.00  0.00     0.202 C 
BRANCH  75  76
ATOM     76  C   UNL A   1      32.451  28.279  24.102  1.00  0.00     0.261 C 
BRANCH  76  77
ATOM     77  O   UNL A   1      31.062  28.629  24.248  1.00  0.00    -0.461 OA
BRANCH  77  78
ATOM     78  C   UNL A   1      30.272  28.150  23.234  1.00  0.00     0.343 C 
ATOM     79  O   UNL A   1      30.683  27.827  22.135  1.00  0.00    -0.249 OA
BRANCH  78  80
ATOM     80  C   UNL A   1      28.823  28.128  23.661  1.00  0.00     0.304 C 
ATOM     81  F   UNL A   1      28.165  27.052  23.117  1.00  0.00    -0.232 F 
BRANCH  80  82
ATOM     82  C   UNL A   1      27.997  29.406  23.377  1.00  0.00     0.163 C 
BRANCH  82  83
ATOM     83  C   UNL A   1      28.641  30.650  22.680  1.00  0.00     0.026 C 
ATOM     84  C   UNL A   1      28.499  31.942  23.508  1.00  0.00     0.035 C 
ATOM     85  C   UNL A   1      28.344  30.809  21.171  1.00  0.00     0.035 C 
ATOM     86  C   UNL A   1      28.777  33.174  22.675  1.00  0.00     0.160 C 
ATOM     87  C   UNL A   1      28.029  32.221  20.652  1.00  0.00     0.160 C 
ATOM     88  O   UNL A   1      27.813  33.214  21.640  1.00  0.00    -0.381 OA
ENDBRANCH  82  83
BRANCH  82  89
ATOM     89  O   UNL A   1      26.736  29.094  22.756  1.00  0.00    -0.389 OA
ATOM     90  H   UNL A   1      26.332  29.909  22.419  1.00  0.00     0.211 HD
ENDBRANCH  82  89
ENDBRANCH  80  82
ENDBRANCH  78  80
ENDBRANCH  77  78
ENDBRANCH  76  77
ENDBRANCH  75  76
ENDBRANCH  74  75
ENDBRANCH   1  74
TORSDOF 20
ENDMDL
MODEL 3
REMARK VINA RESULT:     -10.0      5.502      9.979
REMARK SMILES O=C(OCCOCCOC(=O)[C@H](F)[C@H](O)C1CCOCC1)c1ccc(-c2c3nc(c(-c4c(F)cc(S(=O)(=O)[O-])cc4F)c4ccc([nH]4)c(-c4c(F)cc(S(=O)(=O)[O-])cc4F)c4nc(c(-c5c(F)cc(S(=O)(=O)[O-])cc5F)c5ccc2[nH]5)C=C4)C=C3)cc1
REMARK SMILES IDX 5 1 4 2 3 3 2 4 1 5 22 6 23 7 87 8 24 9 86 10 25 11 26 12
REMARK SMILES IDX 27 13 80 14 28 15 85 16 79 17 81 18 29 19 84 20 78 21 77 22
REMARK SMILES IDX 30 24 64 25 43 26 63 27 44 28 47 29 62 30 82 31 45 32 46 33
REMARK SMILES IDX 61 35 83 36 48 37 31 38 32 39 41 40 33 41 34 42 40 43 42 44
REMARK SMILES IDX 35 45 36 46 37 47 38 48 39 49 65 50 66 51 75 52 67 53 68 54
REMARK SMILES IDX 74 55 76 56 69 57 70 58 71 59 72 60 73 61 49 62 50 63 59 64
REMARK SMILES IDX 51 65 52 66 58 67 60 68 53 69 54 70 55 71 56 72 57 73 6 74
REMARK SMILES IDX 7 75 8 76 9 77 10 78 11 79 12 80 13 81 14 82 16 83 17 84
REMARK SMILES IDX 21 85 18 86 20 87 19 88 15 89
REMARK H PARENT 81 23 47 34 15 90
REMARK Flexibility Score: inf
ROOT
ATOM      1  C   UNL A   1      31.800  29.853  25.598  1.00  0.00     0.202 C 
ENDROOT
BRANCH   1   2
ATOM      2  C   UNL A   1      32.254  29.839  27.057  1.00  0.00     0.261 C 
BRANCH   2   3
ATOM      3  O   UNL A   1      33.679  29.674  27.127  1.00  0.00    -0.460 OA
BRANCH   3   4
ATOM      4  C   UNL A   1      34.512  30.471  27.846  1.00  0.00     0.338 C 
ATOM      5  O   UNL A   1      34.076  31.501  28.354  1.00  0.00    -0.246 OA
BRANCH   4   6
ATOM      6  C   UNL A   1      35.909  30.060  28.161  1.00  0.00     0.060 A 
ATOM      7  C   UNL A   1      36.331  29.521  29.381  1.00  0.00     0.016 A 
ATOM      8  C   UNL A   1      36.830  30.138  27.107  1.00  0.00     0.016 A 
ATOM      9  C   UNL A   1      37.641  29.126  29.580  1.00  0.00     0.010 A 
ATOM     10  C   UNL A   1      38.142  29.700  27.285  1.00  0.00     0.010 A 
ATOM     11  C   UNL A   1      38.549  29.205  28.531  1.00  0.00    -0.014 A 
BRANCH  11  12
ATOM     12  C   UNL A   1      39.953  28.866  28.809  1.00  0.00     0.031 A 
ATOM     13  C   UNL A   1      40.800  29.898  29.482  1.00  0.00     0.074 A 
ATOM     14  C   UNL A   1      40.400  27.623  28.552  1.00  0.00     0.049 A 
ATOM     15  N   UNL A   1      42.079  29.889  29.720  1.00  0.00    -0.248 NA
ATOM     16  C   UNL A   1      40.104  31.109  29.953  1.00  0.00     0.031 C 
ATOM     17  C   UNL A   1      39.584  26.525  28.023  1.00  0.00     0.029 A 
ATOM     18  N   UNL A   1      41.635  27.063  28.722  1.00  0.00    -0.354 N 
ATOM     19  C   UNL A   1      42.352  31.109  30.324  1.00  0.00     0.074 A 
ATOM     20  C   UNL A   1      41.109  31.837  30.414  1.00  0.00     0.031 C 
ATOM     21  C   UNL A   1      40.340  25.420  27.929  1.00  0.00     0.029 A 
ATOM     22  C   UNL A   1      41.706  25.755  28.307  1.00  0.00     0.049 A 
ATOM     23  H   UNL A   1      42.401  27.551  29.106  1.00  0.00     0.167 HD
ATOM     24  C   UNL A   1      43.550  31.569  30.750  1.00  0.00     0.037 A 
ATOM     25  C   UNL A   1      42.774  24.944  28.202  1.00  0.00     0.037 A 
ATOM     26  C   UNL A   1      44.756  30.793  30.648  1.00  0.00     0.049 A 
ATOM     27  C   UNL A   1      44.111  25.511  28.600  1.00  0.00     0.074 A 
ATOM     28  C   UNL A   1      46.047  31.149  30.989  1.00  0.00     0.029 A 
ATOM     29  N   UNL A   1      44.810  29.490  30.165  1.00  0.00    -0.354 N 
ATOM     30  N   UNL A   1      44.387  26.698  29.093  1.00  0.00    -0.248 NA
ATOM     31  C   UNL A   1      45.282  24.648  28.413  1.00  0.00     0.031 C 
ATOM     32  C   UNL A   1      46.887  30.078  30.665  1.00  0.00     0.029 A 
ATOM     33  C   UNL A   1      46.113  29.031  30.181  1.00  0.00     0.049 A 
ATOM     34  H   UNL A   1      44.033  28.970  29.856  1.00  0.00     0.167 HD
ATOM     35  C   UNL A   1      45.761  26.718  29.297  1.00  0.00     0.074 A 
ATOM     36  C   UNL A   1      46.254  25.416  28.886  1.00  0.00     0.031 C 
ATOM     37  C   UNL A   1      46.547  27.716  29.772  1.00  0.00     0.037 A 
BRANCH  24  38
ATOM     38  C   UNL A   1      43.602  32.975  31.277  1.00  0.00     0.058 A 
ATOM     39  C   UNL A   1      43.806  34.084  30.440  1.00  0.00     0.135 A 
ATOM     40  C   UNL A   1      43.480  33.213  32.655  1.00  0.00     0.135 A 
ATOM     41  F   UNL A   1      43.966  33.914  29.118  1.00  0.00    -0.206 F 
ATOM     42  C   UNL A   1      43.916  35.374  30.954  1.00  0.00     0.059 A 
ATOM     43  C   UNL A   1      43.559  34.495  33.189  1.00  0.00     0.059 A 
ATOM     44  F   UNL A   1      43.303  32.188  33.506  1.00  0.00    -0.206 F 
ATOM     45  C   UNL A   1      43.793  35.569  32.331  1.00  0.00     0.060 A 
BRANCH  45  46
ATOM     46  S   UNL A   1      43.943  37.246  32.983  1.00  0.00     0.124 S 
ATOM     47  O   UNL A   1      45.264  37.201  33.602  1.00  0.00    -0.237 OA
ATOM     48  O   UNL A   1      43.837  38.058  31.776  1.00  0.00    -0.237 OA
ATOM     49  O   UNL A   1      42.820  37.353  33.909  1.00  0.00    -0.744 OA
ENDBRANCH  45  46
ENDBRANCH  24  38
BRANCH  25  50
ATOM     50  C   UNL A   1      42.632  23.566  27.653  1.00  0.00     0.058 A 
ATOM     51  C   UNL A   1      42.687  23.319  26.273  1.00  0.00     0.135 A 
ATOM     52  C   UNL A   1      42.443  22.460  28.500  1.00  0.00     0.135 A 
ATOM     53  F   UNL A   1      42.858  24.337  25.416  1.00  0.00    -0.206 F 
ATOM     54  C   UNL A   1      42.544  22.035  25.753  1.00  0.00     0.059 A 
ATOM     55  C   UNL A   1      42.329  21.164  28.007  1.00  0.00     0.059 A 
ATOM     56  F   UNL A   1      42.390  22.632  29.830  1.00  0.00    -0.206 F 
ATOM     57  C   UNL A   1      42.367  20.963  26.629  1.00  0.00     0.060 A 
BRANCH  57  58
ATOM     58  S   UNL A   1      42.207  19.298  25.946  1.00  0.00     0.124 S 
ATOM     59  O   UNL A   1      42.741  18.483  27.030  1.00  0.00    -0.237 OA
ATOM     60  O   UNL A   1      40.769  19.197  25.719  1.00  0.00    -0.237 OA
ATOM     61  O   UNL A   1      43.022  19.349  24.736  1.00  0.00    -0.744 OA
ENDBRANCH  57  58
ENDBRANCH  25  50
BRANCH  37  62
ATOM     62  C   UNL A   1      48.010  27.413  29.915  1.00  0.00     0.058 A 
ATOM     63  C   UNL A   1      48.931  27.731  28.907  1.00  0.00     0.135 A 
ATOM     64  C   UNL A   1      48.498  26.860  31.110  1.00  0.00     0.135 A 
ATOM     65  F   UNL A   1      48.509  28.254  27.745  1.00  0.00    -0.206 F 
ATOM     66  C   UNL A   1      50.289  27.490  29.070  1.00  0.00     0.059 A 
ATOM     67  C   UNL A   1      49.854  26.642  31.307  1.00  0.00     0.059 A 
ATOM     68  F   UNL A   1      47.654  26.550  32.107  1.00  0.00    -0.206 F 
ATOM     69  C   UNL A   1      50.742  26.951  30.277  1.00  0.00     0.060 A 
BRANCH  69  70
ATOM     70  S   UNL A   1      52.512  26.688  30.493  1.00  0.00     0.124 S 
ATOM     71  O   UNL A   1      52.926  26.348  29.136  1.00  0.00    -0.237 OA
ATOM     72  O   UNL A   1      52.961  27.986  30.987  1.00  0.00    -0.237 OA
ATOM     73  O   UNL A   1      52.578  25.598  31.463  1.00  0.00    -0.744 OA
ENDBRANCH  69  70
ENDBRANCH  37  62
ENDBRANCH  11  12
ENDBRANCH   4   6
ENDBRANCH   3   4
ENDBRANCH   2   3
ENDBRANCH   1   2
BRANCH   1  74
ATOM     74  O   UNL A   1      31.752  28.533  25.071  1.00  0.00    -0.374 OA
BRANCH  74  75
ATOM     75  C   UNL A   1      30.894  28.288  23.964  1.00  0.00     0.202 C 
BRANCH  75  76
ATOM     76  C   UNL A   1      31.307  26.977  23.298  1.00  0.00     0.261 C 
BRANCH  76  77
ATOM     77  O   UNL A   1      32.561  27.156  22.614  1.00  0.00    -0.461 OA
BRANCH  77  78
ATOM     78  C   UNL A   1      33.288  26.000  22.501  1.00  0.00     0.343 C 
ATOM     79  O   UNL A   1      33.656  25.519  21.446  1.00  0.00    -0.249 OA
BRANCH  78  80
ATOM     80  C   UNL A   1      33.524  25.390  23.863  1.00  0.00     0.304 C 
ATOM     81  F   UNL A   1      34.470  26.098  24.563  1.00  0.00    -0.232 F 
BRANCH  80  82
ATOM     82  C   UNL A   1      33.907  23.890  23.894  1.00  0.00     0.163 C 
BRANCH  82  83
ATOM     83  C   UNL A   1      32.814  22.774  23.974  1.00  0.00     0.026 C 
ATOM     84  C   UNL A   1      33.199  21.623  24.923  1.00  0.00     0.035 C 
ATOM     85  C   UNL A   1      32.202  22.329  22.626  1.00  0.00     0.035 C 
ATOM     86  C   UNL A   1      32.332  20.403  24.704  1.00  0.00     0.160 C 
ATOM     87  C   UNL A   1      31.968  20.825  22.412  1.00  0.00     0.160 C 
ATOM     88  O   UNL A   1      32.548  19.962  23.377  1.00  0.00    -0.381 OA
ENDBRANCH  82  83
BRANCH  82  89
ATOM     89  O   UNL A   1      34.863  23.567  22.866  1.00  0.00    -0.389 OA
ATOM     90  H   UNL A   1      35.266  24.383  22.531  1.00  0.00     0.211 HD
ENDBRANCH  82  89
ENDBRANCH  80  82
ENDBRANCH  78  80
ENDBRANCH  77  78
ENDBRANCH  76  77
ENDBRANCH  75  76
ENDBRANCH  74  75
ENDBRANCH   1  74
TORSDOF 20
ENDMDL
