MODEL 1
REMARK VINA RESULT:     -10.9      0.000      0.000
REMARK SMILES O=C(C[C@H]1C[C@H]2CC[C@@H](C1)[N@H+]2[C@@H]1CCCSC1)OCCOCCOC(=O)c1ccc(-c2c3nc(c(-c4c(F)cc(S(=O)(=O)[O-])cc4F)c4ccc([nH]4)c(-c4c(F)cc(S(=O)(=O)[O-])cc4F)c4nc(c(-c5c(F)cc(S(=O)(=O)[O-])cc5F)c5ccc2[nH]5)C=C4)C=C3)cc1
REMARK SMILES IDX 22 1 21 2 20 3 19 4 18 5 2 6 1 7 3 8 4 9 5 10 10 11 6 12
REMARK SMILES IDX 9 13 7 14 11 15 8 16 12 18 13 19 17 20 14 21 16 22 15 23
REMARK SMILES IDX 23 24 24 25 25 26 26 27 27 28 28 29 92 30 29 31 91 32 30 33
REMARK SMILES IDX 31 34 32 35 85 36 33 37 90 38 84 39 86 40 34 41 89 42 83 43
REMARK SMILES IDX 82 44 35 46 69 47 48 48 68 49 49 50 52 51 67 52 87 53 50 54
REMARK SMILES IDX 51 55 66 57 88 58 53 59 36 60 37 61 46 62 38 63 39 64 45 65
REMARK SMILES IDX 47 66 40 67 41 68 42 69 43 70 44 71 70 72 71 73 80 74 72 75
REMARK SMILES IDX 73 76 79 77 81 78 74 79 75 80 76 81 77 82 78 83 54 84 55 85
REMARK SMILES IDX 64 86 56 87 57 88 63 89 65 90 58 91 59 92 60 93 61 94 62 95
REMARK H PARENT 11 17 86 45 52 56
REMARK Flexibility Score: inf
ROOT
ATOM      1  C   UNL A   1      32.261  29.834  26.657  1.00  0.00     0.202 C 
ENDROOT
BRANCH   1   2
ATOM      2  O   UNL A   1      31.707  28.567  26.308  1.00  0.00    -0.374 OA
BRANCH   2   3
ATOM      3  C   UNL A   1      32.529  27.710  25.502  1.00  0.00     0.202 C 
BRANCH   3   4
ATOM      4  C   UNL A   1      31.998  26.292  25.267  1.00  0.00     0.261 C 
BRANCH   4   5
ATOM      5  O   UNL A   1      31.277  25.893  26.435  1.00  0.00    -0.463 OA
BRANCH   5   6
ATOM      6  C   UNL A   1      31.194  24.579  26.727  1.00  0.00     0.306 C 
ATOM      7  O   UNL A   1      30.192  23.985  27.088  1.00  0.00    -0.252 OA
BRANCH   6   8
ATOM      8  C   UNL A   1      32.517  23.952  26.348  1.00  0.00     0.126 C 
BRANCH   8   9
ATOM      9  C   UNL A   1      32.410  22.431  26.067  1.00  0.00     0.012 C 
ATOM     10  C   UNL A   1      32.306  22.027  24.577  1.00  0.00     0.069 C 
ATOM     11  C   UNL A   1      33.485  21.611  26.842  1.00  0.00     0.069 C 
ATOM     12  C   UNL A   1      33.594  21.470  23.971  1.00  0.00     0.185 C 
ATOM     13  C   UNL A   1      34.503  20.802  25.994  1.00  0.00     0.185 C 
ATOM     14  C   UNL A   1      34.836  22.347  24.207  1.00  0.00     0.071 C 
ATOM     15  N   UNL A   1      33.992  20.306  24.728  1.00  0.00    -0.327 N 
ATOM     16  C   UNL A   1      35.562  21.720  25.395  1.00  0.00     0.071 C 
ATOM     17  H   UNL A   1      34.737  19.778  24.273  1.00  0.00     0.348 HD
BRANCH  15  18
ATOM     18  C   UNL A   1      33.352  19.012  24.544  1.00  0.00     0.194 C 
ATOM     19  C   UNL A   1      32.712  18.445  25.823  1.00  0.00     0.067 C 
ATOM     20  C   UNL A   1      34.387  18.121  23.811  1.00  0.00     0.134 C 
ATOM     21  C   UNL A   1      32.423  16.951  25.830  1.00  0.00     0.017 C 
ATOM     22  S   UNL A   1      34.055  16.341  23.773  1.00  0.00    -0.156 SA
ATOM     23  C   UNL A   1      33.664  16.136  25.522  1.00  0.00     0.070 C 
ENDBRANCH  15  18
ENDBRANCH   8   9
ENDBRANCH   6   8
ENDBRANCH   5   6
ENDBRANCH   4   5
ENDBRANCH   3   4
ENDBRANCH   2   3
ENDBRANCH   1   2
BRANCH   1  24
ATOM     24  C   UNL A   1      33.523  29.746  27.518  1.00  0.00     0.261 C 
BRANCH  24  25
ATOM     25  O   UNL A   1      34.349  30.892  27.324  1.00  0.00    -0.460 OA
BRANCH  25  26
ATOM     26  C   UNL A   1      34.939  31.334  28.467  1.00  0.00     0.338 C 
ATOM     27  O   UNL A   1      34.457  32.069  29.312  1.00  0.00    -0.246 OA
BRANCH  26  28
ATOM     28  C   UNL A   1      36.197  30.581  28.637  1.00  0.00     0.060 A 
ATOM     29  C   UNL A   1      36.469  30.009  29.889  1.00  0.00     0.016 A 
ATOM     30  C   UNL A   1      37.049  30.361  27.550  1.00  0.00     0.016 A 
ATOM     31  C   UNL A   1      37.628  29.257  30.075  1.00  0.00     0.010 A 
ATOM     32  C   UNL A   1      38.208  29.622  27.735  1.00  0.00     0.010 A 
ATOM     33  C   UNL A   1      38.524  29.117  29.009  1.00  0.00    -0.014 A 
BRANCH  33  34
ATOM     34  C   UNL A   1      39.943  28.778  29.241  1.00  0.00     0.031 A 
ATOM     35  C   UNL A   1      40.847  29.934  29.559  1.00  0.00     0.074 A 
ATOM     36  C   UNL A   1      40.421  27.550  28.993  1.00  0.00     0.049 A 
ATOM     37  N   UNL A   1      42.143  30.026  29.467  1.00  0.00    -0.248 NA
ATOM     38  C   UNL A   1      40.180  31.174  29.994  1.00  0.00     0.031 C 
ATOM     39  C   UNL A   1      39.612  26.369  28.703  1.00  0.00     0.029 A 
ATOM     40  N   UNL A   1      41.715  27.113  28.888  1.00  0.00    -0.354 N 
ATOM     41  C   UNL A   1      42.442  31.346  29.787  1.00  0.00     0.074 A 
ATOM     42  C   UNL A   1      41.195  32.016  30.070  1.00  0.00     0.031 C 
ATOM     43  C   UNL A   1      40.432  25.346  28.401  1.00  0.00     0.029 A 
ATOM     44  C   UNL A   1      41.814  25.823  28.424  1.00  0.00     0.049 A 
ATOM     45  H   UNL A   1      42.496  27.667  29.120  1.00  0.00     0.167 HD
ATOM     46  C   UNL A   1      43.652  31.948  29.817  1.00  0.00     0.037 A 
ATOM     47  C   UNL A   1      42.899  25.136  28.011  1.00  0.00     0.037 A 
ATOM     48  C   UNL A   1      44.872  31.263  29.500  1.00  0.00     0.049 A 
ATOM     49  C   UNL A   1      44.241  25.820  28.036  1.00  0.00     0.074 A 
ATOM     50  C   UNL A   1      46.163  31.749  29.500  1.00  0.00     0.029 A 
ATOM     51  N   UNL A   1      44.938  29.931  29.109  1.00  0.00    -0.354 N 
ATOM     52  N   UNL A   1      44.526  27.063  28.353  1.00  0.00    -0.248 NA
ATOM     53  C   UNL A   1      45.408  25.019  27.645  1.00  0.00     0.031 C 
ATOM     54  C   UNL A   1      47.010  30.720  29.071  1.00  0.00     0.029 A 
ATOM     55  C   UNL A   1      46.249  29.578  28.853  1.00  0.00     0.049 A 
ATOM     56  H   UNL A   1      44.164  29.327  29.026  1.00  0.00     0.167 HD
ATOM     57  C   UNL A   1      45.905  27.188  28.226  1.00  0.00     0.074 A 
ATOM     58  C   UNL A   1      46.397  25.892  27.799  1.00  0.00     0.031 C 
ATOM     59  C   UNL A   1      46.696  28.268  28.447  1.00  0.00     0.037 A 
BRANCH  46  60
ATOM     60  C   UNL A   1      43.672  33.417  30.139  1.00  0.00     0.058 A 
ATOM     61  C   UNL A   1      43.602  34.398  29.136  1.00  0.00     0.135 A 
ATOM     62  C   UNL A   1      43.840  33.849  31.464  1.00  0.00     0.135 A 
ATOM     63  F   UNL A   1      43.472  34.039  27.848  1.00  0.00    -0.206 F 
ATOM     64  C   UNL A   1      43.752  35.750  29.427  1.00  0.00     0.059 A 
ATOM     65  C   UNL A   1      43.961  35.198  31.783  1.00  0.00     0.059 A 
ATOM     66  F   UNL A   1      43.924  32.956  32.462  1.00  0.00    -0.206 F 
ATOM     67  C   UNL A   1      43.943  36.140  30.754  1.00  0.00     0.060 A 
BRANCH  67  68
ATOM     68  S   UNL A   1      44.186  37.891  31.116  1.00  0.00     0.124 S 
ATOM     69  O   UNL A   1      43.412  38.518  30.050  1.00  0.00    -0.237 OA
ATOM     70  O   UNL A   1      43.629  38.015  32.460  1.00  0.00    -0.237 OA
ATOM     71  O   UNL A   1      45.633  38.058  31.023  1.00  0.00    -0.744 OA
ENDBRANCH  67  68
ENDBRANCH  46  60
BRANCH  47  72
ATOM     72  C   UNL A   1      42.740  23.739  27.525  1.00  0.00     0.058 A 
ATOM     73  C   UNL A   1      42.781  22.657  28.415  1.00  0.00     0.135 A 
ATOM     74  C   UNL A   1      42.467  23.463  26.174  1.00  0.00     0.135 A 
ATOM     75  F   UNL A   1      43.052  22.867  29.712  1.00  0.00    -0.206 F 
ATOM     76  C   UNL A   1      42.542  21.352  27.990  1.00  0.00     0.059 A 
ATOM     77  C   UNL A   1      42.206  22.170  25.729  1.00  0.00     0.059 A 
ATOM     78  F   UNL A   1      42.408  24.464  25.283  1.00  0.00    -0.206 F 
ATOM     79  C   UNL A   1      42.241  21.120  26.646  1.00  0.00     0.060 A 
BRANCH  79  80
ATOM     80  S   UNL A   1      41.819  19.440  26.131  1.00  0.00     0.124 S 
ATOM     81  O   UNL A   1      42.711  19.248  24.993  1.00  0.00    -0.237 OA
ATOM     82  O   UNL A   1      42.134  18.666  27.328  1.00  0.00    -0.237 OA
ATOM     83  O   UNL A   1      40.398  19.535  25.811  1.00  0.00    -0.744 OA
ENDBRANCH  79  80
ENDBRANCH  47  72
BRANCH  59  84
ATOM     84  C   UNL A   1      48.177  28.090  28.283  1.00  0.00     0.058 A 
ATOM     85  C   UNL A   1      48.995  27.685  29.348  1.00  0.00     0.135 A 
ATOM     86  C   UNL A   1      48.760  28.216  27.012  1.00  0.00     0.135 A 
ATOM     87  F   UNL A   1      48.483  27.553  30.581  1.00  0.00    -0.206 F 
ATOM     88  C   UNL A   1      50.346  27.413  29.158  1.00  0.00     0.059 A 
ATOM     89  C   UNL A   1      50.103  27.927  26.795  1.00  0.00     0.059 A 
ATOM     90  F   UNL A   1      48.013  28.587  25.959  1.00  0.00    -0.206 F 
ATOM     91  C   UNL A   1      50.888  27.530  27.875  1.00  0.00     0.060 A 
BRANCH  91  92
ATOM     92  S   UNL A   1      52.624  27.103  27.626  1.00  0.00     0.124 S 
ATOM     93  O   UNL A   1      53.163  27.278  28.971  1.00  0.00    -0.237 OA
ATOM     94  O   UNL A   1      52.544  25.726  27.148  1.00  0.00    -0.237 OA
ATOM     95  O   UNL A   1      53.074  28.078  26.637  1.00  0.00    -0.744 OA
ENDBRANCH  91  92
ENDBRANCH  59  84
ENDBRANCH  33  34
ENDBRANCH  26  28
ENDBRANCH  25  26
ENDBRANCH  24  25
ENDBRANCH   1  24
TORSDOF 19
ENDMDL
MODEL 2
REMARK VINA RESULT:     -10.9      1.452      2.291
REMARK SMILES O=C(C[C@H]1C[C@H]2CC[C@@H](C1)[N@H+]2[C@@H]1CCCSC1)OCCOCCOC(=O)c1ccc(-c2c3nc(c(-c4c(F)cc(S(=O)(=O)[O-])cc4F)c4ccc([nH]4)c(-c4c(F)cc(S(=O)(=O)[O-])cc4F)c4nc(c(-c5c(F)cc(S(=O)(=O)[O-])cc5F)c5ccc2[nH]5)C=C4)C=C3)cc1
REMARK SMILES IDX 22 1 21 2 20 3 19 4 18 5 2 6 1 7 3 8 4 9 5 10 10 11 6 12
REMARK SMILES IDX 9 13 7 14 11 15 8 16 12 18 13 19 17 20 14 21 16 22 15 23
REMARK SMILES IDX 23 24 24 25 25 26 26 27 27 28 28 29 92 30 29 31 91 32 30 33
REMARK SMILES IDX 31 34 32 35 85 36 33 37 90 38 84 39 86 40 34 41 89 42 83 43
REMARK SMILES IDX 82 44 35 46 69 47 48 48 68 49 49 50 52 51 67 52 87 53 50 54
REMARK SMILES IDX 51 55 66 57 88 58 53 59 36 60 37 61 46 62 38 63 39 64 45 65
REMARK SMILES IDX 47 66 40 67 41 68 42 69 43 70 44 71 70 72 71 73 80 74 72 75
REMARK SMILES IDX 73 76 79 77 81 78 74 79 75 80 76 81 77 82 78 83 54 84 55 85
REMARK SMILES IDX 64 86 56 87 57 88 63 89 65 90 58 91 59 92 60 93 61 94 62 95
REMARK H PARENT 11 17 86 45 52 56
REMARK Flexibility Score: inf
ROOT
ATOM      1  C   UNL A   1      32.415  29.727  26.674  1.00  0.00     0.202 C 
ENDROOT
BRANCH   1   2
ATOM      2  O   UNL A   1      33.400  28.803  26.216  1.00  0.00    -0.374 OA
BRANCH   2   3
ATOM      3  C   UNL A   1      33.477  28.601  24.797  1.00  0.00     0.202 C 
BRANCH   3   4
ATOM      4  C   UNL A   1      32.184  28.842  24.011  1.00  0.00     0.261 C 
BRANCH   4   5
ATOM      5  O   UNL A   1      31.678  27.572  23.595  1.00  0.00    -0.463 OA
BRANCH   5   6
ATOM      6  C   UNL A   1      30.375  27.293  23.808  1.00  0.00     0.306 C 
ATOM      7  O   UNL A   1      29.426  27.875  23.312  1.00  0.00    -0.252 OA
BRANCH   6   8
ATOM      8  C   UNL A   1      30.318  26.018  24.618  1.00  0.00     0.126 C 
BRANCH   8   9
ATOM      9  C   UNL A   1      31.698  25.328  24.764  1.00  0.00     0.012 C 
ATOM     10  C   UNL A   1      32.271  25.264  26.201  1.00  0.00     0.069 C 
ATOM     11  C   UNL A   1      31.751  23.954  24.031  1.00  0.00     0.069 C 
ATOM     12  C   UNL A   1      32.154  23.899  26.879  1.00  0.00     0.185 C 
ATOM     13  C   UNL A   1      32.016  22.697  24.903  1.00  0.00     0.185 C 
ATOM     14  C   UNL A   1      30.743  23.287  26.833  1.00  0.00     0.071 C 
ATOM     15  N   UNL A   1      32.850  22.923  26.071  1.00  0.00    -0.327 N 
ATOM     16  C   UNL A   1      30.763  22.295  25.672  1.00  0.00     0.071 C 
ATOM     17  H   UNL A   1      32.969  22.031  26.550  1.00  0.00     0.348 HD
BRANCH  15  18
ATOM     18  C   UNL A   1      34.299  22.803  26.088  1.00  0.00     0.194 C 
ATOM     19  C   UNL A   1      35.033  23.998  25.456  1.00  0.00     0.067 C 
ATOM     20  C   UNL A   1      34.619  21.393  25.527  1.00  0.00     0.134 C 
ATOM     21  C   UNL A   1      36.479  23.762  25.041  1.00  0.00     0.017 C 
ATOM     22  S   UNL A   1      36.338  21.070  25.055  1.00  0.00    -0.156 SA
ATOM     23  C   UNL A   1      36.609  22.578  24.103  1.00  0.00     0.070 C 
ENDBRANCH  15  18
ENDBRANCH   8   9
ENDBRANCH   6   8
ENDBRANCH   5   6
ENDBRANCH   4   5
ENDBRANCH   3   4
ENDBRANCH   2   3
ENDBRANCH   1   2
BRANCH   1  24
ATOM     24  C   UNL A   1      32.995  31.025  27.241  1.00  0.00     0.261 C 
BRANCH  24  25
ATOM     25  O   UNL A   1      34.418  30.962  27.300  1.00  0.00    -0.460 OA
BRANCH  25  26
ATOM     26  C   UNL A   1      34.925  31.297  28.516  1.00  0.00     0.338 C 
ATOM     27  O   UNL A   1      34.374  31.933  29.398  1.00  0.00    -0.246 OA
BRANCH  26  28
ATOM     28  C   UNL A   1      36.191  30.557  28.688  1.00  0.00     0.060 A 
ATOM     29  C   UNL A   1      36.487  30.027  29.953  1.00  0.00     0.016 A 
ATOM     30  C   UNL A   1      37.025  30.306  27.594  1.00  0.00     0.016 A 
ATOM     31  C   UNL A   1      37.654  29.288  30.144  1.00  0.00     0.010 A 
ATOM     32  C   UNL A   1      38.191  29.580  27.783  1.00  0.00     0.010 A 
ATOM     33  C   UNL A   1      38.532  29.119  29.067  1.00  0.00    -0.014 A 
BRANCH  33  34
ATOM     34  C   UNL A   1      39.956  28.794  29.285  1.00  0.00     0.031 A 
ATOM     35  C   UNL A   1      40.850  29.959  29.603  1.00  0.00     0.074 A 
ATOM     36  C   UNL A   1      40.447  27.573  29.026  1.00  0.00     0.049 A 
ATOM     37  N   UNL A   1      42.144  30.067  29.500  1.00  0.00    -0.248 NA
ATOM     38  C   UNL A   1      40.172  31.189  30.050  1.00  0.00     0.031 C 
ATOM     39  C   UNL A   1      39.649  26.385  28.737  1.00  0.00     0.029 A 
ATOM     40  N   UNL A   1      41.745  27.152  28.909  1.00  0.00    -0.354 N 
ATOM     41  C   UNL A   1      42.430  31.388  29.825  1.00  0.00     0.074 A 
ATOM     42  C   UNL A   1      41.178  32.042  30.123  1.00  0.00     0.031 C 
ATOM     43  C   UNL A   1      40.479  25.373  28.422  1.00  0.00     0.029 A 
ATOM     44  C   UNL A   1      41.855  25.865  28.436  1.00  0.00     0.049 A 
ATOM     45  H   UNL A   1      42.521  27.714  29.137  1.00  0.00     0.167 HD
ATOM     46  C   UNL A   1      43.633  32.004  29.849  1.00  0.00     0.037 A 
ATOM     47  C   UNL A   1      42.944  25.194  28.011  1.00  0.00     0.037 A 
ATOM     48  C   UNL A   1      44.858  31.335  29.518  1.00  0.00     0.049 A 
ATOM     49  C   UNL A   1      44.279  25.894  28.028  1.00  0.00     0.074 A 
ATOM     50  C   UNL A   1      46.144  31.836  29.510  1.00  0.00     0.029 A 
ATOM     51  N   UNL A   1      44.936  30.006  29.119  1.00  0.00    -0.354 N 
ATOM     52  N   UNL A   1      44.552  27.138  28.351  1.00  0.00    -0.248 NA
ATOM     53  C   UNL A   1      45.451  25.108  27.623  1.00  0.00     0.031 C 
ATOM     54  C   UNL A   1      46.999  30.819  29.068  1.00  0.00     0.029 A 
ATOM     55  C   UNL A   1      46.250  29.670  28.850  1.00  0.00     0.049 A 
ATOM     56  H   UNL A   1      44.170  29.393  29.039  1.00  0.00     0.167 HD
ATOM     57  C   UNL A   1      45.928  27.279  28.213  1.00  0.00     0.074 A 
ATOM     58  C   UNL A   1      46.432  25.991  27.774  1.00  0.00     0.031 C 
ATOM     59  C   UNL A   1      46.709  28.367  28.433  1.00  0.00     0.037 A 
BRANCH  46  60
ATOM     60  C   UNL A   1      43.639  33.471  30.179  1.00  0.00     0.058 A 
ATOM     61  C   UNL A   1      43.456  34.455  29.193  1.00  0.00     0.135 A 
ATOM     62  C   UNL A   1      43.907  33.902  31.488  1.00  0.00     0.135 A 
ATOM     63  F   UNL A   1      43.227  34.099  27.917  1.00  0.00    -0.206 F 
ATOM     64  C   UNL A   1      43.592  35.809  29.480  1.00  0.00     0.059 A 
ATOM     65  C   UNL A   1      44.017  35.252  31.805  1.00  0.00     0.059 A 
ATOM     66  F   UNL A   1      44.101  33.006  32.469  1.00  0.00    -0.206 F 
ATOM     67  C   UNL A   1      43.884  36.198  30.789  1.00  0.00     0.060 A 
BRANCH  67  68
ATOM     68  S   UNL A   1      44.108  37.953  31.142  1.00  0.00     0.124 S 
ATOM     69  O   UNL A   1      43.319  38.107  32.361  1.00  0.00    -0.237 OA
ATOM     70  O   UNL A   1      45.554  38.060  31.306  1.00  0.00    -0.237 OA
ATOM     71  O   UNL A   1      43.564  38.609  29.956  1.00  0.00    -0.744 OA
ENDBRANCH  67  68
ENDBRANCH  46  60
BRANCH  47  72
ATOM     72  C   UNL A   1      42.798  23.798  27.518  1.00  0.00     0.058 A 
ATOM     73  C   UNL A   1      42.748  22.719  28.412  1.00  0.00     0.135 A 
ATOM     74  C   UNL A   1      42.627  23.520  26.151  1.00  0.00     0.135 A 
ATOM     75  F   UNL A   1      42.919  22.930  29.726  1.00  0.00    -0.206 F 
ATOM     76  C   UNL A   1      42.518  21.417  27.974  1.00  0.00     0.059 A 
ATOM     77  C   UNL A   1      42.377  22.230  25.690  1.00  0.00     0.059 A 
ATOM     78  F   UNL A   1      42.657  24.518  25.254  1.00  0.00    -0.206 F 
ATOM     79  C   UNL A   1      42.319  21.185  26.611  1.00  0.00     0.060 A 
BRANCH  79  80
ATOM     80  S   UNL A   1      41.907  19.511  26.069  1.00  0.00     0.124 S 
ATOM     81  O   UNL A   1      40.487  19.641  25.765  1.00  0.00    -0.237 OA
ATOM     82  O   UNL A   1      42.793  19.335  24.923  1.00  0.00    -0.237 OA
ATOM     83  O   UNL A   1      42.232  18.692  27.233  1.00  0.00    -0.744 OA
ENDBRANCH  79  80
ENDBRANCH  47  72
BRANCH  59  84
ATOM     84  C   UNL A   1      48.190  28.207  28.256  1.00  0.00     0.058 A 
ATOM     85  C   UNL A   1      49.024  27.830  29.317  1.00  0.00     0.135 A 
ATOM     86  C   UNL A   1      48.758  28.323  26.977  1.00  0.00     0.135 A 
ATOM     87  F   UNL A   1      48.528  27.709  30.558  1.00  0.00    -0.206 F 
ATOM     88  C   UNL A   1      50.377  27.574  29.117  1.00  0.00     0.059 A 
ATOM     89  C   UNL A   1      50.102  28.049  26.750  1.00  0.00     0.059 A 
ATOM     90  F   UNL A   1      47.995  28.668  25.927  1.00  0.00    -0.206 F 
ATOM     91  C   UNL A   1      50.904  27.679  27.827  1.00  0.00     0.060 A 
BRANCH  91  92
ATOM     92  S   UNL A   1      52.643  27.273  27.566  1.00  0.00     0.124 S 
ATOM     93  O   UNL A   1      52.686  27.090  26.118  1.00  0.00    -0.237 OA
ATOM     94  O   UNL A   1      53.323  28.460  28.075  1.00  0.00    -0.237 OA
ATOM     95  O   UNL A   1      52.832  26.061  28.357  1.00  0.00    -0.744 OA
ENDBRANCH  91  92
ENDBRANCH  59  84
ENDBRANCH  33  34
ENDBRANCH  26  28
ENDBRANCH  25  26
ENDBRANCH  24  25
ENDBRANCH   1  24
TORSDOF 19
ENDMDL
MODEL 3
REMARK VINA RESULT:     -10.8      5.905      7.903
REMARK SMILES O=C(C[C@H]1C[C@H]2CC[C@@H](C1)[N@H+]2[C@@H]1CCCSC1)OCCOCCOC(=O)c1ccc(-c2c3nc(c(-c4c(F)cc(S(=O)(=O)[O-])cc4F)c4ccc([nH]4)c(-c4c(F)cc(S(=O)(=O)[O-])cc4F)c4nc(c(-c5c(F)cc(S(=O)(=O)[O-])cc5F)c5ccc2[nH]5)C=C4)C=C3)cc1
REMARK SMILES IDX 22 1 21 2 20 3 19 4 18 5 2 6 1 7 3 8 4 9 5 10 10 11 6 12
REMARK SMILES IDX 9 13 7 14 11 15 8 16 12 18 13 19 17 20 14 21 16 22 15 23
REMARK SMILES IDX 23 24 24 25 25 26 26 27 27 28 28 29 92 30 29 31 91 32 30 33
REMARK SMILES IDX 31 34 32 35 85 36 33 37 90 38 84 39 86 40 34 41 89 42 83 43
REMARK SMILES IDX 82 44 35 46 69 47 48 48 68 49 49 50 52 51 67 52 87 53 50 54
REMARK SMILES IDX 51 55 66 57 88 58 53 59 36 60 37 61 46 62 38 63 39 64 45 65
REMARK SMILES IDX 47 66 40 67 41 68 42 69 43 70 44 71 70 72 71 73 80 74 72 75
REMARK SMILES IDX 73 76 79 77 81 78 74 79 75 80 76 81 77 82 78 83 54 84 55 85
REMARK SMILES IDX 64 86 56 87 57 88 63 89 65 90 58 91 59 92 60 93 61 94 62 95
REMARK H PARENT 11 17 86 45 52 56
REMARK Flexibility Score: inf
ROOT
ATOM      1  C   UNL A   1      33.039  35.693  28.945  1.00  0.00     0.202 C 
ENDROOT
BRANCH   1   2
ATOM      2  O   UNL A   1      34.391  35.572  28.510  1.00  0.00    -0.374 OA
BRANCH   2   3
ATOM      3  C   UNL A   1      34.825  34.258  28.129  1.00  0.00     0.202 C 
BRANCH   3   4
ATOM      4  C   UNL A   1      34.140  33.088  28.843  1.00  0.00     0.261 C 
BRANCH   4   5
ATOM      5  O   UNL A   1      33.492  32.287  27.852  1.00  0.00    -0.463 OA
BRANCH   5   6
ATOM      6  C   UNL A   1      33.913  31.019  27.669  1.00  0.00     0.306 C 
ATOM      7  O   UNL A   1      35.020  30.583  27.937  1.00  0.00    -0.252 OA
BRANCH   6   8
ATOM      8  C   UNL A   1      32.710  30.204  27.250  1.00  0.00     0.126 C 
BRANCH   8   9
ATOM      9  C   UNL A   1      33.073  28.756  26.832  1.00  0.00     0.012 C 
ATOM     10  C   UNL A   1      31.883  27.776  26.697  1.00  0.00     0.069 C 
ATOM     11  C   UNL A   1      34.028  28.719  25.600  1.00  0.00     0.069 C 
ATOM     12  C   UNL A   1      31.456  27.477  25.260  1.00  0.00     0.185 C 
ATOM     13  C   UNL A   1      33.502  28.018  24.319  1.00  0.00     0.185 C 
ATOM     14  C   UNL A   1      31.225  28.727  24.394  1.00  0.00     0.071 C 
ATOM     15  N   UNL A   1      32.584  26.917  24.553  1.00  0.00    -0.327 N 
ATOM     16  C   UNL A   1      32.506  28.908  23.583  1.00  0.00     0.071 C 
ATOM     17  H   UNL A   1      32.325  26.527  23.647  1.00  0.00     0.348 HD
BRANCH  15  18
ATOM     18  C   UNL A   1      32.984  25.528  24.718  1.00  0.00     0.194 C 
ATOM     19  C   UNL A   1      34.365  25.350  25.372  1.00  0.00     0.067 C 
ATOM     20  C   UNL A   1      32.755  24.849  23.344  1.00  0.00     0.134 C 
ATOM     21  C   UNL A   1      35.035  23.997  25.182  1.00  0.00     0.017 C 
ATOM     22  S   UNL A   1      33.511  23.221  23.097  1.00  0.00    -0.156 SA
ATOM     23  C   UNL A   1      35.156  23.630  23.715  1.00  0.00     0.070 C 
ENDBRANCH  15  18
ENDBRANCH   8   9
ENDBRANCH   6   8
ENDBRANCH   5   6
ENDBRANCH   4   5
ENDBRANCH   3   4
ENDBRANCH   2   3
ENDBRANCH   1   2
BRANCH   1  24
ATOM     24  C   UNL A   1      32.838  36.691  30.088  1.00  0.00     0.261 C 
BRANCH  24  25
ATOM     25  O   UNL A   1      32.347  36.035  31.254  1.00  0.00    -0.460 OA
BRANCH  25  26
ATOM     26  C   UNL A   1      33.091  36.277  32.366  1.00  0.00     0.338 C 
ATOM     27  O   UNL A   1      32.891  37.126  33.219  1.00  0.00    -0.246 OA
BRANCH  26  28
ATOM     28  C   UNL A   1      34.067  35.179  32.495  1.00  0.00     0.060 A 
ATOM     29  C   UNL A   1      33.596  33.906  32.856  1.00  0.00     0.016 A 
ATOM     30  C   UNL A   1      35.412  35.377  32.170  1.00  0.00     0.016 A 
ATOM     31  C   UNL A   1      34.483  32.835  32.948  1.00  0.00     0.010 A 
ATOM     32  C   UNL A   1      36.298  34.315  32.271  1.00  0.00     0.010 A 
ATOM     33  C   UNL A   1      35.844  33.059  32.712  1.00  0.00    -0.014 A 
BRANCH  33  34
ATOM     34  C   UNL A   1      36.875  32.145  33.245  1.00  0.00     0.031 A 
ATOM     35  C   UNL A   1      37.487  32.545  34.557  1.00  0.00     0.074 A 
ATOM     36  C   UNL A   1      37.363  31.134  32.513  1.00  0.00     0.049 A 
ATOM     37  N   UNL A   1      38.614  32.176  35.096  1.00  0.00    -0.248 NA
ATOM     38  C   UNL A   1      36.738  33.544  35.341  1.00  0.00     0.031 C 
ATOM     39  C   UNL A   1      36.812  30.664  31.244  1.00  0.00     0.029 A 
ATOM     40  N   UNL A   1      38.476  30.359  32.712  1.00  0.00    -0.354 N 
ATOM     41  C   UNL A   1      38.731  32.930  36.258  1.00  0.00     0.074 A 
ATOM     42  C   UNL A   1      37.566  33.779  36.343  1.00  0.00     0.031 C 
ATOM     43  C   UNL A   1      37.622  29.711  30.748  1.00  0.00     0.029 A 
ATOM     44  C   UNL A   1      38.770  29.550  31.639  1.00  0.00     0.049 A 
ATOM     45  H   UNL A   1      39.012  30.381  33.537  1.00  0.00     0.167 HD
ATOM     46  C   UNL A   1      39.737  32.929  37.161  1.00  0.00     0.037 A 
ATOM     47  C   UNL A   1      39.872  28.815  31.390  1.00  0.00     0.037 A 
ATOM     48  C   UNL A   1      40.898  32.095  37.033  1.00  0.00     0.049 A 
ATOM     49  C   UNL A   1      40.994  28.830  32.397  1.00  0.00     0.074 A 
ATOM     50  C   UNL A   1      41.984  31.988  37.878  1.00  0.00     0.029 A 
ATOM     51  N   UNL A   1      41.122  31.230  35.969  1.00  0.00    -0.354 N 
ATOM     52  N   UNL A   1      41.098  29.532  33.504  1.00  0.00    -0.248 NA
ATOM     53  C   UNL A   1      42.148  27.964  32.126  1.00  0.00     0.031 C 
ATOM     54  C   UNL A   1      42.886  31.084  37.304  1.00  0.00     0.029 A 
ATOM     55  C   UNL A   1      42.336  30.590  36.128  1.00  0.00     0.049 A 
ATOM     56  H   UNL A   1      40.506  31.092  35.213  1.00  0.00     0.167 HD
ATOM     57  C   UNL A   1      42.314  29.173  34.075  1.00  0.00     0.074 A 
ATOM     58  C   UNL A   1      42.912  28.194  33.187  1.00  0.00     0.031 C 
ATOM     59  C   UNL A   1      42.885  29.606  35.227  1.00  0.00     0.037 A 
BRANCH  46  60
ATOM     60  C   UNL A   1      39.628  33.903  38.301  1.00  0.00     0.058 A 
ATOM     61  C   UNL A   1      40.229  35.172  38.254  1.00  0.00     0.135 A 
ATOM     62  C   UNL A   1      38.977  33.533  39.489  1.00  0.00     0.135 A 
ATOM     63  F   UNL A   1      40.891  35.565  37.152  1.00  0.00    -0.206 F 
ATOM     64  C   UNL A   1      40.236  36.017  39.359  1.00  0.00     0.059 A 
ATOM     65  C   UNL A   1      38.945  34.375  40.597  1.00  0.00     0.059 A 
ATOM     66  F   UNL A   1      38.394  32.329  39.595  1.00  0.00    -0.206 F 
ATOM     67  C   UNL A   1      39.600  35.604  40.531  1.00  0.00     0.060 A 
BRANCH  67  68
ATOM     68  S   UNL A   1      39.657  36.685  41.975  1.00  0.00     0.124 S 
ATOM     69  O   UNL A   1      39.277  37.968  41.392  1.00  0.00    -0.237 OA
ATOM     70  O   UNL A   1      38.672  36.076  42.863  1.00  0.00    -0.237 OA
ATOM     71  O   UNL A   1      41.044  36.584  42.419  1.00  0.00    -0.744 OA
ENDBRANCH  67  68
ENDBRANCH  46  60
BRANCH  47  72
ATOM     72  C   UNL A   1      39.961  28.031  30.129  1.00  0.00     0.058 A 
ATOM     73  C   UNL A   1      40.769  28.462  29.068  1.00  0.00     0.135 A 
ATOM     74  C   UNL A   1      39.303  26.798  29.989  1.00  0.00     0.135 A 
ATOM     75  F   UNL A   1      41.407  29.640  29.148  1.00  0.00    -0.206 F 
ATOM     76  C   UNL A   1      40.936  27.694  27.918  1.00  0.00     0.059 A 
ATOM     77  C   UNL A   1      39.470  26.003  28.858  1.00  0.00     0.059 A 
ATOM     78  F   UNL A   1      38.526  26.335  30.980  1.00  0.00    -0.206 F 
ATOM     79  C   UNL A   1      40.293  26.458  27.829  1.00  0.00     0.060 A 
BRANCH  79  80
ATOM     80  S   UNL A   1      40.610  25.419  26.384  1.00  0.00     0.124 S 
ATOM     81  O   UNL A   1      40.940  26.416  25.372  1.00  0.00    -0.237 OA
ATOM     82  O   UNL A   1      41.716  24.586  26.845  1.00  0.00    -0.237 OA
ATOM     83  O   UNL A   1      39.345  24.717  26.192  1.00  0.00    -0.744 OA
ENDBRANCH  79  80
ENDBRANCH  47  72
BRANCH  59  84
ATOM     84  C   UNL A   1      44.195  28.992  35.627  1.00  0.00     0.058 A 
ATOM     85  C   UNL A   1      45.421  29.568  35.268  1.00  0.00     0.135 A 
ATOM     86  C   UNL A   1      44.211  27.876  36.479  1.00  0.00     0.135 A 
ATOM     87  F   UNL A   1      45.456  30.634  34.454  1.00  0.00    -0.206 F 
ATOM     88  C   UNL A   1      46.625  29.055  35.740  1.00  0.00     0.059 A 
ATOM     89  C   UNL A   1      45.401  27.361  36.981  1.00  0.00     0.059 A 
ATOM     90  F   UNL A   1      43.060  27.299  36.861  1.00  0.00    -0.206 F 
ATOM     91  C   UNL A   1      46.603  27.955  36.603  1.00  0.00     0.060 A 
BRANCH  91  92
ATOM     92  S   UNL A   1      48.166  27.344  37.267  1.00  0.00     0.124 S 
ATOM     93  O   UNL A   1      48.195  27.982  38.580  1.00  0.00    -0.237 OA
ATOM     94  O   UNL A   1      47.962  25.898  37.270  1.00  0.00    -0.237 OA
ATOM     95  O   UNL A   1      49.155  27.830  36.311  1.00  0.00    -0.744 OA
ENDBRANCH  91  92
ENDBRANCH  59  84
ENDBRANCH  33  34
ENDBRANCH  26  28
ENDBRANCH  25  26
ENDBRANCH  24  25
ENDBRANCH   1  24
TORSDOF 19
ENDMDL
