MODEL 1
REMARK VINA RESULT:     -10.9      0.000      0.000
REMARK SMILES Cc1cc(C)c2c(=O)n(CCCC(=O)OCCOCCOC(=O)c3ccc(-c4c5nc(c(-c6c(F)cc(S(=O)(=O)[O-])cc6F)c6ccc([nH]6)c(-c6c(F)cc(S(=O)(=O)[O-])cc6F)c6nc(c(-c7c(F)cc(S(=O)(=O)[O-])cc7F)c7ccc4[nH]7)C=C6)C=C5)cc3)sc2n1
REMARK SMILES IDX 18 1 17 2 16 3 15 4 13 5 14 6 12 7 11 8 10 9 9 10 1 11 2 12
REMARK SMILES IDX 3 13 92 14 4 15 91 16 5 17 6 18 90 19 7 20 8 21 19 22 20 23
REMARK SMILES IDX 21 24 22 25 23 26 24 27 25 28 89 29 26 30 88 31 27 32 28 33
REMARK SMILES IDX 29 34 82 35 30 36 87 37 81 38 83 39 31 40 86 41 80 42 79 43
REMARK SMILES IDX 32 45 66 46 45 47 65 48 46 49 49 50 64 51 84 52 47 53 48 54
REMARK SMILES IDX 63 56 85 57 50 58 33 59 34 60 43 61 35 62 36 63 42 64 44 65
REMARK SMILES IDX 37 66 38 67 39 68 40 69 41 70 67 71 68 72 77 73 69 74 70 75
REMARK SMILES IDX 76 76 78 77 71 78 72 79 73 80 74 81 75 82 51 83 52 84 61 85
REMARK SMILES IDX 53 86 54 87 60 88 62 89 55 90 56 91 57 92 58 93 59 94
REMARK H PARENT 83 44 49 55
REMARK Flexibility Score: inf
ROOT
ATOM      1  O   UNL A   1      44.647  18.115  26.095  1.00  0.00    -0.374 OA
ENDROOT
BRANCH   1   2
ATOM      2  C   UNL A   1      43.332  18.334  26.609  1.00  0.00     0.202 C 
BRANCH   2   3
ATOM      3  C   UNL A   1      42.382  19.144  25.736  1.00  0.00     0.261 C 
BRANCH   3   4
ATOM      4  O   UNL A   1      41.608  20.041  26.547  1.00  0.00    -0.463 OA
BRANCH   4   5
ATOM      5  C   UNL A   1      40.338  20.284  26.151  1.00  0.00     0.305 C 
ATOM      6  O   UNL A   1      39.568  19.443  25.700  1.00  0.00    -0.252 OA
BRANCH   5   7
ATOM      7  C   UNL A   1      39.924  21.730  26.347  1.00  0.00     0.124 C 
BRANCH   7   8
ATOM      8  C   UNL A   1      38.443  22.123  26.270  1.00  0.00     0.035 C 
BRANCH   8   9
ATOM      9  C   UNL A   1      37.775  22.291  24.897  1.00  0.00     0.139 C 
BRANCH   9  10
ATOM     10  N   UNL A   1      36.331  22.388  24.914  1.00  0.00    -0.262 N 
ATOM     11  C   UNL A   1      30.661  23.904  23.436  1.00  0.00     0.067 C 
ATOM     12  C   UNL A   1      31.832  23.137  23.963  1.00  0.00     0.039 A 
ATOM     13  C   UNL A   1      31.765  21.746  24.146  1.00  0.00     0.027 A 
ATOM     14  N   UNL A   1      32.941  23.857  24.227  1.00  0.00    -0.241 NA
ATOM     15  C   UNL A   1      32.908  21.033  24.541  1.00  0.00    -0.033 A 
ATOM     16  C   UNL A   1      34.016  23.145  24.594  1.00  0.00     0.146 A 
ATOM     17  C   UNL A   1      32.861  19.557  24.787  1.00  0.00     0.045 C 
ATOM     18  C   UNL A   1      34.074  21.768  24.695  1.00  0.00     0.081 A 
ATOM     19  S   UNL A   1      35.551  23.906  24.986  1.00  0.00    -0.035 S 
ATOM     20  C   UNL A   1      35.468  21.300  24.870  1.00  0.00     0.270 A 
ATOM     21  O   UNL A   1      35.781  20.122  24.889  1.00  0.00    -0.268 OA
ENDBRANCH   9  10
ENDBRANCH   8   9
ENDBRANCH   7   8
ENDBRANCH   5   7
ENDBRANCH   4   5
ENDBRANCH   3   4
ENDBRANCH   2   3
ENDBRANCH   1   2
BRANCH   1  22
ATOM     22  C   UNL A   1      45.015  18.673  24.836  1.00  0.00     0.202 C 
BRANCH  22  23
ATOM     23  C   UNL A   1      46.209  19.615  24.791  1.00  0.00     0.261 C 
BRANCH  23  24
ATOM     24  O   UNL A   1      45.926  20.873  25.388  1.00  0.00    -0.460 OA
BRANCH  24  25
ATOM     25  C   UNL A   1      44.987  21.586  24.716  1.00  0.00     0.338 C 
ATOM     26  O   UNL A   1      44.858  21.673  23.513  1.00  0.00    -0.246 OA
BRANCH  25  27
ATOM     27  C   UNL A   1      44.217  22.378  25.681  1.00  0.00     0.060 A 
ATOM     28  C   UNL A   1      43.128  23.065  25.152  1.00  0.00     0.016 A 
ATOM     29  C   UNL A   1      44.746  22.678  26.945  1.00  0.00     0.016 A 
ATOM     30  C   UNL A   1      42.757  24.236  25.766  1.00  0.00     0.010 A 
ATOM     31  C   UNL A   1      44.353  23.832  27.575  1.00  0.00     0.010 A 
ATOM     32  C   UNL A   1      43.450  24.650  26.913  1.00  0.00    -0.014 A 
BRANCH  32  33
ATOM     33  C   UNL A   1      43.126  25.952  27.445  1.00  0.00     0.031 A 
ATOM     34  C   UNL A   1      44.166  26.942  27.108  1.00  0.00     0.074 A 
ATOM     35  C   UNL A   1      42.011  26.209  28.153  1.00  0.00     0.049 A 
ATOM     36  N   UNL A   1      45.097  27.377  27.888  1.00  0.00    -0.248 NA
ATOM     37  C   UNL A   1      44.358  27.276  25.690  1.00  0.00     0.031 C 
ATOM     38  C   UNL A   1      40.826  25.374  28.356  1.00  0.00     0.029 A 
ATOM     39  N   UNL A   1      41.692  27.351  28.816  1.00  0.00    -0.354 N 
ATOM     40  C   UNL A   1      45.844  28.250  27.112  1.00  0.00     0.074 A 
ATOM     41  C   UNL A   1      45.495  27.971  25.744  1.00  0.00     0.031 C 
ATOM     42  C   UNL A   1      39.836  26.126  28.897  1.00  0.00     0.029 A 
ATOM     43  C   UNL A   1      40.364  27.442  29.215  1.00  0.00     0.049 A 
ATOM     44  H   UNL A   1      42.352  28.059  29.000  1.00  0.00     0.167 HD
ATOM     45  C   UNL A   1      46.461  29.318  27.685  1.00  0.00     0.037 A 
ATOM     46  C   UNL A   1      39.762  28.554  29.716  1.00  0.00     0.037 A 
ATOM     47  C   UNL A   1      46.605  29.125  29.110  1.00  0.00     0.049 A 
ATOM     48  C   UNL A   1      40.852  29.414  30.261  1.00  0.00     0.074 A 
ATOM     49  C   UNL A   1      47.250  28.193  29.900  1.00  0.00     0.029 A 
ATOM     50  N   UNL A   1      45.693  29.745  29.930  1.00  0.00    -0.354 N 
ATOM     51  N   UNL A   1      41.585  29.077  31.290  1.00  0.00    -0.248 NA
ATOM     52  C   UNL A   1      41.451  30.392  29.364  1.00  0.00     0.031 C 
ATOM     53  C   UNL A   1      46.379  27.977  31.008  1.00  0.00     0.029 A 
ATOM     54  C   UNL A   1      45.287  28.836  30.874  1.00  0.00     0.049 A 
ATOM     55  H   UNL A   1      45.385  30.676  29.853  1.00  0.00     0.167 HD
ATOM     56  C   UNL A   1      42.876  29.462  30.952  1.00  0.00     0.074 A 
ATOM     57  C   UNL A   1      42.719  30.320  29.778  1.00  0.00     0.031 C 
ATOM     58  C   UNL A   1      43.968  28.824  31.471  1.00  0.00     0.037 A 
BRANCH  45  59
ATOM     59  C   UNL A   1      46.529  30.680  27.035  1.00  0.00     0.058 A 
ATOM     60  C   UNL A   1      47.775  31.334  26.965  1.00  0.00     0.135 A 
ATOM     61  C   UNL A   1      45.402  31.488  26.751  1.00  0.00     0.135 A 
ATOM     62  F   UNL A   1      48.913  30.666  27.207  1.00  0.00    -0.206 F 
ATOM     63  C   UNL A   1      47.884  32.705  26.731  1.00  0.00     0.059 A 
ATOM     64  C   UNL A   1      45.494  32.842  26.465  1.00  0.00     0.059 A 
ATOM     65  F   UNL A   1      44.145  31.039  26.828  1.00  0.00    -0.206 F 
ATOM     66  C   UNL A   1      46.734  33.452  26.502  1.00  0.00     0.060 A 
BRANCH  66  67
ATOM     67  S   UNL A   1      46.859  35.235  26.315  1.00  0.00     0.124 S 
ATOM     68  O   UNL A   1      45.572  35.554  25.710  1.00  0.00    -0.237 OA
ATOM     69  O   UNL A   1      47.045  35.666  27.696  1.00  0.00    -0.237 OA
ATOM     70  O   UNL A   1      48.023  35.401  25.449  1.00  0.00    -0.744 OA
ENDBRANCH  66  67
ENDBRANCH  45  59
BRANCH  46  71
ATOM     71  C   UNL A   1      38.423  29.102  29.352  1.00  0.00     0.058 A 
ATOM     72  C   UNL A   1      37.463  29.400  30.339  1.00  0.00     0.135 A 
ATOM     73  C   UNL A   1      38.164  29.622  28.067  1.00  0.00     0.135 A 
ATOM     74  F   UNL A   1      37.634  28.964  31.597  1.00  0.00    -0.206 F 
ATOM     75  C   UNL A   1      36.347  30.208  30.083  1.00  0.00     0.059 A 
ATOM     76  C   UNL A   1      37.056  30.423  27.787  1.00  0.00     0.059 A 
ATOM     77  F   UNL A   1      39.030  29.441  27.060  1.00  0.00    -0.206 F 
ATOM     78  C   UNL A   1      36.164  30.736  28.806  1.00  0.00     0.060 A 
BRANCH  78  79
ATOM     79  S   UNL A   1      34.821  31.913  28.507  1.00  0.00     0.124 S 
ATOM     80  O   UNL A   1      35.458  32.879  27.619  1.00  0.00    -0.237 OA
ATOM     81  O   UNL A   1      33.800  31.067  27.900  1.00  0.00    -0.237 OA
ATOM     82  O   UNL A   1      34.501  32.411  29.842  1.00  0.00    -0.744 OA
ENDBRANCH  78  79
ENDBRANCH  46  71
BRANCH  58  83
ATOM     83  C   UNL A   1      43.762  27.878  32.629  1.00  0.00     0.058 A 
ATOM     84  C   UNL A   1      43.505  28.278  33.953  1.00  0.00     0.135 A 
ATOM     85  C   UNL A   1      43.649  26.510  32.342  1.00  0.00     0.135 A 
ATOM     86  F   UNL A   1      43.500  29.575  34.293  1.00  0.00    -0.206 F 
ATOM     87  C   UNL A   1      43.176  27.352  34.950  1.00  0.00     0.059 A 
ATOM     88  C   UNL A   1      43.294  25.575  33.310  1.00  0.00     0.059 A 
ATOM     89  F   UNL A   1      43.826  26.071  31.084  1.00  0.00    -0.206 F 
ATOM     90  C   UNL A   1      43.067  26.002  34.616  1.00  0.00     0.060 A 
BRANCH  90  91
ATOM     91  S   UNL A   1      42.565  24.813  35.882  1.00  0.00     0.124 S 
ATOM     92  O   UNL A   1      43.180  25.366  37.084  1.00  0.00    -0.237 OA
ATOM     93  O   UNL A   1      41.108  24.886  35.823  1.00  0.00    -0.237 OA
ATOM     94  O   UNL A   1      43.136  23.553  35.414  1.00  0.00    -0.744 OA
ENDBRANCH  90  91
ENDBRANCH  58  83
ENDBRANCH  32  33
ENDBRANCH  25  27
ENDBRANCH  24  25
ENDBRANCH  23  24
ENDBRANCH  22  23
ENDBRANCH   1  22
TORSDOF 20
ENDMDL
MODEL 2
REMARK VINA RESULT:     -10.9      2.790      4.693
REMARK SMILES Cc1cc(C)c2c(=O)n(CCCC(=O)OCCOCCOC(=O)c3ccc(-c4c5nc(c(-c6c(F)cc(S(=O)(=O)[O-])cc6F)c6ccc([nH]6)c(-c6c(F)cc(S(=O)(=O)[O-])cc6F)c6nc(c(-c7c(F)cc(S(=O)(=O)[O-])cc7F)c7ccc4[nH]7)C=C6)C=C5)cc3)sc2n1
REMARK SMILES IDX 18 1 17 2 16 3 15 4 13 5 14 6 12 7 11 8 10 9 9 10 1 11 2 12
REMARK SMILES IDX 3 13 92 14 4 15 91 16 5 17 6 18 90 19 7 20 8 21 19 22 20 23
REMARK SMILES IDX 21 24 22 25 23 26 24 27 25 28 89 29 26 30 88 31 27 32 28 33
REMARK SMILES IDX 29 34 82 35 30 36 87 37 81 38 83 39 31 40 86 41 80 42 79 43
REMARK SMILES IDX 32 45 66 46 45 47 65 48 46 49 49 50 64 51 84 52 47 53 48 54
REMARK SMILES IDX 63 56 85 57 50 58 33 59 34 60 43 61 35 62 36 63 42 64 44 65
REMARK SMILES IDX 37 66 38 67 39 68 40 69 41 70 67 71 68 72 77 73 69 74 70 75
REMARK SMILES IDX 76 76 78 77 71 78 72 79 73 80 74 81 75 82 51 83 52 84 61 85
REMARK SMILES IDX 53 86 54 87 60 88 62 89 55 90 56 91 57 92 58 93 59 94
REMARK H PARENT 83 44 49 55
REMARK Flexibility Score: inf
ROOT
ATOM      1  O   UNL A   1      37.111  22.266  24.783  1.00  0.00    -0.374 OA
ENDROOT
BRANCH   1   2
ATOM      2  C   UNL A   1      35.696  22.169  24.617  1.00  0.00     0.202 C 
BRANCH   2   3
ATOM      3  C   UNL A   1      35.069  20.802  24.865  1.00  0.00     0.261 C 
BRANCH   3   4
ATOM      4  O   UNL A   1      33.804  20.950  25.526  1.00  0.00    -0.463 OA
BRANCH   4   5
ATOM      5  C   UNL A   1      32.696  20.717  24.785  1.00  0.00     0.305 C 
ATOM      6  O   UNL A   1      31.804  19.931  25.083  1.00  0.00    -0.252 OA
BRANCH   5   7
ATOM      7  C   UNL A   1      32.636  21.563  23.529  1.00  0.00     0.124 C 
BRANCH   7   8
ATOM      8  C   UNL A   1      31.885  22.901  23.537  1.00  0.00     0.035 C 
BRANCH   8   9
ATOM      9  C   UNL A   1      32.356  24.028  24.470  1.00  0.00     0.139 C 
BRANCH   9  10
ATOM     10  N   UNL A   1      32.007  25.369  24.053  1.00  0.00    -0.262 N 
ATOM     11  C   UNL A   1      28.910  30.062  21.810  1.00  0.00     0.067 C 
ATOM     12  C   UNL A   1      29.867  29.256  22.631  1.00  0.00     0.039 A 
ATOM     13  C   UNL A   1      30.357  29.738  23.856  1.00  0.00     0.027 A 
ATOM     14  N   UNL A   1      30.206  28.051  22.131  1.00  0.00    -0.241 NA
ATOM     15  C   UNL A   1      31.170  28.922  24.659  1.00  0.00    -0.033 A 
ATOM     16  C   UNL A   1      30.977  27.294  22.926  1.00  0.00     0.146 A 
ATOM     17  C   UNL A   1      31.743  29.419  25.949  1.00  0.00     0.045 C 
ATOM     18  C   UNL A   1      31.415  27.640  24.191  1.00  0.00     0.081 A 
ATOM     19  S   UNL A   1      31.528  25.695  22.446  1.00  0.00    -0.035 S 
ATOM     20  C   UNL A   1      32.021  26.481  24.885  1.00  0.00     0.270 A 
ATOM     21  O   UNL A   1      32.395  26.517  26.045  1.00  0.00    -0.268 OA
ENDBRANCH   9  10
ENDBRANCH   8   9
ENDBRANCH   7   8
ENDBRANCH   5   7
ENDBRANCH   4   5
ENDBRANCH   3   4
ENDBRANCH   2   3
ENDBRANCH   1   2
BRANCH   1  22
ATOM     22  C   UNL A   1      37.876  21.088  25.029  1.00  0.00     0.202 C 
BRANCH  22  23
ATOM     23  C   UNL A   1      39.099  21.202  25.927  1.00  0.00     0.261 C 
BRANCH  23  24
ATOM     24  O   UNL A   1      39.112  22.414  26.669  1.00  0.00    -0.460 OA
BRANCH  24  25
ATOM     25  C   UNL A   1      40.261  22.604  27.365  1.00  0.00     0.338 C 
ATOM     26  O   UNL A   1      40.850  21.785  28.040  1.00  0.00    -0.246 OA
BRANCH  25  27
ATOM     27  C   UNL A   1      40.620  24.025  27.304  1.00  0.00     0.060 A 
ATOM     28  C   UNL A   1      41.775  24.377  27.997  1.00  0.00     0.016 A 
ATOM     29  C   UNL A   1      39.688  24.981  26.872  1.00  0.00     0.016 A 
ATOM     30  C   UNL A   1      41.848  25.651  28.502  1.00  0.00     0.010 A 
ATOM     31  C   UNL A   1      39.779  26.263  27.352  1.00  0.00     0.010 A 
ATOM     32  C   UNL A   1      40.793  26.541  28.255  1.00  0.00    -0.014 A 
BRANCH  32  33
ATOM     33  C   UNL A   1      40.840  27.821  28.920  1.00  0.00     0.031 A 
ATOM     34  C   UNL A   1      41.914  28.671  28.372  1.00  0.00     0.074 A 
ATOM     35  C   UNL A   1      40.000  28.176  29.909  1.00  0.00     0.049 A 
ATOM     36  N   UNL A   1      43.071  28.885  28.899  1.00  0.00    -0.248 NA
ATOM     37  C   UNL A   1      41.796  29.104  26.972  1.00  0.00     0.031 C 
ATOM     38  C   UNL A   1      38.780  27.515  30.375  1.00  0.00     0.029 A 
ATOM     39  N   UNL A   1      40.058  29.286  30.692  1.00  0.00    -0.354 N 
ATOM     40  C   UNL A   1      43.736  29.704  27.999  1.00  0.00     0.074 A 
ATOM     41  C   UNL A   1      43.011  29.611  26.760  1.00  0.00     0.031 C 
ATOM     42  C   UNL A   1      38.101  28.353  31.197  1.00  0.00     0.029 A 
ATOM     43  C   UNL A   1      38.909  29.538  31.431  1.00  0.00     0.049 A 
ATOM     44  H   UNL A   1      40.853  29.865  30.731  1.00  0.00     0.167 HD
ATOM     45  C   UNL A   1      44.650  30.608  28.443  1.00  0.00     0.037 A 
ATOM     46  C   UNL A   1      38.651  30.677  32.130  1.00  0.00     0.037 A 
ATOM     47  C   UNL A   1      45.114  30.262  29.767  1.00  0.00     0.049 A 
ATOM     48  C   UNL A   1      39.973  31.307  32.411  1.00  0.00     0.074 A 
ATOM     49  C   UNL A   1      45.769  29.174  30.310  1.00  0.00     0.029 A 
ATOM     50  N   UNL A   1      44.557  30.934  30.830  1.00  0.00    -0.354 N 
ATOM     51  N   UNL A   1      40.874  30.768  33.191  1.00  0.00    -0.248 NA
ATOM     52  C   UNL A   1      40.484  32.263  31.439  1.00  0.00     0.031 C 
ATOM     53  C   UNL A   1      45.182  28.989  31.597  1.00  0.00     0.029 A 
ATOM     54  C   UNL A   1      44.254  30.012  31.800  1.00  0.00     0.049 A 
ATOM     55  H   UNL A   1      44.403  31.904  30.886  1.00  0.00     0.167 HD
ATOM     56  C   UNL A   1      42.084  30.984  32.544  1.00  0.00     0.074 A 
ATOM     57  C   UNL A   1      41.784  31.963  31.499  1.00  0.00     0.031 C 
ATOM     58  C   UNL A   1      43.146  30.143  32.723  1.00  0.00     0.037 A 
BRANCH  45  59
ATOM     59  C   UNL A   1      44.783  31.999  27.869  1.00  0.00     0.058 A 
ATOM     60  C   UNL A   1      45.945  32.323  27.142  1.00  0.00     0.135 A 
ATOM     61  C   UNL A   1      43.975  33.099  28.244  1.00  0.00     0.135 A 
ATOM     62  F   UNL A   1      46.782  31.360  26.726  1.00  0.00    -0.206 F 
ATOM     63  C   UNL A   1      46.326  33.641  26.896  1.00  0.00     0.059 A 
ATOM     64  C   UNL A   1      44.311  34.416  27.964  1.00  0.00     0.059 A 
ATOM     65  F   UNL A   1      42.869  32.973  28.985  1.00  0.00    -0.206 F 
ATOM     66  C   UNL A   1      45.510  34.680  27.330  1.00  0.00     0.060 A 
BRANCH  66  67
ATOM     67  S   UNL A   1      46.053  36.380  27.117  1.00  0.00     0.124 S 
ATOM     68  O   UNL A   1      46.801  36.602  28.348  1.00  0.00    -0.237 OA
ATOM     69  O   UNL A   1      46.841  36.290  25.893  1.00  0.00    -0.237 OA
ATOM     70  O   UNL A   1      44.800  37.120  26.997  1.00  0.00    -0.744 OA
ENDBRANCH  66  67
ENDBRANCH  45  59
BRANCH  46  71
ATOM     71  C   UNL A   1      37.376  31.452  32.161  1.00  0.00     0.058 A 
ATOM     72  C   UNL A   1      36.875  31.985  33.366  1.00  0.00     0.135 A 
ATOM     73  C   UNL A   1      36.782  31.940  30.980  1.00  0.00     0.135 A 
ATOM     74  F   UNL A   1      37.394  31.594  34.541  1.00  0.00    -0.206 F 
ATOM     75  C   UNL A   1      35.887  32.977  33.395  1.00  0.00     0.059 A 
ATOM     76  C   UNL A   1      35.792  32.924  30.984  1.00  0.00     0.059 A 
ATOM     77  F   UNL A   1      37.209  31.540  29.773  1.00  0.00    -0.206 F 
ATOM     78  C   UNL A   1      35.367  33.459  32.195  1.00  0.00     0.060 A 
BRANCH  78  79
ATOM     79  S   UNL A   1      34.214  34.855  32.214  1.00  0.00     0.124 S 
ATOM     80  O   UNL A   1      33.035  34.266  32.837  1.00  0.00    -0.237 OA
ATOM     81  O   UNL A   1      34.935  35.839  33.016  1.00  0.00    -0.237 OA
ATOM     82  O   UNL A   1      34.067  35.195  30.800  1.00  0.00    -0.744 OA
ENDBRANCH  78  79
ENDBRANCH  46  71
BRANCH  58  83
ATOM     83  C   UNL A   1      43.081  29.134  33.844  1.00  0.00     0.058 A 
ATOM     84  C   UNL A   1      43.467  29.388  35.173  1.00  0.00     0.135 A 
ATOM     85  C   UNL A   1      42.436  27.915  33.588  1.00  0.00     0.135 A 
ATOM     86  F   UNL A   1      44.005  30.566  35.521  1.00  0.00    -0.206 F 
ATOM     87  C   UNL A   1      43.242  28.459  36.194  1.00  0.00     0.059 A 
ATOM     88  C   UNL A   1      42.175  26.989  34.594  1.00  0.00     0.059 A 
ATOM     89  F   UNL A   1      41.992  27.637  32.351  1.00  0.00    -0.206 F 
ATOM     90  C   UNL A   1      42.589  27.263  35.895  1.00  0.00     0.060 A 
BRANCH  90  91
ATOM     91  S   UNL A   1      42.226  26.094  37.225  1.00  0.00     0.124 S 
ATOM     92  O   UNL A   1      42.592  24.817  36.621  1.00  0.00    -0.237 OA
ATOM     93  O   UNL A   1      43.097  26.560  38.301  1.00  0.00    -0.237 OA
ATOM     94  O   UNL A   1      40.798  26.281  37.466  1.00  0.00    -0.744 OA
ENDBRANCH  90  91
ENDBRANCH  58  83
ENDBRANCH  32  33
ENDBRANCH  25  27
ENDBRANCH  24  25
ENDBRANCH  23  24
ENDBRANCH  22  23
ENDBRANCH   1  22
TORSDOF 20
ENDMDL
MODEL 3
REMARK VINA RESULT:     -10.9      2.597      9.961
REMARK SMILES Cc1cc(C)c2c(=O)n(CCCC(=O)OCCOCCOC(=O)c3ccc(-c4c5nc(c(-c6c(F)cc(S(=O)(=O)[O-])cc6F)c6ccc([nH]6)c(-c6c(F)cc(S(=O)(=O)[O-])cc6F)c6nc(c(-c7c(F)cc(S(=O)(=O)[O-])cc7F)c7ccc4[nH]7)C=C6)C=C5)cc3)sc2n1
REMARK SMILES IDX 18 1 17 2 16 3 15 4 13 5 14 6 12 7 11 8 10 9 9 10 1 11 2 12
REMARK SMILES IDX 3 13 92 14 4 15 91 16 5 17 6 18 90 19 7 20 8 21 19 22 20 23
REMARK SMILES IDX 21 24 22 25 23 26 24 27 25 28 89 29 26 30 88 31 27 32 28 33
REMARK SMILES IDX 29 34 82 35 30 36 87 37 81 38 83 39 31 40 86 41 80 42 79 43
REMARK SMILES IDX 32 45 66 46 45 47 65 48 46 49 49 50 64 51 84 52 47 53 48 54
REMARK SMILES IDX 63 56 85 57 50 58 33 59 34 60 43 61 35 62 36 63 42 64 44 65
REMARK SMILES IDX 37 66 38 67 39 68 40 69 41 70 67 71 68 72 77 73 69 74 70 75
REMARK SMILES IDX 76 76 78 77 71 78 72 79 73 80 74 81 75 82 51 83 52 84 61 85
REMARK SMILES IDX 53 86 54 87 60 88 62 89 55 90 56 91 57 92 58 93 59 94
REMARK H PARENT 83 44 49 55
REMARK Flexibility Score: inf
ROOT
ATOM      1  O   UNL A   1      32.503  30.075  25.940  1.00  0.00    -0.374 OA
ENDROOT
BRANCH   1   2
ATOM      2  C   UNL A   1      33.107  29.220  24.968  1.00  0.00     0.202 C 
BRANCH   2   3
ATOM      3  C   UNL A   1      32.309  28.959  23.695  1.00  0.00     0.261 C 
BRANCH   3   4
ATOM      4  O   UNL A   1      30.911  28.858  23.999  1.00  0.00    -0.463 OA
BRANCH   4   5
ATOM      5  C   UNL A   1      30.123  28.268  23.071  1.00  0.00     0.305 C 
ATOM      6  O   UNL A   1      29.976  28.660  21.920  1.00  0.00    -0.252 OA
BRANCH   5   7
ATOM      7  C   UNL A   1      29.438  27.017  23.588  1.00  0.00     0.124 C 
BRANCH   7   8
ATOM      8  C   UNL A   1      30.259  25.921  24.280  1.00  0.00     0.035 C 
BRANCH   8   9
ATOM      9  C   UNL A   1      31.490  25.335  23.570  1.00  0.00     0.139 C 
BRANCH   9  10
ATOM     10  N   UNL A   1      32.007  24.106  24.133  1.00  0.00    -0.262 N 
ATOM     11  C   UNL A   1      32.763  18.229  25.370  1.00  0.00     0.067 C 
ATOM     12  C   UNL A   1      33.050  19.682  25.157  1.00  0.00     0.039 A 
ATOM     13  C   UNL A   1      34.351  20.131  24.878  1.00  0.00     0.027 A 
ATOM     14  N   UNL A   1      31.990  20.512  25.231  1.00  0.00    -0.241 NA
ATOM     15  C   UNL A   1      34.579  21.484  24.577  1.00  0.00    -0.033 A 
ATOM     16  C   UNL A   1      32.241  21.794  24.931  1.00  0.00     0.146 A 
ATOM     17  C   UNL A   1      35.959  22.003  24.319  1.00  0.00     0.045 C 
ATOM     18  C   UNL A   1      33.464  22.306  24.540  1.00  0.00     0.081 A 
ATOM     19  S   UNL A   1      30.988  23.027  24.979  1.00  0.00    -0.035 S 
ATOM     20  C   UNL A   1      33.330  23.693  24.040  1.00  0.00     0.270 A 
ATOM     21  O   UNL A   1      34.256  24.321  23.553  1.00  0.00    -0.268 OA
ENDBRANCH   9  10
ENDBRANCH   8   9
ENDBRANCH   7   8
ENDBRANCH   5   7
ENDBRANCH   4   5
ENDBRANCH   3   4
ENDBRANCH   2   3
ENDBRANCH   1   2
BRANCH   1  22
ATOM     22  C   UNL A   1      33.181  30.341  27.164  1.00  0.00     0.202 C 
BRANCH  22  23
ATOM     23  C   UNL A   1      33.460  31.793  27.529  1.00  0.00     0.261 C 
BRANCH  23  24
ATOM     24  O   UNL A   1      34.294  31.910  28.673  1.00  0.00    -0.460 OA
BRANCH  24  25
ATOM     25  C   UNL A   1      35.565  32.280  28.375  1.00  0.00     0.338 C 
ATOM     26  O   UNL A   1      35.915  33.060  27.514  1.00  0.00    -0.246 OA
BRANCH  25  27
ATOM     27  C   UNL A   1      36.492  31.466  29.168  1.00  0.00     0.060 A 
ATOM     28  C   UNL A   1      37.613  32.137  29.646  1.00  0.00     0.016 A 
ATOM     29  C   UNL A   1      36.414  30.065  29.145  1.00  0.00     0.016 A 
ATOM     30  C   UNL A   1      38.760  31.406  29.831  1.00  0.00     0.010 A 
ATOM     31  C   UNL A   1      37.553  29.331  29.361  1.00  0.00     0.010 A 
ATOM     32  C   UNL A   1      38.732  30.026  29.583  1.00  0.00    -0.014 A 
BRANCH  32  33
ATOM     33  C   UNL A   1      39.988  29.318  29.651  1.00  0.00     0.031 A 
ATOM     34  C   UNL A   1      40.385  29.063  31.048  1.00  0.00     0.074 A 
ATOM     35  C   UNL A   1      40.690  28.944  28.566  1.00  0.00     0.049 A 
ATOM     36  N   UNL A   1      41.258  29.719  31.733  1.00  0.00    -0.248 NA
ATOM     37  C   UNL A   1      39.533  28.171  31.848  1.00  0.00     0.031 C 
ATOM     38  C   UNL A   1      40.295  28.948  27.156  1.00  0.00     0.029 A 
ATOM     39  N   UNL A   1      41.941  28.413  28.526  1.00  0.00    -0.354 N 
ATOM     40  C   UNL A   1      41.246  29.139  32.992  1.00  0.00     0.074 A 
ATOM     41  C   UNL A   1      40.031  28.372  33.069  1.00  0.00     0.031 C 
ATOM     42  C   UNL A   1      41.197  28.235  26.436  1.00  0.00     0.029 A 
ATOM     43  C   UNL A   1      42.300  27.859  27.303  1.00  0.00     0.049 A 
ATOM     44  H   UNL A   1      42.544  28.421  29.304  1.00  0.00     0.167 HD
ATOM     45  C   UNL A   1      42.379  29.110  33.743  1.00  0.00     0.037 A 
ATOM     46  C   UNL A   1      43.408  27.105  27.071  1.00  0.00     0.037 A 
ATOM     47  C   UNL A   1      43.328  30.097  33.281  1.00  0.00     0.049 A 
ATOM     48  C   UNL A   1      44.384  27.447  28.146  1.00  0.00     0.074 A 
ATOM     49  C   UNL A   1      43.312  31.474  33.165  1.00  0.00     0.029 A 
ATOM     50  N   UNL A   1      44.354  29.664  32.475  1.00  0.00    -0.354 N 
ATOM     51  N   UNL A   1      44.939  28.625  28.262  1.00  0.00    -0.248 NA
ATOM     52  C   UNL A   1      44.349  26.653  29.365  1.00  0.00     0.031 C 
ATOM     53  C   UNL A   1      44.007  31.754  31.951  1.00  0.00     0.029 A 
ATOM     54  C   UNL A   1      44.470  30.545  31.429  1.00  0.00     0.049 A 
ATOM     55  H   UNL A   1      44.907  28.864  32.621  1.00  0.00     0.167 HD
ATOM     56  C   UNL A   1      44.938  28.890  29.625  1.00  0.00     0.074 A 
ATOM     57  C   UNL A   1      44.615  27.611  30.258  1.00  0.00     0.031 C 
ATOM     58  C   UNL A   1      44.911  30.171  30.102  1.00  0.00     0.037 A 
BRANCH  45  59
ATOM     59  C   UNL A   1      42.784  27.921  34.584  1.00  0.00     0.058 A 
ATOM     60  C   UNL A   1      42.931  28.096  35.974  1.00  0.00     0.135 A 
ATOM     61  C   UNL A   1      43.312  26.716  34.064  1.00  0.00     0.135 A 
ATOM     62  F   UNL A   1      42.460  29.198  36.579  1.00  0.00    -0.206 F 
ATOM     63  C   UNL A   1      43.637  27.193  36.768  1.00  0.00     0.059 A 
ATOM     64  C   UNL A   1      43.973  25.780  34.846  1.00  0.00     0.059 A 
ATOM     65  F   UNL A   1      43.307  26.420  32.761  1.00  0.00    -0.206 F 
ATOM     66  C   UNL A   1      44.171  26.047  36.187  1.00  0.00     0.060 A 
BRANCH  66  67
ATOM     67  S   UNL A   1      45.179  24.939  37.180  1.00  0.00     0.124 S 
ATOM     68  O   UNL A   1      44.852  23.645  36.593  1.00  0.00    -0.237 OA
ATOM     69  O   UNL A   1      46.522  25.444  36.918  1.00  0.00    -0.237 OA
ATOM     70  O   UNL A   1      44.684  25.160  38.537  1.00  0.00    -0.744 OA
ENDBRANCH  66  67
ENDBRANCH  45  59
BRANCH  46  71
ATOM     71  C   UNL A   1      43.493  25.833  26.295  1.00  0.00     0.058 A 
ATOM     72  C   UNL A   1      44.528  25.612  25.365  1.00  0.00     0.135 A 
ATOM     73  C   UNL A   1      42.743  24.696  26.660  1.00  0.00     0.135 A 
ATOM     74  F   UNL A   1      45.308  26.633  24.973  1.00  0.00    -0.206 F 
ATOM     75  C   UNL A   1      44.835  24.338  24.870  1.00  0.00     0.059 A 
ATOM     76  C   UNL A   1      43.026  23.418  26.176  1.00  0.00     0.059 A 
ATOM     77  F   UNL A   1      41.762  24.776  27.571  1.00  0.00    -0.206 F 
ATOM     78  C   UNL A   1      44.092  23.241  25.301  1.00  0.00     0.060 A 
BRANCH  78  79
ATOM     79  S   UNL A   1      44.585  21.572  24.800  1.00  0.00     0.124 S 
ATOM     80  O   UNL A   1      44.608  21.687  23.347  1.00  0.00    -0.237 OA
ATOM     81  O   UNL A   1      45.884  21.427  25.449  1.00  0.00    -0.237 OA
ATOM     82  O   UNL A   1      43.523  20.726  25.341  1.00  0.00    -0.744 OA
ENDBRANCH  78  79
ENDBRANCH  46  71
BRANCH  58  83
ATOM     83  C   UNL A   1      45.164  31.301  29.134  1.00  0.00     0.058 A 
ATOM     84  C   UNL A   1      46.438  31.729  28.717  1.00  0.00     0.135 A 
ATOM     85  C   UNL A   1      44.057  31.853  28.472  1.00  0.00     0.135 A 
ATOM     86  F   UNL A   1      47.550  31.184  29.232  1.00  0.00    -0.206 F 
ATOM     87  C   UNL A   1      46.599  32.681  27.705  1.00  0.00     0.059 A 
ATOM     88  C   UNL A   1      44.195  32.779  27.442  1.00  0.00     0.059 A 
ATOM     89  F   UNL A   1      42.816  31.444  28.783  1.00  0.00    -0.206 F 
ATOM     90  C   UNL A   1      45.470  33.197  27.069  1.00  0.00     0.060 A 
BRANCH  90  91
ATOM     91  S   UNL A   1      45.676  34.368  25.708  1.00  0.00     0.124 S 
ATOM     92  O   UNL A   1      45.192  35.613  26.296  1.00  0.00    -0.237 OA
ATOM     93  O   UNL A   1      47.112  34.304  25.452  1.00  0.00    -0.237 OA
ATOM     94  O   UNL A   1      44.838  33.814  24.648  1.00  0.00    -0.744 OA
ENDBRANCH  90  91
ENDBRANCH  58  83
ENDBRANCH  32  33
ENDBRANCH  25  27
ENDBRANCH  24  25
ENDBRANCH  23  24
ENDBRANCH  22  23
ENDBRANCH   1  22
TORSDOF 20
ENDMDL
