MODEL 1
REMARK VINA RESULT:     -10.4      0.000      0.000
REMARK SMILES O=C(C[C@@H]([NH2+]C[C@H]1CCCO1)C(=O)OCCOCCOC(=O)c1ccc(-c2c3nc(c(-c4c(F)cc(S(=O)(=O)[O-])cc4F)c4ccc([nH]4)c(-c4c(F)cc(S(=O)(=O)[O-])cc4F)c4nc(c(-c5c(F)cc(S(=O)(=O)[O-])cc5F)c5ccc2[nH]5)C=C4)C=C3)cc1)Nc1cccc(Cl)c1
REMARK SMILES IDX 17 1 16 2 15 3 14 4 12 5 13 6 4 7 3 8 2 9 1 10 89 11 90 13
REMARK SMILES IDX 91 14 96 15 92 16 94 17 93 18 95 19 5 20 6 23 7 24 8 25
REMARK SMILES IDX 11 26 9 27 10 28 18 29 19 30 20 31 21 32 22 33 23 34 24 35
REMARK SMILES IDX 88 36 25 37 87 38 26 39 27 40 28 41 81 42 29 43 86 44 80 45
REMARK SMILES IDX 82 46 30 47 85 48 79 49 78 50 31 52 65 53 44 54 64 55 45 56
REMARK SMILES IDX 48 57 63 58 83 59 46 60 47 61 62 63 84 64 49 65 32 66 33 67
REMARK SMILES IDX 42 68 34 69 35 70 41 71 43 72 36 73 37 74 38 75 39 76 40 77
REMARK SMILES IDX 66 78 67 79 76 80 68 81 69 82 75 83 77 84 70 85 71 86 72 87
REMARK SMILES IDX 73 88 74 89 50 90 51 91 60 92 52 93 53 94 59 95 61 96 54 97
REMARK SMILES IDX 55 98 56 99 57 100 58 101
REMARK H PARENT 89 12 5 21 5 22 82 51 48 62
REMARK Flexibility Score: inf
ROOT
ATOM      1  O   UNL A   1      33.869  31.463  27.274  1.00  0.00    -0.374 OA
ENDROOT
BRANCH   1   2
ATOM      2  C   UNL A   1      32.579  30.883  27.120  1.00  0.00     0.202 C 
BRANCH   2   3
ATOM      3  C   UNL A   1      32.480  29.404  26.721  1.00  0.00     0.261 C 
BRANCH   3   4
ATOM      4  O   UNL A   1      31.465  29.124  25.748  1.00  0.00    -0.459 OA
BRANCH   4   5
ATOM      5  C   UNL A   1      31.954  28.716  24.542  1.00  0.00     0.365 C 
ATOM      6  O   UNL A   1      32.954  29.204  24.026  1.00  0.00    -0.245 OA
BRANCH   5   7
ATOM      7  C   UNL A   1      31.140  27.566  23.907  1.00  0.00     0.302 C 
BRANCH   7   8
ATOM      8  C   UNL A   1      30.502  26.651  24.977  1.00  0.00     0.177 C 
BRANCH   8   9
ATOM      9  C   UNL A   1      31.508  25.712  25.617  1.00  0.00     0.231 C 
ATOM     10  O   UNL A   1      31.585  25.588  26.835  1.00  0.00    -0.274 OA
ATOM     11  N   UNL A   1      32.327  25.107  24.680  1.00  0.00    -0.326 N 
ATOM     12  H   UNL A   1      32.143  25.318  23.736  1.00  0.00     0.169 HD
BRANCH  11  13
ATOM     13  C   UNL A   1      33.393  24.225  24.927  1.00  0.00     0.042 A 
ATOM     14  C   UNL A   1      34.615  24.795  25.307  1.00  0.00     0.026 A 
ATOM     15  C   UNL A   1      33.292  22.841  24.790  1.00  0.00     0.046 A 
ATOM     16  C   UNL A   1      35.722  23.987  25.575  1.00  0.00     0.004 A 
ATOM     17  C   UNL A   1      34.413  22.042  25.015  1.00  0.00     0.043 A 
ATOM     18  C   UNL A   1      35.623  22.607  25.418  1.00  0.00     0.020 A 
ATOM     19  Cl  UNL A   1      34.319  20.339  24.771  1.00  0.00    -0.084 Cl
ENDBRANCH  11  13
ENDBRANCH   8   9
ENDBRANCH   7   8
BRANCH   7  20
ATOM     20  N   UNL A   1      30.069  28.041  22.975  1.00  0.00    -0.332 N 
ATOM     21  H   UNL A   1      29.248  27.451  23.115  1.00  0.00     0.347 HD
ATOM     22  H   UNL A   1      30.472  27.982  22.040  1.00  0.00     0.347 HD
BRANCH  20  23
ATOM     23  C   UNL A   1      29.646  29.446  23.137  1.00  0.00     0.293 C 
BRANCH  23  24
ATOM     24  C   UNL A   1      28.187  29.732  22.700  1.00  0.00     0.173 C 
ATOM     25  C   UNL A   1      27.649  31.018  23.303  1.00  0.00     0.040 C 
ATOM     26  O   UNL A   1      28.100  29.931  21.282  1.00  0.00    -0.372 OA
ATOM     27  C   UNL A   1      28.170  32.062  22.350  1.00  0.00     0.031 C 
ATOM     28  C   UNL A   1      28.100  31.348  21.015  1.00  0.00     0.161 C 
ENDBRANCH  23  24
ENDBRANCH  20  23
ENDBRANCH   7  20
ENDBRANCH   5   7
ENDBRANCH   4   5
ENDBRANCH   3   4
ENDBRANCH   2   3
ENDBRANCH   1   2
BRANCH   1  29
ATOM     29  C   UNL A   1      33.998  32.634  28.081  1.00  0.00     0.202 C 
BRANCH  29  30
ATOM     30  C   UNL A   1      34.805  32.532  29.382  1.00  0.00     0.261 C 
BRANCH  30  31
ATOM     31  O   UNL A   1      35.410  31.237  29.557  1.00  0.00    -0.460 OA
BRANCH  31  32
ATOM     32  C   UNL A   1      36.280  31.151  30.593  1.00  0.00     0.338 C 
ATOM     33  O   UNL A   1      36.058  31.419  31.767  1.00  0.00    -0.246 OA
BRANCH  32  34
ATOM     34  C   UNL A   1      37.515  30.476  30.160  1.00  0.00     0.060 A 
ATOM     35  C   UNL A   1      38.414  30.061  31.152  1.00  0.00     0.016 A 
ATOM     36  C   UNL A   1      37.828  30.322  28.809  1.00  0.00     0.016 A 
ATOM     37  C   UNL A   1      39.646  29.519  30.794  1.00  0.00     0.010 A 
ATOM     38  C   UNL A   1      39.072  29.793  28.453  1.00  0.00     0.010 A 
ATOM     39  C   UNL A   1      39.997  29.414  29.443  1.00  0.00    -0.014 A 
BRANCH  39  40
ATOM     40  C   UNL A   1      41.379  29.028  29.071  1.00  0.00     0.031 A 
ATOM     41  C   UNL A   1      42.460  30.074  29.093  1.00  0.00     0.074 A 
ATOM     42  C   UNL A   1      41.668  27.758  28.736  1.00  0.00     0.049 A 
ATOM     43  N   UNL A   1      43.717  29.973  28.744  1.00  0.00    -0.248 NA
ATOM     44  C   UNL A   1      42.075  31.410  29.576  1.00  0.00     0.031 C 
ATOM     45  C   UNL A   1      40.714  26.649  28.726  1.00  0.00     0.029 A 
ATOM     46  N   UNL A   1      42.849  27.188  28.329  1.00  0.00    -0.354 N 
ATOM     47  C   UNL A   1      44.271  31.230  28.960  1.00  0.00     0.074 A 
ATOM     48  C   UNL A   1      43.209  32.082  29.448  1.00  0.00     0.031 C 
ATOM     49  C   UNL A   1      41.344  25.535  28.315  1.00  0.00     0.029 A 
ATOM     50  C   UNL A   1      42.733  25.859  27.998  1.00  0.00     0.049 A 
ATOM     51  H   UNL A   1      43.698  27.685  28.280  1.00  0.00     0.167 HD
ATOM     52  C   UNL A   1      45.551  31.630  28.775  1.00  0.00     0.037 A 
ATOM     53  C   UNL A   1      43.639  25.012  27.469  1.00  0.00     0.037 A 
ATOM     54  C   UNL A   1      46.602  30.775  28.288  1.00  0.00     0.049 A 
ATOM     55  C   UNL A   1      45.034  25.507  27.187  1.00  0.00     0.074 A 
ATOM     56  C   UNL A   1      47.935  31.082  28.081  1.00  0.00     0.029 A 
ATOM     57  N   UNL A   1      46.437  29.446  27.923  1.00  0.00    -0.354 N 
ATOM     58  N   UNL A   1      45.551  26.691  27.412  1.00  0.00    -0.248 NA
ATOM     59  C   UNL A   1      45.968  24.551  26.573  1.00  0.00     0.031 C 
ATOM     60  C   UNL A   1      48.566  29.954  27.546  1.00  0.00     0.029 A 
ATOM     61  C   UNL A   1      47.636  28.929  27.465  1.00  0.00     0.049 A 
ATOM     62  H   UNL A   1      45.592  28.946  27.982  1.00  0.00     0.167 HD
ATOM     63  C   UNL A   1      46.873  26.618  26.985  1.00  0.00     0.074 A 
ATOM     64  C   UNL A   1      47.082  25.269  26.503  1.00  0.00     0.031 C 
ATOM     65  C   UNL A   1      47.827  27.581  26.991  1.00  0.00     0.037 A 
BRANCH  52  66
ATOM     66  C   UNL A   1      45.887  33.063  29.080  1.00  0.00     0.058 A 
ATOM     67  C   UNL A   1      45.750  34.072  28.114  1.00  0.00     0.135 A 
ATOM     68  C   UNL A   1      46.300  33.439  30.368  1.00  0.00     0.135 A 
ATOM     69  F   UNL A   1      45.376  33.764  26.863  1.00  0.00    -0.206 F 
ATOM     70  C   UNL A   1      46.026  35.404  28.412  1.00  0.00     0.059 A 
ATOM     71  C   UNL A   1      46.558  34.767  30.694  1.00  0.00     0.059 A 
ATOM     72  F   UNL A   1      46.450  32.511  31.327  1.00  0.00    -0.206 F 
ATOM     73  C   UNL A   1      46.426  35.741  29.706  1.00  0.00     0.060 A 
BRANCH  73  74
ATOM     74  S   UNL A   1      46.757  37.476  30.081  1.00  0.00     0.124 S 
ATOM     75  O   UNL A   1      47.900  37.749  29.213  1.00  0.00    -0.237 OA
ATOM     76  O   UNL A   1      45.505  38.122  29.701  1.00  0.00    -0.237 OA
ATOM     77  O   UNL A   1      47.046  37.466  31.512  1.00  0.00    -0.744 OA
ENDBRANCH  73  74
ENDBRANCH  52  66
BRANCH  53  78
ATOM     78  C   UNL A   1      43.248  23.616  27.137  1.00  0.00     0.058 A 
ATOM     79  C   UNL A   1      43.234  22.612  28.116  1.00  0.00     0.135 A 
ATOM     80  C   UNL A   1      42.894  23.255  25.827  1.00  0.00     0.135 A 
ATOM     81  F   UNL A   1      43.576  22.904  29.381  1.00  0.00    -0.206 F 
ATOM     82  C   UNL A   1      42.899  21.297  27.809  1.00  0.00     0.059 A 
ATOM     83  C   UNL A   1      42.530  21.952  25.499  1.00  0.00     0.059 A 
ATOM     84  F   UNL A   1      42.883  24.179  24.854  1.00  0.00    -0.206 F 
ATOM     85  C   UNL A   1      42.548  20.978  26.496  1.00  0.00     0.060 A 
BRANCH  85  86
ATOM     86  S   UNL A   1      42.075  19.277  26.112  1.00  0.00     0.124 S 
ATOM     87  O   UNL A   1      40.647  19.421  25.853  1.00  0.00    -0.237 OA
ATOM     88  O   UNL A   1      42.909  18.982  24.952  1.00  0.00    -0.237 OA
ATOM     89  O   UNL A   1      42.428  18.550  27.328  1.00  0.00    -0.744 OA
ENDBRANCH  85  86
ENDBRANCH  53  78
BRANCH  65  90
ATOM     90  C   UNL A   1      49.192  27.211  26.479  1.00  0.00     0.058 A 
ATOM     91  C   UNL A   1      49.521  27.324  25.120  1.00  0.00     0.135 A 
ATOM     92  C   UNL A   1      50.201  26.803  27.368  1.00  0.00     0.135 A 
ATOM     93  F   UNL A   1      48.592  27.701  24.229  1.00  0.00    -0.206 F 
ATOM     94  C   UNL A   1      50.800  27.032  24.656  1.00  0.00     0.059 A 
ATOM     95  C   UNL A   1      51.493  26.531  26.930  1.00  0.00     0.059 A 
ATOM     96  F   UNL A   1      49.940  26.688  28.680  1.00  0.00    -0.206 F 
ATOM     97  C   UNL A   1      51.782  26.641  25.570  1.00  0.00     0.060 A 
BRANCH  97  98
ATOM     98  S   UNL A   1      53.449  26.313  24.961  1.00  0.00     0.124 S 
ATOM     99  O   UNL A   1      53.992  27.661  24.845  1.00  0.00    -0.237 OA
ATOM    100  O   UNL A   1      54.015  25.491  26.026  1.00  0.00    -0.237 OA
ATOM    101  O   UNL A   1      53.218  25.618  23.697  1.00  0.00    -0.744 OA
ENDBRANCH  97  98
ENDBRANCH  65  90
ENDBRANCH  39  40
ENDBRANCH  32  34
ENDBRANCH  31  32
ENDBRANCH  30  31
ENDBRANCH  29  30
ENDBRANCH   1  29
TORSDOF 23
ENDMDL
MODEL 2
REMARK VINA RESULT:     -10.4      5.780     10.478
REMARK SMILES O=C(C[C@@H]([NH2+]C[C@H]1CCCO1)C(=O)OCCOCCOC(=O)c1ccc(-c2c3nc(c(-c4c(F)cc(S(=O)(=O)[O-])cc4F)c4ccc([nH]4)c(-c4c(F)cc(S(=O)(=O)[O-])cc4F)c4nc(c(-c5c(F)cc(S(=O)(=O)[O-])cc5F)c5ccc2[nH]5)C=C4)C=C3)cc1)Nc1cccc(Cl)c1
REMARK SMILES IDX 17 1 16 2 15 3 14 4 12 5 13 6 4 7 3 8 2 9 1 10 89 11 90 13
REMARK SMILES IDX 91 14 96 15 92 16 94 17 93 18 95 19 5 20 6 23 7 24 8 25
REMARK SMILES IDX 11 26 9 27 10 28 18 29 19 30 20 31 21 32 22 33 23 34 24 35
REMARK SMILES IDX 88 36 25 37 87 38 26 39 27 40 28 41 81 42 29 43 86 44 80 45
REMARK SMILES IDX 82 46 30 47 85 48 79 49 78 50 31 52 65 53 44 54 64 55 45 56
REMARK SMILES IDX 48 57 63 58 83 59 46 60 47 61 62 63 84 64 49 65 32 66 33 67
REMARK SMILES IDX 42 68 34 69 35 70 41 71 43 72 36 73 37 74 38 75 39 76 40 77
REMARK SMILES IDX 66 78 67 79 76 80 68 81 69 82 75 83 77 84 70 85 71 86 72 87
REMARK SMILES IDX 73 88 74 89 50 90 51 91 60 92 52 93 53 94 59 95 61 96 54 97
REMARK SMILES IDX 55 98 56 99 57 100 58 101
REMARK H PARENT 89 12 5 21 5 22 82 51 48 62
REMARK Flexibility Score: inf
ROOT
ATOM      1  O   UNL A   1      33.511  30.494  26.654  1.00  0.00    -0.374 OA
ENDROOT
BRANCH   1   2
ATOM      2  C   UNL A   1      33.864  29.255  27.257  1.00  0.00     0.202 C 
BRANCH   2   3
ATOM      3  C   UNL A   1      33.828  27.983  26.399  1.00  0.00     0.261 C 
BRANCH   3   4
ATOM      4  O   UNL A   1      33.640  28.225  24.997  1.00  0.00    -0.459 OA
BRANCH   4   5
ATOM      5  C   UNL A   1      32.371  27.981  24.561  1.00  0.00     0.365 C 
ATOM      6  O   UNL A   1      31.451  27.679  25.314  1.00  0.00    -0.245 OA
BRANCH   5   7
ATOM      7  C   UNL A   1      32.205  28.147  23.034  1.00  0.00     0.302 C 
BRANCH   7   8
ATOM      8  C   UNL A   1      32.967  27.055  22.249  1.00  0.00     0.177 C 
BRANCH   8   9
ATOM      9  C   UNL A   1      32.892  25.695  22.919  1.00  0.00     0.231 C 
ATOM     10  O   UNL A   1      31.855  25.039  22.924  1.00  0.00    -0.274 OA
ATOM     11  N   UNL A   1      34.077  25.357  23.548  1.00  0.00    -0.326 N 
ATOM     12  H   UNL A   1      34.819  25.998  23.458  1.00  0.00     0.169 HD
BRANCH  11  13
ATOM     13  C   UNL A   1      34.338  24.200  24.301  1.00  0.00     0.042 A 
ATOM     14  C   UNL A   1      35.031  23.165  23.659  1.00  0.00     0.026 A 
ATOM     15  C   UNL A   1      33.925  24.034  25.623  1.00  0.00     0.046 A 
ATOM     16  C   UNL A   1      35.335  21.985  24.340  1.00  0.00     0.004 A 
ATOM     17  C   UNL A   1      34.192  22.834  26.284  1.00  0.00     0.043 A 
ATOM     18  C   UNL A   1      34.904  21.815  25.653  1.00  0.00     0.020 A 
ATOM     19  Cl  UNL A   1      33.616  22.591  27.889  1.00  0.00    -0.084 Cl
ENDBRANCH  11  13
ENDBRANCH   8   9
ENDBRANCH   7   8
BRANCH   7  20
ATOM     20  N   UNL A   1      30.776  28.155  22.590  1.00  0.00    -0.332 N 
ATOM     21  H   UNL A   1      30.256  27.518  23.196  1.00  0.00     0.347 HD
ATOM     22  H   UNL A   1      30.791  27.878  21.609  1.00  0.00     0.347 HD
BRANCH  20  23
ATOM     23  C   UNL A   1      30.095  29.464  22.623  1.00  0.00     0.293 C 
BRANCH  23  24
ATOM     24  C   UNL A   1      28.601  29.422  22.214  1.00  0.00     0.173 C 
ATOM     25  C   UNL A   1      27.701  30.053  23.262  1.00  0.00     0.040 C 
ATOM     26  O   UNL A   1      28.367  30.189  21.024  1.00  0.00    -0.372 OA
ATOM     27  C   UNL A   1      27.783  31.517  22.917  1.00  0.00     0.031 C 
ATOM     28  C   UNL A   1      27.877  31.490  21.404  1.00  0.00     0.161 C 
ENDBRANCH  23  24
ENDBRANCH  20  23
ENDBRANCH   7  20
ENDBRANCH   5   7
ENDBRANCH   4   5
ENDBRANCH   3   4
ENDBRANCH   2   3
ENDBRANCH   1   2
BRANCH   1  29
ATOM     29  C   UNL A   1      32.204  31.019  26.889  1.00  0.00     0.202 C 
BRANCH  29  30
ATOM     30  C   UNL A   1      32.072  32.510  27.229  1.00  0.00     0.261 C 
BRANCH  30  31
ATOM     31  O   UNL A   1      33.349  33.147  27.423  1.00  0.00    -0.460 OA
BRANCH  31  32
ATOM     32  C   UNL A   1      33.371  34.093  28.394  1.00  0.00     0.338 C 
ATOM     33  O   UNL A   1      32.534  34.966  28.593  1.00  0.00    -0.246 OA
BRANCH  32  34
ATOM     34  C   UNL A   1      34.457  33.813  29.348  1.00  0.00     0.060 A 
ATOM     35  C   UNL A   1      35.749  34.235  29.007  1.00  0.00     0.016 A 
ATOM     36  C   UNL A   1      34.233  33.082  30.515  1.00  0.00     0.016 A 
ATOM     37  C   UNL A   1      36.830  33.899  29.818  1.00  0.00     0.010 A 
ATOM     38  C   UNL A   1      35.323  32.732  31.319  1.00  0.00     0.010 A 
ATOM     39  C   UNL A   1      36.627  33.115  30.961  1.00  0.00    -0.014 A 
BRANCH  39  40
ATOM     40  C   UNL A   1      37.796  32.591  31.708  1.00  0.00     0.031 A 
ATOM     41  C   UNL A   1      38.536  31.401  31.164  1.00  0.00     0.074 A 
ATOM     42  C   UNL A   1      38.201  33.182  32.847  1.00  0.00     0.049 A 
ATOM     43  N   UNL A   1      39.539  30.740  31.683  1.00  0.00    -0.248 NA
ATOM     44  C   UNL A   1      38.090  30.888  29.858  1.00  0.00     0.031 C 
ATOM     45  C   UNL A   1      37.591  34.369  33.445  1.00  0.00     0.029 A 
ATOM     46  N   UNL A   1      39.216  32.854  33.711  1.00  0.00    -0.354 N 
ATOM     47  C   UNL A   1      39.841  29.734  30.773  1.00  0.00     0.074 A 
ATOM     48  C   UNL A   1      38.902  29.856  29.680  1.00  0.00     0.031 C 
ATOM     49  C   UNL A   1      38.235  34.660  34.589  1.00  0.00     0.029 A 
ATOM     50  C   UNL A   1      39.274  33.660  34.822  1.00  0.00     0.049 A 
ATOM     51  H   UNL A   1      39.843  32.112  33.548  1.00  0.00     0.167 HD
ATOM     52  C   UNL A   1      40.819  28.801  30.843  1.00  0.00     0.037 A 
ATOM     53  C   UNL A   1      40.058  33.579  35.917  1.00  0.00     0.037 A 
ATOM     54  C   UNL A   1      41.750  28.686  31.935  1.00  0.00     0.049 A 
ATOM     55  C   UNL A   1      41.078  32.475  36.011  1.00  0.00     0.074 A 
ATOM     56  C   UNL A   1      42.787  27.783  32.090  1.00  0.00     0.029 A 
ATOM     57  N   UNL A   1      41.751  29.494  33.062  1.00  0.00    -0.354 N 
ATOM     58  N   UNL A   1      41.367  31.540  35.137  1.00  0.00    -0.248 NA
ATOM     59  C   UNL A   1      41.878  32.410  37.244  1.00  0.00     0.031 C 
ATOM     60  C   UNL A   1      43.385  28.015  33.334  1.00  0.00     0.029 A 
ATOM     61  C   UNL A   1      42.751  29.092  33.931  1.00  0.00     0.049 A 
ATOM     62  H   UNL A   1      41.132  30.243  33.221  1.00  0.00     0.167 HD
ATOM     63  C   UNL A   1      42.391  30.788  35.705  1.00  0.00     0.074 A 
ATOM     64  C   UNL A   1      42.683  31.386  36.991  1.00  0.00     0.031 C 
ATOM     65  C   UNL A   1      43.031  29.702  35.208  1.00  0.00     0.037 A 
BRANCH  52  66
ATOM     66  C   UNL A   1      40.923  27.811  29.715  1.00  0.00     0.058 A 
ATOM     67  C   UNL A   1      39.964  26.804  29.530  1.00  0.00     0.135 A 
ATOM     68  C   UNL A   1      41.966  27.906  28.779  1.00  0.00     0.135 A 
ATOM     69  F   UNL A   1      38.958  26.658  30.406  1.00  0.00    -0.206 F 
ATOM     70  C   UNL A   1      40.044  25.914  28.462  1.00  0.00     0.059 A 
ATOM     71  C   UNL A   1      42.051  27.042  27.692  1.00  0.00     0.059 A 
ATOM     72  F   UNL A   1      42.911  28.849  28.914  1.00  0.00    -0.206 F 
ATOM     73  C   UNL A   1      41.090  26.043  27.547  1.00  0.00     0.060 A 
BRANCH  73  74
ATOM     74  S   UNL A   1      41.164  24.895  26.156  1.00  0.00     0.124 S 
ATOM     75  O   UNL A   1      41.271  25.813  25.026  1.00  0.00    -0.237 OA
ATOM     76  O   UNL A   1      42.362  24.118  26.456  1.00  0.00    -0.237 OA
ATOM     77  O   UNL A   1      39.905  24.162  26.251  1.00  0.00    -0.744 OA
ENDBRANCH  73  74
ENDBRANCH  52  66
BRANCH  53  78
ATOM     78  C   UNL A   1      39.886  34.550  37.030  1.00  0.00     0.058 A 
ATOM     79  C   UNL A   1      38.966  34.317  38.063  1.00  0.00     0.135 A 
ATOM     80  C   UNL A   1      40.630  35.740  37.075  1.00  0.00     0.135 A 
ATOM     81  F   UNL A   1      38.223  33.199  38.059  1.00  0.00    -0.206 F 
ATOM     82  C   UNL A   1      38.777  35.233  39.093  1.00  0.00     0.059 A 
ATOM     83  C   UNL A   1      40.477  36.661  38.106  1.00  0.00     0.059 A 
ATOM     84  F   UNL A   1      41.529  36.008  36.115  1.00  0.00    -0.206 F 
ATOM     85  C   UNL A   1      39.539  36.403  39.105  1.00  0.00     0.060 A 
BRANCH  85  86
ATOM     86  S   UNL A   1      39.317  37.570  40.465  1.00  0.00     0.124 S 
ATOM     87  O   UNL A   1      38.208  38.382  39.978  1.00  0.00    -0.237 OA
ATOM     88  O   UNL A   1      39.018  36.684  41.585  1.00  0.00    -0.237 OA
ATOM     89  O   UNL A   1      40.610  38.245  40.540  1.00  0.00    -0.744 OA
ENDBRANCH  85  86
ENDBRANCH  53  78
BRANCH  65  90
ATOM     90  C   UNL A   1      44.124  29.095  36.043  1.00  0.00     0.058 A 
ATOM     91  C   UNL A   1      43.891  27.976  36.856  1.00  0.00     0.135 A 
ATOM     92  C   UNL A   1      45.435  29.598  35.977  1.00  0.00     0.135 A 
ATOM     93  F   UNL A   1      42.656  27.462  36.961  1.00  0.00    -0.206 F 
ATOM     94  C   UNL A   1      44.916  27.383  37.587  1.00  0.00     0.059 A 
ATOM     95  C   UNL A   1      46.479  29.006  36.679  1.00  0.00     0.059 A 
ATOM     96  F   UNL A   1      45.712  30.662  35.207  1.00  0.00    -0.206 F 
ATOM     97  C   UNL A   1      46.209  27.902  37.488  1.00  0.00     0.060 A 
BRANCH  97  98
ATOM     98  S   UNL A   1      47.538  27.094  38.404  1.00  0.00     0.124 S 
ATOM     99  O   UNL A   1      46.791  26.199  39.280  1.00  0.00    -0.237 OA
ATOM    100  O   UNL A   1      48.303  26.449  37.341  1.00  0.00    -0.237 OA
ATOM    101  O   UNL A   1      48.215  28.204  39.070  1.00  0.00    -0.744 OA
ENDBRANCH  97  98
ENDBRANCH  65  90
ENDBRANCH  39  40
ENDBRANCH  32  34
ENDBRANCH  31  32
ENDBRANCH  30  31
ENDBRANCH  29  30
ENDBRANCH   1  29
TORSDOF 23
ENDMDL
MODEL 3
REMARK VINA RESULT:     -10.3      6.476     11.310
REMARK SMILES O=C(C[C@@H]([NH2+]C[C@H]1CCCO1)C(=O)OCCOCCOC(=O)c1ccc(-c2c3nc(c(-c4c(F)cc(S(=O)(=O)[O-])cc4F)c4ccc([nH]4)c(-c4c(F)cc(S(=O)(=O)[O-])cc4F)c4nc(c(-c5c(F)cc(S(=O)(=O)[O-])cc5F)c5ccc2[nH]5)C=C4)C=C3)cc1)Nc1cccc(Cl)c1
REMARK SMILES IDX 17 1 16 2 15 3 14 4 12 5 13 6 4 7 3 8 2 9 1 10 89 11 90 13
REMARK SMILES IDX 91 14 96 15 92 16 94 17 93 18 95 19 5 20 6 23 7 24 8 25
REMARK SMILES IDX 11 26 9 27 10 28 18 29 19 30 20 31 21 32 22 33 23 34 24 35
REMARK SMILES IDX 88 36 25 37 87 38 26 39 27 40 28 41 81 42 29 43 86 44 80 45
REMARK SMILES IDX 82 46 30 47 85 48 79 49 78 50 31 52 65 53 44 54 64 55 45 56
REMARK SMILES IDX 48 57 63 58 83 59 46 60 47 61 62 63 84 64 49 65 32 66 33 67
REMARK SMILES IDX 42 68 34 69 35 70 41 71 43 72 36 73 37 74 38 75 39 76 40 77
REMARK SMILES IDX 66 78 67 79 76 80 68 81 69 82 75 83 77 84 70 85 71 86 72 87
REMARK SMILES IDX 73 88 74 89 50 90 51 91 60 92 52 93 53 94 59 95 61 96 54 97
REMARK SMILES IDX 55 98 56 99 57 100 58 101
REMARK H PARENT 89 12 5 21 5 22 82 51 48 62
REMARK Flexibility Score: inf
ROOT
ATOM      1  O   UNL A   1      37.708  22.687  25.678  1.00  0.00    -0.374 OA
ENDROOT
BRANCH   1   2
ATOM      2  C   UNL A   1      36.617  21.773  25.701  1.00  0.00     0.202 C 
BRANCH   2   3
ATOM      3  C   UNL A   1      35.249  22.272  26.185  1.00  0.00     0.261 C 
BRANCH   3   4
ATOM      4  O   UNL A   1      34.384  22.725  25.134  1.00  0.00    -0.459 OA
BRANCH   4   5
ATOM      5  C   UNL A   1      33.493  23.680  25.526  1.00  0.00     0.365 C 
ATOM      6  O   UNL A   1      33.810  24.653  26.204  1.00  0.00    -0.245 OA
BRANCH   5   7
ATOM      7  C   UNL A   1      32.057  23.428  25.015  1.00  0.00     0.302 C 
BRANCH   7   8
ATOM      8  C   UNL A   1      31.496  22.077  25.513  1.00  0.00     0.177 C 
BRANCH   8   9
ATOM      9  C   UNL A   1      32.084  20.891  24.771  1.00  0.00     0.231 C 
ATOM     10  O   UNL A   1      32.038  20.813  23.548  1.00  0.00    -0.274 OA
ATOM     11  N   UNL A   1      32.588  19.933  25.634  1.00  0.00    -0.326 N 
ATOM     12  H   UNL A   1      32.544  20.142  26.595  1.00  0.00     0.169 HD
BRANCH  11  13
ATOM     13  C   UNL A   1      33.155  18.695  25.289  1.00  0.00     0.042 A 
ATOM     14  C   UNL A   1      34.365  18.723  24.583  1.00  0.00     0.026 A 
ATOM     15  C   UNL A   1      32.565  17.469  25.593  1.00  0.00     0.046 A 
ATOM     16  C   UNL A   1      34.997  17.536  24.208  1.00  0.00     0.004 A 
ATOM     17  C   UNL A   1      33.178  16.286  25.176  1.00  0.00     0.043 A 
ATOM     18  C   UNL A   1      34.395  16.313  24.496  1.00  0.00     0.020 A 
ATOM     19  Cl  UNL A   1      32.417  14.770  25.478  1.00  0.00    -0.084 Cl
ENDBRANCH  11  13
ENDBRANCH   8   9
ENDBRANCH   7   8
BRANCH   7  20
ATOM     20  N   UNL A   1      31.097  24.516  25.380  1.00  0.00    -0.332 N 
ATOM     21  H   UNL A   1      31.577  25.156  26.014  1.00  0.00     0.347 HD
ATOM     22  H   UNL A   1      30.292  24.046  25.793  1.00  0.00     0.347 HD
BRANCH  20  23
ATOM     23  C   UNL A   1      30.562  25.311  24.257  1.00  0.00     0.293 C 
BRANCH  23  24
ATOM     24  C   UNL A   1      30.458  26.831  24.539  1.00  0.00     0.173 C 
ATOM     25  C   UNL A   1      31.753  27.562  24.228  1.00  0.00     0.040 C 
ATOM     26  O   UNL A   1      29.479  27.451  23.693  1.00  0.00    -0.372 OA
ATOM     27  C   UNL A   1      31.639  27.800  22.744  1.00  0.00     0.031 C 
ATOM     28  C   UNL A   1      30.154  28.048  22.568  1.00  0.00     0.161 C 
ENDBRANCH  23  24
ENDBRANCH  20  23
ENDBRANCH   7  20
ENDBRANCH   5   7
ENDBRANCH   4   5
ENDBRANCH   3   4
ENDBRANCH   2   3
ENDBRANCH   1   2
BRANCH   1  29
ATOM     29  C   UNL A   1      38.984  22.237  26.135  1.00  0.00     0.202 C 
BRANCH  29  30
ATOM     30  C   UNL A   1      39.990  23.287  26.626  1.00  0.00     0.261 C 
BRANCH  30  31
ATOM     31  O   UNL A   1      39.517  24.634  26.437  1.00  0.00    -0.460 OA
BRANCH  31  32
ATOM     32  C   UNL A   1      40.492  25.573  26.362  1.00  0.00     0.338 C 
ATOM     33  O   UNL A   1      41.097  25.931  25.359  1.00  0.00    -0.246 OA
BRANCH  32  34
ATOM     34  C   UNL A   1      40.603  26.289  27.644  1.00  0.00     0.060 A 
ATOM     35  C   UNL A   1      39.599  26.077  28.599  1.00  0.00     0.016 A 
ATOM     36  C   UNL A   1      41.624  27.210  27.879  1.00  0.00     0.016 A 
ATOM     37  C   UNL A   1      39.595  26.811  29.782  1.00  0.00     0.010 A 
ATOM     38  C   UNL A   1      41.608  27.958  29.061  1.00  0.00     0.010 A 
ATOM     39  C   UNL A   1      40.580  27.781  30.005  1.00  0.00    -0.014 A 
BRANCH  39  40
ATOM     40  C   UNL A   1      40.460  28.698  31.164  1.00  0.00     0.031 A 
ATOM     41  C   UNL A   1      39.453  29.814  31.111  1.00  0.00     0.074 A 
ATOM     42  C   UNL A   1      41.225  28.523  32.257  1.00  0.00     0.049 A 
ATOM     43  N   UNL A   1      39.225  30.766  31.979  1.00  0.00    -0.248 NA
ATOM     44  C   UNL A   1      38.585  29.862  29.924  1.00  0.00     0.031 C 
ATOM     45  C   UNL A   1      42.200  27.448  32.442  1.00  0.00     0.029 A 
ATOM     46  N   UNL A   1      41.310  29.256  33.414  1.00  0.00    -0.354 N 
ATOM     47  C   UNL A   1      38.194  31.527  31.443  1.00  0.00     0.074 A 
ATOM     48  C   UNL A   1      37.855  30.941  30.165  1.00  0.00     0.031 C 
ATOM     49  C   UNL A   1      42.798  27.603  33.635  1.00  0.00     0.029 A 
ATOM     50  C   UNL A   1      42.276  28.805  34.281  1.00  0.00     0.049 A 
ATOM     51  H   UNL A   1      40.732  30.031  33.604  1.00  0.00     0.167 HD
ATOM     52  C   UNL A   1      37.581  32.611  31.975  1.00  0.00     0.037 A 
ATOM     53  C   UNL A   1      42.710  29.325  35.447  1.00  0.00     0.037 A 
ATOM     54  C   UNL A   1      37.926  33.189  33.248  1.00  0.00     0.049 A 
ATOM     55  C   UNL A   1      42.074  30.585  35.974  1.00  0.00     0.074 A 
ATOM     56  C   UNL A   1      37.354  34.278  33.881  1.00  0.00     0.029 A 
ATOM     57  N   UNL A   1      38.938  32.730  34.078  1.00  0.00    -0.354 N 
ATOM     58  N   UNL A   1      41.087  31.286  35.468  1.00  0.00    -0.248 NA
ATOM     59  C   UNL A   1      42.613  31.129  37.230  1.00  0.00     0.031 C 
ATOM     60  C   UNL A   1      38.052  34.508  35.072  1.00  0.00     0.029 A 
ATOM     61  C   UNL A   1      39.027  33.532  35.203  1.00  0.00     0.049 A 
ATOM     62  H   UNL A   1      39.509  31.950  33.894  1.00  0.00     0.167 HD
ATOM     63  C   UNL A   1      40.876  32.341  36.350  1.00  0.00     0.074 A 
ATOM     64  C   UNL A   1      41.827  32.178  37.430  1.00  0.00     0.031 C 
ATOM     65  C   UNL A   1      39.978  33.354  36.272  1.00  0.00     0.037 A 
BRANCH  52  66
ATOM     66  C   UNL A   1      36.488  33.261  31.174  1.00  0.00     0.058 A 
ATOM     67  C   UNL A   1      35.141  33.169  31.557  1.00  0.00     0.135 A 
ATOM     68  C   UNL A   1      36.797  34.029  30.039  1.00  0.00     0.135 A 
ATOM     69  F   UNL A   1      34.790  32.432  32.622  1.00  0.00    -0.206 F 
ATOM     70  C   UNL A   1      34.135  33.804  30.833  1.00  0.00     0.059 A 
ATOM     71  C   UNL A   1      35.811  34.692  29.315  1.00  0.00     0.059 A 
ATOM     72  F   UNL A   1      38.070  34.146  29.629  1.00  0.00    -0.206 F 
ATOM     73  C   UNL A   1      34.481  34.566  29.715  1.00  0.00     0.060 A 
BRANCH  73  74
ATOM     74  S   UNL A   1      33.167  35.401  28.802  1.00  0.00     0.124 S 
ATOM     75  O   UNL A   1      32.557  34.286  28.084  1.00  0.00    -0.237 OA
ATOM     76  O   UNL A   1      32.363  35.981  29.873  1.00  0.00    -0.237 OA
ATOM     77  O   UNL A   1      33.887  36.362  27.971  1.00  0.00    -0.744 OA
ENDBRANCH  73  74
ENDBRANCH  52  66
BRANCH  53  78
ATOM     78  C   UNL A   1      43.829  28.676  36.182  1.00  0.00     0.058 A 
ATOM     79  C   UNL A   1      45.145  29.144  36.062  1.00  0.00     0.135 A 
ATOM     80  C   UNL A   1      43.604  27.563  37.008  1.00  0.00     0.135 A 
ATOM     81  F   UNL A   1      45.414  30.197  35.275  1.00  0.00    -0.206 F 
ATOM     82  C   UNL A   1      46.203  28.525  36.722  1.00  0.00     0.059 A 
ATOM     83  C   UNL A   1      44.640  26.942  37.698  1.00  0.00     0.059 A 
ATOM     84  F   UNL A   1      42.361  27.080  37.163  1.00  0.00    -0.206 F 
ATOM     85  C   UNL A   1      45.938  27.423  37.538  1.00  0.00     0.060 A 
BRANCH  85  86
ATOM     86  S   UNL A   1      47.309  26.649  38.423  1.00  0.00     0.124 S 
ATOM     87  O   UNL A   1      48.462  27.262  37.774  1.00  0.00    -0.237 OA
ATOM     88  O   UNL A   1      47.057  27.059  39.800  1.00  0.00    -0.237 OA
ATOM     89  O   UNL A   1      47.117  25.226  38.157  1.00  0.00    -0.744 OA
ENDBRANCH  85  86
ENDBRANCH  53  78
BRANCH  65  90
ATOM     90  C   UNL A   1      39.962  34.357  37.392  1.00  0.00     0.058 A 
ATOM     91  C   UNL A   1      39.092  34.222  38.485  1.00  0.00     0.135 A 
ATOM     92  C   UNL A   1      40.871  35.428  37.404  1.00  0.00     0.135 A 
ATOM     93  F   UNL A   1      38.199  33.221  38.518  1.00  0.00    -0.206 F 
ATOM     94  C   UNL A   1      39.115  35.121  39.546  1.00  0.00     0.059 A 
ATOM     95  C   UNL A   1      40.928  36.324  38.467  1.00  0.00     0.059 A 
ATOM     96  F   UNL A   1      41.730  35.597  36.387  1.00  0.00    -0.206 F 
ATOM     97  C   UNL A   1      40.041  36.167  39.531  1.00  0.00     0.060 A 
BRANCH  97  98
ATOM     98  S   UNL A   1      40.091  37.298  40.937  1.00  0.00     0.124 S 
ATOM     99  O   UNL A   1      39.554  38.520  40.351  1.00  0.00    -0.237 OA
ATOM    100  O   UNL A   1      39.231  36.629  41.908  1.00  0.00    -0.237 OA
ATOM    101  O   UNL A   1      41.509  37.340  41.288  1.00  0.00    -0.744 OA
ENDBRANCH  97  98
ENDBRANCH  65  90
ENDBRANCH  39  40
ENDBRANCH  32  34
ENDBRANCH  31  32
ENDBRANCH  30  31
ENDBRANCH  29  30
ENDBRANCH   1  29
TORSDOF 23
ENDMDL
