MODEL 1
REMARK VINA RESULT:     -10.3      0.000      0.000
REMARK SMILES COC1CCN(c2nc(C(C)C)c(C(=O)OCCOCCOC(=O)c3ccc(-c4c5nc(c(-c6c(F)cc(S(=O)(=O)[O-])cc6F)c6ccc([nH]6)c(-c6c(F)cc(S(=O)(=O)[O-])cc6F)c6nc(c(-c7c(F)cc(S(=O)(=O)[O-])cc7F)c7ccc4[nH]7)C=C6)C=C5)cc3)s2)CC1
REMARK SMILES IDX 20 1 19 2 18 3 17 4 16 5 14 6 15 7 13 8 7 9 8 10 91 11 9 12
REMARK SMILES IDX 6 13 3 14 4 15 93 16 5 17 92 18 2 19 1 20 10 21 11 22 12 23
REMARK SMILES IDX 21 24 22 25 23 26 24 27 25 28 26 29 90 30 27 31 89 32 28 33
REMARK SMILES IDX 29 34 30 35 83 36 31 37 88 38 82 39 84 40 32 41 87 42 81 43
REMARK SMILES IDX 80 44 33 46 67 47 46 48 66 49 47 50 50 51 65 52 85 53 48 54
REMARK SMILES IDX 49 55 64 57 86 58 51 59 34 60 35 61 44 62 36 63 37 64 43 65
REMARK SMILES IDX 45 66 38 67 39 68 40 69 41 70 42 71 68 72 69 73 78 74 70 75
REMARK SMILES IDX 71 76 77 77 79 78 72 79 73 80 74 81 75 82 76 83 52 84 53 85
REMARK SMILES IDX 62 86 54 87 55 88 61 89 63 90 56 91 57 92 58 93 59 94 60 95
REMARK H PARENT 84 45 50 56
REMARK Flexibility Score: inf
ROOT
ATOM      1  C   UNL A   1      34.568  32.486  29.259  1.00  0.00     0.202 C 
ENDROOT
BRANCH   1   2
ATOM      2  O   UNL A   1      35.382  31.817  28.292  1.00  0.00    -0.374 OA
BRANCH   2   3
ATOM      3  C   UNL A   1      34.834  30.618  27.735  1.00  0.00     0.202 C 
BRANCH   3   4
ATOM      4  C   UNL A   1      33.401  30.790  27.235  1.00  0.00     0.261 C 
BRANCH   4   5
ATOM      5  O   UNL A   1      32.827  29.489  27.031  1.00  0.00    -0.459 OA
BRANCH   5   6
ATOM      6  C   UNL A   1      32.000  29.358  25.964  1.00  0.00     0.350 C 
ATOM      7  O   UNL A   1      31.397  30.291  25.444  1.00  0.00    -0.245 OA
BRANCH   6   8
ATOM      8  C   UNL A   1      32.034  28.003  25.465  1.00  0.00     0.137 A 
ATOM      9  C   UNL A   1      32.772  25.706  25.112  1.00  0.00     0.186 A 
ATOM     10  N   UNL A   1      31.686  25.942  24.422  1.00  0.00    -0.224 NA
ATOM     11  S   UNL A   1      33.329  27.025  26.046  1.00  0.00    -0.089 S 
ATOM     12  C   UNL A   1      31.217  27.242  24.633  1.00  0.00     0.071 A 
BRANCH   9  13
ATOM     13  N   UNL A   1      33.476  24.558  25.077  1.00  0.00    -0.348 N 
ATOM     14  C   UNL A   1      35.092  22.420  24.151  1.00  0.00     0.121 C 
ATOM     15  C   UNL A   1      35.696  23.777  24.546  1.00  0.00     0.053 C 
ATOM     16  C   UNL A   1      33.633  22.590  23.701  1.00  0.00     0.053 C 
ATOM     17  C   UNL A   1      34.832  24.492  25.581  1.00  0.00     0.121 C 
ATOM     18  C   UNL A   1      32.811  23.305  24.777  1.00  0.00     0.121 C 
BRANCH  14  19
ATOM     19  O   UNL A   1      35.088  21.461  25.217  1.00  0.00    -0.381 OA
ATOM     20  C   UNL A   1      34.714  20.148  24.834  1.00  0.00     0.195 C 
ENDBRANCH  14  19
ENDBRANCH   9  13
BRANCH  12  21
ATOM     21  C   UNL A   1      29.939  27.579  23.899  1.00  0.00     0.034 C 
ATOM     22  C   UNL A   1      30.188  28.231  22.538  1.00  0.00     0.014 C 
ATOM     23  C   UNL A   1      28.945  26.424  23.812  1.00  0.00     0.014 C 
ENDBRANCH  12  21
ENDBRANCH   6   8
ENDBRANCH   5   6
ENDBRANCH   4   5
ENDBRANCH   3   4
ENDBRANCH   2   3
ENDBRANCH   1   2
BRANCH   1  24
ATOM     24  C   UNL A   1      35.177  32.545  30.663  1.00  0.00     0.261 C 
BRANCH  24  25
ATOM     25  O   UNL A   1      36.101  31.459  30.866  1.00  0.00    -0.460 OA
BRANCH  25  26
ATOM     26  C   UNL A   1      37.266  31.800  31.469  1.00  0.00     0.338 C 
ATOM     27  O   UNL A   1      37.397  32.474  32.478  1.00  0.00    -0.246 OA
BRANCH  26  28
ATOM     28  C   UNL A   1      38.389  31.080  30.833  1.00  0.00     0.060 A 
ATOM     29  C   UNL A   1      39.403  30.603  31.672  1.00  0.00     0.016 A 
ATOM     30  C   UNL A   1      38.473  30.894  29.449  1.00  0.00     0.016 A 
ATOM     31  C   UNL A   1      40.529  29.986  31.128  1.00  0.00     0.010 A 
ATOM     32  C   UNL A   1      39.605  30.276  28.904  1.00  0.00     0.010 A 
ATOM     33  C   UNL A   1      40.653  29.850  29.739  1.00  0.00    -0.014 A 
BRANCH  33  34
ATOM     34  C   UNL A   1      41.939  29.381  29.169  1.00  0.00     0.031 A 
ATOM     35  C   UNL A   1      43.088  30.348  29.062  1.00  0.00     0.074 A 
ATOM     36  C   UNL A   1      42.098  28.102  28.791  1.00  0.00     0.049 A 
ATOM     37  N   UNL A   1      44.303  30.144  28.624  1.00  0.00    -0.248 NA
ATOM     38  C   UNL A   1      42.831  31.726  29.508  1.00  0.00     0.031 C 
ATOM     39  C   UNL A   1      41.069  27.065  28.864  1.00  0.00     0.029 A 
ATOM     40  N   UNL A   1      43.189  27.455  28.267  1.00  0.00    -0.354 N 
ATOM     41  C   UNL A   1      44.957  31.365  28.743  1.00  0.00     0.074 A 
ATOM     42  C   UNL A   1      43.994  32.311  29.264  1.00  0.00     0.031 C 
ATOM     43  C   UNL A   1      41.578  25.913  28.395  1.00  0.00     0.029 A 
ATOM     44  C   UNL A   1      42.959  26.134  27.971  1.00  0.00     0.049 A 
ATOM     45  H   UNL A   1      44.056  27.898  28.116  1.00  0.00     0.167 HD
ATOM     46  C   UNL A   1      46.246  31.667  28.454  1.00  0.00     0.037 A 
ATOM     47  C   UNL A   1      43.768  25.211  27.414  1.00  0.00     0.037 A 
ATOM     48  C   UNL A   1      47.203  30.726  27.936  1.00  0.00     0.049 A 
ATOM     49  C   UNL A   1      45.182  25.582  27.054  1.00  0.00     0.074 A 
ATOM     50  C   UNL A   1      48.540  30.931  27.642  1.00  0.00     0.029 A 
ATOM     51  N   UNL A   1      46.923  29.404  27.623  1.00  0.00    -0.354 N 
ATOM     52  N   UNL A   1      45.798  26.729  27.211  1.00  0.00    -0.248 NA
ATOM     53  C   UNL A   1      46.012  24.530  26.449  1.00  0.00     0.031 C 
ATOM     54  C   UNL A   1      49.059  29.744  27.112  1.00  0.00     0.029 A 
ATOM     55  C   UNL A   1      48.055  28.788  27.113  1.00  0.00     0.049 A 
ATOM     56  H   UNL A   1      46.050  28.968  27.744  1.00  0.00     0.167 HD
ATOM     57  C   UNL A   1      47.093  26.533  26.741  1.00  0.00     0.074 A 
ATOM     58  C   UNL A   1      47.175  25.154  26.305  1.00  0.00     0.031 C 
ATOM     59  C   UNL A   1      48.122  27.415  26.680  1.00  0.00     0.037 A 
BRANCH  46  60
ATOM     60  C   UNL A   1      46.684  33.087  28.677  1.00  0.00     0.058 A 
ATOM     61  C   UNL A   1      47.221  33.508  29.904  1.00  0.00     0.135 A 
ATOM     62  C   UNL A   1      46.576  34.034  27.647  1.00  0.00     0.135 A 
ATOM     63  F   UNL A   1      47.330  32.645  30.926  1.00  0.00    -0.206 F 
ATOM     64  C   UNL A   1      47.605  34.829  30.113  1.00  0.00     0.059 A 
ATOM     65  C   UNL A   1      46.975  35.356  27.827  1.00  0.00     0.059 A 
ATOM     66  F   UNL A   1      46.068  33.683  26.456  1.00  0.00    -0.206 F 
ATOM     67  C   UNL A   1      47.472  35.746  29.069  1.00  0.00     0.060 A 
BRANCH  67  68
ATOM     68  S   UNL A   1      47.958  37.462  29.358  1.00  0.00     0.124 S 
ATOM     69  O   UNL A   1      48.937  37.309  30.431  1.00  0.00    -0.237 OA
ATOM     70  O   UNL A   1      48.497  37.859  28.061  1.00  0.00    -0.237 OA
ATOM     71  O   UNL A   1      46.706  38.109  29.738  1.00  0.00    -0.744 OA
ENDBRANCH  67  68
ENDBRANCH  46  60
BRANCH  47  72
ATOM     72  C   UNL A   1      43.252  23.841  27.159  1.00  0.00     0.058 A 
ATOM     73  C   UNL A   1      42.791  23.464  25.890  1.00  0.00     0.135 A 
ATOM     74  C   UNL A   1      43.229  22.876  28.179  1.00  0.00     0.135 A 
ATOM     75  F   UNL A   1      42.783  24.355  24.888  1.00  0.00    -0.206 F 
ATOM     76  C   UNL A   1      42.325  22.177  25.639  1.00  0.00     0.059 A 
ATOM     77  C   UNL A   1      42.788  21.579  27.947  1.00  0.00     0.059 A 
ATOM     78  F   UNL A   1      43.669  23.188  29.409  1.00  0.00    -0.206 F 
ATOM     79  C   UNL A   1      42.333  21.240  26.673  1.00  0.00     0.060 A 
BRANCH  79  80
ATOM     80  S   UNL A   1      41.795  19.552  26.320  1.00  0.00     0.124 S 
ATOM     81  O   UNL A   1      42.180  18.859  27.542  1.00  0.00    -0.237 OA
ATOM     82  O   UNL A   1      40.361  19.725  26.108  1.00  0.00    -0.237 OA
ATOM     83  O   UNL A   1      42.558  19.202  25.126  1.00  0.00    -0.744 OA
ENDBRANCH  79  80
ENDBRANCH  47  72
BRANCH  59  84
ATOM     84  C   UNL A   1      49.432  26.915  26.136  1.00  0.00     0.058 A 
ATOM     85  C   UNL A   1      49.777  27.079  24.786  1.00  0.00     0.135 A 
ATOM     86  C   UNL A   1      50.371  26.309  26.986  1.00  0.00     0.135 A 
ATOM     87  F   UNL A   1      48.913  27.646  23.931  1.00  0.00    -0.206 F 
ATOM     88  C   UNL A   1      51.002  26.641  24.292  1.00  0.00     0.059 A 
ATOM     89  C   UNL A   1      51.611  25.884  26.519  1.00  0.00     0.059 A 
ATOM     90  F   UNL A   1      50.094  26.138  28.288  1.00  0.00    -0.206 F 
ATOM     91  C   UNL A   1      51.913  26.044  25.166  1.00  0.00     0.060 A 
BRANCH  91  92
ATOM     92  S   UNL A   1      53.513  25.506  24.522  1.00  0.00     0.124 S 
ATOM     93  O   UNL A   1      53.436  25.953  23.136  1.00  0.00    -0.237 OA
ATOM     94  O   UNL A   1      54.454  26.231  25.370  1.00  0.00    -0.237 OA
ATOM     95  O   UNL A   1      53.488  24.060  24.720  1.00  0.00    -0.744 OA
ENDBRANCH  91  92
ENDBRANCH  59  84
ENDBRANCH  33  34
ENDBRANCH  26  28
ENDBRANCH  25  26
ENDBRANCH  24  25
ENDBRANCH   1  24
TORSDOF 20
ENDMDL
MODEL 2
REMARK VINA RESULT:     -10.2      6.261     12.230
REMARK SMILES COC1CCN(c2nc(C(C)C)c(C(=O)OCCOCCOC(=O)c3ccc(-c4c5nc(c(-c6c(F)cc(S(=O)(=O)[O-])cc6F)c6ccc([nH]6)c(-c6c(F)cc(S(=O)(=O)[O-])cc6F)c6nc(c(-c7c(F)cc(S(=O)(=O)[O-])cc7F)c7ccc4[nH]7)C=C6)C=C5)cc3)s2)CC1
REMARK SMILES IDX 20 1 19 2 18 3 17 4 16 5 14 6 15 7 13 8 7 9 8 10 91 11 9 12
REMARK SMILES IDX 6 13 3 14 4 15 93 16 5 17 92 18 2 19 1 20 10 21 11 22 12 23
REMARK SMILES IDX 21 24 22 25 23 26 24 27 25 28 26 29 90 30 27 31 89 32 28 33
REMARK SMILES IDX 29 34 30 35 83 36 31 37 88 38 82 39 84 40 32 41 87 42 81 43
REMARK SMILES IDX 80 44 33 46 67 47 46 48 66 49 47 50 50 51 65 52 85 53 48 54
REMARK SMILES IDX 49 55 64 57 86 58 51 59 34 60 35 61 44 62 36 63 37 64 43 65
REMARK SMILES IDX 45 66 38 67 39 68 40 69 41 70 42 71 68 72 69 73 78 74 70 75
REMARK SMILES IDX 71 76 77 77 79 78 72 79 73 80 74 81 75 82 76 83 52 84 53 85
REMARK SMILES IDX 62 86 54 87 55 88 61 89 63 90 56 91 57 92 58 93 59 94 60 95
REMARK H PARENT 84 45 50 56
REMARK Flexibility Score: inf
ROOT
ATOM      1  C   UNL A   1      41.533  21.715  26.645  1.00  0.00     0.202 C 
ENDROOT
BRANCH   1   2
ATOM      2  O   UNL A   1      40.156  21.695  27.034  1.00  0.00    -0.374 OA
BRANCH   2   3
ATOM      3  C   UNL A   1      39.259  21.049  26.125  1.00  0.00     0.202 C 
BRANCH   3   4
ATOM      4  C   UNL A   1      38.271  22.013  25.470  1.00  0.00     0.261 C 
BRANCH   4   5
ATOM      5  O   UNL A   1      36.947  21.694  25.927  1.00  0.00    -0.459 OA
BRANCH   5   6
ATOM      6  C   UNL A   1      36.255  20.795  25.183  1.00  0.00     0.350 C 
ATOM      7  O   UNL A   1      36.638  19.651  24.958  1.00  0.00    -0.245 OA
BRANCH   6   8
ATOM      8  C   UNL A   1      34.969  21.336  24.810  1.00  0.00     0.137 A 
ATOM      9  C   UNL A   1      33.222  22.959  24.306  1.00  0.00     0.186 A 
ATOM     10  N   UNL A   1      32.762  21.743  24.164  1.00  0.00    -0.224 NA
ATOM     11  S   UNL A   1      34.865  23.055  24.767  1.00  0.00    -0.089 S 
ATOM     12  C   UNL A   1      33.753  20.788  24.411  1.00  0.00     0.071 A 
BRANCH   9  13
ATOM     13  N   UNL A   1      32.490  24.083  24.176  1.00  0.00    -0.348 N 
ATOM     14  C   UNL A   1      30.921  26.156  23.045  1.00  0.00     0.121 C 
ATOM     15  C   UNL A   1      30.320  24.783  23.387  1.00  0.00     0.053 C 
ATOM     16  C   UNL A   1      32.426  26.031  22.764  1.00  0.00     0.053 C 
ATOM     17  C   UNL A   1      31.084  24.108  24.523  1.00  0.00     0.121 C 
ATOM     18  C   UNL A   1      33.143  25.355  23.936  1.00  0.00     0.121 C 
BRANCH  14  19
ATOM     19  O   UNL A   1      30.773  27.125  24.091  1.00  0.00    -0.381 OA
ATOM     20  C   UNL A   1      30.551  28.453  23.644  1.00  0.00     0.195 C 
ENDBRANCH  14  19
ENDBRANCH   9  13
BRANCH  12  21
ATOM     21  C   UNL A   1      33.307  19.354  24.229  1.00  0.00     0.034 C 
ATOM     22  C   UNL A   1      32.842  18.705  25.532  1.00  0.00     0.014 C 
ATOM     23  C   UNL A   1      32.308  19.151  23.093  1.00  0.00     0.014 C 
ENDBRANCH  12  21
ENDBRANCH   6   8
ENDBRANCH   5   6
ENDBRANCH   4   5
ENDBRANCH   3   4
ENDBRANCH   2   3
ENDBRANCH   1   2
BRANCH   1  24
ATOM     24  C   UNL A   1      42.102  23.118  26.417  1.00  0.00     0.261 C 
BRANCH  24  25
ATOM     25  O   UNL A   1      41.055  24.106  26.437  1.00  0.00    -0.460 OA
BRANCH  25  26
ATOM     26  C   UNL A   1      41.452  25.371  26.157  1.00  0.00     0.338 C 
ATOM     27  O   UNL A   1      41.650  25.848  25.051  1.00  0.00    -0.246 OA
BRANCH  26  28
ATOM     28  C   UNL A   1      41.441  26.184  27.392  1.00  0.00     0.060 A 
ATOM     29  C   UNL A   1      40.417  25.936  28.314  1.00  0.00     0.016 A 
ATOM     30  C   UNL A   1      42.385  27.186  27.639  1.00  0.00     0.016 A 
ATOM     31  C   UNL A   1      40.303  26.721  29.461  1.00  0.00     0.010 A 
ATOM     32  C   UNL A   1      42.267  27.975  28.789  1.00  0.00     0.010 A 
ATOM     33  C   UNL A   1      41.206  27.768  29.687  1.00  0.00    -0.014 A 
BRANCH  33  34
ATOM     34  C   UNL A   1      40.951  28.718  30.797  1.00  0.00     0.031 A 
ATOM     35  C   UNL A   1      41.800  28.640  32.037  1.00  0.00     0.074 A 
ATOM     36  C   UNL A   1      40.002  29.664  30.688  1.00  0.00     0.049 A 
ATOM     37  N   UNL A   1      41.769  29.386  33.110  1.00  0.00    -0.248 NA
ATOM     38  C   UNL A   1      42.821  27.581  32.069  1.00  0.00     0.031 C 
ATOM     39  C   UNL A   1      39.129  29.855  29.531  1.00  0.00     0.029 A 
ATOM     40  N   UNL A   1      39.616  30.645  31.567  1.00  0.00    -0.354 N 
ATOM     41  C   UNL A   1      42.763  28.890  33.945  1.00  0.00     0.074 A 
ATOM     42  C   UNL A   1      43.358  27.759  33.267  1.00  0.00     0.031 C 
ATOM     43  C   UNL A   1      38.303  30.887  29.775  1.00  0.00     0.029 A 
ATOM     44  C   UNL A   1      38.575  31.416  31.110  1.00  0.00     0.049 A 
ATOM     45  H   UNL A   1      40.044  30.781  32.443  1.00  0.00     0.167 HD
ATOM     46  C   UNL A   1      43.152  29.343  35.161  1.00  0.00     0.037 A 
ATOM     47  C   UNL A   1      37.913  32.428  31.705  1.00  0.00     0.037 A 
ATOM     48  C   UNL A   1      42.560  30.468  35.836  1.00  0.00     0.049 A 
ATOM     49  C   UNL A   1      38.329  32.883  33.079  1.00  0.00     0.074 A 
ATOM     50  C   UNL A   1      42.906  31.021  37.056  1.00  0.00     0.029 A 
ATOM     51  N   UNL A   1      41.488  31.205  35.353  1.00  0.00    -0.354 N 
ATOM     52  N   UNL A   1      39.298  32.430  33.838  1.00  0.00    -0.248 NA
ATOM     53  C   UNL A   1      37.566  33.990  33.673  1.00  0.00     0.031 C 
ATOM     54  C   UNL A   1      42.018  32.067  37.332  1.00  0.00     0.029 A 
ATOM     55  C   UNL A   1      41.144  32.191  36.264  1.00  0.00     0.049 A 
ATOM     56  H   UNL A   1      41.039  31.050  34.492  1.00  0.00     0.167 HD
ATOM     57  C   UNL A   1      39.274  33.209  34.991  1.00  0.00     0.074 A 
ATOM     58  C   UNL A   1      38.201  34.168  34.824  1.00  0.00     0.031 C 
ATOM     59  C   UNL A   1      40.070  33.137  36.086  1.00  0.00     0.037 A 
BRANCH  46  60
ATOM     60  C   UNL A   1      44.263  28.600  35.847  1.00  0.00     0.058 A 
ATOM     61  C   UNL A   1      44.005  27.540  36.731  1.00  0.00     0.135 A 
ATOM     62  C   UNL A   1      45.602  28.945  35.609  1.00  0.00     0.135 A 
ATOM     63  F   UNL A   1      42.740  27.182  37.006  1.00  0.00    -0.206 F 
ATOM     64  C   UNL A   1      45.035  26.869  37.380  1.00  0.00     0.059 A 
ATOM     65  C   UNL A   1      46.651  28.272  36.231  1.00  0.00     0.059 A 
ATOM     66  F   UNL A   1      45.903  29.951  34.774  1.00  0.00    -0.206 F 
ATOM     67  C   UNL A   1      46.355  27.247  37.128  1.00  0.00     0.060 A 
BRANCH  67  68
ATOM     68  S   UNL A   1      47.684  26.380  37.990  1.00  0.00     0.124 S 
ATOM     69  O   UNL A   1      48.288  27.465  38.757  1.00  0.00    -0.237 OA
ATOM     70  O   UNL A   1      46.956  25.382  38.769  1.00  0.00    -0.237 OA
ATOM     71  O   UNL A   1      48.502  25.848  36.904  1.00  0.00    -0.744 OA
ENDBRANCH  67  68
ENDBRANCH  46  60
BRANCH  47  72
ATOM     72  C   UNL A   1      36.779  33.078  30.999  1.00  0.00     0.058 A 
ATOM     73  C   UNL A   1      35.451  32.817  31.364  1.00  0.00     0.135 A 
ATOM     74  C   UNL A   1      37.005  33.991  29.957  1.00  0.00     0.135 A 
ATOM     75  F   UNL A   1      35.186  31.943  32.347  1.00  0.00    -0.206 F 
ATOM     76  C   UNL A   1      34.385  33.437  30.721  1.00  0.00     0.059 A 
ATOM     77  C   UNL A   1      35.957  34.639  29.313  1.00  0.00     0.059 A 
ATOM     78  F   UNL A   1      38.260  34.280  29.577  1.00  0.00    -0.206 F 
ATOM     79  C   UNL A   1      34.649  34.351  29.699  1.00  0.00     0.060 A 
BRANCH  79  80
ATOM     80  S   UNL A   1      33.262  35.206  28.920  1.00  0.00     0.124 S 
ATOM     81  O   UNL A   1      33.935  36.320  28.263  1.00  0.00    -0.237 OA
ATOM     82  O   UNL A   1      32.722  34.176  28.038  1.00  0.00    -0.237 OA
ATOM     83  O   UNL A   1      32.410  35.560  30.051  1.00  0.00    -0.744 OA
ENDBRANCH  79  80
ENDBRANCH  47  72
BRANCH  59  84
ATOM     84  C   UNL A   1      39.825  34.132  37.188  1.00  0.00     0.058 A 
ATOM     85  C   UNL A   1      39.017  33.821  38.292  1.00  0.00     0.135 A 
ATOM     86  C   UNL A   1      40.444  35.392  37.160  1.00  0.00     0.135 A 
ATOM     87  F   UNL A   1      38.398  32.632  38.364  1.00  0.00    -0.206 F 
ATOM     88  C   UNL A   1      38.815  34.733  39.324  1.00  0.00     0.059 A 
ATOM     89  C   UNL A   1      40.275  36.311  38.191  1.00  0.00     0.059 A 
ATOM     90  F   UNL A   1      41.234  35.735  36.131  1.00  0.00    -0.206 F 
ATOM     91  C   UNL A   1      39.448  35.976  39.264  1.00  0.00     0.060 A 
BRANCH  91  92
ATOM     92  S   UNL A   1      39.205  37.142  40.622  1.00  0.00     0.124 S 
ATOM     93  O   UNL A   1      38.294  38.109  40.019  1.00  0.00    -0.237 OA
ATOM     94  O   UNL A   1      38.631  36.296  41.665  1.00  0.00    -0.237 OA
ATOM     95  O   UNL A   1      40.553  37.632  40.894  1.00  0.00    -0.744 OA
ENDBRANCH  91  92
ENDBRANCH  59  84
ENDBRANCH  33  34
ENDBRANCH  26  28
ENDBRANCH  25  26
ENDBRANCH  24  25
ENDBRANCH   1  24
TORSDOF 20
ENDMDL
MODEL 3
REMARK VINA RESULT:     -10.1      4.990      6.799
REMARK SMILES COC1CCN(c2nc(C(C)C)c(C(=O)OCCOCCOC(=O)c3ccc(-c4c5nc(c(-c6c(F)cc(S(=O)(=O)[O-])cc6F)c6ccc([nH]6)c(-c6c(F)cc(S(=O)(=O)[O-])cc6F)c6nc(c(-c7c(F)cc(S(=O)(=O)[O-])cc7F)c7ccc4[nH]7)C=C6)C=C5)cc3)s2)CC1
REMARK SMILES IDX 20 1 19 2 18 3 17 4 16 5 14 6 15 7 13 8 7 9 8 10 91 11 9 12
REMARK SMILES IDX 6 13 3 14 4 15 93 16 5 17 92 18 2 19 1 20 10 21 11 22 12 23
REMARK SMILES IDX 21 24 22 25 23 26 24 27 25 28 26 29 90 30 27 31 89 32 28 33
REMARK SMILES IDX 29 34 30 35 83 36 31 37 88 38 82 39 84 40 32 41 87 42 81 43
REMARK SMILES IDX 80 44 33 46 67 47 46 48 66 49 47 50 50 51 65 52 85 53 48 54
REMARK SMILES IDX 49 55 64 57 86 58 51 59 34 60 35 61 44 62 36 63 37 64 43 65
REMARK SMILES IDX 45 66 38 67 39 68 40 69 41 70 42 71 68 72 69 73 78 74 70 75
REMARK SMILES IDX 71 76 77 77 79 78 72 79 73 80 74 81 75 82 76 83 52 84 53 85
REMARK SMILES IDX 62 86 54 87 55 88 61 89 63 90 56 91 57 92 58 93 59 94 60 95
REMARK H PARENT 84 45 50 56
REMARK Flexibility Score: inf
ROOT
ATOM      1  C   UNL A   1      31.779  29.088  26.329  1.00  0.00     0.202 C 
ENDROOT
BRANCH   1   2
ATOM      2  O   UNL A   1      31.760  27.992  25.410  1.00  0.00    -0.374 OA
BRANCH   2   3
ATOM      3  C   UNL A   1      32.569  26.866  25.764  1.00  0.00     0.202 C 
BRANCH   3   4
ATOM      4  C   UNL A   1      31.748  25.637  26.151  1.00  0.00     0.261 C 
BRANCH   4   5
ATOM      5  O   UNL A   1      32.545  24.462  25.921  1.00  0.00    -0.459 OA
BRANCH   5   6
ATOM      6  C   UNL A   1      32.278  23.768  24.786  1.00  0.00     0.350 C 
ATOM      7  O   UNL A   1      31.524  24.162  23.902  1.00  0.00    -0.245 OA
BRANCH   6   8
ATOM      8  C   UNL A   1      33.096  22.580  24.721  1.00  0.00     0.137 A 
ATOM      9  C   UNL A   1      33.720  20.224  24.671  1.00  0.00     0.186 A 
ATOM     10  N   UNL A   1      34.788  20.975  24.582  1.00  0.00    -0.224 NA
ATOM     11  S   UNL A   1      32.246  21.082  24.771  1.00  0.00    -0.089 S 
ATOM     12  C   UNL A   1      34.458  22.334  24.572  1.00  0.00     0.071 A 
BRANCH   9  13
ATOM     13  N   UNL A   1      33.726  18.879  24.748  1.00  0.00    -0.348 N 
ATOM     14  C   UNL A   1      33.256  16.148  24.146  1.00  0.00     0.121 C 
ATOM     15  C   UNL A   1      34.334  16.963  23.413  1.00  0.00     0.053 C 
ATOM     16  C   UNL A   1      32.141  17.070  24.661  1.00  0.00     0.053 C 
ATOM     17  C   UNL A   1      34.857  18.104  24.282  1.00  0.00     0.121 C 
ATOM     18  C   UNL A   1      32.718  18.190  25.531  1.00  0.00     0.121 C 
BRANCH  14  19
ATOM     19  O   UNL A   1      33.754  15.426  25.279  1.00  0.00    -0.381 OA
ATOM     20  C   UNL A   1      32.819  14.544  25.880  1.00  0.00     0.195 C 
ENDBRANCH  14  19
ENDBRANCH   9  13
BRANCH  12  21
ATOM     21  C   UNL A   1      35.639  23.268  24.432  1.00  0.00     0.034 C 
ATOM     22  C   UNL A   1      36.343  23.542  25.762  1.00  0.00     0.014 C 
ATOM     23  C   UNL A   1      36.620  22.875  23.330  1.00  0.00     0.014 C 
ENDBRANCH  12  21
ENDBRANCH   6   8
ENDBRANCH   5   6
ENDBRANCH   4   5
ENDBRANCH   3   4
ENDBRANCH   2   3
ENDBRANCH   1   2
BRANCH   1  24
ATOM     24  C   UNL A   1      33.029  29.150  27.211  1.00  0.00     0.261 C 
BRANCH  24  25
ATOM     25  O   UNL A   1      33.938  30.164  26.742  1.00  0.00    -0.460 OA
BRANCH  25  26
ATOM     26  C   UNL A   1      34.479  30.943  27.710  1.00  0.00     0.338 C 
ATOM     27  O   UNL A   1      33.953  31.894  28.264  1.00  0.00    -0.246 OA
BRANCH  26  28
ATOM     28  C   UNL A   1      35.767  30.367  28.153  1.00  0.00     0.060 A 
ATOM     29  C   UNL A   1      35.800  29.769  29.418  1.00  0.00     0.016 A 
ATOM     30  C   UNL A   1      36.926  30.429  27.372  1.00  0.00     0.016 A 
ATOM     31  C   UNL A   1      37.001  29.278  29.929  1.00  0.00     0.010 A 
ATOM     32  C   UNL A   1      38.131  29.939  27.887  1.00  0.00     0.010 A 
ATOM     33  C   UNL A   1      38.181  29.392  29.181  1.00  0.00    -0.014 A 
BRANCH  33  34
ATOM     34  C   UNL A   1      39.477  29.055  29.818  1.00  0.00     0.031 A 
ATOM     35  C   UNL A   1      39.916  29.822  31.035  1.00  0.00     0.074 A 
ATOM     36  C   UNL A   1      40.235  28.051  29.344  1.00  0.00     0.049 A 
ATOM     37  N   UNL A   1      40.992  29.675  31.763  1.00  0.00    -0.248 NA
ATOM     38  C   UNL A   1      39.022  30.897  31.492  1.00  0.00     0.031 C 
ATOM     39  C   UNL A   1      39.909  27.220  28.185  1.00  0.00     0.029 A 
ATOM     40  N   UNL A   1      41.440  27.560  29.782  1.00  0.00    -0.354 N 
ATOM     41  C   UNL A   1      40.906  30.635  32.764  1.00  0.00     0.074 A 
ATOM     42  C   UNL A   1      39.687  31.380  32.531  1.00  0.00     0.031 C 
ATOM     43  C   UNL A   1      40.895  26.326  28.000  1.00  0.00     0.029 A 
ATOM     44  C   UNL A   1      41.929  26.532  29.014  1.00  0.00     0.049 A 
ATOM     45  H   UNL A   1      41.909  27.913  30.573  1.00  0.00     0.167 HD
ATOM     46  C   UNL A   1      41.759  30.868  33.791  1.00  0.00     0.037 A 
ATOM     47  C   UNL A   1      43.083  25.843  29.111  1.00  0.00     0.037 A 
ATOM     48  C   UNL A   1      42.970  30.127  34.023  1.00  0.00     0.049 A 
ATOM     49  C   UNL A   1      44.041  26.152  30.231  1.00  0.00     0.074 A 
ATOM     50  C   UNL A   1      43.883  30.269  35.053  1.00  0.00     0.029 A 
ATOM     51  N   UNL A   1      43.446  29.113  33.205  1.00  0.00    -0.354 N 
ATOM     52  N   UNL A   1      43.926  27.035  31.194  1.00  0.00    -0.248 NA
ATOM     53  C   UNL A   1      45.282  25.365  30.281  1.00  0.00     0.031 C 
ATOM     54  C   UNL A   1      44.932  29.368  34.837  1.00  0.00     0.029 A 
ATOM     55  C   UNL A   1      44.653  28.638  33.693  1.00  0.00     0.049 A 
ATOM     56  H   UNL A   1      42.994  28.780  32.397  1.00  0.00     0.167 HD
ATOM     57  C   UNL A   1      45.069  26.898  31.975  1.00  0.00     0.074 A 
ATOM     58  C   UNL A   1      45.858  25.840  31.378  1.00  0.00     0.031 C 
ATOM     59  C   UNL A   1      45.430  27.585  33.087  1.00  0.00     0.037 A 
BRANCH  46  60
ATOM     60  C   UNL A   1      41.413  31.989  34.730  1.00  0.00     0.058 A 
ATOM     61  C   UNL A   1      41.923  33.285  34.549  1.00  0.00     0.135 A 
ATOM     62  C   UNL A   1      40.553  31.767  35.816  1.00  0.00     0.135 A 
ATOM     63  F   UNL A   1      42.763  33.546  33.535  1.00  0.00    -0.206 F 
ATOM     64  C   UNL A   1      41.617  34.315  35.433  1.00  0.00     0.059 A 
ATOM     65  C   UNL A   1      40.217  32.788  36.701  1.00  0.00     0.059 A 
ATOM     66  F   UNL A   1      40.040  30.547  36.034  1.00  0.00    -0.206 F 
ATOM     67  C   UNL A   1      40.768  34.054  36.510  1.00  0.00     0.060 A 
BRANCH  67  68
ATOM     68  S   UNL A   1      40.393  35.395  37.660  1.00  0.00     0.124 S 
ATOM     69  O   UNL A   1      39.928  36.436  36.749  1.00  0.00    -0.237 OA
ATOM     70  O   UNL A   1      39.371  34.799  38.516  1.00  0.00    -0.237 OA
ATOM     71  O   UNL A   1      41.676  35.653  38.308  1.00  0.00    -0.744 OA
ENDBRANCH  67  68
ENDBRANCH  46  60
BRANCH  47  72
ATOM     72  C   UNL A   1      43.396  24.790  28.111  1.00  0.00     0.058 A 
ATOM     73  C   UNL A   1      44.016  25.107  26.895  1.00  0.00     0.135 A 
ATOM     74  C   UNL A   1      43.097  23.442  28.363  1.00  0.00     0.135 A 
ATOM     75  F   UNL A   1      44.310  26.383  26.604  1.00  0.00    -0.206 F 
ATOM     76  C   UNL A   1      44.331  24.124  25.961  1.00  0.00     0.059 A 
ATOM     77  C   UNL A   1      43.420  22.440  27.456  1.00  0.00     0.059 A 
ATOM     78  F   UNL A   1      42.511  23.088  29.518  1.00  0.00    -0.206 F 
ATOM     79  C   UNL A   1      44.033  22.792  26.254  1.00  0.00     0.060 A 
BRANCH  79  80
ATOM     80  S   UNL A   1      44.510  21.515  25.069  1.00  0.00     0.124 S 
ATOM     81  O   UNL A   1      44.431  22.239  23.807  1.00  0.00    -0.237 OA
ATOM     82  O   UNL A   1      45.853  21.162  25.521  1.00  0.00    -0.237 OA
ATOM     83  O   UNL A   1      43.500  20.480  25.270  1.00  0.00    -0.744 OA
ENDBRANCH  79  80
ENDBRANCH  47  72
BRANCH  59  84
ATOM     84  C   UNL A   1      46.728  27.206  33.745  1.00  0.00     0.058 A 
ATOM     85  C   UNL A   1      47.933  27.847  33.417  1.00  0.00     0.135 A 
ATOM     86  C   UNL A   1      46.758  26.224  34.748  1.00  0.00     0.135 A 
ATOM     87  F   UNL A   1      47.959  28.789  32.461  1.00  0.00    -0.206 F 
ATOM     88  C   UNL A   1      49.127  27.514  34.047  1.00  0.00     0.059 A 
ATOM     89  C   UNL A   1      47.938  25.891  35.408  1.00  0.00     0.059 A 
ATOM     90  F   UNL A   1      45.632  25.588  35.106  1.00  0.00    -0.206 F 
ATOM     91  C   UNL A   1      49.120  26.534  35.042  1.00  0.00     0.060 A 
BRANCH  91  92
ATOM     92  S   UNL A   1      50.670  26.130  35.876  1.00  0.00     0.124 S 
ATOM     93  O   UNL A   1      50.721  24.681  35.716  1.00  0.00    -0.237 OA
ATOM     94  O   UNL A   1      51.651  26.887  35.104  1.00  0.00    -0.237 OA
ATOM     95  O   UNL A   1      50.455  26.606  37.240  1.00  0.00    -0.744 OA
ENDBRANCH  91  92
ENDBRANCH  59  84
ENDBRANCH  33  34
ENDBRANCH  26  28
ENDBRANCH  25  26
ENDBRANCH  24  25
ENDBRANCH   1  24
TORSDOF 20
ENDMDL
