MODEL 1
REMARK VINA RESULT:     -11.4      0.000      0.000
REMARK SMILES CC(=O)Nc1ccc2c(C(=O)OCCOCCOC(=O)c3ccc(-c4c5nc(c(-c6c(F)cc(S(=O)(=O)[O-])cc6F)c6ccc([nH]6)c(-c6c(F)cc(S(=O)(=O)[O-])cc6F)c6nc(c(-c7c(F)cc(S(=O)(=O)[O-])cc7F)c7ccc4[nH]7)C=C6)C=C5)cc3)c(C)c(O)nc2n1
REMARK SMILES IDX 16 1 15 2 14 3 13 4 12 5 10 6 11 7 9 8 5 9 6 10 93 11 7 12
REMARK SMILES IDX 92 13 8 14 91 15 89 16 87 17 88 18 4 19 1 20 2 21 3 22 90 24
REMARK SMILES IDX 17 26 18 27 19 28 20 29 21 30 22 31 86 32 23 33 85 34 24 35
REMARK SMILES IDX 25 36 26 37 79 38 27 39 84 40 78 41 80 42 28 43 83 44 77 45
REMARK SMILES IDX 76 46 29 48 63 49 42 50 62 51 43 52 46 53 61 54 81 55 44 56
REMARK SMILES IDX 45 57 60 59 82 60 47 61 30 62 31 63 40 64 32 65 33 66 39 67
REMARK SMILES IDX 41 68 34 69 35 70 36 71 37 72 38 73 64 74 65 75 74 76 66 77
REMARK SMILES IDX 67 78 73 79 75 80 68 81 69 82 70 83 71 84 72 85 48 86 49 87
REMARK SMILES IDX 58 88 50 89 51 90 57 91 59 92 52 93 53 94 54 95 55 96 56 97
REMARK H PARENT 4 23 90 25 80 47 46 58
REMARK Flexibility Score: inf
ROOT
ATOM      1  C   UNL A   1      39.699  22.266  26.790  1.00  0.00     0.202 C 
ENDROOT
BRANCH   1   2
ATOM      2  O   UNL A   1      38.828  21.685  25.817  1.00  0.00    -0.374 OA
BRANCH   2   3
ATOM      3  C   UNL A   1      37.600  22.359  25.541  1.00  0.00     0.202 C 
BRANCH   3   4
ATOM      4  C   UNL A   1      36.347  21.481  25.497  1.00  0.00     0.261 C 
BRANCH   4   5
ATOM      5  O   UNL A   1      35.193  22.232  25.899  1.00  0.00    -0.460 OA
BRANCH   5   6
ATOM      6  C   UNL A   1      34.420  22.687  24.890  1.00  0.00     0.339 C 
ATOM      7  O   UNL A   1      34.662  22.627  23.693  1.00  0.00    -0.246 OA
BRANCH   6   8
ATOM      8  C   UNL A   1      33.113  23.148  25.408  1.00  0.00     0.079 A 
ATOM      9  C   UNL A   1      32.545  27.120  26.533  1.00  0.00     0.135 A 
ATOM     10  C   UNL A   1      33.683  26.855  25.800  1.00  0.00     0.048 A 
ATOM     11  N   UNL A   1      31.681  26.158  26.898  1.00  0.00    -0.211 NA
ATOM     12  C   UNL A   1      33.931  25.534  25.449  1.00  0.00     0.017 A 
ATOM     13  C   UNL A   1      31.853  24.906  26.469  1.00  0.00     0.166 A 
ATOM     14  C   UNL A   1      33.001  24.518  25.775  1.00  0.00     0.035 A 
ATOM     15  N   UNL A   1      30.870  24.048  26.703  1.00  0.00    -0.193 NA
ATOM     16  C   UNL A   1      30.947  22.789  26.236  1.00  0.00     0.216 A 
ATOM     17  C   UNL A   1      32.038  22.262  25.568  1.00  0.00     0.026 A 
ATOM     18  C   UNL A   1      32.038  20.892  24.955  1.00  0.00     0.051 C 
BRANCH   9  19
ATOM     19  N   UNL A   1      32.254  28.386  27.032  1.00  0.00    -0.311 N 
ATOM     20  C   UNL A   1      31.394  29.460  24.980  1.00  0.00     0.114 C 
ATOM     21  C   UNL A   1      31.935  29.541  26.385  1.00  0.00     0.222 C 
ATOM     22  O   UNL A   1      31.994  30.621  26.976  1.00  0.00    -0.275 OA
ATOM     23  H   UNL A   1      32.286  28.459  28.014  1.00  0.00     0.171 HD
ENDBRANCH   9  19
BRANCH  16  24
ATOM     24  O   UNL A   1      29.813  22.075  26.474  1.00  0.00    -0.493 OA
ATOM     25  H   UNL A   1      29.678  21.677  27.312  1.00  0.00     0.295 HD
ENDBRANCH  16  24
ENDBRANCH   6   8
ENDBRANCH   5   6
ENDBRANCH   4   5
ENDBRANCH   3   4
ENDBRANCH   2   3
ENDBRANCH   1   2
BRANCH   1  26
ATOM     26  C   UNL A   1      41.190  22.354  26.448  1.00  0.00     0.261 C 
BRANCH  26  27
ATOM     27  O   UNL A   1      41.872  23.340  27.245  1.00  0.00    -0.460 OA
BRANCH  27  28
ATOM     28  C   UNL A   1      42.107  24.516  26.617  1.00  0.00     0.338 C 
ATOM     29  O   UNL A   1      42.521  24.678  25.478  1.00  0.00    -0.246 OA
BRANCH  28  30
ATOM     30  C   UNL A   1      41.612  25.626  27.444  1.00  0.00     0.060 A 
ATOM     31  C   UNL A   1      42.363  26.808  27.480  1.00  0.00     0.016 A 
ATOM     32  C   UNL A   1      40.494  25.463  28.265  1.00  0.00     0.016 A 
ATOM     33  C   UNL A   1      42.018  27.824  28.366  1.00  0.00     0.010 A 
ATOM     34  C   UNL A   1      40.163  26.475  29.170  1.00  0.00     0.010 A 
ATOM     35  C   UNL A   1      40.945  27.641  29.247  1.00  0.00    -0.014 A 
BRANCH  35  36
ATOM     36  C   UNL A   1      40.773  28.584  30.377  1.00  0.00     0.031 A 
ATOM     37  C   UNL A   1      41.684  28.449  31.567  1.00  0.00     0.074 A 
ATOM     38  C   UNL A   1      39.857  29.566  30.322  1.00  0.00     0.049 A 
ATOM     39  N   UNL A   1      41.709  29.148  32.670  1.00  0.00    -0.248 NA
ATOM     40  C   UNL A   1      42.705  27.390  31.500  1.00  0.00     0.031 C 
ATOM     41  C   UNL A   1      38.960  29.824  29.195  1.00  0.00     0.029 A 
ATOM     42  N   UNL A   1      39.530  30.531  31.240  1.00  0.00    -0.354 N 
ATOM     43  C   UNL A   1      42.754  28.624  33.423  1.00  0.00     0.074 A 
ATOM     44  C   UNL A   1      43.314  27.525  32.669  1.00  0.00     0.031 C 
ATOM     45  C   UNL A   1      38.177  30.875  29.495  1.00  0.00     0.029 A 
ATOM     46  C   UNL A   1      38.499  31.345  30.842  1.00  0.00     0.049 A 
ATOM     47  H   UNL A   1      39.992  30.631  32.104  1.00  0.00     0.167 HD
ATOM     48  C   UNL A   1      43.211  29.033  34.630  1.00  0.00     0.037 A 
ATOM     49  C   UNL A   1      37.875  32.343  31.501  1.00  0.00     0.037 A 
ATOM     50  C   UNL A   1      42.643  30.121  35.379  1.00  0.00     0.049 A 
ATOM     51  C   UNL A   1      38.335  32.709  32.888  1.00  0.00     0.074 A 
ATOM     52  C   UNL A   1      43.037  30.614  36.610  1.00  0.00     0.029 A 
ATOM     53  N   UNL A   1      41.556  30.880  34.970  1.00  0.00    -0.354 N 
ATOM     54  N   UNL A   1      39.333  32.216  33.583  1.00  0.00    -0.248 NA
ATOM     55  C   UNL A   1      37.583  33.764  33.585  1.00  0.00     0.031 C 
ATOM     56  C   UNL A   1      42.158  31.641  36.968  1.00  0.00     0.029 A 
ATOM     57  C   UNL A   1      41.247  31.818  35.939  1.00  0.00     0.049 A 
ATOM     58  H   UNL A   1      41.076  30.767  34.118  1.00  0.00     0.167 HD
ATOM     59  C   UNL A   1      39.340  32.911  34.788  1.00  0.00     0.074 A 
ATOM     60  C   UNL A   1      38.257  33.871  34.722  1.00  0.00     0.031 C 
ATOM     61  C   UNL A   1      40.164  32.768  35.855  1.00  0.00     0.037 A 
BRANCH  48  62
ATOM     62  C   UNL A   1      44.380  28.299  35.221  1.00  0.00     0.058 A 
ATOM     63  C   UNL A   1      45.699  28.727  35.003  1.00  0.00     0.135 A 
ATOM     64  C   UNL A   1      44.178  27.198  36.070  1.00  0.00     0.135 A 
ATOM     65  F   UNL A   1      45.947  29.760  34.182  1.00  0.00    -0.206 F 
ATOM     66  C   UNL A   1      46.777  28.087  35.603  1.00  0.00     0.059 A 
ATOM     67  C   UNL A   1      45.241  26.557  36.698  1.00  0.00     0.059 A 
ATOM     68  F   UNL A   1      42.937  26.743  36.302  1.00  0.00    -0.206 F 
ATOM     69  C   UNL A   1      46.538  27.008  36.455  1.00  0.00     0.060 A 
BRANCH  69  70
ATOM     70  S   UNL A   1      47.950  26.217  37.255  1.00  0.00     0.124 S 
ATOM     71  O   UNL A   1      47.609  26.368  38.665  1.00  0.00    -0.237 OA
ATOM     72  O   UNL A   1      47.881  24.858  36.728  1.00  0.00    -0.237 OA
ATOM     73  O   UNL A   1      49.089  27.008  36.798  1.00  0.00    -0.744 OA
ENDBRANCH  69  70
ENDBRANCH  48  62
BRANCH  49  74
ATOM     74  C   UNL A   1      36.737  33.061  30.866  1.00  0.00     0.058 A 
ATOM     75  C   UNL A   1      35.413  32.797  31.245  1.00  0.00     0.135 A 
ATOM     76  C   UNL A   1      36.951  34.017  29.861  1.00  0.00     0.135 A 
ATOM     77  F   UNL A   1      35.158  31.882  32.194  1.00  0.00    -0.206 F 
ATOM     78  C   UNL A   1      34.339  33.445  30.643  1.00  0.00     0.059 A 
ATOM     79  C   UNL A   1      35.894  34.696  29.260  1.00  0.00     0.059 A 
ATOM     80  F   UNL A   1      38.199  34.314  29.467  1.00  0.00    -0.206 F 
ATOM     81  C   UNL A   1      34.592  34.395  29.652  1.00  0.00     0.060 A 
BRANCH  81  82
ATOM     82  S   UNL A   1      33.192  35.260  28.909  1.00  0.00     0.124 S 
ATOM     83  O   UNL A   1      33.856  36.364  28.228  1.00  0.00    -0.237 OA
ATOM     84  O   UNL A   1      32.618  34.229  28.049  1.00  0.00    -0.237 OA
ATOM     85  O   UNL A   1      32.376  35.628  30.062  1.00  0.00    -0.744 OA
ENDBRANCH  81  82
ENDBRANCH  49  74
BRANCH  61  86
ATOM     86  C   UNL A   1      39.942  33.666  37.039  1.00  0.00     0.058 A 
ATOM     87  C   UNL A   1      40.539  34.933  37.116  1.00  0.00     0.135 A 
ATOM     88  C   UNL A   1      39.056  33.293  38.063  1.00  0.00     0.135 A 
ATOM     89  F   UNL A   1      41.398  35.334  36.167  1.00  0.00    -0.206 F 
ATOM     90  C   UNL A   1      40.272  35.798  38.173  1.00  0.00     0.059 A 
ATOM     91  C   UNL A   1      38.753  34.152  39.115  1.00  0.00     0.059 A 
ATOM     92  F   UNL A   1      38.450  32.095  38.030  1.00  0.00    -0.206 F 
ATOM     93  C   UNL A   1      39.371  35.401  39.163  1.00  0.00     0.060 A 
BRANCH  93  94
ATOM     94  S   UNL A   1      38.994  36.558  40.497  1.00  0.00     0.124 S 
ATOM     95  O   UNL A   1      38.617  37.754  39.752  1.00  0.00    -0.237 OA
ATOM     96  O   UNL A   1      37.909  35.879  41.200  1.00  0.00    -0.237 OA
ATOM     97  O   UNL A   1      40.251  36.648  41.235  1.00  0.00    -0.744 OA
ENDBRANCH  93  94
ENDBRANCH  61  86
ENDBRANCH  35  36
ENDBRANCH  28  30
ENDBRANCH  27  28
ENDBRANCH  26  27
ENDBRANCH   1  26
TORSDOF 19
ENDMDL
MODEL 2
REMARK VINA RESULT:     -11.2      6.048      8.208
REMARK SMILES CC(=O)Nc1ccc2c(C(=O)OCCOCCOC(=O)c3ccc(-c4c5nc(c(-c6c(F)cc(S(=O)(=O)[O-])cc6F)c6ccc([nH]6)c(-c6c(F)cc(S(=O)(=O)[O-])cc6F)c6nc(c(-c7c(F)cc(S(=O)(=O)[O-])cc7F)c7ccc4[nH]7)C=C6)C=C5)cc3)c(C)c(O)nc2n1
REMARK SMILES IDX 16 1 15 2 14 3 13 4 12 5 10 6 11 7 9 8 5 9 6 10 93 11 7 12
REMARK SMILES IDX 92 13 8 14 91 15 89 16 87 17 88 18 4 19 1 20 2 21 3 22 90 24
REMARK SMILES IDX 17 26 18 27 19 28 20 29 21 30 22 31 86 32 23 33 85 34 24 35
REMARK SMILES IDX 25 36 26 37 79 38 27 39 84 40 78 41 80 42 28 43 83 44 77 45
REMARK SMILES IDX 76 46 29 48 63 49 42 50 62 51 43 52 46 53 61 54 81 55 44 56
REMARK SMILES IDX 45 57 60 59 82 60 47 61 30 62 31 63 40 64 32 65 33 66 39 67
REMARK SMILES IDX 41 68 34 69 35 70 36 71 37 72 38 73 64 74 65 75 74 76 66 77
REMARK SMILES IDX 67 78 73 79 75 80 68 81 69 82 70 83 71 84 72 85 48 86 49 87
REMARK SMILES IDX 58 88 50 89 51 90 57 91 59 92 52 93 53 94 54 95 55 96 56 97
REMARK H PARENT 4 23 90 25 80 47 46 58
REMARK Flexibility Score: inf
ROOT
ATOM      1  C   UNL A   1      39.257  21.599  26.128  1.00  0.00     0.202 C 
ENDROOT
BRANCH   1   2
ATOM      2  O   UNL A   1      37.946  22.024  25.747  1.00  0.00    -0.374 OA
BRANCH   2   3
ATOM      3  C   UNL A   1      37.137  21.102  25.016  1.00  0.00     0.202 C 
BRANCH   3   4
ATOM      4  C   UNL A   1      35.655  21.063  25.397  1.00  0.00     0.261 C 
BRANCH   4   5
ATOM      5  O   UNL A   1      35.148  22.393  25.576  1.00  0.00    -0.460 OA
BRANCH   5   6
ATOM      6  C   UNL A   1      34.290  22.818  24.624  1.00  0.00     0.339 C 
ATOM      7  O   UNL A   1      34.443  22.751  23.413  1.00  0.00    -0.246 OA
BRANCH   6   8
ATOM      8  C   UNL A   1      33.014  23.250  25.235  1.00  0.00     0.079 A 
ATOM      9  C   UNL A   1      32.465  27.195  26.460  1.00  0.00     0.135 A 
ATOM     10  C   UNL A   1      33.555  26.959  25.648  1.00  0.00     0.048 A 
ATOM     11  N   UNL A   1      31.641  26.216  26.865  1.00  0.00    -0.211 NA
ATOM     12  C   UNL A   1      33.798  25.648  25.261  1.00  0.00     0.017 A 
ATOM     13  C   UNL A   1      31.803  24.973  26.405  1.00  0.00     0.166 A 
ATOM     14  C   UNL A   1      32.907  24.613  25.631  1.00  0.00     0.035 A 
ATOM     15  N   UNL A   1      30.850  24.096  26.690  1.00  0.00    -0.193 NA
ATOM     16  C   UNL A   1      30.913  22.845  26.199  1.00  0.00     0.216 A 
ATOM     17  C   UNL A   1      31.965  22.345  25.452  1.00  0.00     0.026 A 
ATOM     18  C   UNL A   1      31.944  20.986  24.818  1.00  0.00     0.051 C 
BRANCH   9  19
ATOM     19  N   UNL A   1      32.190  28.449  26.997  1.00  0.00    -0.311 N 
ATOM     20  C   UNL A   1      31.315  29.587  24.985  1.00  0.00     0.114 C 
ATOM     21  C   UNL A   1      31.872  29.625  26.386  1.00  0.00     0.222 C 
ATOM     22  O   UNL A   1      31.947  30.687  27.006  1.00  0.00    -0.275 OA
ATOM     23  H   UNL A   1      32.233  28.495  27.980  1.00  0.00     0.171 HD
ENDBRANCH   9  19
BRANCH  16  24
ATOM     24  O   UNL A   1      29.808  22.111  26.501  1.00  0.00    -0.493 OA
ATOM     25  H   UNL A   1      29.350  22.262  27.304  1.00  0.00     0.295 HD
ENDBRANCH  16  24
ENDBRANCH   6   8
ENDBRANCH   5   6
ENDBRANCH   4   5
ENDBRANCH   3   4
ENDBRANCH   2   3
ENDBRANCH   1   2
BRANCH   1  26
ATOM     26  C   UNL A   1      39.688  20.182  25.734  1.00  0.00     0.261 C 
BRANCH  26  27
ATOM     27  O   UNL A   1      40.577  19.596  26.704  1.00  0.00    -0.460 OA
BRANCH  27  28
ATOM     28  C   UNL A   1      41.846  19.407  26.271  1.00  0.00     0.338 C 
ATOM     29  O   UNL A   1      42.281  18.448  25.649  1.00  0.00    -0.246 OA
BRANCH  28  30
ATOM     30  C   UNL A   1      42.631  20.630  26.492  1.00  0.00     0.060 A 
ATOM     31  C   UNL A   1      42.665  21.167  27.785  1.00  0.00     0.016 A 
ATOM     32  C   UNL A   1      43.223  21.303  25.421  1.00  0.00     0.016 A 
ATOM     33  C   UNL A   1      43.264  22.404  28.008  1.00  0.00     0.010 A 
ATOM     34  C   UNL A   1      43.803  22.554  25.643  1.00  0.00     0.010 A 
ATOM     35  C   UNL A   1      43.793  23.123  26.929  1.00  0.00    -0.014 A 
BRANCH  35  36
ATOM     36  C   UNL A   1      44.151  24.547  27.121  1.00  0.00     0.031 A 
ATOM     37  C   UNL A   1      45.584  24.958  26.919  1.00  0.00     0.074 A 
ATOM     38  C   UNL A   1      43.211  25.461  27.421  1.00  0.00     0.049 A 
ATOM     39  N   UNL A   1      46.130  26.138  27.044  1.00  0.00    -0.248 NA
ATOM     40  C   UNL A   1      46.525  23.898  26.518  1.00  0.00     0.031 C 
ATOM     41  C   UNL A   1      41.785  25.183  27.584  1.00  0.00     0.029 A 
ATOM     42  N   UNL A   1      43.320  26.810  27.644  1.00  0.00    -0.354 N 
ATOM     43  C   UNL A   1      47.473  25.967  26.726  1.00  0.00     0.074 A 
ATOM     44  C   UNL A   1      47.668  24.564  26.438  1.00  0.00     0.031 C 
ATOM     45  C   UNL A   1      41.152  26.329  27.890  1.00  0.00     0.029 A 
ATOM     46  C   UNL A   1      42.131  27.413  27.971  1.00  0.00     0.049 A 
ATOM     47  H   UNL A   1      44.171  27.300  27.575  1.00  0.00     0.167 HD
ATOM     48  C   UNL A   1      48.450  26.901  26.667  1.00  0.00     0.037 A 
ATOM     49  C   UNL A   1      41.870  28.690  28.315  1.00  0.00     0.037 A 
ATOM     50  C   UNL A   1      48.251  28.294  26.964  1.00  0.00     0.049 A 
ATOM     51  C   UNL A   1      42.998  29.689  28.346  1.00  0.00     0.074 A 
ATOM     52  C   UNL A   1      49.179  29.321  26.930  1.00  0.00     0.029 A 
ATOM     53  N   UNL A   1      47.045  28.855  27.356  1.00  0.00    -0.354 N 
ATOM     54  N   UNL A   1      44.259  29.518  28.028  1.00  0.00    -0.248 NA
ATOM     55  C   UNL A   1      42.670  31.054  28.785  1.00  0.00     0.031 C 
ATOM     56  C   UNL A   1      48.543  30.494  27.348  1.00  0.00     0.029 A 
ATOM     57  C   UNL A   1      47.211  30.208  27.596  1.00  0.00     0.049 A 
ATOM     58  H   UNL A   1      46.197  28.364  27.450  1.00  0.00     0.167 HD
ATOM     59  C   UNL A   1      44.870  30.755  28.211  1.00  0.00     0.074 A 
ATOM     60  C   UNL A   1      43.836  31.669  28.651  1.00  0.00     0.031 C 
ATOM     61  C   UNL A   1      46.168  31.103  28.034  1.00  0.00     0.037 A 
BRANCH  48  62
ATOM     62  C   UNL A   1      49.827  26.450  26.272  1.00  0.00     0.058 A 
ATOM     63  C   UNL A   1      50.288  26.580  24.952  1.00  0.00     0.135 A 
ATOM     64  C   UNL A   1      50.719  25.948  27.233  1.00  0.00     0.135 A 
ATOM     65  F   UNL A   1      49.468  27.033  23.991  1.00  0.00    -0.206 F 
ATOM     66  C   UNL A   1      51.584  26.223  24.599  1.00  0.00     0.059 A 
ATOM     67  C   UNL A   1      52.027  25.605  26.907  1.00  0.00     0.059 A 
ATOM     68  F   UNL A   1      50.323  25.796  28.507  1.00  0.00    -0.206 F 
ATOM     69  C   UNL A   1      52.449  25.744  25.585  1.00  0.00     0.060 A 
BRANCH  69  70
ATOM     70  S   UNL A   1      54.140  25.324  25.113  1.00  0.00     0.124 S 
ATOM     71  O   UNL A   1      54.893  25.804  26.266  1.00  0.00    -0.237 OA
ATOM     72  O   UNL A   1      54.067  23.874  24.962  1.00  0.00    -0.237 OA
ATOM     73  O   UNL A   1      54.345  26.071  23.875  1.00  0.00    -0.744 OA
ENDBRANCH  69  70
ENDBRANCH  48  62
BRANCH  49  74
ATOM     74  C   UNL A   1      40.485  29.099  28.675  1.00  0.00     0.058 A 
ATOM     75  C   UNL A   1      40.082  29.185  30.015  1.00  0.00     0.135 A 
ATOM     76  C   UNL A   1      39.537  29.402  27.686  1.00  0.00     0.135 A 
ATOM     77  F   UNL A   1      40.950  28.893  30.996  1.00  0.00    -0.206 F 
ATOM     78  C   UNL A   1      38.784  29.544  30.364  1.00  0.00     0.059 A 
ATOM     79  C   UNL A   1      38.239  29.787  28.010  1.00  0.00     0.059 A 
ATOM     80  F   UNL A   1      39.874  29.344  26.388  1.00  0.00    -0.206 F 
ATOM     81  C   UNL A   1      37.870  29.845  29.352  1.00  0.00     0.060 A 
BRANCH  81  82
ATOM     82  S   UNL A   1      36.201  30.352  29.819  1.00  0.00     0.124 S 
ATOM     83  O   UNL A   1      36.030  29.663  31.092  1.00  0.00    -0.237 OA
ATOM     84  O   UNL A   1      36.333  31.804  29.889  1.00  0.00    -0.237 OA
ATOM     85  O   UNL A   1      35.380  29.858  28.717  1.00  0.00    -0.744 OA
ENDBRANCH  81  82
ENDBRANCH  49  74
BRANCH  61  86
ATOM     86  C   UNL A   1      46.555  32.530  28.307  1.00  0.00     0.058 A 
ATOM     87  C   UNL A   1      47.089  32.917  29.544  1.00  0.00     0.135 A 
ATOM     88  C   UNL A   1      46.471  33.500  27.293  1.00  0.00     0.135 A 
ATOM     89  F   UNL A   1      47.184  32.030  30.547  1.00  0.00    -0.206 F 
ATOM     90  C   UNL A   1      47.521  34.220  29.773  1.00  0.00     0.059 A 
ATOM     91  C   UNL A   1      46.922  34.801  27.491  1.00  0.00     0.059 A 
ATOM     92  F   UNL A   1      45.977  33.177  26.088  1.00  0.00    -0.206 F 
ATOM     93  C   UNL A   1      47.440  35.153  28.736  1.00  0.00     0.060 A 
BRANCH  93  94
ATOM     94  S   UNL A   1      48.057  36.824  29.033  1.00  0.00     0.124 S 
ATOM     95  O   UNL A   1      47.310  37.205  30.227  1.00  0.00    -0.237 OA
ATOM     96  O   UNL A   1      49.486  36.598  29.223  1.00  0.00    -0.237 OA
ATOM     97  O   UNL A   1      47.698  37.541  27.813  1.00  0.00    -0.744 OA
ENDBRANCH  93  94
ENDBRANCH  61  86
ENDBRANCH  35  36
ENDBRANCH  28  30
ENDBRANCH  27  28
ENDBRANCH  26  27
ENDBRANCH   1  26
TORSDOF 19
ENDMDL
MODEL 3
REMARK VINA RESULT:     -11.1      6.190     11.679
REMARK SMILES CC(=O)Nc1ccc2c(C(=O)OCCOCCOC(=O)c3ccc(-c4c5nc(c(-c6c(F)cc(S(=O)(=O)[O-])cc6F)c6ccc([nH]6)c(-c6c(F)cc(S(=O)(=O)[O-])cc6F)c6nc(c(-c7c(F)cc(S(=O)(=O)[O-])cc7F)c7ccc4[nH]7)C=C6)C=C5)cc3)c(C)c(O)nc2n1
REMARK SMILES IDX 16 1 15 2 14 3 13 4 12 5 10 6 11 7 9 8 5 9 6 10 93 11 7 12
REMARK SMILES IDX 92 13 8 14 91 15 89 16 87 17 88 18 4 19 1 20 2 21 3 22 90 24
REMARK SMILES IDX 17 26 18 27 19 28 20 29 21 30 22 31 86 32 23 33 85 34 24 35
REMARK SMILES IDX 25 36 26 37 79 38 27 39 84 40 78 41 80 42 28 43 83 44 77 45
REMARK SMILES IDX 76 46 29 48 63 49 42 50 62 51 43 52 46 53 61 54 81 55 44 56
REMARK SMILES IDX 45 57 60 59 82 60 47 61 30 62 31 63 40 64 32 65 33 66 39 67
REMARK SMILES IDX 41 68 34 69 35 70 36 71 37 72 38 73 64 74 65 75 74 76 66 77
REMARK SMILES IDX 67 78 73 79 75 80 68 81 69 82 70 83 71 84 72 85 48 86 49 87
REMARK SMILES IDX 58 88 50 89 51 90 57 91 59 92 52 93 53 94 54 95 55 96 56 97
REMARK H PARENT 4 23 90 25 80 47 46 58
REMARK Flexibility Score: inf
ROOT
ATOM      1  C   UNL A   1      34.377  31.486  28.021  1.00  0.00     0.202 C 
ENDROOT
BRANCH   1   2
ATOM      2  O   UNL A   1      34.763  30.110  28.017  1.00  0.00    -0.374 OA
BRANCH   2   3
ATOM      3  C   UNL A   1      34.341  29.307  26.914  1.00  0.00     0.202 C 
BRANCH   3   4
ATOM      4  C   UNL A   1      33.213  28.314  27.200  1.00  0.00     0.261 C 
BRANCH   4   5
ATOM      5  O   UNL A   1      33.421  27.094  26.474  1.00  0.00    -0.460 OA
BRANCH   5   6
ATOM      6  C   UNL A   1      32.300  26.415  26.151  1.00  0.00     0.339 C 
ATOM      7  O   UNL A   1      31.428  26.027  26.916  1.00  0.00    -0.246 OA
BRANCH   6   8
ATOM      8  C   UNL A   1      32.156  26.325  24.681  1.00  0.00     0.079 A 
ATOM      9  C   UNL A   1      30.381  29.415  22.520  1.00  0.00     0.135 A 
ATOM     10  C   UNL A   1      30.732  29.710  23.821  1.00  0.00     0.048 A 
ATOM     11  N   UNL A   1      30.565  28.199  21.980  1.00  0.00    -0.211 NA
ATOM     12  C   UNL A   1      31.280  28.690  24.587  1.00  0.00     0.017 A 
ATOM     13  C   UNL A   1      31.194  27.247  22.674  1.00  0.00     0.166 A 
ATOM     14  C   UNL A   1      31.535  27.420  24.017  1.00  0.00     0.035 A 
ATOM     15  N   UNL A   1      31.513  26.137  22.023  1.00  0.00    -0.193 NA
ATOM     16  C   UNL A   1      32.210  25.167  22.641  1.00  0.00     0.216 A 
ATOM     17  C   UNL A   1      32.578  25.190  23.974  1.00  0.00     0.026 A 
ATOM     18  C   UNL A   1      33.462  24.149  24.597  1.00  0.00     0.051 C 
BRANCH   9  19
ATOM     19  N   UNL A   1      29.725  30.325  21.697  1.00  0.00    -0.311 N 
ATOM     20  C   UNL A   1      27.478  30.277  22.725  1.00  0.00     0.114 C 
ATOM     21  C   UNL A   1      28.399  30.619  21.581  1.00  0.00     0.222 C 
ATOM     22  O   UNL A   1      27.985  31.241  20.602  1.00  0.00    -0.275 OA
ATOM     23  H   UNL A   1      30.315  30.841  21.100  1.00  0.00     0.171 HD
ENDBRANCH   9  19
BRANCH  16  24
ATOM     24  O   UNL A   1      32.541  24.148  21.802  1.00  0.00    -0.493 OA
ATOM     25  H   UNL A   1      31.901  23.801  21.212  1.00  0.00     0.295 HD
ENDBRANCH  16  24
ENDBRANCH   6   8
ENDBRANCH   5   6
ENDBRANCH   4   5
ENDBRANCH   3   4
ENDBRANCH   2   3
ENDBRANCH   1   2
BRANCH   1  26
ATOM     26  C   UNL A   1      34.863  32.358  29.183  1.00  0.00     0.261 C 
BRANCH  26  27
ATOM     27  O   UNL A   1      36.297  32.340  29.313  1.00  0.00    -0.460 OA
BRANCH  27  28
ATOM     28  C   UNL A   1      36.762  31.675  30.397  1.00  0.00     0.338 C 
ATOM     29  O   UNL A   1      36.265  31.640  31.514  1.00  0.00    -0.246 OA
BRANCH  28  30
ATOM     30  C   UNL A   1      37.888  30.815  30.004  1.00  0.00     0.060 A 
ATOM     31  C   UNL A   1      38.796  30.423  30.997  1.00  0.00     0.016 A 
ATOM     32  C   UNL A   1      38.114  30.501  28.663  1.00  0.00     0.016 A 
ATOM     33  C   UNL A   1      39.958  29.742  30.647  1.00  0.00     0.010 A 
ATOM     34  C   UNL A   1      39.293  29.837  28.311  1.00  0.00     0.010 A 
ATOM     35  C   UNL A   1      40.232  29.489  29.297  1.00  0.00    -0.014 A 
BRANCH  35  36
ATOM     36  C   UNL A   1      41.591  29.041  28.912  1.00  0.00     0.031 A 
ATOM     37  C   UNL A   1      42.714  30.041  28.958  1.00  0.00     0.074 A 
ATOM     38  C   UNL A   1      41.826  27.761  28.574  1.00  0.00     0.049 A 
ATOM     39  N   UNL A   1      43.974  29.882  28.654  1.00  0.00    -0.248 NA
ATOM     40  C   UNL A   1      42.371  31.400  29.414  1.00  0.00     0.031 C 
ATOM     41  C   UNL A   1      40.824  26.696  28.550  1.00  0.00     0.029 A 
ATOM     42  N   UNL A   1      42.986  27.142  28.185  1.00  0.00    -0.354 N 
ATOM     43  C   UNL A   1      44.577  31.112  28.892  1.00  0.00     0.074 A 
ATOM     44  C   UNL A   1      43.540  32.018  29.331  1.00  0.00     0.031 C 
ATOM     45  C   UNL A   1      41.413  25.554  28.155  1.00  0.00     0.029 A 
ATOM     46  C   UNL A   1      42.826  25.814  27.875  1.00  0.00     0.049 A 
ATOM     47  H   UNL A   1      43.853  27.606  28.133  1.00  0.00     0.167 HD
ATOM     48  C   UNL A   1      45.882  31.449  28.769  1.00  0.00     0.037 A 
ATOM     49  C   UNL A   1      43.715  24.918  27.401  1.00  0.00     0.037 A 
ATOM     50  C   UNL A   1      46.908  30.545  28.323  1.00  0.00     0.049 A 
ATOM     51  C   UNL A   1      45.141  25.349  27.171  1.00  0.00     0.074 A 
ATOM     52  C   UNL A   1      48.261  30.791  28.167  1.00  0.00     0.029 A 
ATOM     53  N   UNL A   1      46.694  29.225  27.956  1.00  0.00    -0.354 N 
ATOM     54  N   UNL A   1      45.701  26.510  27.414  1.00  0.00    -0.248 NA
ATOM     55  C   UNL A   1      46.055  24.350  26.597  1.00  0.00     0.031 C 
ATOM     56  C   UNL A   1      48.857  29.632  27.660  1.00  0.00     0.029 A 
ATOM     57  C   UNL A   1      47.884  28.652  27.545  1.00  0.00     0.049 A 
ATOM     58  H   UNL A   1      45.824  28.764  27.983  1.00  0.00     0.167 HD
ATOM     59  C   UNL A   1      47.035  26.376  27.041  1.00  0.00     0.074 A 
ATOM     60  C   UNL A   1      47.202  25.016  26.571  1.00  0.00     0.031 C 
ATOM     61  C   UNL A   1      48.032  27.294  27.081  1.00  0.00     0.037 A 
BRANCH  48  62
ATOM     62  C   UNL A   1      46.278  32.856  29.114  1.00  0.00     0.058 A 
ATOM     63  C   UNL A   1      46.219  33.886  28.162  1.00  0.00     0.135 A 
ATOM     64  C   UNL A   1      46.653  33.193  30.424  1.00  0.00     0.135 A 
ATOM     65  F   UNL A   1      45.888  33.613  26.890  1.00  0.00    -0.206 F 
ATOM     66  C   UNL A   1      46.522  35.201  28.497  1.00  0.00     0.059 A 
ATOM     67  C   UNL A   1      46.940  34.505  30.787  1.00  0.00     0.059 A 
ATOM     68  F   UNL A   1      46.735  32.242  31.369  1.00  0.00    -0.206 F 
ATOM     69  C   UNL A   1      46.874  35.502  29.814  1.00  0.00     0.060 A 
BRANCH  69  70
ATOM     70  S   UNL A   1      47.226  37.221  30.237  1.00  0.00     0.124 S 
ATOM     71  O   UNL A   1      48.231  37.568  29.237  1.00  0.00    -0.237 OA
ATOM     72  O   UNL A   1      45.922  37.853  30.070  1.00  0.00    -0.237 OA
ATOM     73  O   UNL A   1      47.711  37.142  31.612  1.00  0.00    -0.744 OA
ENDBRANCH  69  70
ENDBRANCH  48  62
BRANCH  49  74
ATOM     74  C   UNL A   1      43.285  23.527  27.097  1.00  0.00     0.058 A 
ATOM     75  C   UNL A   1      43.054  23.114  25.777  1.00  0.00     0.135 A 
ATOM     76  C   UNL A   1      43.087  22.587  28.120  1.00  0.00     0.135 A 
ATOM     77  F   UNL A   1      43.217  23.980  24.766  1.00  0.00    -0.206 F 
ATOM     78  C   UNL A   1      42.629  21.823  25.481  1.00  0.00     0.059 A 
ATOM     79  C   UNL A   1      42.686  21.282  27.848  1.00  0.00     0.059 A 
ATOM     80  F   UNL A   1      43.304  22.928  29.400  1.00  0.00    -0.206 F 
ATOM     81  C   UNL A   1      42.450  20.913  26.526  1.00  0.00     0.060 A 
BRANCH  81  82
ATOM     82  S   UNL A   1      41.941  19.228  26.125  1.00  0.00     0.124 S 
ATOM     83  O   UNL A   1      42.746  18.951  24.942  1.00  0.00    -0.237 OA
ATOM     84  O   UNL A   1      42.311  18.502  27.336  1.00  0.00    -0.237 OA
ATOM     85  O   UNL A   1      40.505  19.357  25.896  1.00  0.00    -0.744 OA
ENDBRANCH  81  82
ENDBRANCH  49  74
BRANCH  61  86
ATOM     86  C   UNL A   1      49.395  26.870  26.613  1.00  0.00     0.058 A 
ATOM     87  C   UNL A   1      50.298  26.232  27.476  1.00  0.00     0.135 A 
ATOM     88  C   UNL A   1      49.769  27.024  25.267  1.00  0.00     0.135 A 
ATOM     89  F   UNL A   1      49.991  26.066  28.772  1.00  0.00    -0.206 F 
ATOM     90  C   UNL A   1      51.529  25.768  27.024  1.00  0.00     0.059 A 
ATOM     91  C   UNL A   1      50.983  26.543  24.787  1.00  0.00     0.059 A 
ATOM     92  F   UNL A   1      48.936  27.618  24.398  1.00  0.00    -0.206 F 
ATOM     93  C   UNL A   1      51.859  25.921  25.676  1.00  0.00     0.060 A 
BRANCH  93  94
ATOM     94  S   UNL A   1      53.437  25.263  25.096  1.00  0.00     0.124 S 
ATOM     95  O   UNL A   1      54.372  25.863  26.042  1.00  0.00    -0.237 OA
ATOM     96  O   UNL A   1      53.239  23.823  25.225  1.00  0.00    -0.237 OA
ATOM     97  O   UNL A   1      53.529  25.756  23.725  1.00  0.00    -0.744 OA
ENDBRANCH  93  94
ENDBRANCH  61  86
ENDBRANCH  35  36
ENDBRANCH  28  30
ENDBRANCH  27  28
ENDBRANCH  26  27
ENDBRANCH   1  26
TORSDOF 19
ENDMDL
