MODEL 1
REMARK VINA RESULT:     -10.6      0.000      0.000
REMARK SMILES O=C(Cc1ccccc1Nc1c(Cl)cccc1C(F)(F)F)OCCOCCOC(=O)c1ccc(-c2c3nc(c(-c4c(F)cc(S(=O)(=O)[O-])cc4F)c4ccc([nH]4)c(-c4c(F)cc(S(=O)(=O)[O-])cc4F)c4nc(c(-c5c(F)cc(S(=O)(=O)[O-])cc5F)c5ccc2[nH]5)C=C4)C=C3)cc1
REMARK SMILES IDX 24 1 23 2 22 3 2 4 1 5 3 6 4 7 5 8 9 9 6 10 8 11 7 12 10 13
REMARK SMILES IDX 11 15 12 16 17 17 13 18 14 19 16 20 15 21 18 22 19 23 20 24
REMARK SMILES IDX 21 25 25 26 26 27 27 28 28 29 29 30 30 31 31 32 32 33 96 34
REMARK SMILES IDX 33 35 95 36 34 37 35 38 36 39 89 40 37 41 94 42 88 43 90 44
REMARK SMILES IDX 38 45 93 46 87 47 86 48 39 50 73 51 52 52 72 53 53 54 56 55
REMARK SMILES IDX 71 56 91 57 54 58 55 59 70 61 92 62 57 63 40 64 41 65 50 66
REMARK SMILES IDX 42 67 43 68 49 69 51 70 44 71 45 72 46 73 47 74 48 75 74 76
REMARK SMILES IDX 75 77 84 78 76 79 77 80 83 81 85 82 78 83 79 84 80 85 81 86
REMARK SMILES IDX 82 87 58 88 59 89 68 90 60 91 61 92 67 93 69 94 62 95 63 96
REMARK SMILES IDX 64 97 65 98 66 99
REMARK H PARENT 10 14 90 49 56 60
REMARK Flexibility Score: inf
ROOT
ATOM      1  C   UNL A   1      37.969  21.975  25.806  1.00  0.00     0.202 C 
ENDROOT
BRANCH   1   2
ATOM      2  C   UNL A   1      37.546  23.243  25.048  1.00  0.00     0.261 C 
BRANCH   2   3
ATOM      3  O   UNL A   1      36.630  23.135  23.952  1.00  0.00    -0.463 OA
BRANCH   3   4
ATOM      4  C   UNL A   1      35.396  23.678  23.911  1.00  0.00     0.310 C 
ATOM      5  O   UNL A   1      34.730  23.598  22.879  1.00  0.00    -0.252 OA
BRANCH   4   6
ATOM      6  C   UNL A   1      34.953  24.553  25.055  1.00  0.00     0.160 C 
BRANCH   6   7
ATOM      7  C   UNL A   1      33.527  24.373  25.499  1.00  0.00    -0.013 A 
ATOM      8  C   UNL A   1      33.229  23.455  26.523  1.00  0.00     0.006 A 
ATOM      9  C   UNL A   1      32.486  25.157  24.972  1.00  0.00     0.042 A 
ATOM     10  C   UNL A   1      31.919  23.200  26.911  1.00  0.00     0.000 A 
ATOM     11  C   UNL A   1      31.167  24.830  25.315  1.00  0.00     0.026 A 
ATOM     12  C   UNL A   1      30.881  23.847  26.264  1.00  0.00     0.002 A 
BRANCH   9  13
ATOM     13  N   UNL A   1      32.778  26.321  24.232  1.00  0.00    -0.354 N 
ATOM     14  H   UNL A   1      33.690  26.354  23.863  1.00  0.00     0.167 HD
BRANCH  13  15
ATOM     15  C   UNL A   1      31.982  27.444  23.934  1.00  0.00     0.070 A 
ATOM     16  C   UNL A   1      31.274  27.441  22.708  1.00  0.00     0.065 A 
ATOM     17  C   UNL A   1      31.790  28.522  24.819  1.00  0.00     0.080 A 
ATOM     18  Cl  UNL A   1      31.556  26.200  21.531  1.00  0.00    -0.082 Cl
ATOM     19  C   UNL A   1      30.335  28.424  22.406  1.00  0.00     0.023 A 
ATOM     20  C   UNL A   1      30.812  29.492  24.508  1.00  0.00     0.015 A 
ATOM     21  C   UNL A   1      30.084  29.437  23.321  1.00  0.00     0.002 A 
BRANCH  17  22
ATOM     22  C   UNL A   1      32.626  28.748  26.062  1.00  0.00     0.418 C 
ATOM     23  F   UNL A   1      32.583  27.659  26.894  1.00  0.00    -0.166 F 
ATOM     24  F   UNL A   1      33.950  28.917  25.791  1.00  0.00    -0.166 F 
ATOM     25  F   UNL A   1      32.242  29.788  26.847  1.00  0.00    -0.166 F 
ENDBRANCH  17  22
ENDBRANCH  13  15
ENDBRANCH   9  13
ENDBRANCH   6   7
ENDBRANCH   4   6
ENDBRANCH   3   4
ENDBRANCH   2   3
ENDBRANCH   1   2
BRANCH   1  26
ATOM     26  O   UNL A   1      39.321  21.712  26.157  1.00  0.00    -0.374 OA
BRANCH  26  27
ATOM     27  C   UNL A   1      40.161  22.722  26.689  1.00  0.00     0.202 C 
BRANCH  27  28
ATOM     28  C   UNL A   1      41.424  23.031  25.902  1.00  0.00     0.261 C 
BRANCH  28  29
ATOM     29  O   UNL A   1      42.166  24.091  26.509  1.00  0.00    -0.460 OA
BRANCH  29  30
ATOM     30  C   UNL A   1      41.657  25.323  26.281  1.00  0.00     0.338 C 
ATOM     31  O   UNL A   1      41.137  25.732  25.252  1.00  0.00    -0.246 OA
BRANCH  30  32
ATOM     32  C   UNL A   1      41.638  26.073  27.545  1.00  0.00     0.060 A 
ATOM     33  C   UNL A   1      40.553  25.861  28.405  1.00  0.00     0.016 A 
ATOM     34  C   UNL A   1      42.648  26.982  27.870  1.00  0.00     0.016 A 
ATOM     35  C   UNL A   1      40.447  26.599  29.574  1.00  0.00     0.010 A 
ATOM     36  C   UNL A   1      42.533  27.735  29.037  1.00  0.00     0.010 A 
ATOM     37  C   UNL A   1      41.410  27.573  29.865  1.00  0.00    -0.014 A 
BRANCH  37  38
ATOM     38  C   UNL A   1      41.117  28.542  30.940  1.00  0.00     0.031 A 
ATOM     39  C   UNL A   1      41.962  28.504  32.182  1.00  0.00     0.074 A 
ATOM     40  C   UNL A   1      40.178  29.483  30.760  1.00  0.00     0.049 A 
ATOM     41  N   UNL A   1      41.919  29.275  33.233  1.00  0.00    -0.248 NA
ATOM     42  C   UNL A   1      42.996  27.454  32.245  1.00  0.00     0.031 C 
ATOM     43  C   UNL A   1      39.331  29.615  29.574  1.00  0.00     0.029 A 
ATOM     44  N   UNL A   1      39.783  30.511  31.573  1.00  0.00    -0.354 N 
ATOM     45  C   UNL A   1      42.924  28.815  34.078  1.00  0.00     0.074 A 
ATOM     46  C   UNL A   1      43.527  27.667  33.440  1.00  0.00     0.031 C 
ATOM     47  C   UNL A   1      38.509  30.664  29.740  1.00  0.00     0.029 A 
ATOM     48  C   UNL A   1      38.754  31.258  31.053  1.00  0.00     0.049 A 
ATOM     49  H   UNL A   1      40.196  30.697  32.447  1.00  0.00     0.167 HD
ATOM     50  C   UNL A   1      43.317  29.322  35.269  1.00  0.00     0.037 A 
ATOM     51  C   UNL A   1      38.079  32.290  31.591  1.00  0.00     0.037 A 
ATOM     52  C   UNL A   1      42.697  30.461  35.892  1.00  0.00     0.049 A 
ATOM     53  C   UNL A   1      38.498  32.798  32.946  1.00  0.00     0.074 A 
ATOM     54  C   UNL A   1      43.004  31.057  37.102  1.00  0.00     0.029 A 
ATOM     55  N   UNL A   1      41.637  31.179  35.352  1.00  0.00    -0.354 N 
ATOM     56  N   UNL A   1      39.459  32.364  33.730  1.00  0.00    -0.248 NA
ATOM     57  C   UNL A   1      37.753  33.942  33.484  1.00  0.00     0.031 C 
ATOM     58  C   UNL A   1      42.100  32.103  37.316  1.00  0.00     0.029 A 
ATOM     59  C   UNL A   1      41.267  32.199  36.212  1.00  0.00     0.049 A 
ATOM     60  H   UNL A   1      41.213  30.990  34.484  1.00  0.00     0.167 HD
ATOM     61  C   UNL A   1      39.444  33.195  34.846  1.00  0.00     0.074 A 
ATOM     62  C   UNL A   1      38.401  34.175  34.616  1.00  0.00     0.031 C 
ATOM     63  C   UNL A   1      40.217  33.154  35.962  1.00  0.00     0.037 A 
BRANCH  50  64
ATOM     64  C   UNL A   1      44.456  28.642  35.977  1.00  0.00     0.058 A 
ATOM     65  C   UNL A   1      44.240  27.584  36.876  1.00  0.00     0.135 A 
ATOM     66  C   UNL A   1      45.784  29.024  35.726  1.00  0.00     0.135 A 
ATOM     67  F   UNL A   1      42.990  27.195  37.175  1.00  0.00    -0.206 F 
ATOM     68  C   UNL A   1      45.298  26.936  37.507  1.00  0.00     0.059 A 
ATOM     69  C   UNL A   1      46.859  28.371  36.325  1.00  0.00     0.059 A 
ATOM     70  F   UNL A   1      46.048  30.037  34.886  1.00  0.00    -0.206 F 
ATOM     71  C   UNL A   1      46.604  27.333  37.219  1.00  0.00     0.060 A 
BRANCH  71  72
ATOM     72  S   UNL A   1      47.965  26.458  38.020  1.00  0.00     0.124 S 
ATOM     73  O   UNL A   1      47.337  25.185  38.356  1.00  0.00    -0.237 OA
ATOM     74  O   UNL A   1      48.968  26.410  36.962  1.00  0.00    -0.237 OA
ATOM     75  O   UNL A   1      48.298  27.312  39.157  1.00  0.00    -0.744 OA
ENDBRANCH  71  72
ENDBRANCH  50  64
BRANCH  51  76
ATOM     76  C   UNL A   1      36.932  32.893  30.861  1.00  0.00     0.058 A 
ATOM     77  C   UNL A   1      37.125  33.795  29.804  1.00  0.00     0.135 A 
ATOM     78  C   UNL A   1      35.610  32.582  31.220  1.00  0.00     0.135 A 
ATOM     79  F   UNL A   1      38.368  34.129  29.426  1.00  0.00    -0.206 F 
ATOM     80  C   UNL A   1      36.051  34.388  29.148  1.00  0.00     0.059 A 
ATOM     81  C   UNL A   1      34.520  33.135  30.557  1.00  0.00     0.059 A 
ATOM     82  F   UNL A   1      35.369  31.712  32.213  1.00  0.00    -0.206 F 
ATOM     83  C   UNL A   1      34.752  34.051  29.532  1.00  0.00     0.060 A 
BRANCH  83  84
ATOM     84  S   UNL A   1      33.365  34.803  28.654  1.00  0.00     0.124 S 
ATOM     85  O   UNL A   1      32.989  33.739  27.731  1.00  0.00    -0.237 OA
ATOM     86  O   UNL A   1      32.427  35.071  29.739  1.00  0.00    -0.237 OA
ATOM     87  O   UNL A   1      33.960  35.989  28.043  1.00  0.00    -0.744 OA
ENDBRANCH  83  84
ENDBRANCH  51  76
BRANCH  63  88
ATOM     88  C   UNL A   1      39.967  34.215  37.001  1.00  0.00     0.058 A 
ATOM     89  C   UNL A   1      40.661  35.436  36.991  1.00  0.00     0.135 A 
ATOM     90  C   UNL A   1      39.016  34.009  38.013  1.00  0.00     0.135 A 
ATOM     91  F   UNL A   1      41.580  35.683  36.044  1.00  0.00    -0.206 F 
ATOM     92  C   UNL A   1      40.462  36.390  37.982  1.00  0.00     0.059 A 
ATOM     93  C   UNL A   1      38.774  34.966  38.993  1.00  0.00     0.059 A 
ATOM     94  F   UNL A   1      38.309  32.868  38.058  1.00  0.00    -0.206 F 
ATOM     95  C   UNL A   1      39.521  36.143  38.983  1.00  0.00     0.060 A 
BRANCH  95  96
ATOM     96  S   UNL A   1      39.286  37.383  40.272  1.00  0.00     0.124 S 
ATOM     97  O   UNL A   1      40.651  37.856  40.476  1.00  0.00    -0.237 OA
ATOM     98  O   UNL A   1      38.375  38.329  39.635  1.00  0.00    -0.237 OA
ATOM     99  O   UNL A   1      38.715  36.619  41.378  1.00  0.00    -0.744 OA
ENDBRANCH  95  96
ENDBRANCH  63  88
ENDBRANCH  37  38
ENDBRANCH  30  32
ENDBRANCH  29  30
ENDBRANCH  28  29
ENDBRANCH  27  28
ENDBRANCH  26  27
ENDBRANCH   1  26
TORSDOF 21
ENDMDL
MODEL 2
REMARK VINA RESULT:     -10.6      6.341     11.777
REMARK SMILES O=C(Cc1ccccc1Nc1c(Cl)cccc1C(F)(F)F)OCCOCCOC(=O)c1ccc(-c2c3nc(c(-c4c(F)cc(S(=O)(=O)[O-])cc4F)c4ccc([nH]4)c(-c4c(F)cc(S(=O)(=O)[O-])cc4F)c4nc(c(-c5c(F)cc(S(=O)(=O)[O-])cc5F)c5ccc2[nH]5)C=C4)C=C3)cc1
REMARK SMILES IDX 24 1 23 2 22 3 2 4 1 5 3 6 4 7 5 8 9 9 6 10 8 11 7 12 10 13
REMARK SMILES IDX 11 15 12 16 17 17 13 18 14 19 16 20 15 21 18 22 19 23 20 24
REMARK SMILES IDX 21 25 25 26 26 27 27 28 28 29 29 30 30 31 31 32 32 33 96 34
REMARK SMILES IDX 33 35 95 36 34 37 35 38 36 39 89 40 37 41 94 42 88 43 90 44
REMARK SMILES IDX 38 45 93 46 87 47 86 48 39 50 73 51 52 52 72 53 53 54 56 55
REMARK SMILES IDX 71 56 91 57 54 58 55 59 70 61 92 62 57 63 40 64 41 65 50 66
REMARK SMILES IDX 42 67 43 68 49 69 51 70 44 71 45 72 46 73 47 74 48 75 74 76
REMARK SMILES IDX 75 77 84 78 76 79 77 80 83 81 85 82 78 83 79 84 80 85 81 86
REMARK SMILES IDX 82 87 58 88 59 89 68 90 60 91 61 92 67 93 69 94 62 95 63 96
REMARK SMILES IDX 64 97 65 98 66 99
REMARK H PARENT 10 14 90 49 56 60
REMARK Flexibility Score: inf
ROOT
ATOM      1  C   UNL A   1      34.967  31.532  28.666  1.00  0.00     0.202 C 
ENDROOT
BRANCH   1   2
ATOM      2  C   UNL A   1      34.142  31.071  27.456  1.00  0.00     0.261 C 
BRANCH   2   3
ATOM      3  O   UNL A   1      34.214  29.703  27.034  1.00  0.00    -0.463 OA
BRANCH   3   4
ATOM      4  C   UNL A   1      33.157  28.923  26.733  1.00  0.00     0.310 C 
ATOM      5  O   UNL A   1      32.019  29.307  27.003  1.00  0.00    -0.252 OA
BRANCH   4   6
ATOM      6  C   UNL A   1      33.410  27.510  26.272  1.00  0.00     0.160 C 
BRANCH   6   7
ATOM      7  C   UNL A   1      33.500  27.318  24.783  1.00  0.00    -0.013 A 
ATOM      8  C   UNL A   1      33.560  28.442  23.939  1.00  0.00     0.006 A 
ATOM      9  C   UNL A   1      33.606  26.039  24.210  1.00  0.00     0.042 A 
ATOM     10  C   UNL A   1      33.566  28.313  22.555  1.00  0.00     0.000 A 
ATOM     11  C   UNL A   1      33.529  25.926  22.814  1.00  0.00     0.026 A 
ATOM     12  C   UNL A   1      33.491  27.052  21.991  1.00  0.00     0.002 A 
BRANCH   9  13
ATOM     13  N   UNL A   1      33.919  24.924  25.013  1.00  0.00    -0.354 N 
ATOM     14  H   UNL A   1      34.561  25.107  25.736  1.00  0.00     0.167 HD
BRANCH  13  15
ATOM     15  C   UNL A   1      33.467  23.592  24.952  1.00  0.00     0.070 A 
ATOM     16  C   UNL A   1      34.321  22.633  24.356  1.00  0.00     0.065 A 
ATOM     17  C   UNL A   1      32.256  23.152  25.522  1.00  0.00     0.080 A 
ATOM     18  Cl  UNL A   1      35.768  23.130  23.540  1.00  0.00    -0.082 Cl
ATOM     19  C   UNL A   1      34.035  21.271  24.403  1.00  0.00     0.023 A 
ATOM     20  C   UNL A   1      31.999  21.765  25.586  1.00  0.00     0.015 A 
ATOM     21  C   UNL A   1      32.884  20.834  25.045  1.00  0.00     0.002 A 
BRANCH  17  22
ATOM     22  C   UNL A   1      31.169  24.087  26.010  1.00  0.00     0.418 C 
ATOM     23  F   UNL A   1      30.103  23.388  26.516  1.00  0.00    -0.166 F 
ATOM     24  F   UNL A   1      31.573  24.884  27.038  1.00  0.00    -0.166 F 
ATOM     25  F   UNL A   1      30.624  24.897  25.065  1.00  0.00    -0.166 F 
ENDBRANCH  17  22
ENDBRANCH  13  15
ENDBRANCH   9  13
ENDBRANCH   6   7
ENDBRANCH   4   6
ENDBRANCH   3   4
ENDBRANCH   2   3
ENDBRANCH   1   2
BRANCH   1  26
ATOM     26  O   UNL A   1      34.529  32.565  29.539  1.00  0.00    -0.374 OA
BRANCH  26  27
ATOM     27  C   UNL A   1      34.910  32.597  30.904  1.00  0.00     0.202 C 
BRANCH  27  28
ATOM     28  C   UNL A   1      36.402  32.681  31.185  1.00  0.00     0.261 C 
BRANCH  28  29
ATOM     29  O   UNL A   1      36.814  31.666  32.102  1.00  0.00    -0.460 OA
BRANCH  29  30
ATOM     30  C   UNL A   1      36.981  30.448  31.538  1.00  0.00     0.338 C 
ATOM     31  O   UNL A   1      36.131  29.585  31.370  1.00  0.00    -0.246 OA
BRANCH  30  32
ATOM     32  C   UNL A   1      38.331  30.372  30.960  1.00  0.00     0.060 A 
ATOM     33  C   UNL A   1      38.432  30.303  29.565  1.00  0.00     0.016 A 
ATOM     34  C   UNL A   1      39.471  30.342  31.767  1.00  0.00     0.016 A 
ATOM     35  C   UNL A   1      39.676  30.152  28.972  1.00  0.00     0.010 A 
ATOM     36  C   UNL A   1      40.720  30.175  31.171  1.00  0.00     0.010 A 
ATOM     37  C   UNL A   1      40.815  30.036  29.777  1.00  0.00    -0.014 A 
BRANCH  37  38
ATOM     38  C   UNL A   1      42.068  29.576  29.147  1.00  0.00     0.031 A 
ATOM     39  C   UNL A   1      43.197  30.558  29.008  1.00  0.00     0.074 A 
ATOM     40  C   UNL A   1      42.212  28.289  28.795  1.00  0.00     0.049 A 
ATOM     41  N   UNL A   1      44.397  30.375  28.529  1.00  0.00    -0.248 NA
ATOM     42  C   UNL A   1      42.938  31.933  29.474  1.00  0.00     0.031 C 
ATOM     43  C   UNL A   1      41.181  27.259  28.923  1.00  0.00     0.029 A 
ATOM     44  N   UNL A   1      43.287  27.627  28.265  1.00  0.00    -0.354 N 
ATOM     45  C   UNL A   1      45.040  31.602  28.645  1.00  0.00     0.074 A 
ATOM     46  C   UNL A   1      44.083  32.536  29.194  1.00  0.00     0.031 C 
ATOM     47  C   UNL A   1      41.673  26.092  28.474  1.00  0.00     0.029 A 
ATOM     48  C   UNL A   1      43.041  26.301  28.005  1.00  0.00     0.049 A 
ATOM     49  H   UNL A   1      44.153  28.061  28.086  1.00  0.00     0.167 HD
ATOM     50  C   UNL A   1      46.321  31.912  28.339  1.00  0.00     0.037 A 
ATOM     51  C   UNL A   1      43.831  25.373  27.434  1.00  0.00     0.037 A 
ATOM     52  C   UNL A   1      47.256  30.968  27.785  1.00  0.00     0.049 A 
ATOM     53  C   UNL A   1      45.234  25.759  27.047  1.00  0.00     0.074 A 
ATOM     54  C   UNL A   1      48.577  31.172  27.426  1.00  0.00     0.029 A 
ATOM     55  N   UNL A   1      46.967  29.639  27.507  1.00  0.00    -0.354 N 
ATOM     56  N   UNL A   1      45.837  26.920  27.175  1.00  0.00    -0.248 NA
ATOM     57  C   UNL A   1      46.070  24.709  26.454  1.00  0.00     0.031 C 
ATOM     58  C   UNL A   1      49.070  29.979  26.886  1.00  0.00     0.029 A 
ATOM     59  C   UNL A   1      48.078  29.015  26.964  1.00  0.00     0.049 A 
ATOM     60  H   UNL A   1      46.100  29.204  27.673  1.00  0.00     0.167 HD
ATOM     61  C   UNL A   1      47.128  26.733  26.693  1.00  0.00     0.074 A 
ATOM     62  C   UNL A   1      47.226  25.340  26.304  1.00  0.00     0.031 C 
ATOM     63  C   UNL A   1      48.143  27.628  26.576  1.00  0.00     0.037 A 
BRANCH  50  64
ATOM     64  C   UNL A   1      46.777  33.324  28.583  1.00  0.00     0.058 A 
ATOM     65  C   UNL A   1      47.368  33.709  29.799  1.00  0.00     0.135 A 
ATOM     66  C   UNL A   1      46.662  34.296  27.577  1.00  0.00     0.135 A 
ATOM     67  F   UNL A   1      47.478  32.827  30.806  1.00  0.00    -0.206 F 
ATOM     68  C   UNL A   1      47.817  35.008  30.011  1.00  0.00     0.059 A 
ATOM     69  C   UNL A   1      47.131  35.595  27.758  1.00  0.00     0.059 A 
ATOM     70  F   UNL A   1      46.095  33.987  26.400  1.00  0.00    -0.206 F 
ATOM     71  C   UNL A   1      47.700  35.943  28.981  1.00  0.00     0.060 A 
BRANCH  71  72
ATOM     72  S   UNL A   1      48.321  37.615  29.262  1.00  0.00     0.124 S 
ATOM     73  O   UNL A   1      49.643  37.346  29.817  1.00  0.00    -0.237 OA
ATOM     74  O   UNL A   1      48.301  38.182  27.918  1.00  0.00    -0.237 OA
ATOM     75  O   UNL A   1      47.354  38.186  30.196  1.00  0.00    -0.744 OA
ENDBRANCH  71  72
ENDBRANCH  50  64
BRANCH  51  76
ATOM     76  C   UNL A   1      43.308  24.005  27.178  1.00  0.00     0.058 A 
ATOM     77  C   UNL A   1      42.837  23.621  25.914  1.00  0.00     0.135 A 
ATOM     78  C   UNL A   1      43.258  23.051  28.208  1.00  0.00     0.135 A 
ATOM     79  F   UNL A   1      42.859  24.497  24.897  1.00  0.00    -0.206 F 
ATOM     80  C   UNL A   1      42.312  22.354  25.685  1.00  0.00     0.059 A 
ATOM     81  C   UNL A   1      42.768  21.767  27.997  1.00  0.00     0.059 A 
ATOM     82  F   UNL A   1      43.711  23.360  29.434  1.00  0.00    -0.206 F 
ATOM     83  C   UNL A   1      42.282  21.433  26.735  1.00  0.00     0.060 A 
BRANCH  83  84
ATOM     84  S   UNL A   1      41.625  19.781  26.421  1.00  0.00     0.124 S 
ATOM     85  O   UNL A   1      41.902  19.110  27.685  1.00  0.00    -0.237 OA
ATOM     86  O   UNL A   1      40.221  20.060  26.138  1.00  0.00    -0.237 OA
ATOM     87  O   UNL A   1      42.408  19.321  25.277  1.00  0.00    -0.744 OA
ENDBRANCH  83  84
ENDBRANCH  51  76
BRANCH  63  88
ATOM     88  C   UNL A   1      49.445  27.111  26.024  1.00  0.00     0.058 A 
ATOM     89  C   UNL A   1      50.438  26.571  26.857  1.00  0.00     0.135 A 
ATOM     90  C   UNL A   1      49.698  27.151  24.643  1.00  0.00     0.135 A 
ATOM     91  F   UNL A   1      50.246  26.510  28.185  1.00  0.00    -0.206 F 
ATOM     92  C   UNL A   1      51.658  26.142  26.347  1.00  0.00     0.059 A 
ATOM     93  C   UNL A   1      50.897  26.693  24.107  1.00  0.00     0.059 A 
ATOM     94  F   UNL A   1      48.775  27.639  23.798  1.00  0.00    -0.206 F 
ATOM     95  C   UNL A   1      51.880  26.213  24.971  1.00  0.00     0.060 A 
BRANCH  95  96
ATOM     96  S   UNL A   1      53.475  25.669  24.325  1.00  0.00     0.124 S 
ATOM     97  O   UNL A   1      53.289  25.859  22.890  1.00  0.00    -0.237 OA
ATOM     98  O   UNL A   1      54.405  26.590  24.971  1.00  0.00    -0.237 OA
ATOM     99  O   UNL A   1      53.565  24.281  24.768  1.00  0.00    -0.744 OA
ENDBRANCH  95  96
ENDBRANCH  63  88
ENDBRANCH  37  38
ENDBRANCH  30  32
ENDBRANCH  29  30
ENDBRANCH  28  29
ENDBRANCH  27  28
ENDBRANCH  26  27
ENDBRANCH   1  26
TORSDOF 21
ENDMDL
MODEL 3
REMARK VINA RESULT:     -10.4      6.538     11.835
REMARK SMILES O=C(Cc1ccccc1Nc1c(Cl)cccc1C(F)(F)F)OCCOCCOC(=O)c1ccc(-c2c3nc(c(-c4c(F)cc(S(=O)(=O)[O-])cc4F)c4ccc([nH]4)c(-c4c(F)cc(S(=O)(=O)[O-])cc4F)c4nc(c(-c5c(F)cc(S(=O)(=O)[O-])cc5F)c5ccc2[nH]5)C=C4)C=C3)cc1
REMARK SMILES IDX 24 1 23 2 22 3 2 4 1 5 3 6 4 7 5 8 9 9 6 10 8 11 7 12 10 13
REMARK SMILES IDX 11 15 12 16 17 17 13 18 14 19 16 20 15 21 18 22 19 23 20 24
REMARK SMILES IDX 21 25 25 26 26 27 27 28 28 29 29 30 30 31 31 32 32 33 96 34
REMARK SMILES IDX 33 35 95 36 34 37 35 38 36 39 89 40 37 41 94 42 88 43 90 44
REMARK SMILES IDX 38 45 93 46 87 47 86 48 39 50 73 51 52 52 72 53 53 54 56 55
REMARK SMILES IDX 71 56 91 57 54 58 55 59 70 61 92 62 57 63 40 64 41 65 50 66
REMARK SMILES IDX 42 67 43 68 49 69 51 70 44 71 45 72 46 73 47 74 48 75 74 76
REMARK SMILES IDX 75 77 84 78 76 79 77 80 83 81 85 82 78 83 79 84 80 85 81 86
REMARK SMILES IDX 82 87 58 88 59 89 68 90 60 91 61 92 67 93 69 94 62 95 63 96
REMARK SMILES IDX 64 97 65 98 66 99
REMARK H PARENT 10 14 90 49 56 60
REMARK Flexibility Score: inf
ROOT
ATOM      1  C   UNL A   1      34.023  29.429  26.478  1.00  0.00     0.202 C 
ENDROOT
BRANCH   1   2
ATOM      2  C   UNL A   1      33.261  28.940  25.238  1.00  0.00     0.261 C 
BRANCH   2   3
ATOM      3  O   UNL A   1      33.939  28.134  24.267  1.00  0.00    -0.463 OA
BRANCH   3   4
ATOM      4  C   UNL A   1      33.461  26.994  23.727  1.00  0.00     0.310 C 
ATOM      5  O   UNL A   1      32.579  27.048  22.871  1.00  0.00    -0.252 OA
BRANCH   4   6
ATOM      6  C   UNL A   1      33.867  25.679  24.341  1.00  0.00     0.160 C 
BRANCH   6   7
ATOM      7  C   UNL A   1      32.788  24.952  25.096  1.00  0.00    -0.013 A 
ATOM      8  C   UNL A   1      31.716  25.678  25.647  1.00  0.00     0.006 A 
ATOM      9  C   UNL A   1      32.778  23.551  25.201  1.00  0.00     0.042 A 
ATOM     10  C   UNL A   1      30.739  25.058  26.417  1.00  0.00     0.000 A 
ATOM     11  C   UNL A   1      31.834  22.953  26.047  1.00  0.00     0.026 A 
ATOM     12  C   UNL A   1      30.831  23.701  26.666  1.00  0.00     0.002 A 
BRANCH   9  13
ATOM     13  N   UNL A   1      33.607  22.769  24.370  1.00  0.00    -0.354 N 
ATOM     14  H   UNL A   1      33.584  23.018  23.418  1.00  0.00     0.167 HD
BRANCH  13  15
ATOM     15  C   UNL A   1      34.462  21.693  24.675  1.00  0.00     0.070 A 
ATOM     16  C   UNL A   1      33.951  20.382  24.517  1.00  0.00     0.065 A 
ATOM     17  C   UNL A   1      35.811  21.849  25.048  1.00  0.00     0.080 A 
ATOM     18  Cl  UNL A   1      32.271  20.127  24.172  1.00  0.00    -0.082 Cl
ATOM     19  C   UNL A   1      34.770  19.262  24.630  1.00  0.00     0.023 A 
ATOM     20  C   UNL A   1      36.632  20.702  25.128  1.00  0.00     0.015 A 
ATOM     21  C   UNL A   1      36.120  19.425  24.909  1.00  0.00     0.002 A 
BRANCH  17  22
ATOM     22  C   UNL A   1      36.426  23.176  25.441  1.00  0.00     0.418 C 
ATOM     23  F   UNL A   1      35.783  23.721  26.523  1.00  0.00    -0.166 F 
ATOM     24  F   UNL A   1      37.724  23.066  25.836  1.00  0.00    -0.166 F 
ATOM     25  F   UNL A   1      36.376  24.150  24.494  1.00  0.00    -0.166 F 
ENDBRANCH  17  22
ENDBRANCH  13  15
ENDBRANCH   9  13
ENDBRANCH   6   7
ENDBRANCH   4   6
ENDBRANCH   3   4
ENDBRANCH   2   3
ENDBRANCH   1   2
BRANCH   1  26
ATOM     26  O   UNL A   1      33.507  30.430  27.346  1.00  0.00    -0.374 OA
BRANCH  26  27
ATOM     27  C   UNL A   1      34.275  31.565  27.711  1.00  0.00     0.202 C 
BRANCH  27  28
ATOM     28  C   UNL A   1      35.089  31.444  28.989  1.00  0.00     0.261 C 
BRANCH  28  29
ATOM     29  O   UNL A   1      35.810  30.211  29.028  1.00  0.00    -0.460 OA
BRANCH  29  30
ATOM     30  C   UNL A   1      36.554  30.041  30.144  1.00  0.00     0.338 C 
ATOM     31  O   UNL A   1      36.151  29.829  31.279  1.00  0.00    -0.246 OA
BRANCH  30  32
ATOM     32  C   UNL A   1      37.972  29.953  29.764  1.00  0.00     0.060 A 
ATOM     33  C   UNL A   1      38.268  29.852  28.399  1.00  0.00     0.016 A 
ATOM     34  C   UNL A   1      38.987  29.945  30.724  1.00  0.00     0.016 A 
ATOM     35  C   UNL A   1      39.583  29.689  27.991  1.00  0.00     0.010 A 
ATOM     36  C   UNL A   1      40.306  29.766  30.314  1.00  0.00     0.010 A 
ATOM     37  C   UNL A   1      40.597  29.594  28.951  1.00  0.00    -0.014 A 
BRANCH  37  38
ATOM     38  C   UNL A   1      41.926  29.122  28.515  1.00  0.00     0.031 A 
ATOM     39  C   UNL A   1      43.059  30.109  28.487  1.00  0.00     0.074 A 
ATOM     40  C   UNL A   1      42.122  27.823  28.242  1.00  0.00     0.049 A 
ATOM     41  N   UNL A   1      44.313  29.919  28.182  1.00  0.00    -0.248 NA
ATOM     42  C   UNL A   1      42.732  31.499  28.855  1.00  0.00     0.031 C 
ATOM     43  C   UNL A   1      41.088  26.788  28.274  1.00  0.00     0.029 A 
ATOM     44  N   UNL A   1      43.262  27.151  27.889  1.00  0.00    -0.354 N 
ATOM     45  C   UNL A   1      44.928  31.157  28.330  1.00  0.00     0.074 A 
ATOM     46  C   UNL A   1      43.902  32.102  28.705  1.00  0.00     0.031 C 
ATOM     47  C   UNL A   1      41.642  25.609  27.945  1.00  0.00     0.029 A 
ATOM     48  C   UNL A   1      43.060  25.813  27.655  1.00  0.00     0.049 A 
ATOM     49  H   UNL A   1      44.142  27.586  27.809  1.00  0.00     0.167 HD
ATOM     50  C   UNL A   1      46.237  31.467  28.186  1.00  0.00     0.037 A 
ATOM     51  C   UNL A   1      43.924  24.870  27.236  1.00  0.00     0.037 A 
ATOM     52  C   UNL A   1      47.243  30.511  27.803  1.00  0.00     0.049 A 
ATOM     53  C   UNL A   1      45.365  25.255  27.025  1.00  0.00     0.074 A 
ATOM     54  C   UNL A   1      48.599  30.714  27.616  1.00  0.00     0.029 A 
ATOM     55  N   UNL A   1      47.001  29.168  27.546  1.00  0.00    -0.354 N 
ATOM     56  N   UNL A   1      45.939  26.425  27.182  1.00  0.00    -0.248 NA
ATOM     57  C   UNL A   1      46.278  24.190  26.594  1.00  0.00     0.031 C 
ATOM     58  C   UNL A   1      49.166  29.505  27.199  1.00  0.00     0.029 A 
ATOM     59  C   UNL A   1      48.177  28.534  27.184  1.00  0.00     0.049 A 
ATOM     60  H   UNL A   1      46.122  28.731  27.612  1.00  0.00     0.167 HD
ATOM     61  C   UNL A   1      47.284  26.233  26.886  1.00  0.00     0.074 A 
ATOM     62  C   UNL A   1      47.440  24.826  26.574  1.00  0.00     0.031 C 
ATOM     63  C   UNL A   1      48.301  27.133  26.868  1.00  0.00     0.037 A 
BRANCH  50  64
ATOM     64  C   UNL A   1      46.650  32.893  28.428  1.00  0.00     0.058 A 
ATOM     65  C   UNL A   1      47.136  33.318  29.676  1.00  0.00     0.135 A 
ATOM     66  C   UNL A   1      46.598  33.837  27.391  1.00  0.00     0.135 A 
ATOM     67  F   UNL A   1      47.181  32.464  30.712  1.00  0.00    -0.206 F 
ATOM     68  C   UNL A   1      47.545  34.631  29.889  1.00  0.00     0.059 A 
ATOM     69  C   UNL A   1      47.030  35.149  27.574  1.00  0.00     0.059 A 
ATOM     70  F   UNL A   1      46.131  33.490  26.182  1.00  0.00    -0.206 F 
ATOM     71  C   UNL A   1      47.495  35.537  28.830  1.00  0.00     0.060 A 
BRANCH  71  72
ATOM     72  S   UNL A   1      48.064  37.227  29.115  1.00  0.00     0.124 S 
ATOM     73  O   UNL A   1      49.060  37.026  30.162  1.00  0.00    -0.237 OA
ATOM     74  O   UNL A   1      48.588  37.602  27.806  1.00  0.00    -0.237 OA
ATOM     75  O   UNL A   1      46.853  37.930  29.528  1.00  0.00    -0.744 OA
ENDBRANCH  71  72
ENDBRANCH  50  64
BRANCH  51  76
ATOM     76  C   UNL A   1      43.447  23.487  26.971  1.00  0.00     0.058 A 
ATOM     77  C   UNL A   1      43.208  22.578  28.012  1.00  0.00     0.135 A 
ATOM     78  C   UNL A   1      43.230  23.042  25.656  1.00  0.00     0.135 A 
ATOM     79  F   UNL A   1      43.404  22.952  29.286  1.00  0.00    -0.206 F 
ATOM     80  C   UNL A   1      42.799  21.272  27.761  1.00  0.00     0.059 A 
ATOM     81  C   UNL A   1      42.789  21.752  25.381  1.00  0.00     0.059 A 
ATOM     82  F   UNL A   1      43.427  23.876  24.623  1.00  0.00    -0.206 F 
ATOM     83  C   UNL A   1      42.592  20.869  26.440  1.00  0.00     0.060 A 
BRANCH  83  84
ATOM     84  S   UNL A   1      42.033  19.182  26.126  1.00  0.00     0.124 S 
ATOM     85  O   UNL A   1      42.844  18.813  24.972  1.00  0.00    -0.237 OA
ATOM     86  O   UNL A   1      42.363  18.513  27.380  1.00  0.00    -0.237 OA
ATOM     87  O   UNL A   1      40.605  19.344  25.869  1.00  0.00    -0.744 OA
ENDBRANCH  83  84
ENDBRANCH  51  76
BRANCH  63  88
ATOM     88  C   UNL A   1      49.668  26.607  26.518  1.00  0.00     0.058 A 
ATOM     89  C   UNL A   1      50.515  26.049  27.489  1.00  0.00     0.135 A 
ATOM     90  C   UNL A   1      50.132  26.657  25.194  1.00  0.00     0.135 A 
ATOM     91  F   UNL A   1      50.120  25.977  28.771  1.00  0.00    -0.206 F 
ATOM     92  C   UNL A   1      51.795  25.611  27.169  1.00  0.00     0.059 A 
ATOM     93  C   UNL A   1      51.395  26.191  24.845  1.00  0.00     0.059 A 
ATOM     94  F   UNL A   1      49.355  27.163  24.222  1.00  0.00    -0.206 F 
ATOM     95  C   UNL A   1      52.229  25.693  25.845  1.00  0.00     0.060 A 
BRANCH  95  96
ATOM     96  S   UNL A   1      53.899  25.138  25.447  1.00  0.00     0.124 S 
ATOM     97  O   UNL A   1      54.090  25.713  24.120  1.00  0.00    -0.237 OA
ATOM     98  O   UNL A   1      54.691  25.736  26.518  1.00  0.00    -0.237 OA
ATOM     99  O   UNL A   1      53.793  23.683  25.492  1.00  0.00    -0.744 OA
ENDBRANCH  95  96
ENDBRANCH  63  88
ENDBRANCH  37  38
ENDBRANCH  30  32
ENDBRANCH  29  30
ENDBRANCH  28  29
ENDBRANCH  27  28
ENDBRANCH  26  27
ENDBRANCH   1  26
TORSDOF 21
ENDMDL
