MODEL 1
REMARK VINA RESULT:     -10.4      0.000      0.000
REMARK SMILES C#Cc1cccc(NS(=O)(=O)c2ccc(F)c(C(=O)OCCOCCOC(=O)c3ccc(-c4c5nc(c(-c6c(F)cc(S(=O)(=O)[O-])cc6F)c6ccc([nH]6)c(-c6c(F)cc(S(=O)(=O)[O-])cc6F)c6nc(c(-c7c(F)cc(S(=O)(=O)[O-])cc7F)c7ccc4[nH]7)C=C6)C=C5)cc3)c2)c1
REMARK SMILES IDX 22 1 21 2 20 3 18 4 19 5 17 6 12 7 13 8 95 9 14 10 15 11
REMARK SMILES IDX 16 12 9 13 10 14 11 15 8 16 7 18 3 19 4 20 96 21 5 22 6 23
REMARK SMILES IDX 2 24 1 25 23 26 24 27 25 28 26 29 27 30 28 31 29 32 30 33
REMARK SMILES IDX 94 34 31 35 93 36 32 37 33 38 34 39 87 40 35 41 92 42 86 43
REMARK SMILES IDX 88 44 36 45 91 46 85 47 84 48 37 50 71 51 50 52 70 53 51 54
REMARK SMILES IDX 54 55 69 56 89 57 52 58 53 59 68 61 90 62 55 63 38 64 39 65
REMARK SMILES IDX 48 66 40 67 41 68 47 69 49 70 42 71 43 72 44 73 45 74 46 75
REMARK SMILES IDX 72 76 73 77 82 78 74 79 75 80 81 81 83 82 76 83 77 84 78 85
REMARK SMILES IDX 79 86 80 87 56 88 57 89 66 90 58 91 59 92 65 93 67 94 60 95
REMARK SMILES IDX 61 96 62 97 63 98 64 99
REMARK H PARENT 8 17 88 49 54 60
REMARK Flexibility Score: inf
ROOT
ATOM      1  C   UNL A   1      33.699  30.720  27.631  1.00  0.00     0.202 C 
ENDROOT
BRANCH   1   2
ATOM      2  C   UNL A   1      33.753  29.638  26.551  1.00  0.00     0.261 C 
BRANCH   2   3
ATOM      3  O   UNL A   1      33.474  28.333  27.072  1.00  0.00    -0.460 OA
BRANCH   3   4
ATOM      4  C   UNL A   1      32.163  28.010  27.079  1.00  0.00     0.341 C 
ATOM      5  O   UNL A   1      31.362  28.218  27.977  1.00  0.00    -0.246 OA
BRANCH   4   6
ATOM      6  C   UNL A   1      31.730  27.459  25.786  1.00  0.00     0.097 A 
ATOM      7  C   UNL A   1      31.748  25.554  24.284  1.00  0.00     0.088 A 
ATOM      8  C   UNL A   1      31.430  26.406  23.229  1.00  0.00     0.025 A 
ATOM      9  C   UNL A   1      31.952  26.092  25.558  1.00  0.00     0.041 A 
ATOM     10  C   UNL A   1      31.053  27.727  23.496  1.00  0.00     0.041 A 
ATOM     11  C   UNL A   1      31.181  28.244  24.780  1.00  0.00     0.137 A 
ATOM     12  F   UNL A   1      30.794  29.506  24.999  1.00  0.00    -0.206 F 
BRANCH   7  13
ATOM     13  S   UNL A   1      31.697  23.773  24.172  1.00  0.00     0.261 S 
ATOM     14  O   UNL A   1      30.722  23.457  23.150  1.00  0.00    -0.201 OA
ATOM     15  O   UNL A   1      31.543  23.289  25.528  1.00  0.00    -0.201 OA
BRANCH  13  16
ATOM     16  N   UNL A   1      33.176  23.175  23.674  1.00  0.00    -0.280 N 
ATOM     17  H   UNL A   1      33.381  23.283  22.718  1.00  0.00     0.180 HD
BRANCH  16  18
ATOM     18  C   UNL A   1      34.175  22.531  24.455  1.00  0.00     0.050 A 
ATOM     19  C   UNL A   1      36.420  22.737  25.339  1.00  0.00     0.026 A 
ATOM     20  C   UNL A   1      36.553  21.351  25.308  1.00  0.00     0.017 A 
ATOM     21  C   UNL A   1      35.240  23.330  24.886  1.00  0.00     0.044 A 
ATOM     22  C   UNL A   1      35.447  20.559  25.010  1.00  0.00     0.003 A 
ATOM     23  C   UNL A   1      34.228  21.155  24.672  1.00  0.00     0.027 A 
BRANCH  19  24
ATOM     24  C   UNL A   1      37.482  23.523  25.878  1.00  0.00    -0.070 C 
ATOM     25  C   UNL A   1      38.452  24.078  26.327  1.00  0.00     0.010 C 
ENDBRANCH  19  24
ENDBRANCH  16  18
ENDBRANCH  13  16
ENDBRANCH   7  13
ENDBRANCH   4   6
ENDBRANCH   3   4
ENDBRANCH   2   3
ENDBRANCH   1   2
BRANCH   1  26
ATOM     26  O   UNL A   1      34.909  31.373  28.006  1.00  0.00    -0.374 OA
BRANCH  26  27
ATOM     27  C   UNL A   1      34.852  32.386  29.008  1.00  0.00     0.202 C 
BRANCH  27  28
ATOM     28  C   UNL A   1      35.058  31.995  30.478  1.00  0.00     0.261 C 
BRANCH  28  29
ATOM     29  O   UNL A   1      36.438  31.851  30.851  1.00  0.00    -0.460 OA
BRANCH  29  30
ATOM     30  C   UNL A   1      36.855  30.565  30.959  1.00  0.00     0.338 C 
ATOM     31  O   UNL A   1      36.172  29.588  31.213  1.00  0.00    -0.246 OA
BRANCH  30  32
ATOM     32  C   UNL A   1      38.260  30.459  30.526  1.00  0.00     0.060 A 
ATOM     33  C   UNL A   1      38.542  30.608  29.162  1.00  0.00     0.016 A 
ATOM     34  C   UNL A   1      39.272  30.137  31.431  1.00  0.00     0.016 A 
ATOM     35  C   UNL A   1      39.834  30.395  28.689  1.00  0.00     0.010 A 
ATOM     36  C   UNL A   1      40.566  29.915  30.953  1.00  0.00     0.010 A 
ATOM     37  C   UNL A   1      40.847  30.011  29.577  1.00  0.00    -0.014 A 
BRANCH  37  38
ATOM     38  C   UNL A   1      42.172  29.596  29.053  1.00  0.00     0.031 A 
ATOM     39  C   UNL A   1      42.371  28.175  28.601  1.00  0.00     0.074 A 
ATOM     40  C   UNL A   1      43.177  30.485  28.965  1.00  0.00     0.049 A 
ATOM     41  N   UNL A   1      43.458  27.589  28.173  1.00  0.00    -0.248 NA
ATOM     42  C   UNL A   1      41.191  27.296  28.641  1.00  0.00     0.031 C 
ATOM     43  C   UNL A   1      43.087  31.898  29.330  1.00  0.00     0.029 A 
ATOM     44  N   UNL A   1      44.475  30.329  28.545  1.00  0.00    -0.354 N 
ATOM     45  C   UNL A   1      43.098  26.274  27.900  1.00  0.00     0.074 A 
ATOM     46  C   UNL A   1      41.700  26.138  28.247  1.00  0.00     0.031 C 
ATOM     47  C   UNL A   1      44.279  32.481  29.119  1.00  0.00     0.029 A 
ATOM     48  C   UNL A   1      45.228  31.474  28.648  1.00  0.00     0.049 A 
ATOM     49  H   UNL A   1      44.832  29.478  28.202  1.00  0.00     0.167 HD
ATOM     50  C   UNL A   1      43.862  25.279  27.391  1.00  0.00     0.037 A 
ATOM     51  C   UNL A   1      46.539  31.683  28.413  1.00  0.00     0.037 A 
ATOM     52  C   UNL A   1      45.252  25.430  27.045  1.00  0.00     0.049 A 
ATOM     53  C   UNL A   1      47.390  30.537  27.927  1.00  0.00     0.074 A 
ATOM     54  C   UNL A   1      46.109  24.485  26.509  1.00  0.00     0.029 A 
ATOM     55  N   UNL A   1      45.991  26.594  27.202  1.00  0.00    -0.354 N 
ATOM     56  N   UNL A   1      47.036  29.302  27.660  1.00  0.00    -0.248 NA
ATOM     57  C   UNL A   1      48.818  30.810  27.710  1.00  0.00     0.031 C 
ATOM     58  C   UNL A   1      47.380  25.055  26.407  1.00  0.00     0.029 A 
ATOM     59  C   UNL A   1      47.301  26.380  26.806  1.00  0.00     0.049 A 
ATOM     60  H   UNL A   1      45.636  27.446  27.545  1.00  0.00     0.167 HD
ATOM     61  C   UNL A   1      48.188  28.660  27.217  1.00  0.00     0.074 A 
ATOM     62  C   UNL A   1      49.248  29.647  27.240  1.00  0.00     0.031 C 
ATOM     63  C   UNL A   1      48.350  27.372  26.826  1.00  0.00     0.037 A 
BRANCH  50  64
ATOM     64  C   UNL A   1      43.227  23.929  27.187  1.00  0.00     0.058 A 
ATOM     65  C   UNL A   1      42.657  23.591  25.949  1.00  0.00     0.135 A 
ATOM     66  C   UNL A   1      43.110  23.000  28.235  1.00  0.00     0.135 A 
ATOM     67  F   UNL A   1      42.744  24.436  24.910  1.00  0.00    -0.206 F 
ATOM     68  C   UNL A   1      41.974  22.393  25.762  1.00  0.00     0.059 A 
ATOM     69  C   UNL A   1      42.459  21.781  28.061  1.00  0.00     0.059 A 
ATOM     70  F   UNL A   1      43.653  23.261  29.434  1.00  0.00    -0.206 F 
ATOM     71  C   UNL A   1      41.880  21.495  26.825  1.00  0.00     0.060 A 
BRANCH  71  72
ATOM     72  S   UNL A   1      41.008  19.937  26.557  1.00  0.00     0.124 S 
ATOM     73  O   UNL A   1      41.898  19.248  25.629  1.00  0.00    -0.237 OA
ATOM     74  O   UNL A   1      40.946  19.388  27.908  1.00  0.00    -0.237 OA
ATOM     75  O   UNL A   1      39.724  20.358  26.001  1.00  0.00    -0.744 OA
ENDBRANCH  71  72
ENDBRANCH  50  64
BRANCH  51  76
ATOM     76  C   UNL A   1      47.121  33.034  28.631  1.00  0.00     0.058 A 
ATOM     77  C   UNL A   1      47.600  33.428  29.891  1.00  0.00     0.135 A 
ATOM     78  C   UNL A   1      47.179  33.974  27.590  1.00  0.00     0.135 A 
ATOM     79  F   UNL A   1      47.564  32.571  30.924  1.00  0.00    -0.206 F 
ATOM     80  C   UNL A   1      48.080  34.713  30.120  1.00  0.00     0.059 A 
ATOM     81  C   UNL A   1      47.686  35.256  27.787  1.00  0.00     0.059 A 
ATOM     82  F   UNL A   1      46.749  33.641  26.363  1.00  0.00    -0.206 F 
ATOM     83  C   UNL A   1      48.117  35.621  29.062  1.00  0.00     0.060 A 
BRANCH  83  84
ATOM     84  S   UNL A   1      48.726  37.288  29.389  1.00  0.00     0.124 S 
ATOM     85  O   UNL A   1      48.685  37.881  28.057  1.00  0.00    -0.237 OA
ATOM     86  O   UNL A   1      47.738  37.789  30.340  1.00  0.00    -0.237 OA
ATOM     87  O   UNL A   1      50.060  37.061  29.934  1.00  0.00    -0.744 OA
ENDBRANCH  83  84
ENDBRANCH  51  76
BRANCH  63  88
ATOM     88  C   UNL A   1      49.716  26.939  26.359  1.00  0.00     0.058 A 
ATOM     89  C   UNL A   1      50.096  27.115  25.017  1.00  0.00     0.135 A 
ATOM     90  C   UNL A   1      50.611  26.269  27.208  1.00  0.00     0.135 A 
ATOM     91  F   UNL A   1      49.277  27.742  24.157  1.00  0.00    -0.206 F 
ATOM     92  C   UNL A   1      51.300  26.619  24.529  1.00  0.00     0.059 A 
ATOM     93  C   UNL A   1      51.837  25.796  26.748  1.00  0.00     0.059 A 
ATOM     94  F   UNL A   1      50.303  26.083  28.502  1.00  0.00    -0.206 F 
ATOM     95  C   UNL A   1      52.164  25.959  25.402  1.00  0.00     0.060 A 
BRANCH  95  96
ATOM     96  S   UNL A   1      53.725  25.328  24.750  1.00  0.00     0.124 S 
ATOM     97  O   UNL A   1      53.751  25.911  23.414  1.00  0.00    -0.237 OA
ATOM     98  O   UNL A   1      54.694  25.868  25.699  1.00  0.00    -0.237 OA
ATOM     99  O   UNL A   1      53.552  23.878  24.798  1.00  0.00    -0.744 OA
ENDBRANCH  95  96
ENDBRANCH  63  88
ENDBRANCH  37  38
ENDBRANCH  30  32
ENDBRANCH  29  30
ENDBRANCH  28  29
ENDBRANCH  27  28
ENDBRANCH  26  27
ENDBRANCH   1  26
TORSDOF 21
ENDMDL
MODEL 2
REMARK VINA RESULT:      -9.5      6.544     14.163
REMARK SMILES C#Cc1cccc(NS(=O)(=O)c2ccc(F)c(C(=O)OCCOCCOC(=O)c3ccc(-c4c5nc(c(-c6c(F)cc(S(=O)(=O)[O-])cc6F)c6ccc([nH]6)c(-c6c(F)cc(S(=O)(=O)[O-])cc6F)c6nc(c(-c7c(F)cc(S(=O)(=O)[O-])cc7F)c7ccc4[nH]7)C=C6)C=C5)cc3)c2)c1
REMARK SMILES IDX 22 1 21 2 20 3 18 4 19 5 17 6 12 7 13 8 95 9 14 10 15 11
REMARK SMILES IDX 16 12 9 13 10 14 11 15 8 16 7 18 3 19 4 20 96 21 5 22 6 23
REMARK SMILES IDX 2 24 1 25 23 26 24 27 25 28 26 29 27 30 28 31 29 32 30 33
REMARK SMILES IDX 94 34 31 35 93 36 32 37 33 38 34 39 87 40 35 41 92 42 86 43
REMARK SMILES IDX 88 44 36 45 91 46 85 47 84 48 37 50 71 51 50 52 70 53 51 54
REMARK SMILES IDX 54 55 69 56 89 57 52 58 53 59 68 61 90 62 55 63 38 64 39 65
REMARK SMILES IDX 48 66 40 67 41 68 47 69 49 70 42 71 43 72 44 73 45 74 46 75
REMARK SMILES IDX 72 76 73 77 82 78 74 79 75 80 81 81 83 82 76 83 77 84 78 85
REMARK SMILES IDX 79 86 80 87 56 88 57 89 66 90 58 91 59 92 65 93 67 94 60 95
REMARK SMILES IDX 61 96 62 97 63 98 64 99
REMARK H PARENT 8 17 88 49 54 60
REMARK Flexibility Score: inf
ROOT
ATOM      1  C   UNL A   1      43.896  39.790  26.812  1.00  0.00     0.202 C 
ENDROOT
BRANCH   1   2
ATOM      2  C   UNL A   1      43.236  40.865  25.946  1.00  0.00     0.261 C 
BRANCH   2   3
ATOM      3  O   UNL A   1      44.103  41.339  24.910  1.00  0.00    -0.460 OA
BRANCH   3   4
ATOM      4  C   UNL A   1      43.987  42.661  24.656  1.00  0.00     0.341 C 
ATOM      5  O   UNL A   1      44.109  43.575  25.457  1.00  0.00    -0.246 OA
BRANCH   4   6
ATOM      6  C   UNL A   1      43.806  42.926  23.221  1.00  0.00     0.097 A 
ATOM      7  C   UNL A   1      44.767  43.839  21.189  1.00  0.00     0.088 A 
ATOM      8  C   UNL A   1      43.486  43.938  20.650  1.00  0.00     0.025 A 
ATOM      9  C   UNL A   1      44.922  43.382  22.501  1.00  0.00     0.041 A 
ATOM     10  C   UNL A   1      42.410  43.333  21.308  1.00  0.00     0.041 A 
ATOM     11  C   UNL A   1      42.578  42.806  22.584  1.00  0.00     0.137 A 
ATOM     12  F   UNL A   1      41.529  42.221  23.174  1.00  0.00    -0.206 F 
BRANCH   7  13
ATOM     13  S   UNL A   1      46.263  44.048  20.238  1.00  0.00     0.261 S 
ATOM     14  O   UNL A   1      46.082  43.284  19.022  1.00  0.00    -0.201 OA
ATOM     15  O   UNL A   1      47.358  43.766  21.143  1.00  0.00    -0.201 OA
BRANCH  13  16
ATOM     16  N   UNL A   1      46.467  45.650  19.812  1.00  0.00    -0.280 N 
ATOM     17  H   UNL A   1      47.385  45.919  19.583  1.00  0.00     0.180 HD
BRANCH  16  18
ATOM     18  C   UNL A   1      45.484  46.676  19.741  1.00  0.00     0.050 A 
ATOM     19  C   UNL A   1      43.875  47.763  18.295  1.00  0.00     0.026 A 
ATOM     20  C   UNL A   1      44.038  48.946  19.013  1.00  0.00     0.017 A 
ATOM     21  C   UNL A   1      44.620  46.635  18.641  1.00  0.00     0.044 A 
ATOM     22  C   UNL A   1      44.791  48.943  20.184  1.00  0.00     0.003 A 
ATOM     23  C   UNL A   1      45.441  47.776  20.596  1.00  0.00     0.027 A 
BRANCH  19  24
ATOM     24  C   UNL A   1      42.912  47.719  17.242  1.00  0.00    -0.070 C 
ATOM     25  C   UNL A   1      42.190  47.619  16.283  1.00  0.00     0.010 C 
ENDBRANCH  19  24
ENDBRANCH  16  18
ENDBRANCH  13  16
ENDBRANCH   7  13
ENDBRANCH   4   6
ENDBRANCH   3   4
ENDBRANCH   2   3
ENDBRANCH   1   2
BRANCH   1  26
ATOM     26  O   UNL A   1      45.279  39.924  27.132  1.00  0.00    -0.374 OA
BRANCH  26  27
ATOM     27  C   UNL A   1      46.180  38.912  26.688  1.00  0.00     0.202 C 
BRANCH  27  28
ATOM     28  C   UNL A   1      47.442  38.621  27.511  1.00  0.00     0.261 C 
BRANCH  28  29
ATOM     29  O   UNL A   1      47.200  37.819  28.678  1.00  0.00    -0.460 OA
BRANCH  29  30
ATOM     30  C   UNL A   1      48.067  36.787  28.835  1.00  0.00     0.338 C 
ATOM     31  O   UNL A   1      49.232  36.851  29.188  1.00  0.00    -0.246 OA
BRANCH  30  32
ATOM     32  C   UNL A   1      47.346  35.508  28.707  1.00  0.00     0.060 A 
ATOM     33  C   UNL A   1      47.631  34.496  29.633  1.00  0.00     0.016 A 
ATOM     34  C   UNL A   1      46.470  35.277  27.647  1.00  0.00     0.016 A 
ATOM     35  C   UNL A   1      47.069  33.232  29.480  1.00  0.00     0.010 A 
ATOM     36  C   UNL A   1      45.913  34.004  27.490  1.00  0.00     0.010 A 
ATOM     37  C   UNL A   1      46.235  32.967  28.387  1.00  0.00    -0.014 A 
BRANCH  37  38
ATOM     38  C   UNL A   1      45.793  31.578  28.113  1.00  0.00     0.031 A 
ATOM     39  C   UNL A   1      44.403  31.157  28.507  1.00  0.00     0.074 A 
ATOM     40  C   UNL A   1      46.618  30.709  27.501  1.00  0.00     0.049 A 
ATOM     41  N   UNL A   1      43.839  29.982  28.420  1.00  0.00    -0.248 NA
ATOM     42  C   UNL A   1      43.535  32.198  29.082  1.00  0.00     0.031 C 
ATOM     43  C   UNL A   1      47.969  31.017  27.033  1.00  0.00     0.029 A 
ATOM     44  N   UNL A   1      46.442  29.388  27.172  1.00  0.00    -0.354 N 
ATOM     45  C   UNL A   1      42.556  30.137  28.932  1.00  0.00     0.074 A 
ATOM     46  C   UNL A   1      42.438  31.512  29.365  1.00  0.00     0.031 C 
ATOM     47  C   UNL A   1      48.500  29.915  26.478  1.00  0.00     0.029 A 
ATOM     48  C   UNL A   1      47.547  28.813  26.592  1.00  0.00     0.049 A 
ATOM     49  H   UNL A   1      45.604  28.899  27.337  1.00  0.00     0.167 HD
ATOM     50  C   UNL A   1      41.565  29.218  29.018  1.00  0.00     0.037 A 
ATOM     51  C   UNL A   1      47.775  27.538  26.217  1.00  0.00     0.037 A 
ATOM     52  C   UNL A   1      41.696  27.853  28.577  1.00  0.00     0.049 A 
ATOM     53  C   UNL A   1      46.685  26.513  26.400  1.00  0.00     0.074 A 
ATOM     54  C   UNL A   1      40.745  26.848  28.608  1.00  0.00     0.029 A 
ATOM     55  N   UNL A   1      42.845  27.297  28.032  1.00  0.00    -0.354 N 
ATOM     56  N   UNL A   1      45.472  26.674  26.874  1.00  0.00    -0.248 NA
ATOM     57  C   UNL A   1      46.993  25.132  25.998  1.00  0.00     0.031 C 
ATOM     58  C   UNL A   1      41.337  25.670  28.147  1.00  0.00     0.029 A 
ATOM     59  C   UNL A   1      42.636  25.955  27.755  1.00  0.00     0.049 A 
ATOM     60  H   UNL A   1      43.684  27.784  27.867  1.00  0.00     0.167 HD
ATOM     61  C   UNL A   1      44.863  25.425  26.800  1.00  0.00     0.074 A 
ATOM     62  C   UNL A   1      45.837  24.521  26.225  1.00  0.00     0.031 C 
ATOM     63  C   UNL A   1      43.611  25.063  27.174  1.00  0.00     0.037 A 
BRANCH  50  64
ATOM     64  C   UNL A   1      40.253  29.642  29.621  1.00  0.00     0.058 A 
ATOM     65  C   UNL A   1      39.198  30.072  28.799  1.00  0.00     0.135 A 
ATOM     66  C   UNL A   1      40.062  29.701  31.012  1.00  0.00     0.135 A 
ATOM     67  F   UNL A   1      39.321  30.032  27.464  1.00  0.00    -0.206 F 
ATOM     68  C   UNL A   1      38.012  30.566  29.332  1.00  0.00     0.059 A 
ATOM     69  C   UNL A   1      38.870  30.162  31.567  1.00  0.00     0.059 A 
ATOM     70  F   UNL A   1      41.028  29.284  31.845  1.00  0.00    -0.206 F 
ATOM     71  C   UNL A   1      37.858  30.607  30.718  1.00  0.00     0.060 A 
BRANCH  71  72
ATOM     72  S   UNL A   1      36.303  31.232  31.390  1.00  0.00     0.124 S 
ATOM     73  O   UNL A   1      36.009  30.253  32.431  1.00  0.00    -0.237 OA
ATOM     74  O   UNL A   1      36.687  32.562  31.855  1.00  0.00    -0.237 OA
ATOM     75  O   UNL A   1      35.405  31.216  30.239  1.00  0.00    -0.744 OA
ENDBRANCH  71  72
ENDBRANCH  50  64
BRANCH  51  76
ATOM     76  C   UNL A   1      49.089  27.168  25.627  1.00  0.00     0.058 A 
ATOM     77  C   UNL A   1      50.165  26.768  26.436  1.00  0.00     0.135 A 
ATOM     78  C   UNL A   1      49.307  27.238  24.242  1.00  0.00     0.135 A 
ATOM     79  F   UNL A   1      50.015  26.688  27.767  1.00  0.00    -0.206 F 
ATOM     80  C   UNL A   1      51.417  26.487  25.898  1.00  0.00     0.059 A 
ATOM     81  C   UNL A   1      50.541  26.930  23.677  1.00  0.00     0.059 A 
ATOM     82  F   UNL A   1      48.306  27.599  23.425  1.00  0.00    -0.206 F 
ATOM     83  C   UNL A   1      51.596  26.574  24.518  1.00  0.00     0.060 A 
BRANCH  83  84
ATOM     84  S   UNL A   1      53.235  26.224  23.847  1.00  0.00     0.124 S 
ATOM     85  O   UNL A   1      53.983  27.402  24.273  1.00  0.00    -0.237 OA
ATOM     86  O   UNL A   1      53.577  24.975  24.520  1.00  0.00    -0.237 OA
ATOM     87  O   UNL A   1      52.997  26.118  22.411  1.00  0.00    -0.744 OA
ENDBRANCH  83  84
ENDBRANCH  51  76
BRANCH  63  88
ATOM     88  C   UNL A   1      43.191  23.633  26.955  1.00  0.00     0.058 A 
ATOM     89  C   UNL A   1      43.124  22.739  28.038  1.00  0.00     0.135 A 
ATOM     90  C   UNL A   1      42.947  23.120  25.671  1.00  0.00     0.135 A 
ATOM     91  F   UNL A   1      43.356  23.170  29.288  1.00  0.00    -0.206 F 
ATOM     92  C   UNL A   1      42.858  21.386  27.853  1.00  0.00     0.059 A 
ATOM     93  C   UNL A   1      42.644  21.777  25.466  1.00  0.00     0.059 A 
ATOM     94  F   UNL A   1      42.988  23.932  24.602  1.00  0.00    -0.206 F 
ATOM     95  C   UNL A   1      42.620  20.914  26.561  1.00  0.00     0.060 A 
BRANCH  95  96
ATOM     96  S   UNL A   1      42.270  19.157  26.343  1.00  0.00     0.124 S 
ATOM     97  O   UNL A   1      43.307  18.758  25.397  1.00  0.00    -0.237 OA
ATOM     98  O   UNL A   1      42.418  18.644  27.701  1.00  0.00    -0.237 OA
ATOM     99  O   UNL A   1      40.906  19.144  25.820  1.00  0.00    -0.744 OA
ENDBRANCH  95  96
ENDBRANCH  63  88
ENDBRANCH  37  38
ENDBRANCH  30  32
ENDBRANCH  29  30
ENDBRANCH  28  29
ENDBRANCH  27  28
ENDBRANCH  26  27
ENDBRANCH   1  26
TORSDOF 21
ENDMDL
MODEL 3
REMARK VINA RESULT:      -9.5      6.755     14.337
REMARK SMILES C#Cc1cccc(NS(=O)(=O)c2ccc(F)c(C(=O)OCCOCCOC(=O)c3ccc(-c4c5nc(c(-c6c(F)cc(S(=O)(=O)[O-])cc6F)c6ccc([nH]6)c(-c6c(F)cc(S(=O)(=O)[O-])cc6F)c6nc(c(-c7c(F)cc(S(=O)(=O)[O-])cc7F)c7ccc4[nH]7)C=C6)C=C5)cc3)c2)c1
REMARK SMILES IDX 22 1 21 2 20 3 18 4 19 5 17 6 12 7 13 8 95 9 14 10 15 11
REMARK SMILES IDX 16 12 9 13 10 14 11 15 8 16 7 18 3 19 4 20 96 21 5 22 6 23
REMARK SMILES IDX 2 24 1 25 23 26 24 27 25 28 26 29 27 30 28 31 29 32 30 33
REMARK SMILES IDX 94 34 31 35 93 36 32 37 33 38 34 39 87 40 35 41 92 42 86 43
REMARK SMILES IDX 88 44 36 45 91 46 85 47 84 48 37 50 71 51 50 52 70 53 51 54
REMARK SMILES IDX 54 55 69 56 89 57 52 58 53 59 68 61 90 62 55 63 38 64 39 65
REMARK SMILES IDX 48 66 40 67 41 68 47 69 49 70 42 71 43 72 44 73 45 74 46 75
REMARK SMILES IDX 72 76 73 77 82 78 74 79 75 80 81 81 83 82 76 83 77 84 78 85
REMARK SMILES IDX 79 86 80 87 56 88 57 89 66 90 58 91 59 92 65 93 67 94 60 95
REMARK SMILES IDX 61 96 62 97 63 98 64 99
REMARK H PARENT 8 17 88 49 54 60
REMARK Flexibility Score: inf
ROOT
ATOM      1  C   UNL A   1      44.342  39.674  26.940  1.00  0.00     0.202 C 
ENDROOT
BRANCH   1   2
ATOM      2  C   UNL A   1      43.509  40.820  26.361  1.00  0.00     0.261 C 
BRANCH   2   3
ATOM      3  O   UNL A   1      43.905  41.164  25.030  1.00  0.00    -0.460 OA
BRANCH   3   4
ATOM      4  C   UNL A   1      43.852  42.487  24.763  1.00  0.00     0.341 C 
ATOM      5  O   UNL A   1      44.206  43.398  25.496  1.00  0.00    -0.246 OA
BRANCH   4   6
ATOM      6  C   UNL A   1      43.412  42.747  23.384  1.00  0.00     0.097 A 
ATOM      7  C   UNL A   1      43.885  43.855  21.278  1.00  0.00     0.088 A 
ATOM      8  C   UNL A   1      42.538  43.743  20.938  1.00  0.00     0.025 A 
ATOM      9  C   UNL A   1      44.312  43.404  22.530  1.00  0.00     0.041 A 
ATOM     10  C   UNL A   1      41.692  42.947  21.718  1.00  0.00     0.041 A 
ATOM     11  C   UNL A   1      42.139  42.431  22.929  1.00  0.00     0.137 A 
ATOM     12  F   UNL A   1      41.305  41.660  23.638  1.00  0.00    -0.206 F 
BRANCH   7  13
ATOM     13  S   UNL A   1      45.162  44.340  20.128  1.00  0.00     0.261 S 
ATOM     14  O   UNL A   1      44.956  43.549  18.935  1.00  0.00    -0.201 OA
ATOM     15  O   UNL A   1      46.409  44.277  20.863  1.00  0.00    -0.201 OA
BRANCH  13  16
ATOM     16  N   UNL A   1      44.996  45.949  19.714  1.00  0.00    -0.280 N 
ATOM     17  H   UNL A   1      45.442  46.593  20.310  1.00  0.00     0.180 HD
BRANCH  16  18
ATOM     18  C   UNL A   1      44.292  46.509  18.611  1.00  0.00     0.050 A 
ATOM     19  C   UNL A   1      43.876  48.545  17.369  1.00  0.00     0.026 A 
ATOM     20  C   UNL A   1      42.611  48.072  17.028  1.00  0.00     0.017 A 
ATOM     21  C   UNL A   1      44.707  47.776  18.185  1.00  0.00     0.044 A 
ATOM     22  C   UNL A   1      42.259  46.760  17.338  1.00  0.00     0.003 A 
ATOM     23  C   UNL A   1      43.144  45.948  18.054  1.00  0.00     0.027 A 
BRANCH  19  24
ATOM     24  C   UNL A   1      44.315  49.795  16.838  1.00  0.00    -0.070 C 
ATOM     25  C   UNL A   1      44.571  50.899  16.431  1.00  0.00     0.010 C 
ENDBRANCH  19  24
ENDBRANCH  16  18
ENDBRANCH  13  16
ENDBRANCH   7  13
ENDBRANCH   4   6
ENDBRANCH   3   4
ENDBRANCH   2   3
ENDBRANCH   1   2
BRANCH   1  26
ATOM     26  O   UNL A   1      45.730  39.891  27.179  1.00  0.00    -0.374 OA
BRANCH  26  27
ATOM     27  C   UNL A   1      46.673  39.040  26.530  1.00  0.00     0.202 C 
BRANCH  27  28
ATOM     28  C   UNL A   1      48.010  38.740  27.222  1.00  0.00     0.261 C 
BRANCH  28  29
ATOM     29  O   UNL A   1      47.887  37.897  28.378  1.00  0.00    -0.460 OA
BRANCH  29  30
ATOM     30  C   UNL A   1      48.702  36.812  28.366  1.00  0.00     0.338 C 
ATOM     31  O   UNL A   1      49.908  36.795  28.542  1.00  0.00    -0.246 OA
BRANCH  30  32
ATOM     32  C   UNL A   1      47.892  35.582  28.301  1.00  0.00     0.060 A 
ATOM     33  C   UNL A   1      47.820  34.779  29.447  1.00  0.00     0.016 A 
ATOM     34  C   UNL A   1      47.285  35.180  27.111  1.00  0.00     0.016 A 
ATOM     35  C   UNL A   1      47.172  33.549  29.398  1.00  0.00     0.010 A 
ATOM     36  C   UNL A   1      46.642  33.940  27.061  1.00  0.00     0.010 A 
ATOM     37  C   UNL A   1      46.610  33.105  28.194  1.00  0.00    -0.014 A 
BRANCH  37  38
ATOM     38  C   UNL A   1      46.091  31.719  28.086  1.00  0.00     0.031 A 
ATOM     39  C   UNL A   1      46.981  30.642  27.527  1.00  0.00     0.074 A 
ATOM     40  C   UNL A   1      44.846  31.424  28.503  1.00  0.00     0.049 A 
ATOM     41  N   UNL A   1      46.708  29.387  27.287  1.00  0.00    -0.248 NA
ATOM     42  C   UNL A   1      48.359  31.033  27.187  1.00  0.00     0.031 C 
ATOM     43  C   UNL A   1      43.912  32.375  29.103  1.00  0.00     0.029 A 
ATOM     44  N   UNL A   1      44.152  30.240  28.479  1.00  0.00    -0.354 N 
ATOM     45  C   UNL A   1      47.873  28.839  26.763  1.00  0.00     0.074 A 
ATOM     46  C   UNL A   1      48.845  29.908  26.684  1.00  0.00     0.031 C 
ATOM     47  C   UNL A   1      42.765  31.737  29.391  1.00  0.00     0.029 A 
ATOM     48  C   UNL A   1      42.867  30.345  28.954  1.00  0.00     0.049 A 
ATOM     49  H   UNL A   1      44.539  29.395  28.153  1.00  0.00     0.167 HD
ATOM     50  C   UNL A   1      48.113  27.558  26.397  1.00  0.00     0.037 A 
ATOM     51  C   UNL A   1      41.876  29.432  29.008  1.00  0.00     0.037 A 
ATOM     52  C   UNL A   1      47.137  26.501  26.487  1.00  0.00     0.049 A 
ATOM     53  C   UNL A   1      42.141  28.032  28.517  1.00  0.00     0.074 A 
ATOM     54  C   UNL A   1      47.287  25.166  26.155  1.00  0.00     0.029 A 
ATOM     55  N   UNL A   1      45.833  26.656  26.934  1.00  0.00    -0.354 N 
ATOM     56  N   UNL A   1      43.250  27.522  28.036  1.00  0.00    -0.248 NA
ATOM     57  C   UNL A   1      41.020  27.082  28.575  1.00  0.00     0.031 C 
ATOM     58  C   UNL A   1      46.057  24.530  26.336  1.00  0.00     0.029 A 
ATOM     59  C   UNL A   1      45.158  25.448  26.855  1.00  0.00     0.049 A 
ATOM     60  H   UNL A   1      45.444  27.500  27.261  1.00  0.00     0.167 HD
ATOM     61  C   UNL A   1      42.970  26.187  27.761  1.00  0.00     0.074 A 
ATOM     62  C   UNL A   1      41.591  25.965  28.141  1.00  0.00     0.031 C 
ATOM     63  C   UNL A   1      43.784  25.234  27.243  1.00  0.00     0.037 A 
BRANCH  50  64
ATOM     64  C   UNL A   1      49.474  27.216  25.851  1.00  0.00     0.058 A 
ATOM     65  C   UNL A   1      49.711  27.238  24.467  1.00  0.00     0.135 A 
ATOM     66  C   UNL A   1      50.521  26.790  26.686  1.00  0.00     0.135 A 
ATOM     67  F   UNL A   1      48.750  27.642  23.622  1.00  0.00    -0.206 F 
ATOM     68  C   UNL A   1      50.927  26.829  23.928  1.00  0.00     0.059 A 
ATOM     69  C   UNL A   1      51.756  26.407  26.171  1.00  0.00     0.059 A 
ATOM     70  F   UNL A   1      50.357  26.768  28.018  1.00  0.00    -0.206 F 
ATOM     71  C   UNL A   1      51.943  26.414  24.789  1.00  0.00     0.060 A 
BRANCH  71  72
ATOM     72  S   UNL A   1      53.520  25.907  24.072  1.00  0.00     0.124 S 
ATOM     73  O   UNL A   1      53.262  26.050  22.643  1.00  0.00    -0.237 OA
ATOM     74  O   UNL A   1      54.443  26.876  24.653  1.00  0.00    -0.237 OA
ATOM     75  O   UNL A   1      53.683  24.535  24.547  1.00  0.00    -0.744 OA
ENDBRANCH  71  72
ENDBRANCH  50  64
BRANCH  51  76
ATOM     76  C   UNL A   1      40.548  29.819  29.555  1.00  0.00     0.058 A 
ATOM     77  C   UNL A   1      39.446  30.030  28.711  1.00  0.00     0.135 A 
ATOM     78  C   UNL A   1      40.360  30.017  30.931  1.00  0.00     0.135 A 
ATOM     79  F   UNL A   1      39.568  29.859  27.385  1.00  0.00    -0.206 F 
ATOM     80  C   UNL A   1      38.219  30.459  29.206  1.00  0.00     0.059 A 
ATOM     81  C   UNL A   1      39.134  30.414  31.455  1.00  0.00     0.059 A 
ATOM     82  F   UNL A   1      41.379  29.812  31.782  1.00  0.00    -0.206 F 
ATOM     83  C   UNL A   1      38.073  30.651  30.580  1.00  0.00     0.060 A 
BRANCH  83  84
ATOM     84  S   UNL A   1      36.478  31.227  31.197  1.00  0.00     0.124 S 
ATOM     85  O   UNL A   1      36.611  32.672  31.049  1.00  0.00    -0.237 OA
ATOM     86  O   UNL A   1      35.546  30.577  30.279  1.00  0.00    -0.237 OA
ATOM     87  O   UNL A   1      36.448  30.737  32.571  1.00  0.00    -0.744 OA
ENDBRANCH  83  84
ENDBRANCH  51  76
BRANCH  63  88
ATOM     88  C   UNL A   1      43.229  23.844  27.073  1.00  0.00     0.058 A 
ATOM     89  C   UNL A   1      43.365  22.895  28.101  1.00  0.00     0.135 A 
ATOM     90  C   UNL A   1      42.649  23.420  25.867  1.00  0.00     0.135 A 
ATOM     91  F   UNL A   1      43.919  23.241  29.274  1.00  0.00    -0.206 F 
ATOM     92  C   UNL A   1      42.972  21.572  27.930  1.00  0.00     0.059 A 
ATOM     93  C   UNL A   1      42.216  22.109  25.686  1.00  0.00     0.059 A 
ATOM     94  F   UNL A   1      42.486  24.288  24.855  1.00  0.00    -0.206 F 
ATOM     95  C   UNL A   1      42.399  21.188  26.717  1.00  0.00     0.060 A 
BRANCH  95  96
ATOM     96  S   UNL A   1      41.890  19.468  26.517  1.00  0.00     0.124 S 
ATOM     97  O   UNL A   1      40.435  19.580  26.531  1.00  0.00    -0.237 OA
ATOM     98  O   UNL A   1      42.488  19.118  25.232  1.00  0.00    -0.237 OA
ATOM     99  O   UNL A   1      42.478  18.801  27.677  1.00  0.00    -0.744 OA
ENDBRANCH  95  96
ENDBRANCH  63  88
ENDBRANCH  37  38
ENDBRANCH  30  32
ENDBRANCH  29  30
ENDBRANCH  28  29
ENDBRANCH  27  28
ENDBRANCH  26  27
ENDBRANCH   1  26
TORSDOF 21
ENDMDL
