MODEL 1
REMARK VINA RESULT:     -10.5      0.000      0.000
REMARK SMILES C/C(=C(/F)C(=O)OCCOCCOC(=O)c1ccc(-c2c3nc(c(-c4c(F)cc(S(=O)(=O)[O-])cc4F)c4ccc([nH]4)c(-c4c(F)cc(S(=O)(=O)[O-])cc4F)c4nc(c(-c5c(F)cc(S(=O)(=O)[O-])cc5F)c5ccc2[nH]5)C=C4)C=C3)cc1)c1ccccc1F
REMARK SMILES IDX 11 1 10 2 9 3 8 4 7 5 5 6 6 7 3 8 1 9 2 10 4 11 82 12 83 13
REMARK SMILES IDX 87 14 84 15 86 16 88 17 85 18 12 19 13 20 14 21 15 22 16 23
REMARK SMILES IDX 17 24 81 25 18 26 80 27 19 28 20 29 21 30 74 31 22 32 79 33
REMARK SMILES IDX 73 34 75 35 23 36 78 37 72 38 71 39 24 41 58 42 37 43 57 44
REMARK SMILES IDX 38 45 41 46 56 47 76 48 39 49 40 50 55 52 77 53 42 54 25 55
REMARK SMILES IDX 26 56 35 57 27 58 28 59 34 60 36 61 29 62 30 63 31 64 32 65
REMARK SMILES IDX 33 66 59 67 60 68 69 69 61 70 62 71 68 72 70 73 63 74 64 75
REMARK SMILES IDX 65 76 66 77 67 78 43 79 44 80 53 81 45 82 46 83 52 84 54 85
REMARK SMILES IDX 47 86 48 87 49 88 50 89 51 90
REMARK H PARENT 75 40 41 51
REMARK Flexibility Score: inf
ROOT
ATOM      1  C   UNL A   1      34.847  33.170  29.110  1.00  0.00     0.202 C 
ENDROOT
BRANCH   1   2
ATOM      2  O   UNL A   1      33.714  33.868  29.634  1.00  0.00    -0.374 OA
BRANCH   2   3
ATOM      3  C   UNL A   1      33.440  35.158  29.082  1.00  0.00     0.202 C 
BRANCH   3   4
ATOM      4  C   UNL A   1      32.725  36.138  30.018  1.00  0.00     0.261 C 
BRANCH   4   5
ATOM      5  O   UNL A   1      32.345  35.482  31.238  1.00  0.00    -0.458 OA
BRANCH   5   6
ATOM      6  C   UNL A   1      32.703  36.123  32.378  1.00  0.00     0.367 C 
ATOM      7  O   UNL A   1      31.972  36.783  33.103  1.00  0.00    -0.243 OA
BRANCH   6   8
ATOM      8  C   UNL A   1      34.126  35.827  32.671  1.00  0.00     0.211 C 
ATOM      9  C   UNL A   1      33.705  33.393  33.143  1.00  0.00     0.048 C 
ATOM     10  C   UNL A   1      34.586  34.619  33.065  1.00  0.00     0.002 C 
ATOM     11  F   UNL A   1      34.962  36.866  32.452  1.00  0.00    -0.199 F 
BRANCH  10  12
ATOM     12  C   UNL A   1      36.019  34.429  33.445  1.00  0.00     0.016 A 
ATOM     13  C   UNL A   1      37.031  34.552  32.473  1.00  0.00     0.011 A 
ATOM     14  C   UNL A   1      36.440  34.216  34.769  1.00  0.00     0.130 A 
ATOM     15  C   UNL A   1      38.387  34.456  32.809  1.00  0.00     0.001 A 
ATOM     16  C   UNL A   1      37.792  34.133  35.113  1.00  0.00     0.040 A 
ATOM     17  F   UNL A   1      35.553  34.074  35.765  1.00  0.00    -0.206 F 
ATOM     18  C   UNL A   1      38.769  34.253  34.131  1.00  0.00     0.003 A 
ENDBRANCH  10  12
ENDBRANCH   6   8
ENDBRANCH   5   6
ENDBRANCH   4   5
ENDBRANCH   3   4
ENDBRANCH   2   3
ENDBRANCH   1   2
BRANCH   1  19
ATOM     19  C   UNL A   1      35.633  32.300  30.097  1.00  0.00     0.261 C 
BRANCH  19  20
ATOM     20  O   UNL A   1      35.913  30.995  29.561  1.00  0.00    -0.460 OA
BRANCH  20  21
ATOM     21  C   UNL A   1      36.556  30.162  30.411  1.00  0.00     0.338 C 
ATOM     22  O   UNL A   1      36.051  29.477  31.292  1.00  0.00    -0.246 OA
BRANCH  21  23
ATOM     23  C   UNL A   1      37.973  30.034  30.027  1.00  0.00     0.060 A 
ATOM     24  C   UNL A   1      38.262  29.998  28.658  1.00  0.00     0.016 A 
ATOM     25  C   UNL A   1      38.994  29.887  30.971  1.00  0.00     0.016 A 
ATOM     26  C   UNL A   1      39.564  29.759  28.227  1.00  0.00     0.010 A 
ATOM     27  C   UNL A   1      40.303  29.643  30.534  1.00  0.00     0.010 A 
ATOM     28  C   UNL A   1      40.585  29.541  29.161  1.00  0.00    -0.014 A 
BRANCH  28  29
ATOM     29  C   UNL A   1      41.912  29.086  28.677  1.00  0.00     0.031 A 
ATOM     30  C   UNL A   1      43.057  30.063  28.634  1.00  0.00     0.074 A 
ATOM     31  C   UNL A   1      42.109  27.799  28.340  1.00  0.00     0.049 A 
ATOM     32  N   UNL A   1      44.308  29.859  28.311  1.00  0.00    -0.248 NA
ATOM     33  C   UNL A   1      42.750  31.454  29.006  1.00  0.00     0.031 C 
ATOM     34  C   UNL A   1      41.081  26.759  28.352  1.00  0.00     0.029 A 
ATOM     35  N   UNL A   1      43.243  27.147  27.926  1.00  0.00    -0.354 N 
ATOM     36  C   UNL A   1      44.938  31.092  28.439  1.00  0.00     0.074 A 
ATOM     37  C   UNL A   1      43.924  32.045  28.836  1.00  0.00     0.031 C 
ATOM     38  C   UNL A   1      41.632  25.597  27.962  1.00  0.00     0.029 A 
ATOM     39  C   UNL A   1      43.045  25.815  27.656  1.00  0.00     0.049 A 
ATOM     40  H   UNL A   1      44.115  27.593  27.831  1.00  0.00     0.167 HD
ATOM     41  C   UNL A   1      46.246  31.397  28.256  1.00  0.00     0.037 A 
ATOM     42  C   UNL A   1      43.904  24.878  27.208  1.00  0.00     0.037 A 
ATOM     43  C   UNL A   1      47.251  30.444  27.862  1.00  0.00     0.049 A 
ATOM     44  C   UNL A   1      45.346  25.249  26.982  1.00  0.00     0.074 A 
ATOM     45  C   UNL A   1      48.609  30.649  27.685  1.00  0.00     0.029 A 
ATOM     46  N   UNL A   1      47.008  29.109  27.574  1.00  0.00    -0.354 N 
ATOM     47  N   UNL A   1      45.937  26.407  27.153  1.00  0.00    -0.248 NA
ATOM     48  C   UNL A   1      46.238  24.181  26.514  1.00  0.00     0.031 C 
ATOM     49  C   UNL A   1      49.178  29.448  27.242  1.00  0.00     0.029 A 
ATOM     50  C   UNL A   1      48.185  28.483  27.193  1.00  0.00     0.049 A 
ATOM     51  H   UNL A   1      46.130  28.670  27.632  1.00  0.00     0.167 HD
ATOM     52  C   UNL A   1      47.274  26.205  26.828  1.00  0.00     0.074 A 
ATOM     53  C   UNL A   1      47.407  24.806  26.472  1.00  0.00     0.031 C 
ATOM     54  C   UNL A   1      48.300  27.093  26.826  1.00  0.00     0.037 A 
BRANCH  41  55
ATOM     55  C   UNL A   1      46.657  32.831  28.456  1.00  0.00     0.058 A 
ATOM     56  C   UNL A   1      46.630  33.762  27.406  1.00  0.00     0.135 A 
ATOM     57  C   UNL A   1      47.060  33.284  29.723  1.00  0.00     0.135 A 
ATOM     58  F   UNL A   1      46.268  33.379  26.171  1.00  0.00    -0.206 F 
ATOM     59  C   UNL A   1      47.016  35.085  27.597  1.00  0.00     0.059 A 
ATOM     60  C   UNL A   1      47.426  34.610  29.942  1.00  0.00     0.059 A 
ATOM     61  F   UNL A   1      47.106  32.435  30.762  1.00  0.00    -0.206 F 
ATOM     62  C   UNL A   1      47.415  35.499  28.870  1.00  0.00     0.060 A 
BRANCH  62  63
ATOM     63  S   UNL A   1      47.916  37.218  29.103  1.00  0.00     0.124 S 
ATOM     64  O   UNL A   1      48.152  37.641  27.726  1.00  0.00    -0.237 OA
ATOM     65  O   UNL A   1      46.747  37.800  29.753  1.00  0.00    -0.237 OA
ATOM     66  O   UNL A   1      49.108  37.114  29.939  1.00  0.00    -0.744 OA
ENDBRANCH  62  63
ENDBRANCH  41  55
BRANCH  42  67
ATOM     67  C   UNL A   1      43.419  23.497  26.946  1.00  0.00     0.058 A 
ATOM     68  C   UNL A   1      43.196  23.037  25.642  1.00  0.00     0.135 A 
ATOM     69  C   UNL A   1      43.186  22.604  28.005  1.00  0.00     0.135 A 
ATOM     70  F   UNL A   1      43.394  23.857  24.598  1.00  0.00    -0.206 F 
ATOM     71  C   UNL A   1      42.751  21.743  25.393  1.00  0.00     0.059 A 
ATOM     72  C   UNL A   1      42.765  21.298  27.780  1.00  0.00     0.059 A 
ATOM     73  F   UNL A   1      43.395  22.994  29.273  1.00  0.00    -0.206 F 
ATOM     74  C   UNL A   1      42.544  20.878  26.470  1.00  0.00     0.060 A 
BRANCH  74  75
ATOM     75  S   UNL A   1      42.032  19.180  26.133  1.00  0.00     0.124 S 
ATOM     76  O   UNL A   1      40.617  19.354  25.826  1.00  0.00    -0.237 OA
ATOM     77  O   UNL A   1      42.890  18.817  25.010  1.00  0.00    -0.237 OA
ATOM     78  O   UNL A   1      42.326  18.487  27.384  1.00  0.00    -0.744 OA
ENDBRANCH  74  75
ENDBRANCH  42  67
BRANCH  54  79
ATOM     79  C   UNL A   1      49.658  26.574  26.437  1.00  0.00     0.058 A 
ATOM     80  C   UNL A   1      50.496  25.935  27.364  1.00  0.00     0.135 A 
ATOM     81  C   UNL A   1      50.119  26.702  25.116  1.00  0.00     0.135 A 
ATOM     82  F   UNL A   1      50.106  25.790  28.640  1.00  0.00    -0.206 F 
ATOM     83  C   UNL A   1      51.761  25.477  27.006  1.00  0.00     0.059 A 
ATOM     84  C   UNL A   1      51.368  26.226  24.730  1.00  0.00     0.059 A 
ATOM     85  F   UNL A   1      49.352  27.291  24.185  1.00  0.00    -0.206 F 
ATOM     86  C   UNL A   1      52.190  25.632  25.686  1.00  0.00     0.060 A 
BRANCH  86  87
ATOM     87  S   UNL A   1      53.833  25.036  25.233  1.00  0.00     0.124 S 
ATOM     88  O   UNL A   1      53.643  23.590  25.276  1.00  0.00    -0.237 OA
ATOM     89  O   UNL A   1      54.022  25.612  23.905  1.00  0.00    -0.237 OA
ATOM     90  O   UNL A   1      54.692  25.588  26.277  1.00  0.00    -0.744 OA
ENDBRANCH  86  87
ENDBRANCH  54  79
ENDBRANCH  28  29
ENDBRANCH  21  23
ENDBRANCH  20  21
ENDBRANCH  19  20
ENDBRANCH   1  19
TORSDOF 18
ENDMDL
MODEL 2
REMARK VINA RESULT:     -10.4      3.033     11.851
REMARK SMILES C/C(=C(/F)C(=O)OCCOCCOC(=O)c1ccc(-c2c3nc(c(-c4c(F)cc(S(=O)(=O)[O-])cc4F)c4ccc([nH]4)c(-c4c(F)cc(S(=O)(=O)[O-])cc4F)c4nc(c(-c5c(F)cc(S(=O)(=O)[O-])cc5F)c5ccc2[nH]5)C=C4)C=C3)cc1)c1ccccc1F
REMARK SMILES IDX 11 1 10 2 9 3 8 4 7 5 5 6 6 7 3 8 1 9 2 10 4 11 82 12 83 13
REMARK SMILES IDX 87 14 84 15 86 16 88 17 85 18 12 19 13 20 14 21 15 22 16 23
REMARK SMILES IDX 17 24 81 25 18 26 80 27 19 28 20 29 21 30 74 31 22 32 79 33
REMARK SMILES IDX 73 34 75 35 23 36 78 37 72 38 71 39 24 41 58 42 37 43 57 44
REMARK SMILES IDX 38 45 41 46 56 47 76 48 39 49 40 50 55 52 77 53 42 54 25 55
REMARK SMILES IDX 26 56 35 57 27 58 28 59 34 60 36 61 29 62 30 63 31 64 32 65
REMARK SMILES IDX 33 66 59 67 60 68 69 69 61 70 62 71 68 72 70 73 63 74 64 75
REMARK SMILES IDX 65 76 66 77 67 78 43 79 44 80 53 81 45 82 46 83 52 84 54 85
REMARK SMILES IDX 47 86 48 87 49 88 50 89 51 90
REMARK H PARENT 75 40 41 51
REMARK Flexibility Score: inf
ROOT
ATOM      1  C   UNL A   1      42.247  19.732  26.293  1.00  0.00     0.202 C 
ENDROOT
BRANCH   1   2
ATOM      2  O   UNL A   1      43.085  20.031  25.174  1.00  0.00    -0.374 OA
BRANCH   2   3
ATOM      3  C   UNL A   1      44.438  19.575  25.241  1.00  0.00     0.202 C 
BRANCH   3   4
ATOM      4  C   UNL A   1      45.461  20.433  24.488  1.00  0.00     0.261 C 
BRANCH   4   5
ATOM      5  O   UNL A   1      46.067  21.388  25.373  1.00  0.00    -0.458 OA
BRANCH   5   6
ATOM      6  C   UNL A   1      45.578  22.650  25.288  1.00  0.00     0.367 C 
ATOM      7  O   UNL A   1      45.486  23.329  24.275  1.00  0.00    -0.243 OA
BRANCH   6   8
ATOM      8  C   UNL A   1      45.077  23.064  26.620  1.00  0.00     0.211 C 
ATOM      9  C   UNL A   1      47.217  24.216  27.264  1.00  0.00     0.048 C 
ATOM     10  C   UNL A   1      45.815  23.724  27.539  1.00  0.00     0.002 C 
ATOM     11  F   UNL A   1      43.772  22.778  26.831  1.00  0.00    -0.199 F 
BRANCH  10  12
ATOM     12  C   UNL A   1      45.269  24.011  28.901  1.00  0.00     0.016 A 
ATOM     13  C   UNL A   1      44.347  23.127  29.494  1.00  0.00     0.011 A 
ATOM     14  C   UNL A   1      45.696  25.095  29.687  1.00  0.00     0.130 A 
ATOM     15  C   UNL A   1      43.874  23.325  30.798  1.00  0.00     0.001 A 
ATOM     16  C   UNL A   1      45.239  25.291  30.993  1.00  0.00     0.040 A 
ATOM     17  F   UNL A   1      46.563  26.000  29.208  1.00  0.00    -0.206 F 
ATOM     18  C   UNL A   1      44.325  24.403  31.550  1.00  0.00     0.003 A 
ENDBRANCH  10  12
ENDBRANCH   6   8
ENDBRANCH   5   6
ENDBRANCH   4   5
ENDBRANCH   3   4
ENDBRANCH   2   3
ENDBRANCH   1   2
BRANCH   1  19
ATOM     19  C   UNL A   1      40.755  20.044  26.137  1.00  0.00     0.261 C 
BRANCH  19  20
ATOM     20  O   UNL A   1      40.316  21.055  27.060  1.00  0.00    -0.460 OA
BRANCH  20  21
ATOM     21  C   UNL A   1      39.565  22.036  26.507  1.00  0.00     0.338 C 
ATOM     22  O   UNL A   1      38.607  21.893  25.757  1.00  0.00    -0.246 OA
BRANCH  21  23
ATOM     23  C   UNL A   1      39.937  23.346  27.072  1.00  0.00     0.060 A 
ATOM     24  C   UNL A   1      39.495  24.483  26.387  1.00  0.00     0.016 A 
ATOM     25  C   UNL A   1      40.747  23.469  28.204  1.00  0.00     0.016 A 
ATOM     26  C   UNL A   1      39.909  25.748  26.797  1.00  0.00     0.010 A 
ATOM     27  C   UNL A   1      41.166  24.743  28.612  1.00  0.00     0.010 A 
ATOM     28  C   UNL A   1      40.778  25.884  27.887  1.00  0.00    -0.014 A 
BRANCH  28  29
ATOM     29  C   UNL A   1      41.364  27.216  28.173  1.00  0.00     0.031 A 
ATOM     30  C   UNL A   1      42.772  27.513  27.730  1.00  0.00     0.074 A 
ATOM     31  C   UNL A   1      40.627  28.172  28.764  1.00  0.00     0.049 A 
ATOM     32  N   UNL A   1      43.451  28.628  27.819  1.00  0.00    -0.248 NA
ATOM     33  C   UNL A   1      43.514  26.406  27.104  1.00  0.00     0.031 C 
ATOM     34  C   UNL A   1      39.248  28.007  29.226  1.00  0.00     0.029 A 
ATOM     35  N   UNL A   1      40.931  29.474  29.074  1.00  0.00    -0.354 N 
ATOM     36  C   UNL A   1      44.696  28.359  27.262  1.00  0.00     0.074 A 
ATOM     37  C   UNL A   1      44.691  26.966  26.869  1.00  0.00     0.031 C 
ATOM     38  C   UNL A   1      38.827  29.165  29.762  1.00  0.00     0.029 A 
ATOM     39  C   UNL A   1      39.908  30.146  29.696  1.00  0.00     0.049 A 
ATOM     40  H   UNL A   1      41.802  29.886  28.868  1.00  0.00     0.167 HD
ATOM     41  C   UNL A   1      45.743  29.201  27.081  1.00  0.00     0.037 A 
ATOM     42  C   UNL A   1      39.853  31.408  30.166  1.00  0.00     0.037 A 
ATOM     43  C   UNL A   1      45.742  30.588  27.472  1.00  0.00     0.049 A 
ATOM     44  C   UNL A   1      41.039  32.317  29.981  1.00  0.00     0.074 A 
ATOM     45  C   UNL A   1      46.740  31.531  27.300  1.00  0.00     0.029 A 
ATOM     46  N   UNL A   1      44.697  31.227  28.123  1.00  0.00    -0.354 N 
ATOM     47  N   UNL A   1      42.193  32.063  29.411  1.00  0.00    -0.248 NA
ATOM     48  C   UNL A   1      40.911  33.687  30.495  1.00  0.00     0.031 C 
ATOM     49  C   UNL A   1      46.317  32.728  27.891  1.00  0.00     0.029 A 
ATOM     50  C   UNL A   1      45.035  32.545  28.385  1.00  0.00     0.049 A 
ATOM     51  H   UNL A   1      43.840  30.807  28.363  1.00  0.00     0.167 HD
ATOM     52  C   UNL A   1      42.923  33.244  29.481  1.00  0.00     0.074 A 
ATOM     53  C   UNL A   1      42.070  34.219  30.132  1.00  0.00     0.031 C 
ATOM     54  C   UNL A   1      44.183  33.501  29.048  1.00  0.00     0.037 A 
BRANCH  41  55
ATOM     55  C   UNL A   1      46.987  28.635  26.454  1.00  0.00     0.058 A 
ATOM     56  C   UNL A   1      47.044  28.306  25.090  1.00  0.00     0.135 A 
ATOM     57  C   UNL A   1      48.147  28.443  27.222  1.00  0.00     0.135 A 
ATOM     58  F   UNL A   1      45.960  28.454  24.312  1.00  0.00    -0.206 F 
ATOM     59  C   UNL A   1      48.197  27.778  24.516  1.00  0.00     0.059 A 
ATOM     60  C   UNL A   1      49.320  27.941  26.663  1.00  0.00     0.059 A 
ATOM     61  F   UNL A   1      48.148  28.740  28.531  1.00  0.00    -0.206 F 
ATOM     62  C   UNL A   1      49.330  27.597  25.313  1.00  0.00     0.060 A 
BRANCH  62  63
ATOM     63  S   UNL A   1      50.818  26.909  24.557  1.00  0.00     0.124 S 
ATOM     64  O   UNL A   1      51.809  27.930  24.883  1.00  0.00    -0.237 OA
ATOM     65  O   UNL A   1      50.966  25.637  25.256  1.00  0.00    -0.237 OA
ATOM     66  O   UNL A   1      50.465  26.806  23.144  1.00  0.00    -0.744 OA
ENDBRANCH  62  63
ENDBRANCH  41  55
BRANCH  42  67
ATOM     67  C   UNL A   1      38.624  31.885  30.854  1.00  0.00     0.058 A 
ATOM     68  C   UNL A   1      38.446  31.711  32.233  1.00  0.00     0.135 A 
ATOM     69  C   UNL A   1      37.609  32.544  30.141  1.00  0.00     0.135 A 
ATOM     70  F   UNL A   1      39.383  31.077  32.956  1.00  0.00    -0.206 F 
ATOM     71  C   UNL A   1      37.302  32.164  32.883  1.00  0.00     0.059 A 
ATOM     72  C   UNL A   1      36.469  33.028  30.772  1.00  0.00     0.059 A 
ATOM     73  F   UNL A   1      37.738  32.745  28.820  1.00  0.00    -0.206 F 
ATOM     74  C   UNL A   1      36.321  32.827  32.143  1.00  0.00     0.060 A 
BRANCH  74  75
ATOM     75  S   UNL A   1      34.871  33.471  33.005  1.00  0.00     0.124 S 
ATOM     76  O   UNL A   1      34.925  34.886  32.656  1.00  0.00    -0.237 OA
ATOM     77  O   UNL A   1      33.787  32.705  32.398  1.00  0.00    -0.237 OA
ATOM     78  O   UNL A   1      35.144  33.154  34.404  1.00  0.00    -0.744 OA
ENDBRANCH  74  75
ENDBRANCH  42  67
BRANCH  54  79
ATOM     79  C   UNL A   1      44.709  34.896  29.253  1.00  0.00     0.058 A 
ATOM     80  C   UNL A   1      45.381  35.264  30.430  1.00  0.00     0.135 A 
ATOM     81  C   UNL A   1      44.552  35.872  28.256  1.00  0.00     0.135 A 
ATOM     82  F   UNL A   1      45.555  34.370  31.416  1.00  0.00    -0.206 F 
ATOM     83  C   UNL A   1      45.846  36.561  30.626  1.00  0.00     0.059 A 
ATOM     84  C   UNL A   1      45.034  37.167  28.420  1.00  0.00     0.059 A 
ATOM     85  F   UNL A   1      43.930  35.571  27.105  1.00  0.00    -0.206 F 
ATOM     86  C   UNL A   1      45.662  37.507  29.617  1.00  0.00     0.060 A 
BRANCH  86  87
ATOM     87  S   UNL A   1      46.267  39.188  29.884  1.00  0.00     0.124 S 
ATOM     88  O   UNL A   1      45.875  39.423  31.270  1.00  0.00    -0.237 OA
ATOM     89  O   UNL A   1      47.700  39.049  29.644  1.00  0.00    -0.237 OA
ATOM     90  O   UNL A   1      45.544  39.970  28.885  1.00  0.00    -0.744 OA
ENDBRANCH  86  87
ENDBRANCH  54  79
ENDBRANCH  28  29
ENDBRANCH  21  23
ENDBRANCH  20  21
ENDBRANCH  19  20
ENDBRANCH   1  19
TORSDOF 18
ENDMDL
MODEL 3
REMARK VINA RESULT:     -10.4      2.862      8.976
REMARK SMILES C/C(=C(/F)C(=O)OCCOCCOC(=O)c1ccc(-c2c3nc(c(-c4c(F)cc(S(=O)(=O)[O-])cc4F)c4ccc([nH]4)c(-c4c(F)cc(S(=O)(=O)[O-])cc4F)c4nc(c(-c5c(F)cc(S(=O)(=O)[O-])cc5F)c5ccc2[nH]5)C=C4)C=C3)cc1)c1ccccc1F
REMARK SMILES IDX 11 1 10 2 9 3 8 4 7 5 5 6 6 7 3 8 1 9 2 10 4 11 82 12 83 13
REMARK SMILES IDX 87 14 84 15 86 16 88 17 85 18 12 19 13 20 14 21 15 22 16 23
REMARK SMILES IDX 17 24 81 25 18 26 80 27 19 28 20 29 21 30 74 31 22 32 79 33
REMARK SMILES IDX 73 34 75 35 23 36 78 37 72 38 71 39 24 41 58 42 37 43 57 44
REMARK SMILES IDX 38 45 41 46 56 47 76 48 39 49 40 50 55 52 77 53 42 54 25 55
REMARK SMILES IDX 26 56 35 57 27 58 28 59 34 60 36 61 29 62 30 63 31 64 32 65
REMARK SMILES IDX 33 66 59 67 60 68 69 69 61 70 62 71 68 72 70 73 63 74 64 75
REMARK SMILES IDX 65 76 66 77 67 78 43 79 44 80 53 81 45 82 46 83 52 84 54 85
REMARK SMILES IDX 47 86 48 87 49 88 50 89 51 90
REMARK H PARENT 75 40 41 51
REMARK Flexibility Score: inf
ROOT
ATOM      1  C   UNL A   1      33.760  34.173  28.222  1.00  0.00     0.202 C 
ENDROOT
BRANCH   1   2
ATOM      2  O   UNL A   1      32.735  34.883  28.922  1.00  0.00    -0.374 OA
BRANCH   2   3
ATOM      3  C   UNL A   1      33.159  35.941  29.786  1.00  0.00     0.202 C 
BRANCH   3   4
ATOM      4  C   UNL A   1      32.693  35.828  31.242  1.00  0.00     0.261 C 
BRANCH   4   5
ATOM      5  O   UNL A   1      33.482  34.860  31.950  1.00  0.00    -0.458 OA
BRANCH   5   6
ATOM      6  C   UNL A   1      34.565  35.355  32.597  1.00  0.00     0.367 C 
ATOM      7  O   UNL A   1      34.635  36.421  33.191  1.00  0.00    -0.243 OA
BRANCH   6   8
ATOM      8  C   UNL A   1      35.654  34.349  32.554  1.00  0.00     0.211 C 
ATOM      9  C   UNL A   1      35.655  33.985  35.042  1.00  0.00     0.048 C 
ATOM     10  C   UNL A   1      36.189  33.761  33.646  1.00  0.00     0.002 C 
ATOM     11  F   UNL A   1      36.041  34.008  31.305  1.00  0.00    -0.199 F 
BRANCH  10  12
ATOM     12  C   UNL A   1      37.357  32.836  33.526  1.00  0.00     0.016 A 
ATOM     13  C   UNL A   1      38.642  33.265  33.909  1.00  0.00     0.011 A 
ATOM     14  C   UNL A   1      37.236  31.494  33.122  1.00  0.00     0.130 A 
ATOM     15  C   UNL A   1      39.744  32.401  33.881  1.00  0.00     0.001 A 
ATOM     16  C   UNL A   1      38.329  30.623  33.105  1.00  0.00     0.040 A 
ATOM     17  F   UNL A   1      36.057  30.993  32.727  1.00  0.00    -0.206 F 
ATOM     18  C   UNL A   1      39.587  31.078  33.486  1.00  0.00     0.003 A 
ENDBRANCH  10  12
ENDBRANCH   6   8
ENDBRANCH   5   6
ENDBRANCH   4   5
ENDBRANCH   3   4
ENDBRANCH   2   3
ENDBRANCH   1   2
BRANCH   1  19
ATOM     19  C   UNL A   1      33.488  32.696  27.921  1.00  0.00     0.261 C 
BRANCH  19  20
ATOM     20  O   UNL A   1      34.406  31.828  28.608  1.00  0.00    -0.460 OA
BRANCH  20  21
ATOM     21  C   UNL A   1      34.485  30.576  28.101  1.00  0.00     0.338 C 
ATOM     22  O   UNL A   1      33.618  29.980  27.475  1.00  0.00    -0.246 OA
BRANCH  21  23
ATOM     23  C   UNL A   1      35.857  30.053  28.242  1.00  0.00     0.060 A 
ATOM     24  C   UNL A   1      36.237  29.596  29.509  1.00  0.00     0.016 A 
ATOM     25  C   UNL A   1      36.773  30.064  27.187  1.00  0.00     0.016 A 
ATOM     26  C   UNL A   1      37.551  29.201  29.741  1.00  0.00     0.010 A 
ATOM     27  C   UNL A   1      38.097  29.669  27.425  1.00  0.00     0.010 A 
ATOM     28  C   UNL A   1      38.499  29.271  28.713  1.00  0.00    -0.014 A 
BRANCH  28  29
ATOM     29  C   UNL A   1      39.928  29.043  29.039  1.00  0.00     0.031 A 
ATOM     30  C   UNL A   1      40.562  27.722  28.696  1.00  0.00     0.074 A 
ATOM     31  C   UNL A   1      40.669  30.028  29.578  1.00  0.00     0.049 A 
ATOM     32  N   UNL A   1      41.805  27.339  28.832  1.00  0.00    -0.248 NA
ATOM     33  C   UNL A   1      39.676  26.695  28.123  1.00  0.00     0.031 C 
ATOM     34  C   UNL A   1      40.170  31.354  29.942  1.00  0.00     0.029 A 
ATOM     35  N   UNL A   1      42.000  30.067  29.908  1.00  0.00    -0.354 N 
ATOM     36  C   UNL A   1      41.853  26.031  28.364  1.00  0.00     0.074 A 
ATOM     37  C   UNL A   1      40.507  25.674  27.972  1.00  0.00     0.031 C 
ATOM     38  C   UNL A   1      41.183  32.078  30.447  1.00  0.00     0.029 A 
ATOM     39  C   UNL A   1      42.396  31.262  30.458  1.00  0.00     0.049 A 
ATOM     40  H   UNL A   1      42.613  29.310  29.764  1.00  0.00     0.167 HD
ATOM     41  C   UNL A   1      42.925  25.208  28.258  1.00  0.00     0.037 A 
ATOM     42  C   UNL A   1      43.600  31.651  30.923  1.00  0.00     0.037 A 
ATOM     43  C   UNL A   1      44.264  25.569  28.648  1.00  0.00     0.049 A 
ATOM     44  C   UNL A   1      44.769  30.709  30.822  1.00  0.00     0.074 A 
ATOM     45  C   UNL A   1      45.422  24.818  28.546  1.00  0.00     0.029 A 
ATOM     46  N   UNL A   1      44.621  26.779  29.224  1.00  0.00    -0.354 N 
ATOM     47  N   UNL A   1      44.810  29.492  30.333  1.00  0.00    -0.248 NA
ATOM     48  C   UNL A   1      46.060  31.197  31.326  1.00  0.00     0.031 C 
ATOM     49  C   UNL A   1      46.472  25.556  29.106  1.00  0.00     0.029 A 
ATOM     50  C   UNL A   1      45.978  26.786  29.510  1.00  0.00     0.049 A 
ATOM     51  H   UNL A   1      44.004  27.523  29.404  1.00  0.00     0.167 HD
ATOM     52  C   UNL A   1      46.131  29.074  30.456  1.00  0.00     0.074 A 
ATOM     53  C   UNL A   1      46.861  30.178  31.045  1.00  0.00     0.031 C 
ATOM     54  C   UNL A   1      46.690  27.887  30.111  1.00  0.00     0.037 A 
BRANCH  41  55
ATOM     55  C   UNL A   1      42.685  23.824  27.718  1.00  0.00     0.058 A 
ATOM     56  C   UNL A   1      42.619  23.568  26.339  1.00  0.00     0.135 A 
ATOM     57  C   UNL A   1      42.544  22.734  28.593  1.00  0.00     0.135 A 
ATOM     58  F   UNL A   1      42.732  24.575  25.458  1.00  0.00    -0.206 F 
ATOM     59  C   UNL A   1      42.393  22.286  25.847  1.00  0.00     0.059 A 
ATOM     60  C   UNL A   1      42.342  21.440  28.122  1.00  0.00     0.059 A 
ATOM     61  F   UNL A   1      42.597  22.922  29.922  1.00  0.00    -0.206 F 
ATOM     62  C   UNL A   1      42.253  21.228  26.748  1.00  0.00     0.060 A 
BRANCH  62  63
ATOM     63  S   UNL A   1      41.956  19.571  26.096  1.00  0.00     0.124 S 
ATOM     64  O   UNL A   1      40.524  19.620  25.818  1.00  0.00    -0.237 OA
ATOM     65  O   UNL A   1      42.827  19.534  24.926  1.00  0.00    -0.237 OA
ATOM     66  O   UNL A   1      42.352  18.697  27.196  1.00  0.00    -0.744 OA
ENDBRANCH  62  63
ENDBRANCH  41  55
BRANCH  42  67
ATOM     67  C   UNL A   1      43.756  33.002  31.524  1.00  0.00     0.058 A 
ATOM     68  C   UNL A   1      43.499  33.231  32.882  1.00  0.00     0.135 A 
ATOM     69  C   UNL A   1      44.184  34.091  30.746  1.00  0.00     0.135 A 
ATOM     70  F   UNL A   1      43.077  32.225  33.664  1.00  0.00    -0.206 F 
ATOM     71  C   UNL A   1      43.653  34.492  33.450  1.00  0.00     0.059 A 
ATOM     72  C   UNL A   1      44.369  35.354  31.296  1.00  0.00     0.059 A 
ATOM     73  F   UNL A   1      44.453  33.921  29.441  1.00  0.00    -0.206 F 
ATOM     74  C   UNL A   1      44.095  35.547  32.649  1.00  0.00     0.060 A 
BRANCH  74  75
ATOM     75  S   UNL A   1      44.357  37.163  33.409  1.00  0.00     0.124 S 
ATOM     76  O   UNL A   1      43.681  36.999  34.691  1.00  0.00    -0.237 OA
ATOM     77  O   UNL A   1      45.813  37.246  33.460  1.00  0.00    -0.237 OA
ATOM     78  O   UNL A   1      43.718  38.082  32.471  1.00  0.00    -0.744 OA
ENDBRANCH  74  75
ENDBRANCH  42  67
BRANCH  54  79
ATOM     79  C   UNL A   1      48.166  27.727  30.354  1.00  0.00     0.058 A 
ATOM     80  C   UNL A   1      49.114  28.059  29.373  1.00  0.00     0.135 A 
ATOM     81  C   UNL A   1      48.639  27.253  31.588  1.00  0.00     0.135 A 
ATOM     82  F   UNL A   1      48.716  28.513  28.175  1.00  0.00    -0.206 F 
ATOM     83  C   UNL A   1      50.478  27.888  29.592  1.00  0.00     0.059 A 
ATOM     84  C   UNL A   1      50.000  27.101  31.839  1.00  0.00     0.059 A 
ATOM     85  F   UNL A   1      47.778  26.935  32.567  1.00  0.00    -0.206 F 
ATOM     86  C   UNL A   1      50.911  27.403  30.828  1.00  0.00     0.060 A 
BRANCH  86  87
ATOM     87  S   UNL A   1      52.682  27.182  31.100  1.00  0.00     0.124 S 
ATOM     88  O   UNL A   1      53.239  27.731  29.868  1.00  0.00    -0.237 OA
ATOM     89  O   UNL A   1      52.915  27.970  32.307  1.00  0.00    -0.237 OA
ATOM     90  O   UNL A   1      52.822  25.738  31.265  1.00  0.00    -0.744 OA
ENDBRANCH  86  87
ENDBRANCH  54  79
ENDBRANCH  28  29
ENDBRANCH  21  23
ENDBRANCH  20  21
ENDBRANCH  19  20
ENDBRANCH   1  19
TORSDOF 18
ENDMDL
