MODEL 1
REMARK VINA RESULT:     -11.4      0.000      0.000
REMARK SMILES O=C(Nc1ccc(O)cc1C(=O)OCCOCCOC(=O)c1ccc(-c2c3nc(c(-c4c(F)cc(S(=O)(=O)[O-])cc4F)c4ccc([nH]4)c(-c4c(F)cc(S(=O)(=O)[O-])cc4F)c4nc(c(-c5c(F)cc(S(=O)(=O)[O-])cc5F)c5ccc2[nH]5)C=C4)C=C3)cc1)c1ccc(Br)nc1
REMARK SMILES IDX 17 1 16 2 15 3 14 4 13 5 11 6 12 7 10 8 4 9 5 10 6 11 9 12
REMARK SMILES IDX 7 13 3 14 1 15 2 16 88 18 89 19 94 20 90 21 93 22 91 23
REMARK SMILES IDX 92 24 8 25 18 27 19 28 20 29 21 30 22 31 23 32 87 33 24 34
REMARK SMILES IDX 86 35 25 36 26 37 27 38 80 39 28 40 85 41 79 42 81 43 29 44
REMARK SMILES IDX 84 45 78 46 77 47 30 49 64 50 43 51 63 52 44 53 47 54 62 55
REMARK SMILES IDX 82 56 45 57 46 58 61 60 83 61 48 62 31 63 32 64 41 65 33 66
REMARK SMILES IDX 34 67 40 68 42 69 35 70 36 71 37 72 38 73 39 74 65 75 66 76
REMARK SMILES IDX 75 77 67 78 68 79 74 80 76 81 69 82 70 83 71 84 72 85 73 86
REMARK SMILES IDX 49 87 50 88 59 89 51 90 52 91 58 92 60 93 53 94 54 95 55 96
REMARK SMILES IDX 56 97 57 98
REMARK H PARENT 3 17 8 26 81 48 47 59
REMARK Flexibility Score: inf
ROOT
ATOM      1  C   UNL A   1      34.613  32.518  28.347  1.00  0.00     0.202 C 
ENDROOT
BRANCH   1   2
ATOM      2  O   UNL A   1      33.988  31.462  27.615  1.00  0.00    -0.374 OA
BRANCH   2   3
ATOM      3  C   UNL A   1      34.757  30.281  27.382  1.00  0.00     0.202 C 
BRANCH   3   4
ATOM      4  C   UNL A   1      33.960  28.991  27.176  1.00  0.00     0.261 C 
BRANCH   4   5
ATOM      5  O   UNL A   1      32.595  29.282  26.820  1.00  0.00    -0.460 OA
BRANCH   5   6
ATOM      6  C   UNL A   1      31.744  28.232  26.905  1.00  0.00     0.340 C 
ATOM      7  O   UNL A   1      31.337  27.721  27.938  1.00  0.00    -0.246 OA
BRANCH   6   8
ATOM      8  C   UNL A   1      31.224  27.833  25.569  1.00  0.00     0.087 A 
ATOM      9  C   UNL A   1      30.540  26.638  25.262  1.00  0.00     0.056 A 
ATOM     10  C   UNL A   1      30.002  26.504  23.971  1.00  0.00     0.031 A 
ATOM     11  C   UNL A   1      30.286  27.423  22.959  1.00  0.00     0.048 A 
ATOM     12  C   UNL A   1      31.514  28.749  24.539  1.00  0.00     0.064 A 
ATOM     13  C   UNL A   1      31.080  28.519  23.243  1.00  0.00     0.116 A 
BRANCH   9  14
ATOM     14  N   UNL A   1      30.388  25.608  26.221  1.00  0.00    -0.321 N 
ATOM     15  O   UNL A   1      30.606  23.542  27.134  1.00  0.00    -0.269 OA
ATOM     16  C   UNL A   1      31.040  24.397  26.367  1.00  0.00     0.257 C 
ATOM     17  H   UNL A   1      29.700  25.784  26.902  1.00  0.00     0.170 HD
BRANCH  16  18
ATOM     18  C   UNL A   1      32.315  24.122  25.680  1.00  0.00     0.058 A 
ATOM     19  C   UNL A   1      33.518  24.599  26.201  1.00  0.00     0.018 A 
ATOM     20  C   UNL A   1      32.354  23.385  24.504  1.00  0.00     0.126 A 
ATOM     21  C   UNL A   1      34.713  24.255  25.570  1.00  0.00     0.037 A 
ATOM     22  N   UNL A   1      33.502  23.021  23.881  1.00  0.00    -0.249 NA
ATOM     23  C   UNL A   1      34.658  23.460  24.432  1.00  0.00     0.106 A 
ATOM     24  Br  UNL A   1      36.278  22.918  23.609  1.00  0.00    -0.029 Br
ENDBRANCH  16  18
ENDBRANCH   9  14
BRANCH  13  25
ATOM     25  O   UNL A   1      31.448  29.401  22.276  1.00  0.00    -0.508 OA
ATOM     26  H   UNL A   1      31.984  29.117  21.562  1.00  0.00     0.293 HD
ENDBRANCH  13  25
ENDBRANCH   6   8
ENDBRANCH   5   6
ENDBRANCH   4   5
ENDBRANCH   3   4
ENDBRANCH   2   3
ENDBRANCH   1   2
BRANCH   1  27
ATOM     27  C   UNL A   1      34.922  32.245  29.824  1.00  0.00     0.261 C 
BRANCH  27  28
ATOM     28  O   UNL A   1      36.334  32.302  30.101  1.00  0.00    -0.460 OA
BRANCH  28  29
ATOM     29  C   UNL A   1      36.774  31.358  30.969  1.00  0.00     0.338 C 
ATOM     30  O   UNL A   1      36.231  31.005  32.008  1.00  0.00    -0.246 OA
BRANCH  29  31
ATOM     31  C   UNL A   1      37.935  30.644  30.405  1.00  0.00     0.060 A 
ATOM     32  C   UNL A   1      38.869  30.118  31.307  1.00  0.00     0.016 A 
ATOM     33  C   UNL A   1      38.146  30.546  29.028  1.00  0.00     0.016 A 
ATOM     34  C   UNL A   1      40.044  29.537  30.837  1.00  0.00     0.010 A 
ATOM     35  C   UNL A   1      39.331  29.969  28.559  1.00  0.00     0.010 A 
ATOM     36  C   UNL A   1      40.302  29.494  29.460  1.00  0.00    -0.014 A 
BRANCH  36  37
ATOM     37  C   UNL A   1      41.640  29.075  28.978  1.00  0.00     0.031 A 
ATOM     38  C   UNL A   1      42.748  30.093  28.917  1.00  0.00     0.074 A 
ATOM     39  C   UNL A   1      41.876  27.798  28.626  1.00  0.00     0.049 A 
ATOM     40  N   UNL A   1      43.979  29.955  28.499  1.00  0.00    -0.248 NA
ATOM     41  C   UNL A   1      42.421  31.448  29.390  1.00  0.00     0.031 C 
ATOM     42  C   UNL A   1      40.893  26.715  28.676  1.00  0.00     0.029 A 
ATOM     43  N   UNL A   1      43.015  27.198  28.152  1.00  0.00    -0.354 N 
ATOM     44  C   UNL A   1      44.573  31.202  28.650  1.00  0.00     0.074 A 
ATOM     45  C   UNL A   1      43.559  32.093  29.173  1.00  0.00     0.031 C 
ATOM     46  C   UNL A   1      41.471  25.584  28.239  1.00  0.00     0.029 A 
ATOM     47  C   UNL A   1      42.851  25.868  27.847  1.00  0.00     0.049 A 
ATOM     48  H   UNL A   1      43.868  27.676  28.038  1.00  0.00     0.167 HD
ATOM     49  C   UNL A   1      45.849  31.571  28.383  1.00  0.00     0.037 A 
ATOM     50  C   UNL A   1      43.708  24.987  27.295  1.00  0.00     0.037 A 
ATOM     51  C   UNL A   1      46.855  30.679  27.864  1.00  0.00     0.049 A 
ATOM     52  C   UNL A   1      45.105  25.436  26.948  1.00  0.00     0.074 A 
ATOM     53  C   UNL A   1      48.182  30.952  27.579  1.00  0.00     0.029 A 
ATOM     54  N   UNL A   1      46.643  29.346  27.545  1.00  0.00    -0.354 N 
ATOM     55  N   UNL A   1      45.660  26.613  27.115  1.00  0.00    -0.248 NA
ATOM     56  C   UNL A   1      45.993  24.436  26.338  1.00  0.00     0.031 C 
ATOM     57  C   UNL A   1      48.760  29.796  27.043  1.00  0.00     0.029 A 
ATOM     58  C   UNL A   1      47.808  28.789  27.043  1.00  0.00     0.049 A 
ATOM     59  H   UNL A   1      45.791  28.867  27.658  1.00  0.00     0.167 HD
ATOM     60  C   UNL A   1      46.968  26.486  26.658  1.00  0.00     0.074 A 
ATOM     61  C   UNL A   1      47.124  25.117  26.214  1.00  0.00     0.031 C 
ATOM     62  C   UNL A   1      47.951  27.420  26.612  1.00  0.00     0.037 A 
BRANCH  49  63
ATOM     63  C   UNL A   1      46.225  33.007  28.624  1.00  0.00     0.058 A 
ATOM     64  C   UNL A   1      45.999  34.003  27.661  1.00  0.00     0.135 A 
ATOM     65  C   UNL A   1      46.788  33.398  29.850  1.00  0.00     0.135 A 
ATOM     66  F   UNL A   1      45.479  33.682  26.465  1.00  0.00    -0.206 F 
ATOM     67  C   UNL A   1      46.339  35.332  27.895  1.00  0.00     0.059 A 
ATOM     68  C   UNL A   1      47.111  34.725  30.117  1.00  0.00     0.059 A 
ATOM     69  F   UNL A   1      47.027  32.486  30.806  1.00  0.00    -0.206 F 
ATOM     70  C   UNL A   1      46.895  35.683  29.126  1.00  0.00     0.060 A 
BRANCH  70  71
ATOM     71  S   UNL A   1      47.327  37.412  29.418  1.00  0.00     0.124 S 
ATOM     72  O   UNL A   1      47.421  37.447  30.874  1.00  0.00    -0.237 OA
ATOM     73  O   UNL A   1      48.590  37.545  28.698  1.00  0.00    -0.237 OA
ATOM     74  O   UNL A   1      46.202  38.145  28.845  1.00  0.00    -0.744 OA
ENDBRANCH  70  71
ENDBRANCH  49  63
BRANCH  50  75
ATOM     75  C   UNL A   1      43.269  23.593  27.023  1.00  0.00     0.058 A 
ATOM     76  C   UNL A   1      42.999  23.158  25.718  1.00  0.00     0.135 A 
ATOM     77  C   UNL A   1      43.113  22.665  28.066  1.00  0.00     0.135 A 
ATOM     78  F   UNL A   1      43.122  24.011  24.689  1.00  0.00    -0.206 F 
ATOM     79  C   UNL A   1      42.578  21.858  25.455  1.00  0.00     0.059 A 
ATOM     80  C   UNL A   1      42.718  21.354  27.825  1.00  0.00     0.059 A 
ATOM     81  F   UNL A   1      43.366  23.029  29.333  1.00  0.00    -0.206 F 
ATOM     82  C   UNL A   1      42.443  20.962  26.517  1.00  0.00     0.060 A 
BRANCH  82  83
ATOM     83  S   UNL A   1      41.943  19.263  26.159  1.00  0.00     0.124 S 
ATOM     84  O   UNL A   1      42.309  18.583  27.395  1.00  0.00    -0.237 OA
ATOM     85  O   UNL A   1      40.513  19.410  25.908  1.00  0.00    -0.237 OA
ATOM     86  O   UNL A   1      42.745  18.919  24.988  1.00  0.00    -0.744 OA
ENDBRANCH  82  83
ENDBRANCH  50  75
BRANCH  62  87
ATOM     87  C   UNL A   1      49.298  26.987  26.099  1.00  0.00     0.058 A 
ATOM     88  C   UNL A   1      49.646  27.099  24.744  1.00  0.00     0.135 A 
ATOM     89  C   UNL A   1      50.274  26.503  26.988  1.00  0.00     0.135 A 
ATOM     90  F   UNL A   1      48.749  27.550  23.853  1.00  0.00    -0.206 F 
ATOM     91  C   UNL A   1      50.905  26.727  24.284  1.00  0.00     0.059 A 
ATOM     92  C   UNL A   1      51.548  26.151  26.553  1.00  0.00     0.059 A 
ATOM     93  F   UNL A   1      49.998  26.387  28.296  1.00  0.00    -0.206 F 
ATOM     94  C   UNL A   1      51.850  26.255  25.196  1.00  0.00     0.060 A 
BRANCH  94  95
ATOM     95  S   UNL A   1      53.492  25.806  24.592  1.00  0.00     0.124 S 
ATOM     96  O   UNL A   1      53.389  26.152  23.178  1.00  0.00    -0.237 OA
ATOM     97  O   UNL A   1      54.364  26.662  25.392  1.00  0.00    -0.237 OA
ATOM     98  O   UNL A   1      53.584  24.380  24.885  1.00  0.00    -0.744 OA
ENDBRANCH  94  95
ENDBRANCH  62  87
ENDBRANCH  36  37
ENDBRANCH  29  31
ENDBRANCH  28  29
ENDBRANCH  27  28
ENDBRANCH   1  27
TORSDOF 20
ENDMDL
MODEL 2
REMARK VINA RESULT:     -11.2      0.714      8.168
REMARK SMILES O=C(Nc1ccc(O)cc1C(=O)OCCOCCOC(=O)c1ccc(-c2c3nc(c(-c4c(F)cc(S(=O)(=O)[O-])cc4F)c4ccc([nH]4)c(-c4c(F)cc(S(=O)(=O)[O-])cc4F)c4nc(c(-c5c(F)cc(S(=O)(=O)[O-])cc5F)c5ccc2[nH]5)C=C4)C=C3)cc1)c1ccc(Br)nc1
REMARK SMILES IDX 17 1 16 2 15 3 14 4 13 5 11 6 12 7 10 8 4 9 5 10 6 11 9 12
REMARK SMILES IDX 7 13 3 14 1 15 2 16 88 18 89 19 94 20 90 21 93 22 91 23
REMARK SMILES IDX 92 24 8 25 18 27 19 28 20 29 21 30 22 31 23 32 87 33 24 34
REMARK SMILES IDX 86 35 25 36 26 37 27 38 80 39 28 40 85 41 79 42 81 43 29 44
REMARK SMILES IDX 84 45 78 46 77 47 30 49 64 50 43 51 63 52 44 53 47 54 62 55
REMARK SMILES IDX 82 56 45 57 46 58 61 60 83 61 48 62 31 63 32 64 41 65 33 66
REMARK SMILES IDX 34 67 40 68 42 69 35 70 36 71 37 72 38 73 39 74 65 75 66 76
REMARK SMILES IDX 75 77 67 78 68 79 74 80 76 81 69 82 70 83 71 84 72 85 73 86
REMARK SMILES IDX 49 87 50 88 59 89 51 90 52 91 58 92 60 93 53 94 54 95 55 96
REMARK SMILES IDX 56 97 57 98
REMARK H PARENT 3 17 8 26 81 48 47 59
REMARK Flexibility Score: inf
ROOT
ATOM      1  C   UNL A   1      34.904  32.832  29.160  1.00  0.00     0.202 C 
ENDROOT
BRANCH   1   2
ATOM      2  O   UNL A   1      34.734  32.180  27.901  1.00  0.00    -0.374 OA
BRANCH   2   3
ATOM      3  C   UNL A   1      33.431  31.686  27.589  1.00  0.00     0.202 C 
BRANCH   3   4
ATOM      4  C   UNL A   1      33.333  30.184  27.305  1.00  0.00     0.261 C 
BRANCH   4   5
ATOM      5  O   UNL A   1      32.040  29.847  26.767  1.00  0.00    -0.460 OA
BRANCH   5   6
ATOM      6  C   UNL A   1      31.720  28.532  26.827  1.00  0.00     0.340 C 
ATOM      7  O   UNL A   1      31.700  27.845  27.838  1.00  0.00    -0.246 OA
BRANCH   6   8
ATOM      8  C   UNL A   1      31.241  28.021  25.515  1.00  0.00     0.087 A 
ATOM      9  C   UNL A   1      30.657  26.759  25.273  1.00  0.00     0.056 A 
ATOM     10  C   UNL A   1      30.139  26.511  23.992  1.00  0.00     0.031 A 
ATOM     11  C   UNL A   1      30.352  27.393  22.930  1.00  0.00     0.048 A 
ATOM     12  C   UNL A   1      31.461  28.899  24.436  1.00  0.00     0.064 A 
ATOM     13  C   UNL A   1      31.053  28.564  23.155  1.00  0.00     0.116 A 
BRANCH   9  14
ATOM     14  N   UNL A   1      30.584  25.774  26.287  1.00  0.00    -0.321 N 
ATOM     15  O   UNL A   1      30.894  23.757  27.279  1.00  0.00    -0.269 OA
ATOM     16  C   UNL A   1      31.263  24.580  26.447  1.00  0.00     0.257 C 
ATOM     17  H   UNL A   1      29.940  25.974  27.003  1.00  0.00     0.170 HD
BRANCH  16  18
ATOM     18  C   UNL A   1      32.495  24.288  25.691  1.00  0.00     0.058 A 
ATOM     19  C   UNL A   1      33.665  25.008  25.936  1.00  0.00     0.018 A 
ATOM     20  C   UNL A   1      32.525  23.295  24.721  1.00  0.00     0.126 A 
ATOM     21  C   UNL A   1      34.832  24.655  25.261  1.00  0.00     0.037 A 
ATOM     22  N   UNL A   1      33.650  22.920  24.063  1.00  0.00    -0.249 NA
ATOM     23  C   UNL A   1      34.781  23.605  24.352  1.00  0.00     0.106 A 
ATOM     24  Br  UNL A   1      36.378  23.061  23.485  1.00  0.00    -0.029 Br
ENDBRANCH  16  18
ENDBRANCH   9  14
BRANCH  13  25
ATOM     25  O   UNL A   1      31.354  29.419  22.141  1.00  0.00    -0.508 OA
ATOM     26  H   UNL A   1      30.678  29.933  21.746  1.00  0.00     0.293 HD
ENDBRANCH  13  25
ENDBRANCH   6   8
ENDBRANCH   5   6
ENDBRANCH   4   5
ENDBRANCH   3   4
ENDBRANCH   2   3
ENDBRANCH   1   2
BRANCH   1  27
ATOM     27  C   UNL A   1      35.719  32.085  30.222  1.00  0.00     0.261 C 
BRANCH  27  28
ATOM     28  O   UNL A   1      36.057  30.749  29.805  1.00  0.00    -0.460 OA
BRANCH  28  29
ATOM     29  C   UNL A   1      36.819  30.060  30.689  1.00  0.00     0.338 C 
ATOM     30  O   UNL A   1      36.423  29.401  31.643  1.00  0.00    -0.246 OA
BRANCH  29  31
ATOM     31  C   UNL A   1      38.226  30.039  30.248  1.00  0.00     0.060 A 
ATOM     32  C   UNL A   1      38.469  29.993  28.869  1.00  0.00     0.016 A 
ATOM     33  C   UNL A   1      39.286  29.995  31.156  1.00  0.00     0.016 A 
ATOM     34  C   UNL A   1      39.770  29.852  28.393  1.00  0.00     0.010 A 
ATOM     35  C   UNL A   1      40.592  29.846  30.675  1.00  0.00     0.010 A 
ATOM     36  C   UNL A   1      40.837  29.737  29.294  1.00  0.00    -0.014 A 
BRANCH  36  37
ATOM     37  C   UNL A   1      42.184  29.373  28.792  1.00  0.00     0.031 A 
ATOM     38  C   UNL A   1      42.436  27.961  28.333  1.00  0.00     0.074 A 
ATOM     39  C   UNL A   1      43.163  30.292  28.717  1.00  0.00     0.049 A 
ATOM     40  N   UNL A   1      43.540  27.417  27.891  1.00  0.00    -0.248 NA
ATOM     41  C   UNL A   1      41.288  27.040  28.381  1.00  0.00     0.031 C 
ATOM     42  C   UNL A   1      43.029  31.698  29.098  1.00  0.00     0.029 A 
ATOM     43  N   UNL A   1      44.465  30.179  28.301  1.00  0.00    -0.354 N 
ATOM     44  C   UNL A   1      43.226  26.091  27.615  1.00  0.00     0.074 A 
ATOM     45  C   UNL A   1      41.834  25.905  27.966  1.00  0.00     0.031 C 
ATOM     46  C   UNL A   1      44.207  32.315  28.906  1.00  0.00     0.029 A 
ATOM     47  C   UNL A   1      45.186  31.342  28.422  1.00  0.00     0.049 A 
ATOM     48  H   UNL A   1      44.847  29.342  27.950  1.00  0.00     0.167 HD
ATOM     49  C   UNL A   1      44.024  25.119  27.110  1.00  0.00     0.037 A 
ATOM     50  C   UNL A   1      46.491  31.589  28.192  1.00  0.00     0.037 A 
ATOM     51  C   UNL A   1      45.408  25.312  26.762  1.00  0.00     0.049 A 
ATOM     52  C   UNL A   1      47.374  30.476  27.689  1.00  0.00     0.074 A 
ATOM     53  C   UNL A   1      46.295  24.394  26.225  1.00  0.00     0.029 A 
ATOM     54  N   UNL A   1      46.109  26.498  26.924  1.00  0.00    -0.354 N 
ATOM     55  N   UNL A   1      47.059  29.232  27.413  1.00  0.00    -0.248 NA
ATOM     56  C   UNL A   1      48.790  30.799  27.466  1.00  0.00     0.031 C 
ATOM     57  C   UNL A   1      47.544  25.012  26.106  1.00  0.00     0.029 A 
ATOM     58  C   UNL A   1      47.423  26.330  26.520  1.00  0.00     0.049 A 
ATOM     59  H   UNL A   1      45.728  27.335  27.274  1.00  0.00     0.167 HD
ATOM     60  C   UNL A   1      48.230  28.635  26.957  1.00  0.00     0.074 A 
ATOM     61  C   UNL A   1      49.258  29.655  26.987  1.00  0.00     0.031 C 
ATOM     62  C   UNL A   1      48.435  27.358  26.548  1.00  0.00     0.037 A 
BRANCH  49  63
ATOM     63  C   UNL A   1      43.425  23.752  26.927  1.00  0.00     0.058 A 
ATOM     64  C   UNL A   1      42.967  23.305  25.677  1.00  0.00     0.135 A 
ATOM     65  C   UNL A   1      43.340  22.863  28.011  1.00  0.00     0.135 A 
ATOM     66  F   UNL A   1      43.009  24.121  24.611  1.00  0.00    -0.206 F 
ATOM     67  C   UNL A   1      42.425  22.035  25.513  1.00  0.00     0.059 A 
ATOM     68  C   UNL A   1      42.826  21.577  27.864  1.00  0.00     0.059 A 
ATOM     69  F   UNL A   1      43.762  23.238  29.229  1.00  0.00    -0.206 F 
ATOM     70  C   UNL A   1      42.358  21.178  26.613  1.00  0.00     0.060 A 
BRANCH  70  71
ATOM     71  S   UNL A   1      41.656  19.530  26.383  1.00  0.00     0.124 S 
ATOM     72  O   UNL A   1      42.381  19.067  25.205  1.00  0.00    -0.237 OA
ATOM     73  O   UNL A   1      41.997  18.867  27.638  1.00  0.00    -0.237 OA
ATOM     74  O   UNL A   1      40.234  19.791  26.181  1.00  0.00    -0.744 OA
ENDBRANCH  70  71
ENDBRANCH  49  63
BRANCH  50  75
ATOM     75  C   UNL A   1      47.047  32.945  28.444  1.00  0.00     0.058 A 
ATOM     76  C   UNL A   1      47.570  33.293  29.698  1.00  0.00     0.135 A 
ATOM     77  C   UNL A   1      47.068  33.920  27.434  1.00  0.00     0.135 A 
ATOM     78  F   UNL A   1      47.562  32.399  30.699  1.00  0.00    -0.206 F 
ATOM     79  C   UNL A   1      48.084  34.562  29.946  1.00  0.00     0.059 A 
ATOM     80  C   UNL A   1      47.598  35.186  27.651  1.00  0.00     0.059 A 
ATOM     81  F   UNL A   1      46.585  33.635  26.214  1.00  0.00    -0.206 F 
ATOM     82  C   UNL A   1      48.096  35.502  28.914  1.00  0.00     0.060 A 
BRANCH  82  83
ATOM     83  S   UNL A   1      48.809  37.130  29.234  1.00  0.00     0.124 S 
ATOM     84  O   UNL A   1      50.237  36.840  29.182  1.00  0.00    -0.237 OA
ATOM     85  O   UNL A   1      48.277  37.921  28.128  1.00  0.00    -0.237 OA
ATOM     86  O   UNL A   1      48.282  37.474  30.551  1.00  0.00    -0.744 OA
ENDBRANCH  82  83
ENDBRANCH  50  75
BRANCH  62  87
ATOM     87  C   UNL A   1      49.812  26.995  26.062  1.00  0.00     0.058 A 
ATOM     88  C   UNL A   1      50.194  27.167  24.723  1.00  0.00     0.135 A 
ATOM     89  C   UNL A   1      50.780  26.519  26.964  1.00  0.00     0.135 A 
ATOM     90  F   UNL A   1      49.307  27.614  23.820  1.00  0.00    -0.206 F 
ATOM     91  C   UNL A   1      51.480  26.859  24.289  1.00  0.00     0.059 A 
ATOM     92  C   UNL A   1      52.079  26.231  26.556  1.00  0.00     0.059 A 
ATOM     93  F   UNL A   1      50.471  26.347  28.258  1.00  0.00    -0.206 F 
ATOM     94  C   UNL A   1      52.416  26.394  25.213  1.00  0.00     0.060 A 
BRANCH  94  95
ATOM     95  S   UNL A   1      54.091  26.030  24.644  1.00  0.00     0.124 S 
ATOM     96  O   UNL A   1      54.191  24.600  24.919  1.00  0.00    -0.237 OA
ATOM     97  O   UNL A   1      54.030  26.401  23.232  1.00  0.00    -0.237 OA
ATOM     98  O   UNL A   1      54.927  26.890  25.475  1.00  0.00    -0.744 OA
ENDBRANCH  94  95
ENDBRANCH  62  87
ENDBRANCH  36  37
ENDBRANCH  29  31
ENDBRANCH  28  29
ENDBRANCH  27  28
ENDBRANCH   1  27
TORSDOF 20
ENDMDL
MODEL 3
REMARK VINA RESULT:     -11.0      1.125      1.599
REMARK SMILES O=C(Nc1ccc(O)cc1C(=O)OCCOCCOC(=O)c1ccc(-c2c3nc(c(-c4c(F)cc(S(=O)(=O)[O-])cc4F)c4ccc([nH]4)c(-c4c(F)cc(S(=O)(=O)[O-])cc4F)c4nc(c(-c5c(F)cc(S(=O)(=O)[O-])cc5F)c5ccc2[nH]5)C=C4)C=C3)cc1)c1ccc(Br)nc1
REMARK SMILES IDX 17 1 16 2 15 3 14 4 13 5 11 6 12 7 10 8 4 9 5 10 6 11 9 12
REMARK SMILES IDX 7 13 3 14 1 15 2 16 88 18 89 19 94 20 90 21 93 22 91 23
REMARK SMILES IDX 92 24 8 25 18 27 19 28 20 29 21 30 22 31 23 32 87 33 24 34
REMARK SMILES IDX 86 35 25 36 26 37 27 38 80 39 28 40 85 41 79 42 81 43 29 44
REMARK SMILES IDX 84 45 78 46 77 47 30 49 64 50 43 51 63 52 44 53 47 54 62 55
REMARK SMILES IDX 82 56 45 57 46 58 61 60 83 61 48 62 31 63 32 64 41 65 33 66
REMARK SMILES IDX 34 67 40 68 42 69 35 70 36 71 37 72 38 73 39 74 65 75 66 76
REMARK SMILES IDX 75 77 67 78 68 79 74 80 76 81 69 82 70 83 71 84 72 85 73 86
REMARK SMILES IDX 49 87 50 88 59 89 51 90 52 91 58 92 60 93 53 94 54 95 55 96
REMARK SMILES IDX 56 97 57 98
REMARK H PARENT 3 17 8 26 81 48 47 59
REMARK Flexibility Score: inf
ROOT
ATOM      1  C   UNL A   1      34.147  32.071  28.050  1.00  0.00     0.202 C 
ENDROOT
BRANCH   1   2
ATOM      2  O   UNL A   1      33.859  30.959  27.202  1.00  0.00    -0.374 OA
BRANCH   2   3
ATOM      3  C   UNL A   1      32.492  30.735  26.855  1.00  0.00     0.202 C 
BRANCH   3   4
ATOM      4  C   UNL A   1      31.993  29.294  26.991  1.00  0.00     0.261 C 
BRANCH   4   5
ATOM      5  O   UNL A   1      32.004  28.624  25.716  1.00  0.00    -0.460 OA
BRANCH   5   6
ATOM      6  C   UNL A   1      32.913  27.627  25.602  1.00  0.00     0.340 C 
ATOM      7  O   UNL A   1      33.857  27.426  26.353  1.00  0.00    -0.246 OA
BRANCH   6   8
ATOM      8  C   UNL A   1      32.558  26.678  24.512  1.00  0.00     0.087 A 
ATOM      9  C   UNL A   1      31.916  25.431  24.667  1.00  0.00     0.056 A 
ATOM     10  C   UNL A   1      31.537  24.741  23.504  1.00  0.00     0.031 A 
ATOM     11  C   UNL A   1      31.939  25.163  22.235  1.00  0.00     0.048 A 
ATOM     12  C   UNL A   1      32.969  27.091  23.229  1.00  0.00     0.064 A 
ATOM     13  C   UNL A   1      32.693  26.316  22.114  1.00  0.00     0.116 A 
BRANCH   9  14
ATOM     14  N   UNL A   1      31.650  24.893  25.948  1.00  0.00    -0.321 N 
ATOM     15  O   UNL A   1      31.644  23.357  27.619  1.00  0.00    -0.269 OA
ATOM     16  C   UNL A   1      32.170  23.788  26.596  1.00  0.00     0.257 C 
ATOM     17  H   UNL A   1      30.980  25.391  26.468  1.00  0.00     0.170 HD
BRANCH  16  18
ATOM     18  C   UNL A   1      33.414  23.142  26.139  1.00  0.00     0.058 A 
ATOM     19  C   UNL A   1      34.639  23.798  26.258  1.00  0.00     0.018 A 
ATOM     20  C   UNL A   1      33.400  21.870  25.581  1.00  0.00     0.126 A 
ATOM     21  C   UNL A   1      35.805  23.129  25.889  1.00  0.00     0.037 A 
ATOM     22  N   UNL A   1      34.520  21.190  25.230  1.00  0.00    -0.249 NA
ATOM     23  C   UNL A   1      35.699  21.833  25.397  1.00  0.00     0.106 A 
ATOM     24  Br  UNL A   1      37.282  20.881  24.966  1.00  0.00    -0.029 Br
ENDBRANCH  16  18
ENDBRANCH   9  14
BRANCH  13  25
ATOM     25  O   UNL A   1      33.174  26.729  20.910  1.00  0.00    -0.508 OA
ATOM     26  H   UNL A   1      33.457  27.614  20.798  1.00  0.00     0.293 HD
ENDBRANCH  13  25
ENDBRANCH   6   8
ENDBRANCH   5   6
ENDBRANCH   4   5
ENDBRANCH   3   4
ENDBRANCH   2   3
ENDBRANCH   1   2
BRANCH   1  27
ATOM     27  C   UNL A   1      35.163  31.838  29.174  1.00  0.00     0.261 C 
BRANCH  27  28
ATOM     28  O   UNL A   1      35.739  30.520  29.120  1.00  0.00    -0.460 OA
BRANCH  28  29
ATOM     29  C   UNL A   1      36.476  30.183  30.207  1.00  0.00     0.338 C 
ATOM     30  O   UNL A   1      36.052  29.862  31.310  1.00  0.00    -0.246 OA
BRANCH  29  31
ATOM     31  C   UNL A   1      37.900  30.061  29.845  1.00  0.00     0.060 A 
ATOM     32  C   UNL A   1      38.210  29.918  28.486  1.00  0.00     0.016 A 
ATOM     33  C   UNL A   1      38.908  30.018  30.811  1.00  0.00     0.016 A 
ATOM     34  C   UNL A   1      39.525  29.680  28.090  1.00  0.00     0.010 A 
ATOM     35  C   UNL A   1      40.227  29.771  30.410  1.00  0.00     0.010 A 
ATOM     36  C   UNL A   1      40.536  29.566  29.053  1.00  0.00    -0.014 A 
BRANCH  36  37
ATOM     37  C   UNL A   1      41.884  29.101  28.647  1.00  0.00     0.031 A 
ATOM     38  C   UNL A   1      43.019  30.091  28.611  1.00  0.00     0.074 A 
ATOM     39  C   UNL A   1      42.105  27.809  28.343  1.00  0.00     0.049 A 
ATOM     40  N   UNL A   1      44.265  29.912  28.256  1.00  0.00    -0.248 NA
ATOM     41  C   UNL A   1      42.704  31.467  29.030  1.00  0.00     0.031 C 
ATOM     42  C   UNL A   1      41.094  26.752  28.376  1.00  0.00     0.029 A 
ATOM     43  N   UNL A   1      43.250  27.169  27.940  1.00  0.00    -0.354 N 
ATOM     44  C   UNL A   1      44.881  31.149  28.400  1.00  0.00     0.074 A 
ATOM     45  C   UNL A   1      43.866  32.078  28.849  1.00  0.00     0.031 C 
ATOM     46  C   UNL A   1      41.664  25.595  27.999  1.00  0.00     0.029 A 
ATOM     47  C   UNL A   1      43.067  25.835  27.666  1.00  0.00     0.049 A 
ATOM     48  H   UNL A   1      44.119  27.624  27.854  1.00  0.00     0.167 HD
ATOM     49  C   UNL A   1      46.178  31.479  28.184  1.00  0.00     0.037 A 
ATOM     50  C   UNL A   1      43.928  24.919  27.180  1.00  0.00     0.037 A 
ATOM     51  C   UNL A   1      47.184  30.550  27.740  1.00  0.00     0.049 A 
ATOM     52  C   UNL A   1      45.350  25.324  26.888  1.00  0.00     0.074 A 
ATOM     53  C   UNL A   1      48.529  30.783  27.511  1.00  0.00     0.029 A 
ATOM     54  N   UNL A   1      46.955  29.213  27.448  1.00  0.00    -0.354 N 
ATOM     55  N   UNL A   1      45.926  26.493  27.048  1.00  0.00    -0.248 NA
ATOM     56  C   UNL A   1      46.240  24.287  26.349  1.00  0.00     0.031 C 
ATOM     57  C   UNL A   1      49.103  29.599  27.035  1.00  0.00     0.029 A 
ATOM     58  C   UNL A   1      48.128  28.615  27.018  1.00  0.00     0.049 A 
ATOM     59  H   UNL A   1      46.086  28.758  27.533  1.00  0.00     0.167 HD
ATOM     60  C   UNL A   1      47.250  26.322  26.658  1.00  0.00     0.074 A 
ATOM     61  C   UNL A   1      47.393  24.937  26.261  1.00  0.00     0.031 C 
ATOM     62  C   UNL A   1      48.257  27.230  26.633  1.00  0.00     0.037 A 
BRANCH  49  63
ATOM     63  C   UNL A   1      46.577  32.913  28.403  1.00  0.00     0.058 A 
ATOM     64  C   UNL A   1      47.058  33.367  29.641  1.00  0.00     0.135 A 
ATOM     65  C   UNL A   1      46.511  33.837  27.347  1.00  0.00     0.135 A 
ATOM     66  F   UNL A   1      47.126  32.530  30.688  1.00  0.00    -0.206 F 
ATOM     67  C   UNL A   1      47.436  34.693  29.832  1.00  0.00     0.059 A 
ATOM     68  C   UNL A   1      46.909  35.161  27.508  1.00  0.00     0.059 A 
ATOM     69  F   UNL A   1      46.057  33.456  26.142  1.00  0.00    -0.206 F 
ATOM     70  C   UNL A   1      47.357  35.583  28.759  1.00  0.00     0.060 A 
BRANCH  70  71
ATOM     71  S   UNL A   1      47.856  37.298  29.021  1.00  0.00     0.124 S 
ATOM     72  O   UNL A   1      48.676  37.182  30.223  1.00  0.00    -0.237 OA
ATOM     73  O   UNL A   1      48.577  37.605  27.790  1.00  0.00    -0.237 OA
ATOM     74  O   UNL A   1      46.588  37.999  29.194  1.00  0.00    -0.744 OA
ENDBRANCH  70  71
ENDBRANCH  49  63
BRANCH  50  75
ATOM     75  C   UNL A   1      43.468  23.528  26.927  1.00  0.00     0.058 A 
ATOM     76  C   UNL A   1      43.195  23.078  25.626  1.00  0.00     0.135 A 
ATOM     77  C   UNL A   1      43.292  22.618  27.982  1.00  0.00     0.135 A 
ATOM     78  F   UNL A   1      43.337  23.914  24.586  1.00  0.00    -0.206 F 
ATOM     79  C   UNL A   1      42.755  21.782  25.380  1.00  0.00     0.059 A 
ATOM     80  C   UNL A   1      42.877  21.310  27.759  1.00  0.00     0.059 A 
ATOM     81  F   UNL A   1      43.546  22.997  29.245  1.00  0.00    -0.206 F 
ATOM     82  C   UNL A   1      42.601  20.903  26.455  1.00  0.00     0.060 A 
BRANCH  82  83
ATOM     83  S   UNL A   1      42.076  19.208  26.119  1.00  0.00     0.124 S 
ATOM     84  O   UNL A   1      42.463  18.532  27.351  1.00  0.00    -0.237 OA
ATOM     85  O   UNL A   1      40.642  19.368  25.901  1.00  0.00    -0.237 OA
ATOM     86  O   UNL A   1      42.847  18.848  24.932  1.00  0.00    -0.744 OA
ENDBRANCH  82  83
ENDBRANCH  50  75
BRANCH  62  87
ATOM     87  C   UNL A   1      49.616  26.751  26.197  1.00  0.00     0.058 A 
ATOM     88  C   UNL A   1      50.078  26.930  24.884  1.00  0.00     0.135 A 
ATOM     89  C   UNL A   1      50.487  26.154  27.124  1.00  0.00     0.135 A 
ATOM     90  F   UNL A   1      49.283  27.490  23.959  1.00  0.00    -0.206 F 
ATOM     91  C   UNL A   1      51.348  26.513  24.498  1.00  0.00     0.059 A 
ATOM     92  C   UNL A   1      51.772  25.755  26.766  1.00  0.00     0.059 A 
ATOM     93  F   UNL A   1      50.100  25.970  28.395  1.00  0.00    -0.206 F 
ATOM     94  C   UNL A   1      52.188  25.928  25.446  1.00  0.00     0.060 A 
BRANCH  94  95
ATOM     95  S   UNL A   1      53.847  25.421  24.942  1.00  0.00     0.124 S 
ATOM     96  O   UNL A   1      53.746  23.968  25.016  1.00  0.00    -0.237 OA
ATOM     97  O   UNL A   1      53.950  25.982  23.597  1.00  0.00    -0.237 OA
ATOM     98  O   UNL A   1      54.711  26.042  25.940  1.00  0.00    -0.744 OA
ENDBRANCH  94  95
ENDBRANCH  62  87
ENDBRANCH  36  37
ENDBRANCH  29  31
ENDBRANCH  28  29
ENDBRANCH  27  28
ENDBRANCH   1  27
TORSDOF 20
ENDMDL
