MODEL 1
REMARK VINA RESULT:     -11.5      0.000      0.000
REMARK SMILES O=C(OCCOCCOC(=O)c1cc(-c2ccc(C(F)(F)F)cc2)cc([N+](=O)[O-])c1)c1ccc(-c2c3nc(c(-c4c(F)cc(S(=O)(=O)[O-])cc4F)c4ccc([nH]4)c(-c4c(F)cc(S(=O)(=O)[O-])cc4F)c4nc(c(-c5c(F)cc(S(=O)(=O)[O-])cc5F)c5ccc2[nH]5)C=C4)C=C3)cc1
REMARK SMILES IDX 5 1 4 2 3 3 2 4 1 5 31 6 32 7 96 8 33 9 95 10 34 11 35 12
REMARK SMILES IDX 36 13 89 14 37 15 94 16 88 17 90 18 38 19 93 20 87 21 86 22
REMARK SMILES IDX 39 24 73 25 52 26 72 27 53 28 56 29 71 30 91 31 54 32 55 33
REMARK SMILES IDX 70 35 92 36 57 37 40 38 41 39 50 40 42 41 43 42 49 43 51 44
REMARK SMILES IDX 44 45 45 46 46 47 47 48 48 49 74 50 75 51 84 52 76 53 77 54
REMARK SMILES IDX 83 55 85 56 78 57 79 58 80 59 81 60 82 61 58 62 59 63 68 64
REMARK SMILES IDX 60 65 61 66 67 67 69 68 62 69 63 70 64 71 65 72 66 73 6 74
REMARK SMILES IDX 7 75 8 76 9 77 10 78 11 79 12 80 13 81 30 82 14 83 26 84
REMARK SMILES IDX 25 85 15 86 16 87 24 88 17 89 23 90 18 91 19 92 20 93 21 94
REMARK SMILES IDX 22 95 27 96 28 97 29 98
REMARK H PARENT 90 23 56 34
REMARK Flexibility Score: inf
ROOT
ATOM      1  C   UNL A   1      32.137  29.504  25.607  1.00  0.00     0.202 C 
ENDROOT
BRANCH   1   2
ATOM      2  C   UNL A   1      32.322  29.215  27.101  1.00  0.00     0.261 C 
BRANCH   2   3
ATOM      3  O   UNL A   1      33.717  29.068  27.423  1.00  0.00    -0.460 OA
BRANCH   3   4
ATOM      4  C   UNL A   1      34.541  29.984  27.989  1.00  0.00     0.338 C 
ATOM      5  O   UNL A   1      34.073  31.065  28.343  1.00  0.00    -0.246 OA
BRANCH   4   6
ATOM      6  C   UNL A   1      35.998  29.740  28.203  1.00  0.00     0.060 A 
ATOM      7  C   UNL A   1      36.965  29.962  27.229  1.00  0.00     0.016 A 
ATOM      8  C   UNL A   1      36.431  29.339  29.477  1.00  0.00     0.016 A 
ATOM      9  C   UNL A   1      38.300  29.721  27.453  1.00  0.00     0.010 A 
ATOM     10  C   UNL A   1      37.796  29.161  29.741  1.00  0.00     0.010 A 
ATOM     11  C   UNL A   1      38.730  29.347  28.716  1.00  0.00    -0.014 A 
BRANCH  11  12
ATOM     12  C   UNL A   1      40.171  29.085  28.835  1.00  0.00     0.031 A 
ATOM     13  C   UNL A   1      41.021  30.117  29.502  1.00  0.00     0.074 A 
ATOM     14  C   UNL A   1      40.618  27.841  28.573  1.00  0.00     0.049 A 
ATOM     15  N   UNL A   1      42.296  30.084  29.765  1.00  0.00    -0.248 NA
ATOM     16  C   UNL A   1      40.339  31.342  29.957  1.00  0.00     0.031 C 
ATOM     17  C   UNL A   1      39.789  26.736  28.071  1.00  0.00     0.029 A 
ATOM     18  N   UNL A   1      41.849  27.272  28.749  1.00  0.00    -0.354 N 
ATOM     19  C   UNL A   1      42.575  31.286  30.399  1.00  0.00     0.074 A 
ATOM     20  C   UNL A   1      41.343  32.037  30.468  1.00  0.00     0.031 C 
ATOM     21  C   UNL A   1      40.530  25.619  28.011  1.00  0.00     0.029 A 
ATOM     22  C   UNL A   1      41.898  25.947  28.382  1.00  0.00     0.049 A 
ATOM     23  H   UNL A   1      42.624  27.763  29.105  1.00  0.00     0.167 HD
ATOM     24  C   UNL A   1      43.764  31.710  30.880  1.00  0.00     0.037 A 
ATOM     25  C   UNL A   1      42.952  25.113  28.313  1.00  0.00     0.037 A 
ATOM     26  C   UNL A   1      44.965  30.926  30.787  1.00  0.00     0.049 A 
ATOM     27  C   UNL A   1      44.287  25.659  28.736  1.00  0.00     0.074 A 
ATOM     28  C   UNL A   1      46.254  31.272  31.137  1.00  0.00     0.029 A 
ATOM     29  N   UNL A   1      45.012  29.621  30.308  1.00  0.00    -0.354 N 
ATOM     30  N   UNL A   1      44.569  26.841  29.239  1.00  0.00    -0.248 NA
ATOM     31  C   UNL A   1      45.446  24.777  28.578  1.00  0.00     0.031 C 
ATOM     32  C   UNL A   1      47.089  30.193  30.826  1.00  0.00     0.029 A 
ATOM     33  C   UNL A   1      46.312  29.151  30.340  1.00  0.00     0.049 A 
ATOM     34  H   UNL A   1      44.234  29.107  29.993  1.00  0.00     0.167 HD
ATOM     35  C   UNL A   1      45.939  26.840  29.468  1.00  0.00     0.074 A 
ATOM     36  C   UNL A   1      46.418  25.525  29.079  1.00  0.00     0.031 C 
ATOM     37  C   UNL A   1      46.736  27.829  29.943  1.00  0.00     0.037 A 
BRANCH  24  38
ATOM     38  C   UNL A   1      43.815  33.090  31.469  1.00  0.00     0.058 A 
ATOM     39  C   UNL A   1      43.562  33.331  32.828  1.00  0.00     0.135 A 
ATOM     40  C   UNL A   1      44.098  34.195  30.650  1.00  0.00     0.135 A 
ATOM     41  F   UNL A   1      43.243  32.315  33.648  1.00  0.00    -0.206 F 
ATOM     42  C   UNL A   1      43.574  34.619  33.353  1.00  0.00     0.059 A 
ATOM     43  C   UNL A   1      44.140  35.490  31.159  1.00  0.00     0.059 A 
ATOM     44  F   UNL A   1      44.322  34.024  29.338  1.00  0.00    -0.206 F 
ATOM     45  C   UNL A   1      43.867  35.692  32.509  1.00  0.00     0.060 A 
BRANCH  45  46
ATOM     46  S   UNL A   1      43.892  37.356  33.210  1.00  0.00     0.124 S 
ATOM     47  O   UNL A   1      45.204  37.385  33.848  1.00  0.00    -0.237 OA
ATOM     48  O   UNL A   1      43.746  38.192  32.023  1.00  0.00    -0.237 OA
ATOM     49  O   UNL A   1      42.752  37.359  34.121  1.00  0.00    -0.744 OA
ENDBRANCH  45  46
ENDBRANCH  24  38
BRANCH  25  50
ATOM     50  C   UNL A   1      42.803  23.744  27.741  1.00  0.00     0.058 A 
ATOM     51  C   UNL A   1      42.879  23.501  26.363  1.00  0.00     0.135 A 
ATOM     52  C   UNL A   1      42.545  22.643  28.577  1.00  0.00     0.135 A 
ATOM     53  F   UNL A   1      43.122  24.514  25.515  1.00  0.00    -0.206 F 
ATOM     54  C   UNL A   1      42.670  22.230  25.831  1.00  0.00     0.059 A 
ATOM     55  C   UNL A   1      42.368  21.358  28.074  1.00  0.00     0.059 A 
ATOM     56  F   UNL A   1      42.471  22.807  29.907  1.00  0.00    -0.206 F 
ATOM     57  C   UNL A   1      42.411  21.165  26.696  1.00  0.00     0.060 A 
BRANCH  57  58
ATOM     58  S   UNL A   1      42.131  19.522  26.000  1.00  0.00     0.124 S 
ATOM     59  O   UNL A   1      42.969  19.561  24.809  1.00  0.00    -0.237 OA
ATOM     60  O   UNL A   1      42.589  18.651  27.077  1.00  0.00    -0.237 OA
ATOM     61  O   UNL A   1      40.690  19.501  25.758  1.00  0.00    -0.744 OA
ENDBRANCH  57  58
ENDBRANCH  25  50
BRANCH  37  62
ATOM     62  C   UNL A   1      48.193  27.503  30.093  1.00  0.00     0.058 A 
ATOM     63  C   UNL A   1      49.135  27.879  29.125  1.00  0.00     0.135 A 
ATOM     64  C   UNL A   1      48.650  26.833  31.238  1.00  0.00     0.135 A 
ATOM     65  F   UNL A   1      48.743  28.517  28.009  1.00  0.00    -0.206 F 
ATOM     66  C   UNL A   1      50.481  27.566  29.268  1.00  0.00     0.059 A 
ATOM     67  C   UNL A   1      49.996  26.543  31.420  1.00  0.00     0.059 A 
ATOM     68  F   UNL A   1      47.788  26.466  32.199  1.00  0.00    -0.206 F 
ATOM     69  C   UNL A   1      50.900  26.898  30.420  1.00  0.00     0.060 A 
BRANCH  69  70
ATOM     70  S   UNL A   1      52.652  26.511  30.600  1.00  0.00     0.124 S 
ATOM     71  O   UNL A   1      52.993  26.064  29.255  1.00  0.00    -0.237 OA
ATOM     72  O   UNL A   1      53.215  27.796  31.004  1.00  0.00    -0.237 OA
ATOM     73  O   UNL A   1      52.667  25.476  31.630  1.00  0.00    -0.744 OA
ENDBRANCH  69  70
ENDBRANCH  37  62
ENDBRANCH  11  12
ENDBRANCH   4   6
ENDBRANCH   3   4
ENDBRANCH   2   3
ENDBRANCH   1   2
BRANCH   1  74
ATOM     74  O   UNL A   1      32.660  28.516  24.722  1.00  0.00    -0.374 OA
BRANCH  74  75
ATOM     75  C   UNL A   1      32.504  28.755  23.321  1.00  0.00     0.202 C 
BRANCH  75  76
ATOM     76  C   UNL A   1      33.501  27.886  22.551  1.00  0.00     0.261 C 
BRANCH  76  77
ATOM     77  O   UNL A   1      33.653  26.646  23.261  1.00  0.00    -0.460 OA
BRANCH  77  78
ATOM     78  C   UNL A   1      33.328  25.536  22.549  1.00  0.00     0.338 C 
ATOM     79  O   UNL A   1      33.589  25.279  21.388  1.00  0.00    -0.246 OA
BRANCH  78  80
ATOM     80  C   UNL A   1      32.759  24.561  23.501  1.00  0.00     0.067 A 
ATOM     81  C   UNL A   1      33.136  23.211  23.405  1.00  0.00     0.025 A 
ATOM     82  C   UNL A   1      31.878  24.987  24.494  1.00  0.00     0.101 A 
ATOM     83  C   UNL A   1      32.656  22.268  24.325  1.00  0.00    -0.011 A 
ATOM     84  C   UNL A   1      31.378  24.049  25.395  1.00  0.00     0.270 A 
ATOM     85  C   UNL A   1      31.775  22.705  25.330  1.00  0.00     0.094 A 
BRANCH  83  86
ATOM     86  C   UNL A   1      32.948  20.839  24.177  1.00  0.00    -0.018 A 
ATOM     87  C   UNL A   1      32.192  19.984  23.363  1.00  0.00     0.009 A 
ATOM     88  C   UNL A   1      34.050  20.306  24.861  1.00  0.00     0.009 A 
ATOM     89  C   UNL A   1      32.548  18.633  23.226  1.00  0.00     0.014 A 
ATOM     90  C   UNL A   1      34.405  18.964  24.728  1.00  0.00     0.014 A 
ATOM     91  C   UNL A   1      33.663  18.112  23.902  1.00  0.00     0.056 A 
BRANCH  91  92
ATOM     92  C   UNL A   1      34.060  16.664  23.742  1.00  0.00     0.416 C 
ATOM     93  F   UNL A   1      34.402  16.347  22.464  1.00  0.00    -0.166 F 
ATOM     94  F   UNL A   1      35.136  16.333  24.511  1.00  0.00    -0.166 F 
ATOM     95  F   UNL A   1      33.077  15.788  24.095  1.00  0.00    -0.166 F 
ENDBRANCH  91  92
ENDBRANCH  83  86
BRANCH  84  96
ATOM     96  N   UNL A   1      30.383  24.469  26.387  1.00  0.00     0.062 N 
ATOM     97  O   UNL A   1      29.795  25.541  26.193  1.00  0.00    -0.258 OA
ATOM     98  O   UNL A   1      30.200  23.733  27.366  1.00  0.00    -0.258 OA
ENDBRANCH  84  96
ENDBRANCH  78  80
ENDBRANCH  77  78
ENDBRANCH  76  77
ENDBRANCH  75  76
ENDBRANCH  74  75
ENDBRANCH   1  74
TORSDOF 20
ENDMDL
MODEL 2
REMARK VINA RESULT:     -11.4      2.875      3.731
REMARK SMILES O=C(OCCOCCOC(=O)c1cc(-c2ccc(C(F)(F)F)cc2)cc([N+](=O)[O-])c1)c1ccc(-c2c3nc(c(-c4c(F)cc(S(=O)(=O)[O-])cc4F)c4ccc([nH]4)c(-c4c(F)cc(S(=O)(=O)[O-])cc4F)c4nc(c(-c5c(F)cc(S(=O)(=O)[O-])cc5F)c5ccc2[nH]5)C=C4)C=C3)cc1
REMARK SMILES IDX 5 1 4 2 3 3 2 4 1 5 31 6 32 7 96 8 33 9 95 10 34 11 35 12
REMARK SMILES IDX 36 13 89 14 37 15 94 16 88 17 90 18 38 19 93 20 87 21 86 22
REMARK SMILES IDX 39 24 73 25 52 26 72 27 53 28 56 29 71 30 91 31 54 32 55 33
REMARK SMILES IDX 70 35 92 36 57 37 40 38 41 39 50 40 42 41 43 42 49 43 51 44
REMARK SMILES IDX 44 45 45 46 46 47 47 48 48 49 74 50 75 51 84 52 76 53 77 54
REMARK SMILES IDX 83 55 85 56 78 57 79 58 80 59 81 60 82 61 58 62 59 63 68 64
REMARK SMILES IDX 60 65 61 66 67 67 69 68 62 69 63 70 64 71 65 72 66 73 6 74
REMARK SMILES IDX 7 75 8 76 9 77 10 78 11 79 12 80 13 81 30 82 14 83 26 84
REMARK SMILES IDX 25 85 15 86 16 87 24 88 17 89 23 90 18 91 19 92 20 93 21 94
REMARK SMILES IDX 22 95 27 96 28 97 29 98
REMARK H PARENT 90 23 56 34
REMARK Flexibility Score: inf
ROOT
ATOM      1  C   UNL A   1      31.749  29.839  25.771  1.00  0.00     0.202 C 
ENDROOT
BRANCH   1   2
ATOM      2  C   UNL A   1      32.230  29.182  27.070  1.00  0.00     0.261 C 
BRANCH   2   3
ATOM      3  O   UNL A   1      33.665  29.229  27.165  1.00  0.00    -0.460 OA
BRANCH   3   4
ATOM      4  C   UNL A   1      34.432  30.204  27.713  1.00  0.00     0.338 C 
ATOM      5  O   UNL A   1      33.961  31.335  27.827  1.00  0.00    -0.246 OA
BRANCH   4   6
ATOM      6  C   UNL A   1      35.827  29.967  28.186  1.00  0.00     0.060 A 
ATOM      7  C   UNL A   1      36.136  29.434  29.433  1.00  0.00     0.016 A 
ATOM      8  C   UNL A   1      36.887  30.219  27.301  1.00  0.00     0.016 A 
ATOM      9  C   UNL A   1      37.432  29.234  29.844  1.00  0.00     0.010 A 
ATOM     10  C   UNL A   1      38.210  29.950  27.679  1.00  0.00     0.010 A 
ATOM     11  C   UNL A   1      38.478  29.462  28.962  1.00  0.00    -0.014 A 
BRANCH  11  12
ATOM     12  C   UNL A   1      39.821  29.246  29.516  1.00  0.00     0.031 A 
ATOM     13  C   UNL A   1      40.226  30.046  30.711  1.00  0.00     0.074 A 
ATOM     14  C   UNL A   1      40.524  28.178  29.090  1.00  0.00     0.049 A 
ATOM     15  N   UNL A   1      41.332  29.991  31.398  1.00  0.00    -0.248 NA
ATOM     16  C   UNL A   1      39.245  31.022  31.217  1.00  0.00     0.031 C 
ATOM     17  C   UNL A   1      40.096  27.256  28.028  1.00  0.00     0.029 A 
ATOM     18  N   UNL A   1      41.703  27.643  29.531  1.00  0.00    -0.354 N 
ATOM     19  C   UNL A   1      41.189  30.934  32.406  1.00  0.00     0.074 A 
ATOM     20  C   UNL A   1      39.900  31.562  32.234  1.00  0.00     0.031 C 
ATOM     21  C   UNL A   1      40.985  26.257  27.925  1.00  0.00     0.029 A 
ATOM     22  C   UNL A   1      42.083  26.512  28.845  1.00  0.00     0.049 A 
ATOM     23  H   UNL A   1      42.228  28.029  30.268  1.00  0.00     0.167 HD
ATOM     24  C   UNL A   1      42.069  31.236  33.385  1.00  0.00     0.037 A 
ATOM     25  C   UNL A   1      43.220  25.798  28.927  1.00  0.00     0.037 A 
ATOM     26  C   UNL A   1      43.343  30.584  33.515  1.00  0.00     0.049 A 
ATOM     27  C   UNL A   1      44.235  26.241  29.944  1.00  0.00     0.074 A 
ATOM     28  C   UNL A   1      44.371  30.860  34.393  1.00  0.00     0.029 A 
ATOM     29  N   UNL A   1      43.755  29.509  32.734  1.00  0.00    -0.354 N 
ATOM     30  N   UNL A   1      44.142  27.208  30.830  1.00  0.00    -0.248 NA
ATOM     31  C   UNL A   1      45.508  25.515  29.972  1.00  0.00     0.031 C 
ATOM     32  C   UNL A   1      45.424  29.982  34.111  1.00  0.00     0.029 A 
ATOM     33  C   UNL A   1      45.029  29.118  33.100  1.00  0.00     0.049 A 
ATOM     34  H   UNL A   1      43.217  29.088  32.025  1.00  0.00     0.167 HD
ATOM     35  C   UNL A   1      45.341  27.199  31.531  1.00  0.00     0.074 A 
ATOM     36  C   UNL A   1      46.126  26.107  30.984  1.00  0.00     0.031 C 
ATOM     37  C   UNL A   1      45.767  28.018  32.524  1.00  0.00     0.037 A 
BRANCH  24  38
ATOM     38  C   UNL A   1      41.700  32.351  34.320  1.00  0.00     0.058 A 
ATOM     39  C   UNL A   1      40.982  32.124  35.505  1.00  0.00     0.135 A 
ATOM     40  C   UNL A   1      42.051  33.675  34.011  1.00  0.00     0.135 A 
ATOM     41  F   UNL A   1      40.583  30.883  35.828  1.00  0.00    -0.206 F 
ATOM     42  C   UNL A   1      40.613  33.172  36.343  1.00  0.00     0.059 A 
ATOM     43  C   UNL A   1      41.715  34.735  34.848  1.00  0.00     0.059 A 
ATOM     44  F   UNL A   1      42.715  33.950  32.878  1.00  0.00    -0.206 F 
ATOM     45  C   UNL A   1      40.987  34.474  36.006  1.00  0.00     0.060 A 
BRANCH  45  46
ATOM     46  S   UNL A   1      40.512  35.819  37.112  1.00  0.00     0.124 S 
ATOM     47  O   UNL A   1      39.688  36.643  36.233  1.00  0.00    -0.237 OA
ATOM     48  O   UNL A   1      39.799  35.112  38.171  1.00  0.00    -0.237 OA
ATOM     49  O   UNL A   1      41.790  36.407  37.503  1.00  0.00    -0.744 OA
ENDBRANCH  45  46
ENDBRANCH  24  38
BRANCH  25  50
ATOM     50  C   UNL A   1      43.490  24.683  27.975  1.00  0.00     0.058 A 
ATOM     51  C   UNL A   1      43.290  23.341  28.326  1.00  0.00     0.135 A 
ATOM     52  C   UNL A   1      43.993  24.946  26.688  1.00  0.00     0.135 A 
ATOM     53  F   UNL A   1      42.814  23.028  29.541  1.00  0.00    -0.206 F 
ATOM     54  C   UNL A   1      43.612  22.301  27.454  1.00  0.00     0.059 A 
ATOM     55  C   UNL A   1      44.288  23.928  25.787  1.00  0.00     0.059 A 
ATOM     56  F   UNL A   1      44.196  26.211  26.288  1.00  0.00    -0.206 F 
ATOM     57  C   UNL A   1      44.114  22.606  26.188  1.00  0.00     0.060 A 
BRANCH  57  58
ATOM     58  S   UNL A   1      44.538  21.255  25.067  1.00  0.00     0.124 S 
ATOM     59  O   UNL A   1      43.451  20.317  25.315  1.00  0.00    -0.237 OA
ATOM     60  O   UNL A   1      44.527  21.919  23.768  1.00  0.00    -0.237 OA
ATOM     61  O   UNL A   1      45.856  20.832  25.535  1.00  0.00    -0.744 OA
ENDBRANCH  57  58
ENDBRANCH  25  50
BRANCH  37  62
ATOM     62  C   UNL A   1      47.125  27.732  33.093  1.00  0.00     0.058 A 
ATOM     63  C   UNL A   1      47.303  26.847  34.166  1.00  0.00     0.135 A 
ATOM     64  C   UNL A   1      48.264  28.332  32.533  1.00  0.00     0.135 A 
ATOM     65  F   UNL A   1      46.242  26.254  34.739  1.00  0.00    -0.206 F 
ATOM     66  C   UNL A   1      48.564  26.594  34.691  1.00  0.00     0.059 A 
ATOM     67  C   UNL A   1      49.538  28.065  33.018  1.00  0.00     0.059 A 
ATOM     68  F   UNL A   1      48.145  29.176  31.496  1.00  0.00    -0.206 F 
ATOM     69  C   UNL A   1      49.674  27.209  34.109  1.00  0.00     0.060 A 
BRANCH  69  70
ATOM     70  S   UNL A   1      51.307  26.860  34.792  1.00  0.00     0.124 S 
ATOM     71  O   UNL A   1      51.104  25.539  35.374  1.00  0.00    -0.237 OA
ATOM     72  O   UNL A   1      52.157  26.908  33.605  1.00  0.00    -0.237 OA
ATOM     73  O   UNL A   1      51.513  27.944  35.747  1.00  0.00    -0.744 OA
ENDBRANCH  69  70
ENDBRANCH  37  62
ENDBRANCH  11  12
ENDBRANCH   4   6
ENDBRANCH   3   4
ENDBRANCH   2   3
ENDBRANCH   1   2
BRANCH   1  74
ATOM     74  O   UNL A   1      32.197  29.219  24.568  1.00  0.00    -0.374 OA
BRANCH  74  75
ATOM     75  C   UNL A   1      31.194  28.666  23.712  1.00  0.00     0.202 C 
BRANCH  75  76
ATOM     76  C   UNL A   1      31.871  27.989  22.518  1.00  0.00     0.261 C 
BRANCH  76  77
ATOM     77  O   UNL A   1      33.135  27.465  22.960  1.00  0.00    -0.460 OA
BRANCH  77  78
ATOM     78  C   UNL A   1      33.387  26.187  22.581  1.00  0.00     0.338 C 
ATOM     79  O   UNL A   1      33.629  25.762  21.466  1.00  0.00    -0.246 OA
BRANCH  78  80
ATOM     80  C   UNL A   1      33.528  25.388  23.814  1.00  0.00     0.067 A 
ATOM     81  C   UNL A   1      34.766  24.791  24.106  1.00  0.00     0.025 A 
ATOM     82  C   UNL A   1      32.448  25.252  24.687  1.00  0.00     0.101 A 
ATOM     83  C   UNL A   1      34.950  24.070  25.294  1.00  0.00    -0.011 A 
ATOM     84  C   UNL A   1      32.619  24.515  25.856  1.00  0.00     0.270 A 
ATOM     85  C   UNL A   1      33.860  23.944  26.174  1.00  0.00     0.094 A 
BRANCH  83  86
ATOM     86  C   UNL A   1      36.197  23.348  25.565  1.00  0.00    -0.018 A 
ATOM     87  C   UNL A   1      36.375  21.990  25.266  1.00  0.00     0.009 A 
ATOM     88  C   UNL A   1      37.272  24.054  26.126  1.00  0.00     0.009 A 
ATOM     89  C   UNL A   1      37.609  21.364  25.507  1.00  0.00     0.014 A 
ATOM     90  C   UNL A   1      38.497  23.435  26.367  1.00  0.00     0.014 A 
ATOM     91  C   UNL A   1      38.684  22.083  26.053  1.00  0.00     0.056 A 
BRANCH  91  92
ATOM     92  C   UNL A   1      40.018  21.418  26.296  1.00  0.00     0.416 C 
ATOM     93  F   UNL A   1      41.038  22.019  25.626  1.00  0.00    -0.166 F 
ATOM     94  F   UNL A   1      40.373  21.432  27.612  1.00  0.00    -0.166 F 
ATOM     95  F   UNL A   1      40.046  20.107  25.924  1.00  0.00    -0.166 F 
ENDBRANCH  91  92
ENDBRANCH  83  86
BRANCH  84  96
ATOM     96  N   UNL A   1      31.467  24.291  26.735  1.00  0.00     0.062 N 
ATOM     97  O   UNL A   1      30.449  24.967  26.533  1.00  0.00    -0.258 OA
ATOM     98  O   UNL A   1      31.585  23.450  27.637  1.00  0.00    -0.258 OA
ENDBRANCH  84  96
ENDBRANCH  78  80
ENDBRANCH  77  78
ENDBRANCH  76  77
ENDBRANCH  75  76
ENDBRANCH  74  75
ENDBRANCH   1  74
TORSDOF 20
ENDMDL
MODEL 3
REMARK VINA RESULT:     -11.3      0.646      8.230
REMARK SMILES O=C(OCCOCCOC(=O)c1cc(-c2ccc(C(F)(F)F)cc2)cc([N+](=O)[O-])c1)c1ccc(-c2c3nc(c(-c4c(F)cc(S(=O)(=O)[O-])cc4F)c4ccc([nH]4)c(-c4c(F)cc(S(=O)(=O)[O-])cc4F)c4nc(c(-c5c(F)cc(S(=O)(=O)[O-])cc5F)c5ccc2[nH]5)C=C4)C=C3)cc1
REMARK SMILES IDX 5 1 4 2 3 3 2 4 1 5 31 6 32 7 96 8 33 9 95 10 34 11 35 12
REMARK SMILES IDX 36 13 89 14 37 15 94 16 88 17 90 18 38 19 93 20 87 21 86 22
REMARK SMILES IDX 39 24 73 25 52 26 72 27 53 28 56 29 71 30 91 31 54 32 55 33
REMARK SMILES IDX 70 35 92 36 57 37 40 38 41 39 50 40 42 41 43 42 49 43 51 44
REMARK SMILES IDX 44 45 45 46 46 47 47 48 48 49 74 50 75 51 84 52 76 53 77 54
REMARK SMILES IDX 83 55 85 56 78 57 79 58 80 59 81 60 82 61 58 62 59 63 68 64
REMARK SMILES IDX 60 65 61 66 67 67 69 68 62 69 63 70 64 71 65 72 66 73 6 74
REMARK SMILES IDX 7 75 8 76 9 77 10 78 11 79 12 80 13 81 30 82 14 83 26 84
REMARK SMILES IDX 25 85 15 86 16 87 24 88 17 89 23 90 18 91 19 92 20 93 21 94
REMARK SMILES IDX 22 95 27 96 28 97 29 98
REMARK H PARENT 90 23 56 34
REMARK Flexibility Score: inf
ROOT
ATOM      1  C   UNL A   1      33.451  28.617  25.227  1.00  0.00     0.202 C 
ENDROOT
BRANCH   1   2
ATOM      2  C   UNL A   1      33.066  29.192  26.595  1.00  0.00     0.261 C 
BRANCH   2   3
ATOM      3  O   UNL A   1      34.144  29.039  27.535  1.00  0.00    -0.460 OA
BRANCH   3   4
ATOM      4  C   UNL A   1      34.968  30.001  28.021  1.00  0.00     0.338 C 
ATOM      5  O   UNL A   1      34.520  31.134  28.190  1.00  0.00    -0.246 OA
BRANCH   4   6
ATOM      6  C   UNL A   1      36.399  29.747  28.360  1.00  0.00     0.060 A 
ATOM      7  C   UNL A   1      37.441  29.891  27.452  1.00  0.00     0.016 A 
ATOM      8  C   UNL A   1      36.726  29.421  29.687  1.00  0.00     0.016 A 
ATOM      9  C   UNL A   1      38.749  29.642  27.792  1.00  0.00     0.010 A 
ATOM     10  C   UNL A   1      38.063  29.237  30.066  1.00  0.00     0.010 A 
ATOM     11  C   UNL A   1      39.075  29.342  29.106  1.00  0.00    -0.014 A 
BRANCH  11  12
ATOM     12  C   UNL A   1      40.496  29.065  29.351  1.00  0.00     0.031 A 
ATOM     13  C   UNL A   1      41.036  27.735  28.931  1.00  0.00     0.074 A 
ATOM     14  C   UNL A   1      41.297  30.090  29.702  1.00  0.00     0.049 A 
ATOM     15  N   UNL A   1      42.257  27.289  28.996  1.00  0.00    -0.248 NA
ATOM     16  C   UNL A   1      40.076  26.791  28.333  1.00  0.00     0.031 C 
ATOM     17  C   UNL A   1      40.841  31.462  29.967  1.00  0.00     0.029 A 
ATOM     18  N   UNL A   1      42.656  30.166  29.834  1.00  0.00    -0.354 N 
ATOM     19  C   UNL A   1      42.213  26.007  28.467  1.00  0.00     0.074 A 
ATOM     20  C   UNL A   1      40.842  25.737  28.100  1.00  0.00     0.031 C 
ATOM     21  C   UNL A   1      41.906  32.245  30.198  1.00  0.00     0.029 A 
ATOM     22  C   UNL A   1      43.104  31.418  30.187  1.00  0.00     0.049 A 
ATOM     23  H   UNL A   1      43.255  29.399  29.691  1.00  0.00     0.167 HD
ATOM     24  C   UNL A   1      43.238  25.143  28.305  1.00  0.00     0.037 A 
ATOM     25  C   UNL A   1      44.344  31.829  30.509  1.00  0.00     0.037 A 
ATOM     26  C   UNL A   1      44.587  25.457  28.688  1.00  0.00     0.049 A 
ATOM     27  C   UNL A   1      45.444  30.805  30.441  1.00  0.00     0.074 A 
ATOM     28  C   UNL A   1      45.702  24.644  28.677  1.00  0.00     0.029 A 
ATOM     29  N   UNL A   1      45.000  26.703  29.149  1.00  0.00    -0.354 N 
ATOM     30  N   UNL A   1      45.378  29.555  30.039  1.00  0.00    -0.248 NA
ATOM     31  C   UNL A   1      46.776  31.232  30.876  1.00  0.00     0.031 C 
ATOM     32  C   UNL A   1      46.780  25.384  29.176  1.00  0.00     0.029 A 
ATOM     33  C   UNL A   1      46.351  26.677  29.439  1.00  0.00     0.049 A 
ATOM     34  H   UNL A   1      44.416  27.489  29.252  1.00  0.00     0.167 HD
ATOM     35  C   UNL A   1      46.666  29.048  30.162  1.00  0.00     0.074 A 
ATOM     36  C   UNL A   1      47.491  30.141  30.644  1.00  0.00     0.031 C 
ATOM     37  C   UNL A   1      47.128  27.798  29.914  1.00  0.00     0.037 A 
BRANCH  24  38
ATOM     38  C   UNL A   1      42.912  23.782  27.764  1.00  0.00     0.058 A 
ATOM     39  C   UNL A   1      42.754  23.543  26.390  1.00  0.00     0.135 A 
ATOM     40  C   UNL A   1      42.729  22.700  28.641  1.00  0.00     0.135 A 
ATOM     41  F   UNL A   1      42.874  24.551  25.510  1.00  0.00    -0.206 F 
ATOM     42  C   UNL A   1      42.412  22.285  25.905  1.00  0.00     0.059 A 
ATOM     43  C   UNL A   1      42.412  21.427  28.177  1.00  0.00     0.059 A 
ATOM     44  F   UNL A   1      42.843  22.879  29.967  1.00  0.00    -0.206 F 
ATOM     45  C   UNL A   1      42.247  21.232  26.807  1.00  0.00     0.060 A 
BRANCH  45  46
ATOM     46  S   UNL A   1      41.817  19.603  26.160  1.00  0.00     0.124 S 
ATOM     47  O   UNL A   1      42.196  18.737  27.272  1.00  0.00    -0.237 OA
ATOM     48  O   UNL A   1      40.385  19.734  25.919  1.00  0.00    -0.237 OA
ATOM     49  O   UNL A   1      42.645  19.483  24.963  1.00  0.00    -0.744 OA
ENDBRANCH  45  46
ENDBRANCH  24  38
BRANCH  25  50
ATOM     50  C   UNL A   1      44.582  33.213  31.009  1.00  0.00     0.058 A 
ATOM     51  C   UNL A   1      44.455  33.546  32.365  1.00  0.00     0.135 A 
ATOM     52  C   UNL A   1      44.914  34.249  30.119  1.00  0.00     0.135 A 
ATOM     53  F   UNL A   1      44.138  32.599  33.262  1.00  0.00    -0.206 F 
ATOM     54  C   UNL A   1      44.611  34.856  32.814  1.00  0.00     0.059 A 
ATOM     55  C   UNL A   1      45.111  35.558  30.547  1.00  0.00     0.059 A 
ATOM     56  F   UNL A   1      45.062  33.993  28.809  1.00  0.00    -0.206 F 
ATOM     57  C   UNL A   1      44.935  35.856  31.895  1.00  0.00     0.060 A 
BRANCH  57  58
ATOM     58  S   UNL A   1      45.127  37.554  32.481  1.00  0.00     0.124 S 
ATOM     59  O   UNL A   1      45.567  37.341  33.854  1.00  0.00    -0.237 OA
ATOM     60  O   UNL A   1      46.129  38.084  31.562  1.00  0.00    -0.237 OA
ATOM     61  O   UNL A   1      43.787  38.115  32.328  1.00  0.00    -0.744 OA
ENDBRANCH  57  58
ENDBRANCH  25  50
BRANCH  37  62
ATOM     62  C   UNL A   1      48.596  27.570  30.132  1.00  0.00     0.058 A 
ATOM     63  C   UNL A   1      49.094  27.096  31.354  1.00  0.00     0.135 A 
ATOM     64  C   UNL A   1      49.506  27.802  29.090  1.00  0.00     0.135 A 
ATOM     65  F   UNL A   1      48.261  26.867  32.383  1.00  0.00    -0.206 F 
ATOM     66  C   UNL A   1      50.455  26.897  31.549  1.00  0.00     0.059 A 
ATOM     67  C   UNL A   1      50.867  27.573  29.250  1.00  0.00     0.059 A 
ATOM     68  F   UNL A   1      49.074  28.242  27.897  1.00  0.00    -0.206 F 
ATOM     69  C   UNL A   1      51.332  27.138  30.490  1.00  0.00     0.060 A 
BRANCH  69  70
ATOM     70  S   UNL A   1      53.094  26.860  30.752  1.00  0.00     0.124 S 
ATOM     71  O   UNL A   1      53.468  28.047  31.513  1.00  0.00    -0.237 OA
ATOM     72  O   UNL A   1      53.105  25.602  31.492  1.00  0.00    -0.237 OA
ATOM     73  O   UNL A   1      53.632  26.787  29.397  1.00  0.00    -0.744 OA
ENDBRANCH  69  70
ENDBRANCH  37  62
ENDBRANCH  11  12
ENDBRANCH   4   6
ENDBRANCH   3   4
ENDBRANCH   2   3
ENDBRANCH   1   2
BRANCH   1  74
ATOM     74  O   UNL A   1      32.852  29.258  24.102  1.00  0.00    -0.374 OA
BRANCH  74  75
ATOM     75  C   UNL A   1      33.233  28.784  22.808  1.00  0.00     0.202 C 
BRANCH  75  76
ATOM     76  C   UNL A   1      33.548  27.289  22.895  1.00  0.00     0.261 C 
BRANCH  76  77
ATOM     77  O   UNL A   1      32.348  26.561  22.588  1.00  0.00    -0.460 OA
BRANCH  77  78
ATOM     78  C   UNL A   1      32.546  25.307  22.107  1.00  0.00     0.338 C 
ATOM     79  O   UNL A   1      33.041  24.974  21.046  1.00  0.00    -0.246 OA
BRANCH  78  80
ATOM     80  C   UNL A   1      32.238  24.368  23.203  1.00  0.00     0.067 A 
ATOM     81  C   UNL A   1      32.768  23.068  23.160  1.00  0.00     0.025 A 
ATOM     82  C   UNL A   1      31.451  24.781  24.277  1.00  0.00     0.101 A 
ATOM     83  C   UNL A   1      32.540  22.167  24.209  1.00  0.00    -0.011 A 
ATOM     84  C   UNL A   1      31.199  23.881  25.310  1.00  0.00     0.270 A 
ATOM     85  C   UNL A   1      31.752  22.592  25.294  1.00  0.00     0.094 A 
BRANCH  83  86
ATOM     86  C   UNL A   1      32.990  20.773  24.133  1.00  0.00    -0.018 A 
ATOM     87  C   UNL A   1      34.153  20.310  24.762  1.00  0.00     0.009 A 
ATOM     88  C   UNL A   1      32.205  19.854  23.420  1.00  0.00     0.009 A 
ATOM     89  C   UNL A   1      34.508  18.953  24.690  1.00  0.00     0.014 A 
ATOM     90  C   UNL A   1      32.556  18.507  23.346  1.00  0.00     0.014 A 
ATOM     91  C   UNL A   1      33.709  18.037  23.987  1.00  0.00     0.056 A 
BRANCH  91  92
ATOM     92  C   UNL A   1      34.078  16.574  23.925  1.00  0.00     0.416 C 
ATOM     93  F   UNL A   1      33.048  15.754  24.266  1.00  0.00    -0.166 F 
ATOM     94  F   UNL A   1      34.466  16.190  22.676  1.00  0.00    -0.166 F 
ATOM     95  F   UNL A   1      35.112  16.239  24.748  1.00  0.00    -0.166 F 
ENDBRANCH  91  92
ENDBRANCH  83  86
BRANCH  84  96
ATOM     96  N   UNL A   1      30.300  24.275  26.399  1.00  0.00     0.062 N 
ATOM     97  O   UNL A   1      29.942  25.459  26.451  1.00  0.00    -0.258 OA
ATOM     98  O   UNL A   1      29.963  23.403  27.212  1.00  0.00    -0.258 OA
ENDBRANCH  84  96
ENDBRANCH  78  80
ENDBRANCH  77  78
ENDBRANCH  76  77
ENDBRANCH  75  76
ENDBRANCH  74  75
ENDBRANCH   1  74
TORSDOF 20
ENDMDL
