MODEL 1
REMARK VINA RESULT:     -11.6      0.000      0.000
REMARK SMILES CC(=O)c1c[nH]c(C(=O)N[C@H]2C=C[C@H](C(=O)OCCOCCOC(=O)c3ccc(-c4c5nc(c(-c6c(F)cc(S(=O)(=O)[O-])cc6F)c6ccc([nH]6)c(-c6c(F)cc(S(=O)(=O)[O-])cc6F)c6nc(c(-c7c(F)cc(S(=O)(=O)[O-])cc7F)c7ccc4[nH]7)C=C6)C=C5)cc3)C2)c1
REMARK SMILES IDX 20 1 19 2 18 3 17 4 15 5 16 6 14 7 11 8 12 9 92 10 13 11
REMARK SMILES IDX 10 12 8 13 9 14 7 16 4 17 5 18 93 19 6 20 2 22 1 23 3 24
REMARK SMILES IDX 21 25 22 26 23 27 24 28 25 29 26 30 27 31 91 32 28 33 90 34
REMARK SMILES IDX 29 35 30 36 31 37 84 38 32 39 89 40 83 41 85 42 33 43 88 44
REMARK SMILES IDX 82 45 81 46 34 48 68 49 47 50 67 51 48 52 51 53 66 54 86 55
REMARK SMILES IDX 49 56 50 57 65 59 87 60 52 61 35 62 36 63 45 64 37 65 38 66
REMARK SMILES IDX 44 67 46 68 39 69 40 70 41 71 42 72 43 73 69 74 70 75 79 76
REMARK SMILES IDX 71 77 72 78 78 79 80 80 73 81 74 82 75 83 76 84 77 85 53 86
REMARK SMILES IDX 54 87 63 88 55 89 56 90 62 91 64 92 57 93 58 94 59 95 60 96
REMARK SMILES IDX 61 97
REMARK H PARENT 10 15 6 21 85 47 51 58
REMARK Flexibility Score: inf
ROOT
ATOM      1  O   UNL A   1      44.478  40.925  26.765  1.00  0.00    -0.374 OA
ENDROOT
BRANCH   1   2
ATOM      2  C   UNL A   1      45.097  41.626  25.687  1.00  0.00     0.202 C 
BRANCH   2   3
ATOM      3  C   UNL A   1      44.252  42.686  24.988  1.00  0.00     0.261 C 
BRANCH   3   4
ATOM      4  O   UNL A   1      44.003  42.298  23.628  1.00  0.00    -0.463 OA
BRANCH   4   5
ATOM      5  C   UNL A   1      42.698  42.175  23.291  1.00  0.00     0.312 C 
ATOM      6  O   UNL A   1      41.770  42.044  24.082  1.00  0.00    -0.252 OA
BRANCH   5   7
ATOM      7  C   UNL A   1      42.471  42.232  21.791  1.00  0.00     0.124 C 
ATOM      8  C   UNL A   1      43.160  43.718  19.967  1.00  0.00     0.106 C 
ATOM      9  C   UNL A   1      41.699  43.801  20.210  1.00  0.00    -0.006 C 
ATOM     10  C   UNL A   1      43.697  42.792  21.064  1.00  0.00     0.048 C 
ATOM     11  C   UNL A   1      41.328  43.041  21.245  1.00  0.00    -0.014 C 
BRANCH   8  12
ATOM     12  N   UNL A   1      43.470  43.384  18.588  1.00  0.00    -0.345 N 
ATOM     13  C   UNL A   1      43.487  44.059  17.398  1.00  0.00     0.268 C 
ATOM     14  O   UNL A   1      43.543  43.379  16.372  1.00  0.00    -0.268 OA
ATOM     15  H   UNL A   1      43.731  42.442  18.485  1.00  0.00     0.164 HD
BRANCH  13  16
ATOM     16  C   UNL A   1      43.324  45.488  17.330  1.00  0.00     0.105 A 
ATOM     17  C   UNL A   1      43.534  47.742  17.501  1.00  0.00     0.035 A 
ATOM     18  C   UNL A   1      42.190  47.425  17.510  1.00  0.00     0.094 A 
ATOM     19  C   UNL A   1      44.218  46.530  17.183  1.00  0.00     0.045 A 
ATOM     20  N   UNL A   1      42.075  46.072  17.310  1.00  0.00    -0.356 N 
ATOM     21  H   UNL A   1      41.227  45.592  17.172  1.00  0.00     0.166 HD
BRANCH  17  22
ATOM     22  C   UNL A   1      44.153  49.029  17.822  1.00  0.00     0.161 C 
ATOM     23  C   UNL A   1      43.363  50.008  18.656  1.00  0.00     0.093 C 
ATOM     24  O   UNL A   1      45.320  49.270  17.513  1.00  0.00    -0.294 OA
ENDBRANCH  17  22
ENDBRANCH  13  16
ENDBRANCH   8  12
ENDBRANCH   5   7
ENDBRANCH   4   5
ENDBRANCH   3   4
ENDBRANCH   2   3
ENDBRANCH   1   2
BRANCH   1  25
ATOM     25  C   UNL A   1      44.188  39.539  26.615  1.00  0.00     0.202 C 
BRANCH  25  26
ATOM     26  C   UNL A   1      45.216  38.525  27.117  1.00  0.00     0.261 C 
BRANCH  26  27
ATOM     27  O   UNL A   1      44.796  37.762  28.248  1.00  0.00    -0.460 OA
BRANCH  27  28
ATOM     28  C   UNL A   1      45.748  36.887  28.650  1.00  0.00     0.338 C 
ATOM     29  O   UNL A   1      46.947  37.094  28.704  1.00  0.00    -0.246 OA
BRANCH  28  30
ATOM     30  C   UNL A   1      45.190  35.545  28.842  1.00  0.00     0.060 A 
ATOM     31  C   UNL A   1      44.320  35.115  27.837  1.00  0.00     0.016 A 
ATOM     32  C   UNL A   1      45.259  34.904  30.086  1.00  0.00     0.016 A 
ATOM     33  C   UNL A   1      43.389  34.150  28.141  1.00  0.00     0.010 A 
ATOM     34  C   UNL A   1      44.308  33.945  30.397  1.00  0.00     0.010 A 
ATOM     35  C   UNL A   1      43.349  33.611  29.436  1.00  0.00    -0.014 A 
BRANCH  35  36
ATOM     36  C   UNL A   1      42.407  32.498  29.628  1.00  0.00     0.031 A 
ATOM     37  C   UNL A   1      42.986  31.283  28.856  1.00  0.00     0.074 A 
ATOM     38  C   UNL A   1      41.211  32.804  30.240  1.00  0.00     0.049 A 
ATOM     39  N   UNL A   1      42.419  30.504  27.991  1.00  0.00    -0.248 NA
ATOM     40  C   UNL A   1      44.456  31.011  28.908  1.00  0.00     0.031 C 
ATOM     41  C   UNL A   1      40.924  34.045  31.008  1.00  0.00     0.029 A 
ATOM     42  N   UNL A   1      39.991  32.163  30.356  1.00  0.00    -0.354 N 
ATOM     43  C   UNL A   1      43.360  29.505  27.642  1.00  0.00     0.074 A 
ATOM     44  C   UNL A   1      44.633  29.993  28.061  1.00  0.00     0.031 C 
ATOM     45  C   UNL A   1      39.626  34.098  31.409  1.00  0.00     0.029 A 
ATOM     46  C   UNL A   1      38.921  32.916  30.950  1.00  0.00     0.049 A 
ATOM     47  H   UNL A   1      39.863  31.236  30.047  1.00  0.00     0.167 HD
ATOM     48  C   UNL A   1      42.983  28.252  27.238  1.00  0.00     0.037 A 
ATOM     49  C   UNL A   1      37.572  32.612  31.003  1.00  0.00     0.037 A 
ATOM     50  C   UNL A   1      41.559  28.194  27.226  1.00  0.00     0.049 A 
ATOM     51  C   UNL A   1      37.523  31.259  30.440  1.00  0.00     0.074 A 
ATOM     52  C   UNL A   1      40.624  28.802  26.431  1.00  0.00     0.029 A 
ATOM     53  N   UNL A   1      40.977  27.792  28.406  1.00  0.00    -0.354 N 
ATOM     54  N   UNL A   1      37.907  30.185  31.059  1.00  0.00    -0.248 NA
ATOM     55  C   UNL A   1      37.135  31.111  29.030  1.00  0.00     0.031 C 
ATOM     56  C   UNL A   1      39.663  29.225  27.371  1.00  0.00     0.029 A 
ATOM     57  C   UNL A   1      39.871  28.575  28.595  1.00  0.00     0.049 A 
ATOM     58  H   UNL A   1      41.295  27.077  29.001  1.00  0.00     0.167 HD
ATOM     59  C   UNL A   1      38.132  29.326  30.016  1.00  0.00     0.074 A 
ATOM     60  C   UNL A   1      37.336  29.803  28.903  1.00  0.00     0.031 C 
ATOM     61  C   UNL A   1      39.324  28.683  29.926  1.00  0.00     0.037 A 
BRANCH  48  62
ATOM     62  C   UNL A   1      43.698  26.925  27.173  1.00  0.00     0.058 A 
ATOM     63  C   UNL A   1      44.203  26.528  25.905  1.00  0.00     0.135 A 
ATOM     64  C   UNL A   1      43.580  25.911  28.132  1.00  0.00     0.135 A 
ATOM     65  F   UNL A   1      44.433  27.434  24.939  1.00  0.00    -0.206 F 
ATOM     66  C   UNL A   1      44.395  25.198  25.558  1.00  0.00     0.059 A 
ATOM     67  C   UNL A   1      43.823  24.569  27.819  1.00  0.00     0.059 A 
ATOM     68  F   UNL A   1      43.156  26.171  29.375  1.00  0.00    -0.206 F 
ATOM     69  C   UNL A   1      44.170  24.219  26.515  1.00  0.00     0.060 A 
BRANCH  69  70
ATOM     70  S   UNL A   1      44.331  22.494  26.015  1.00  0.00     0.124 S 
ATOM     71  O   UNL A   1      45.757  22.262  26.200  1.00  0.00    -0.237 OA
ATOM     72  O   UNL A   1      43.451  21.819  26.966  1.00  0.00    -0.237 OA
ATOM     73  O   UNL A   1      43.857  22.500  24.635  1.00  0.00    -0.744 OA
ENDBRANCH  69  70
ENDBRANCH  48  62
BRANCH  49  74
ATOM     74  C   UNL A   1      36.191  33.201  31.330  1.00  0.00     0.058 A 
ATOM     75  C   UNL A   1      35.476  33.103  32.530  1.00  0.00     0.135 A 
ATOM     76  C   UNL A   1      35.526  34.021  30.356  1.00  0.00     0.135 A 
ATOM     77  F   UNL A   1      35.877  32.255  33.489  1.00  0.00    -0.206 F 
ATOM     78  C   UNL A   1      34.306  33.874  32.790  1.00  0.00     0.059 A 
ATOM     79  C   UNL A   1      34.421  34.832  30.604  1.00  0.00     0.059 A 
ATOM     80  F   UNL A   1      35.933  34.089  29.082  1.00  0.00    -0.206 F 
ATOM     81  C   UNL A   1      33.826  34.783  31.843  1.00  0.00     0.060 A 
BRANCH  81  82
ATOM     82  S   UNL A   1      32.532  35.993  32.228  1.00  0.00     0.124 S 
ATOM     83  O   UNL A   1      31.421  35.143  32.639  1.00  0.00    -0.237 OA
ATOM     84  O   UNL A   1      33.152  36.789  33.283  1.00  0.00    -0.237 OA
ATOM     85  O   UNL A   1      32.343  36.701  30.963  1.00  0.00    -0.744 OA
ENDBRANCH  81  82
ENDBRANCH  49  74
BRANCH  61  86
ATOM     86  C   UNL A   1      40.066  28.479  31.241  1.00  0.00     0.058 A 
ATOM     87  C   UNL A   1      39.452  27.765  32.284  1.00  0.00     0.135 A 
ATOM     88  C   UNL A   1      41.328  29.021  31.544  1.00  0.00     0.135 A 
ATOM     89  F   UNL A   1      38.250  27.201  32.085  1.00  0.00    -0.206 F 
ATOM     90  C   UNL A   1      40.050  27.599  33.538  1.00  0.00     0.059 A 
ATOM     91  C   UNL A   1      41.951  28.877  32.792  1.00  0.00     0.059 A 
ATOM     92  F   UNL A   1      42.003  29.711  30.625  1.00  0.00    -0.206 F 
ATOM     93  C   UNL A   1      41.304  28.156  33.786  1.00  0.00     0.060 A 
BRANCH  93  94
ATOM     94  S   UNL A   1      42.080  27.887  35.398  1.00  0.00     0.124 S 
ATOM     95  O   UNL A   1      43.273  28.725  35.319  1.00  0.00    -0.237 OA
ATOM     96  O   UNL A   1      41.044  28.350  36.315  1.00  0.00    -0.237 OA
ATOM     97  O   UNL A   1      42.337  26.449  35.425  1.00  0.00    -0.744 OA
ENDBRANCH  93  94
ENDBRANCH  61  86
ENDBRANCH  35  36
ENDBRANCH  28  30
ENDBRANCH  27  28
ENDBRANCH  26  27
ENDBRANCH  25  26
ENDBRANCH   1  25
TORSDOF 20
ENDMDL
MODEL 2
REMARK VINA RESULT:     -11.5      8.366     15.051
REMARK SMILES CC(=O)c1c[nH]c(C(=O)N[C@H]2C=C[C@H](C(=O)OCCOCCOC(=O)c3ccc(-c4c5nc(c(-c6c(F)cc(S(=O)(=O)[O-])cc6F)c6ccc([nH]6)c(-c6c(F)cc(S(=O)(=O)[O-])cc6F)c6nc(c(-c7c(F)cc(S(=O)(=O)[O-])cc7F)c7ccc4[nH]7)C=C6)C=C5)cc3)C2)c1
REMARK SMILES IDX 20 1 19 2 18 3 17 4 15 5 16 6 14 7 11 8 12 9 92 10 13 11
REMARK SMILES IDX 10 12 8 13 9 14 7 16 4 17 5 18 93 19 6 20 2 22 1 23 3 24
REMARK SMILES IDX 21 25 22 26 23 27 24 28 25 29 26 30 27 31 91 32 28 33 90 34
REMARK SMILES IDX 29 35 30 36 31 37 84 38 32 39 89 40 83 41 85 42 33 43 88 44
REMARK SMILES IDX 82 45 81 46 34 48 68 49 47 50 67 51 48 52 51 53 66 54 86 55
REMARK SMILES IDX 49 56 50 57 65 59 87 60 52 61 35 62 36 63 45 64 37 65 38 66
REMARK SMILES IDX 44 67 46 68 39 69 40 70 41 71 42 72 43 73 69 74 70 75 79 76
REMARK SMILES IDX 71 77 72 78 78 79 80 80 73 81 74 82 75 83 76 84 77 85 53 86
REMARK SMILES IDX 54 87 63 88 55 89 56 90 62 91 64 92 57 93 58 94 59 95 60 96
REMARK SMILES IDX 61 97
REMARK H PARENT 10 15 6 21 85 47 51 58
REMARK Flexibility Score: inf
ROOT
ATOM      1  O   UNL A   1      30.833  30.144  24.632  1.00  0.00    -0.374 OA
ENDROOT
BRANCH   1   2
ATOM      2  C   UNL A   1      30.307  29.069  23.855  1.00  0.00     0.202 C 
BRANCH   2   3
ATOM      3  C   UNL A   1      31.030  28.753  22.550  1.00  0.00     0.261 C 
BRANCH   3   4
ATOM      4  O   UNL A   1      32.093  27.817  22.792  1.00  0.00    -0.463 OA
BRANCH   4   5
ATOM      5  C   UNL A   1      31.764  26.514  22.631  1.00  0.00     0.312 C 
ATOM      6  O   UNL A   1      31.562  25.960  21.555  1.00  0.00    -0.252 OA
BRANCH   5   7
ATOM      7  C   UNL A   1      31.682  25.762  23.947  1.00  0.00     0.124 C 
ATOM      8  C   UNL A   1      30.135  25.715  25.848  1.00  0.00     0.106 C 
ATOM      9  C   UNL A   1      31.450  26.283  26.234  1.00  0.00    -0.006 C 
ATOM     10  C   UNL A   1      30.228  25.480  24.336  1.00  0.00     0.048 C 
ATOM     11  C   UNL A   1      32.275  26.370  25.187  1.00  0.00    -0.014 C 
BRANCH   8  12
ATOM     12  N   UNL A   1      29.754  24.592  26.685  1.00  0.00    -0.345 N 
ATOM     13  C   UNL A   1      30.180  23.301  26.845  1.00  0.00     0.268 C 
ATOM     14  O   UNL A   1      29.439  22.542  27.470  1.00  0.00    -0.268 OA
ATOM     15  H   UNL A   1      29.006  24.813  27.284  1.00  0.00     0.164 HD
BRANCH  13  16
ATOM     16  C   UNL A   1      31.378  22.811  26.214  1.00  0.00     0.105 A 
ATOM     17  C   UNL A   1      33.456  22.534  25.341  1.00  0.00     0.035 A 
ATOM     18  C   UNL A   1      32.563  21.794  24.591  1.00  0.00     0.094 A 
ATOM     19  C   UNL A   1      32.722  23.000  26.473  1.00  0.00     0.045 A 
ATOM     20  N   UNL A   1      31.330  21.894  25.185  1.00  0.00    -0.356 N 
ATOM     21  H   UNL A   1      30.531  21.386  24.917  1.00  0.00     0.166 HD
BRANCH  17  22
ATOM     22  C   UNL A   1      34.849  22.850  25.020  1.00  0.00     0.161 C 
ATOM     23  C   UNL A   1      35.449  24.099  25.616  1.00  0.00     0.093 C 
ATOM     24  O   UNL A   1      35.545  22.071  24.368  1.00  0.00    -0.294 OA
ENDBRANCH  17  22
ENDBRANCH  13  16
ENDBRANCH   8  12
ENDBRANCH   5   7
ENDBRANCH   4   5
ENDBRANCH   3   4
ENDBRANCH   2   3
ENDBRANCH   1   2
BRANCH   1  25
ATOM     25  C   UNL A   1      32.113  29.999  25.240  1.00  0.00     0.202 C 
BRANCH  25  26
ATOM     26  C   UNL A   1      32.309  30.542  26.655  1.00  0.00     0.261 C 
BRANCH  26  27
ATOM     27  O   UNL A   1      33.672  30.734  27.036  1.00  0.00    -0.460 OA
BRANCH  27  28
ATOM     28  C   UNL A   1      34.228  29.597  27.519  1.00  0.00     0.338 C 
ATOM     29  O   UNL A   1      33.707  28.497  27.561  1.00  0.00    -0.246 OA
BRANCH  28  30
ATOM     30  C   UNL A   1      35.501  29.872  28.189  1.00  0.00     0.060 A 
ATOM     31  C   UNL A   1      36.586  30.092  27.337  1.00  0.00     0.016 A 
ATOM     32  C   UNL A   1      35.675  29.599  29.553  1.00  0.00     0.016 A 
ATOM     33  C   UNL A   1      37.855  29.861  27.813  1.00  0.00     0.010 A 
ATOM     34  C   UNL A   1      36.953  29.349  30.026  1.00  0.00     0.010 A 
ATOM     35  C   UNL A   1      38.029  29.435  29.139  1.00  0.00    -0.014 A 
BRANCH  35  36
ATOM     36  C   UNL A   1      39.424  29.339  29.593  1.00  0.00     0.031 A 
ATOM     37  C   UNL A   1      39.793  30.717  30.202  1.00  0.00     0.074 A 
ATOM     38  C   UNL A   1      40.112  28.201  29.231  1.00  0.00     0.049 A 
ATOM     39  N   UNL A   1      40.808  31.485  29.964  1.00  0.00    -0.248 NA
ATOM     40  C   UNL A   1      38.796  31.435  31.056  1.00  0.00     0.031 C 
ATOM     41  C   UNL A   1      39.498  26.941  28.729  1.00  0.00     0.029 A 
ATOM     42  N   UNL A   1      41.448  27.845  29.202  1.00  0.00    -0.354 N 
ATOM     43  C   UNL A   1      40.714  32.595  30.838  1.00  0.00     0.074 A 
ATOM     44  C   UNL A   1      39.370  32.613  31.313  1.00  0.00     0.031 C 
ATOM     45  C   UNL A   1      40.442  26.033  28.368  1.00  0.00     0.029 A 
ATOM     46  C   UNL A   1      41.766  26.587  28.583  1.00  0.00     0.049 A 
ATOM     47  H   UNL A   1      42.146  28.424  29.585  1.00  0.00     0.167 HD
ATOM     48  C   UNL A   1      41.817  33.278  31.276  1.00  0.00     0.037 A 
ATOM     49  C   UNL A   1      43.006  26.083  28.232  1.00  0.00     0.037 A 
ATOM     50  C   UNL A   1      42.973  32.689  30.688  1.00  0.00     0.049 A 
ATOM     51  C   UNL A   1      43.928  27.078  28.786  1.00  0.00     0.074 A 
ATOM     52  C   UNL A   1      43.428  32.655  29.396  1.00  0.00     0.029 A 
ATOM     53  N   UNL A   1      43.544  31.666  31.409  1.00  0.00    -0.354 N 
ATOM     54  N   UNL A   1      44.210  27.207  30.046  1.00  0.00    -0.248 NA
ATOM     55  C   UNL A   1      44.481  28.091  27.874  1.00  0.00     0.031 C 
ATOM     56  C   UNL A   1      43.822  31.310  29.255  1.00  0.00     0.029 A 
ATOM     57  C   UNL A   1      43.918  30.702  30.514  1.00  0.00     0.049 A 
ATOM     58  H   UNL A   1      43.662  31.634  32.386  1.00  0.00     0.167 HD
ATOM     59  C   UNL A   1      44.671  28.495  30.099  1.00  0.00     0.074 A 
ATOM     60  C   UNL A   1      45.131  28.830  28.766  1.00  0.00     0.031 C 
ATOM     61  C   UNL A   1      44.133  29.360  30.997  1.00  0.00     0.037 A 
BRANCH  48  62
ATOM     62  C   UNL A   1      42.068  34.202  32.442  1.00  0.00     0.058 A 
ATOM     63  C   UNL A   1      42.840  35.367  32.186  1.00  0.00     0.135 A 
ATOM     64  C   UNL A   1      41.937  33.837  33.788  1.00  0.00     0.135 A 
ATOM     65  F   UNL A   1      42.962  35.853  30.939  1.00  0.00    -0.206 F 
ATOM     66  C   UNL A   1      43.580  36.007  33.170  1.00  0.00     0.059 A 
ATOM     67  C   UNL A   1      42.630  34.504  34.804  1.00  0.00     0.059 A 
ATOM     68  F   UNL A   1      41.199  32.782  34.157  1.00  0.00    -0.206 F 
ATOM     69  C   UNL A   1      43.495  35.546  34.475  1.00  0.00     0.060 A 
BRANCH  69  70
ATOM     70  S   UNL A   1      44.539  36.330  35.719  1.00  0.00     0.124 S 
ATOM     71  O   UNL A   1      43.553  37.011  36.549  1.00  0.00    -0.237 OA
ATOM     72  O   UNL A   1      45.196  35.179  36.334  1.00  0.00    -0.237 OA
ATOM     73  O   UNL A   1      45.413  37.190  34.929  1.00  0.00    -0.744 OA
ENDBRANCH  69  70
ENDBRANCH  48  62
BRANCH  49  74
ATOM     74  C   UNL A   1      43.698  24.970  27.429  1.00  0.00     0.058 A 
ATOM     75  C   UNL A   1      44.631  24.032  27.887  1.00  0.00     0.135 A 
ATOM     76  C   UNL A   1      43.340  24.767  26.052  1.00  0.00     0.135 A 
ATOM     77  F   UNL A   1      45.188  24.167  29.099  1.00  0.00    -0.206 F 
ATOM     78  C   UNL A   1      45.037  22.911  27.106  1.00  0.00     0.059 A 
ATOM     79  C   UNL A   1      43.671  23.650  25.290  1.00  0.00     0.059 A 
ATOM     80  F   UNL A   1      42.619  25.661  25.363  1.00  0.00    -0.206 F 
ATOM     81  C   UNL A   1      44.500  22.697  25.833  1.00  0.00     0.060 A 
BRANCH  81  82
ATOM     82  S   UNL A   1      44.750  21.149  24.923  1.00  0.00     0.124 S 
ATOM     83  O   UNL A   1      44.728  21.594  23.534  1.00  0.00    -0.237 OA
ATOM     84  O   UNL A   1      46.042  20.695  25.428  1.00  0.00    -0.237 OA
ATOM     85  O   UNL A   1      43.613  20.327  25.334  1.00  0.00    -0.744 OA
ENDBRANCH  81  82
ENDBRANCH  49  74
BRANCH  61  86
ATOM     86  C   UNL A   1      43.528  28.726  32.244  1.00  0.00     0.058 A 
ATOM     87  C   UNL A   1      44.333  27.946  33.091  1.00  0.00     0.135 A 
ATOM     88  C   UNL A   1      42.168  28.793  32.599  1.00  0.00     0.135 A 
ATOM     89  F   UNL A   1      45.646  27.832  32.838  1.00  0.00    -0.206 F 
ATOM     90  C   UNL A   1      43.825  27.282  34.213  1.00  0.00     0.059 A 
ATOM     91  C   UNL A   1      41.628  28.136  33.713  1.00  0.00     0.059 A 
ATOM     92  F   UNL A   1      41.316  29.512  31.869  1.00  0.00    -0.206 F 
ATOM     93  C   UNL A   1      42.469  27.384  34.522  1.00  0.00     0.060 A 
BRANCH  93  94
ATOM     94  S   UNL A   1      41.843  26.557  36.004  1.00  0.00     0.124 S 
ATOM     95  O   UNL A   1      40.978  25.521  35.449  1.00  0.00    -0.237 OA
ATOM     96  O   UNL A   1      43.072  26.083  36.630  1.00  0.00    -0.237 OA
ATOM     97  O   UNL A   1      41.147  27.620  36.727  1.00  0.00    -0.744 OA
ENDBRANCH  93  94
ENDBRANCH  61  86
ENDBRANCH  35  36
ENDBRANCH  28  30
ENDBRANCH  27  28
ENDBRANCH  26  27
ENDBRANCH  25  26
ENDBRANCH   1  25
TORSDOF 20
ENDMDL
MODEL 3
REMARK VINA RESULT:     -11.5      8.408     15.398
REMARK SMILES CC(=O)c1c[nH]c(C(=O)N[C@H]2C=C[C@H](C(=O)OCCOCCOC(=O)c3ccc(-c4c5nc(c(-c6c(F)cc(S(=O)(=O)[O-])cc6F)c6ccc([nH]6)c(-c6c(F)cc(S(=O)(=O)[O-])cc6F)c6nc(c(-c7c(F)cc(S(=O)(=O)[O-])cc7F)c7ccc4[nH]7)C=C6)C=C5)cc3)C2)c1
REMARK SMILES IDX 20 1 19 2 18 3 17 4 15 5 16 6 14 7 11 8 12 9 92 10 13 11
REMARK SMILES IDX 10 12 8 13 9 14 7 16 4 17 5 18 93 19 6 20 2 22 1 23 3 24
REMARK SMILES IDX 21 25 22 26 23 27 24 28 25 29 26 30 27 31 91 32 28 33 90 34
REMARK SMILES IDX 29 35 30 36 31 37 84 38 32 39 89 40 83 41 85 42 33 43 88 44
REMARK SMILES IDX 82 45 81 46 34 48 68 49 47 50 67 51 48 52 51 53 66 54 86 55
REMARK SMILES IDX 49 56 50 57 65 59 87 60 52 61 35 62 36 63 45 64 37 65 38 66
REMARK SMILES IDX 44 67 46 68 39 69 40 70 41 71 42 72 43 73 69 74 70 75 79 76
REMARK SMILES IDX 71 77 72 78 78 79 80 80 73 81 74 82 75 83 76 84 77 85 53 86
REMARK SMILES IDX 54 87 63 88 55 89 56 90 62 91 64 92 57 93 58 94 59 95 60 96
REMARK SMILES IDX 61 97
REMARK H PARENT 10 15 6 21 85 47 51 58
REMARK Flexibility Score: inf
ROOT
ATOM      1  O   UNL A   1      31.943  28.419  24.207  1.00  0.00    -0.374 OA
ENDROOT
BRANCH   1   2
ATOM      2  C   UNL A   1      31.047  27.400  23.766  1.00  0.00     0.202 C 
BRANCH   2   3
ATOM      3  C   UNL A   1      31.155  26.981  22.303  1.00  0.00     0.261 C 
BRANCH   3   4
ATOM      4  O   UNL A   1      31.635  25.630  22.213  1.00  0.00    -0.463 OA
BRANCH   4   5
ATOM      5  C   UNL A   1      32.980  25.489  22.259  1.00  0.00     0.312 C 
ATOM      6  O   UNL A   1      33.783  26.109  21.568  1.00  0.00    -0.252 OA
BRANCH   5   7
ATOM      7  C   UNL A   1      33.430  24.472  23.291  1.00  0.00     0.124 C 
ATOM      8  C   UNL A   1      35.252  24.314  24.923  1.00  0.00     0.106 C 
ATOM      9  C   UNL A   1      35.407  23.311  23.841  1.00  0.00    -0.006 C 
ATOM     10  C   UNL A   1      34.037  25.157  24.519  1.00  0.00     0.048 C 
ATOM     11  C   UNL A   1      34.451  23.435  22.915  1.00  0.00    -0.014 C 
BRANCH   8  12
ATOM     12  N   UNL A   1      35.245  23.704  26.240  1.00  0.00    -0.345 N 
ATOM     13  C   UNL A   1      34.514  22.731  26.865  1.00  0.00     0.268 C 
ATOM     14  O   UNL A   1      34.613  22.658  28.091  1.00  0.00    -0.268 OA
ATOM     15  H   UNL A   1      35.937  24.084  26.828  1.00  0.00     0.164 HD
BRANCH  13  16
ATOM     16  C   UNL A   1      33.576  21.906  26.149  1.00  0.00     0.105 A 
ATOM     17  C   UNL A   1      32.541  20.454  24.742  1.00  0.00     0.035 A 
ATOM     18  C   UNL A   1      31.662  21.476  25.042  1.00  0.00     0.094 A 
ATOM     19  C   UNL A   1      33.662  20.638  25.607  1.00  0.00     0.045 A 
ATOM     20  N   UNL A   1      32.266  22.293  25.965  1.00  0.00    -0.356 N 
ATOM     21  H   UNL A   1      31.827  23.043  26.428  1.00  0.00     0.166 HD
BRANCH  17  22
ATOM     22  C   UNL A   1      32.404  19.430  23.705  1.00  0.00     0.161 C 
ATOM     23  C   UNL A   1      32.516  17.983  24.118  1.00  0.00     0.093 C 
ATOM     24  O   UNL A   1      32.105  19.730  22.549  1.00  0.00    -0.294 OA
ENDBRANCH  17  22
ENDBRANCH  13  16
ENDBRANCH   8  12
ENDBRANCH   5   7
ENDBRANCH   4   5
ENDBRANCH   3   4
ENDBRANCH   2   3
ENDBRANCH   1   2
BRANCH   1  25
ATOM     25  C   UNL A   1      32.457  28.363  25.534  1.00  0.00     0.202 C 
BRANCH  25  26
ATOM     26  C   UNL A   1      33.636  29.266  25.893  1.00  0.00     0.261 C 
BRANCH  26  27
ATOM     27  O   UNL A   1      34.233  28.991  27.161  1.00  0.00    -0.460 OA
BRANCH  27  28
ATOM     28  C   UNL A   1      34.459  30.123  27.870  1.00  0.00     0.338 C 
ATOM     29  O   UNL A   1      33.725  31.093  27.940  1.00  0.00    -0.246 OA
BRANCH  28  30
ATOM     30  C   UNL A   1      35.819  30.145  28.415  1.00  0.00     0.060 A 
ATOM     31  C   UNL A   1      36.835  30.304  27.470  1.00  0.00     0.016 A 
ATOM     32  C   UNL A   1      36.083  29.704  29.719  1.00  0.00     0.016 A 
ATOM     33  C   UNL A   1      38.096  29.850  27.777  1.00  0.00     0.010 A 
ATOM     34  C   UNL A   1      37.349  29.230  30.020  1.00  0.00     0.010 A 
ATOM     35  C   UNL A   1      38.334  29.262  29.029  1.00  0.00    -0.014 A 
BRANCH  35  36
ATOM     36  C   UNL A   1      39.737  28.926  29.312  1.00  0.00     0.031 A 
ATOM     37  C   UNL A   1      40.412  30.221  29.834  1.00  0.00     0.074 A 
ATOM     38  C   UNL A   1      40.166  27.682  28.899  1.00  0.00     0.049 A 
ATOM     39  N   UNL A   1      41.507  30.797  29.454  1.00  0.00    -0.248 NA
ATOM     40  C   UNL A   1      39.669  31.106  30.784  1.00  0.00     0.031 C 
ATOM     41  C   UNL A   1      39.286  26.548  28.510  1.00  0.00     0.029 A 
ATOM     42  N   UNL A   1      41.406  27.098  28.717  1.00  0.00    -0.354 N 
ATOM     43  C   UNL A   1      41.717  31.911  30.302  1.00  0.00     0.074 A 
ATOM     44  C   UNL A   1      40.466  32.167  30.937  1.00  0.00     0.031 C 
ATOM     45  C   UNL A   1      40.006  25.486  28.061  1.00  0.00     0.029 A 
ATOM     46  C   UNL A   1      41.422  25.801  28.098  1.00  0.00     0.049 A 
ATOM     47  H   UNL A   1      42.236  27.548  28.996  1.00  0.00     0.167 HD
ATOM     48  C   UNL A   1      42.966  32.393  30.585  1.00  0.00     0.037 A 
ATOM     49  C   UNL A   1      42.502  25.086  27.612  1.00  0.00     0.037 A 
ATOM     50  C   UNL A   1      43.921  31.608  29.876  1.00  0.00     0.049 A 
ATOM     51  C   UNL A   1      43.645  25.907  28.022  1.00  0.00     0.074 A 
ATOM     52  C   UNL A   1      44.199  31.487  28.540  1.00  0.00     0.029 A 
ATOM     53  N   UNL A   1      44.392  30.504  30.550  1.00  0.00    -0.354 N 
ATOM     54  N   UNL A   1      44.099  25.990  29.235  1.00  0.00    -0.248 NA
ATOM     55  C   UNL A   1      44.246  26.802  27.023  1.00  0.00     0.031 C 
ATOM     56  C   UNL A   1      44.333  30.094  28.387  1.00  0.00     0.029 A 
ATOM     57  C   UNL A   1      44.478  29.485  29.641  1.00  0.00     0.049 A 
ATOM     58  H   UNL A   1      44.623  30.457  31.505  1.00  0.00     0.167 HD
ATOM     59  C   UNL A   1      44.780  27.178  29.197  1.00  0.00     0.074 A 
ATOM     60  C   UNL A   1      45.121  27.421  27.809  1.00  0.00     0.031 C 
ATOM     61  C   UNL A   1      44.516  28.128  30.131  1.00  0.00     0.037 A 
BRANCH  48  62
ATOM     62  C   UNL A   1      43.517  33.264  31.687  1.00  0.00     0.058 A 
ATOM     63  C   UNL A   1      43.325  32.813  33.021  1.00  0.00     0.135 A 
ATOM     64  C   UNL A   1      43.851  34.616  31.539  1.00  0.00     0.135 A 
ATOM     65  F   UNL A   1      43.083  31.517  33.283  1.00  0.00    -0.206 F 
ATOM     66  C   UNL A   1      43.282  33.677  34.106  1.00  0.00     0.059 A 
ATOM     67  C   UNL A   1      43.868  35.495  32.628  1.00  0.00     0.059 A 
ATOM     68  F   UNL A   1      44.096  35.147  30.335  1.00  0.00    -0.206 F 
ATOM     69  C   UNL A   1      43.523  35.026  33.894  1.00  0.00     0.060 A 
BRANCH  69  70
ATOM     70  S   UNL A   1      43.365  36.145  35.300  1.00  0.00     0.124 S 
ATOM     71  O   UNL A   1      42.809  37.337  34.673  1.00  0.00    -0.237 OA
ATOM     72  O   UNL A   1      42.456  35.407  36.174  1.00  0.00    -0.237 OA
ATOM     73  O   UNL A   1      44.734  36.260  35.791  1.00  0.00    -0.744 OA
ENDBRANCH  69  70
ENDBRANCH  48  62
BRANCH  49  74
ATOM     74  C   UNL A   1      42.886  23.865  26.760  1.00  0.00     0.058 A 
ATOM     75  C   UNL A   1      43.327  23.847  25.431  1.00  0.00     0.135 A 
ATOM     76  C   UNL A   1      42.880  22.559  27.359  1.00  0.00     0.135 A 
ATOM     77  F   UNL A   1      43.250  24.953  24.678  1.00  0.00    -0.206 F 
ATOM     78  C   UNL A   1      43.863  22.678  24.818  1.00  0.00     0.059 A 
ATOM     79  C   UNL A   1      43.455  21.417  26.806  1.00  0.00     0.059 A 
ATOM     80  F   UNL A   1      42.313  22.321  28.548  1.00  0.00    -0.206 F 
ATOM     81  C   UNL A   1      43.981  21.485  25.538  1.00  0.00     0.060 A 
BRANCH  81  82
ATOM     82  S   UNL A   1      44.917  20.063  24.913  1.00  0.00     0.124 S 
ATOM     83  O   UNL A   1      46.280  20.379  25.324  1.00  0.00    -0.237 OA
ATOM     84  O   UNL A   1      44.283  18.944  25.603  1.00  0.00    -0.237 OA
ATOM     85  O   UNL A   1      44.673  20.106  23.472  1.00  0.00    -0.744 OA
ENDBRANCH  81  82
ENDBRANCH  49  74
BRANCH  61  86
ATOM     86  C   UNL A   1      43.970  27.617  31.458  1.00  0.00     0.058 A 
ATOM     87  C   UNL A   1      44.716  26.692  32.209  1.00  0.00     0.135 A 
ATOM     88  C   UNL A   1      42.707  27.942  31.986  1.00  0.00     0.135 A 
ATOM     89  F   UNL A   1      45.939  26.329  31.790  1.00  0.00    -0.206 F 
ATOM     90  C   UNL A   1      44.243  26.133  33.401  1.00  0.00     0.059 A 
ATOM     91  C   UNL A   1      42.203  27.395  33.174  1.00  0.00     0.059 A 
ATOM     92  F   UNL A   1      41.920  28.815  31.359  1.00  0.00    -0.206 F 
ATOM     93  C   UNL A   1      42.984  26.492  33.882  1.00  0.00     0.060 A 
BRANCH  93  94
ATOM     94  S   UNL A   1      42.413  25.794  35.450  1.00  0.00     0.124 S 
ATOM     95  O   UNL A   1      42.854  24.405  35.358  1.00  0.00    -0.237 OA
ATOM     96  O   UNL A   1      43.120  26.617  36.425  1.00  0.00    -0.237 OA
ATOM     97  O   UNL A   1      40.964  25.985  35.408  1.00  0.00    -0.744 OA
ENDBRANCH  93  94
ENDBRANCH  61  86
ENDBRANCH  35  36
ENDBRANCH  28  30
ENDBRANCH  27  28
ENDBRANCH  26  27
ENDBRANCH  25  26
ENDBRANCH   1  25
TORSDOF 20
ENDMDL
