MODEL 1
REMARK VINA RESULT:     -13.0      0.000      0.000
REMARK SMILES Cc1ccc(C(=O)OCCOCCOC(=O)c2ccc(-c3c4nc(c(-c5c(F)cc(S(=O)(=O)[O-])cc5F)c5ccc([nH]5)c(-c5c(F)cc(S(=O)(=O)[O-])cc5F)c5nc(c(-c6c(F)cc(S(=O)(=O)[O-])cc6F)c6ccc3[nH]6)C=C5)C=C4)cc2)cc1NC(=O)c1nn(C)c(=O)c2ccccc12
REMARK SMILES IDX 12 1 11 2 10 3 9 4 8 5 6 6 7 7 5 8 1 9 2 10 3 11 84 12 4 13
REMARK SMILES IDX 83 14 85 15 86 16 87 18 88 19 89 20 99 21 90 22 94 23 98 24
REMARK SMILES IDX 91 25 92 26 95 27 97 28 93 29 96 30 13 31 14 32 15 33 16 34
REMARK SMILES IDX 17 35 18 36 82 37 19 38 81 39 20 40 21 41 22 42 75 43 23 44
REMARK SMILES IDX 80 45 74 46 76 47 24 48 79 49 73 50 72 51 25 53 59 54 38 55
REMARK SMILES IDX 58 56 39 57 42 58 57 59 77 60 40 61 41 62 56 64 78 65 43 66
REMARK SMILES IDX 26 67 27 68 36 69 28 70 29 71 35 72 37 73 30 74 31 75 32 76
REMARK SMILES IDX 33 77 34 78 60 79 61 80 70 81 62 82 63 83 69 84 71 85 64 86
REMARK SMILES IDX 65 87 66 88 67 89 68 90 44 91 45 92 54 93 46 94 47 95 53 96
REMARK SMILES IDX 55 97 48 98 49 99 50 100 51 101 52 102
REMARK H PARENT 85 17 76 52 42 63
REMARK Flexibility Score: inf
ROOT
ATOM      1  C   UNL A   1      31.778  27.915  27.605  1.00  0.00     0.202 C 
ENDROOT
BRANCH   1   2
ATOM      2  O   UNL A   1      30.762  27.058  27.141  1.00  0.00    -0.374 OA
BRANCH   2   3
ATOM      3  C   UNL A   1      31.150  26.176  26.103  1.00  0.00     0.202 C 
BRANCH   3   4
ATOM      4  C   UNL A   1      29.893  25.524  25.649  1.00  0.00     0.261 C 
BRANCH   4   5
ATOM      5  O   UNL A   1      29.727  25.617  24.232  1.00  0.00    -0.460 OA
BRANCH   5   6
ATOM      6  C   UNL A   1      29.152  26.693  23.607  1.00  0.00     0.338 C 
ATOM      7  O   UNL A   1      28.088  27.206  23.760  1.00  0.00    -0.246 OA
BRANCH   6   8
ATOM      8  C   UNL A   1      30.282  27.208  22.795  1.00  0.00     0.062 A 
ATOM      9  C   UNL A   1      34.264  28.641  22.799  1.00  0.00     0.046 C 
ATOM     10  C   UNL A   1      32.894  28.035  22.702  1.00  0.00    -0.027 A 
ATOM     11  C   UNL A   1      31.836  28.981  22.818  1.00  0.00     0.006 A 
ATOM     12  C   UNL A   1      32.613  26.655  22.504  1.00  0.00     0.045 A 
ATOM     13  C   UNL A   1      30.521  28.567  22.906  1.00  0.00     0.016 A 
ATOM     14  C   UNL A   1      31.279  26.294  22.405  1.00  0.00     0.042 A 
BRANCH  12  15
ATOM     15  N   UNL A   1      33.567  25.600  22.723  1.00  0.00    -0.320 N 
ATOM     16  C   UNL A   1      33.509  24.298  22.150  1.00  0.00     0.276 C 
ATOM     17  H   UNL A   1      34.324  25.794  23.321  1.00  0.00     0.170 HD
ATOM     18  O   UNL A   1      33.335  24.050  20.967  1.00  0.00    -0.267 OA
BRANCH  16  19
ATOM     19  C   UNL A   1      33.546  23.152  23.212  1.00  0.00     0.157 A 
ATOM     20  N   UNL A   1      32.398  22.533  23.264  1.00  0.00    -0.164 NA
ATOM     21  C   UNL A   1      34.780  22.598  23.904  1.00  0.00     0.020 A 
ATOM     22  N   UNL A   1      32.382  21.259  23.756  1.00  0.00    -0.232 N 
ATOM     23  C   UNL A   1      34.597  21.406  24.628  1.00  0.00     0.051 A 
ATOM     24  C   UNL A   1      36.101  23.048  23.757  1.00  0.00     0.011 A 
ATOM     25  C   UNL A   1      32.145  20.278  22.708  1.00  0.00     0.178 C 
ATOM     26  C   UNL A   1      33.249  20.835  24.749  1.00  0.00     0.274 A 
ATOM     27  C   UNL A   1      35.674  20.607  25.060  1.00  0.00     0.014 A 
ATOM     28  C   UNL A   1      37.189  22.246  24.190  1.00  0.00     0.001 A 
ATOM     29  O   UNL A   1      32.997  19.953  25.563  1.00  0.00    -0.267 OA
ATOM     30  C   UNL A   1      36.975  21.013  24.808  1.00  0.00     0.001 A 
ENDBRANCH  16  19
ENDBRANCH  12  15
ENDBRANCH   6   8
ENDBRANCH   5   6
ENDBRANCH   4   5
ENDBRANCH   3   4
ENDBRANCH   2   3
ENDBRANCH   1   2
BRANCH   1  31
ATOM     31  C   UNL A   1      32.914  28.101  26.592  1.00  0.00     0.261 C 
BRANCH  31  32
ATOM     32  O   UNL A   1      34.137  28.419  27.288  1.00  0.00    -0.460 OA
BRANCH  32  33
ATOM     33  C   UNL A   1      34.379  29.747  27.507  1.00  0.00     0.338 C 
ATOM     34  O   UNL A   1      33.560  30.625  27.299  1.00  0.00    -0.246 OA
BRANCH  33  35
ATOM     35  C   UNL A   1      35.774  29.942  28.008  1.00  0.00     0.060 A 
ATOM     36  C   UNL A   1      36.860  30.074  27.124  1.00  0.00     0.016 A 
ATOM     37  C   UNL A   1      36.019  29.798  29.373  1.00  0.00     0.016 A 
ATOM     38  C   UNL A   1      38.181  29.925  27.591  1.00  0.00     0.010 A 
ATOM     39  C   UNL A   1      37.309  29.577  29.816  1.00  0.00     0.010 A 
ATOM     40  C   UNL A   1      38.398  29.603  28.929  1.00  0.00    -0.014 A 
BRANCH  40  41
ATOM     41  C   UNL A   1      39.662  29.169  29.534  1.00  0.00     0.031 A 
ATOM     42  C   UNL A   1      40.154  27.811  29.273  1.00  0.00     0.074 A 
ATOM     43  C   UNL A   1      40.537  30.076  30.022  1.00  0.00     0.049 A 
ATOM     44  N   UNL A   1      41.195  27.301  29.835  1.00  0.00    -0.248 NA
ATOM     45  C   UNL A   1      39.475  26.875  28.381  1.00  0.00     0.031 C 
ATOM     46  C   UNL A   1      41.996  30.023  30.123  1.00  0.00     0.029 A 
ATOM     47  N   UNL A   1      40.234  31.250  30.686  1.00  0.00    -0.354 N 
ATOM     48  C   UNL A   1      41.570  26.248  29.040  1.00  0.00     0.074 A 
ATOM     49  C   UNL A   1      40.363  25.878  28.350  1.00  0.00     0.031 C 
ATOM     50  C   UNL A   1      42.411  30.893  31.060  1.00  0.00     0.029 A 
ATOM     51  C   UNL A   1      41.208  31.426  31.667  1.00  0.00     0.049 A 
ATOM     52  H   UNL A   1      39.475  31.849  30.501  1.00  0.00     0.167 HD
ATOM     53  C   UNL A   1      42.903  26.000  28.891  1.00  0.00     0.037 A 
ATOM     54  C   UNL A   1      40.842  31.491  32.970  1.00  0.00     0.037 A 
ATOM     55  C   UNL A   1      43.695  26.771  29.867  1.00  0.00     0.049 A 
ATOM     56  C   UNL A   1      41.667  30.501  33.696  1.00  0.00     0.074 A 
ATOM     57  C   UNL A   1      44.641  27.777  29.759  1.00  0.00     0.029 A 
ATOM     58  N   UNL A   1      43.363  26.699  31.220  1.00  0.00    -0.354 N 
ATOM     59  N   UNL A   1      41.962  29.347  33.162  1.00  0.00    -0.248 NA
ATOM     60  C   UNL A   1      42.433  30.811  34.900  1.00  0.00     0.031 C 
ATOM     61  C   UNL A   1      44.815  28.356  31.052  1.00  0.00     0.029 A 
ATOM     62  C   UNL A   1      43.985  27.692  31.945  1.00  0.00     0.049 A 
ATOM     63  H   UNL A   1      42.759  26.025  31.608  1.00  0.00     0.167 HD
ATOM     64  C   UNL A   1      43.040  28.853  33.827  1.00  0.00     0.074 A 
ATOM     65  C   UNL A   1      43.259  29.751  34.949  1.00  0.00     0.031 C 
ATOM     66  C   UNL A   1      43.772  27.802  33.378  1.00  0.00     0.037 A 
BRANCH  53  67
ATOM     67  C   UNL A   1      43.530  25.243  27.726  1.00  0.00     0.058 A 
ATOM     68  C   UNL A   1      44.281  24.070  27.971  1.00  0.00     0.135 A 
ATOM     69  C   UNL A   1      43.512  25.636  26.368  1.00  0.00     0.135 A 
ATOM     70  F   UNL A   1      44.410  23.566  29.206  1.00  0.00    -0.206 F 
ATOM     71  C   UNL A   1      44.945  23.359  26.967  1.00  0.00     0.059 A 
ATOM     72  C   UNL A   1      44.127  24.916  25.342  1.00  0.00     0.059 A 
ATOM     73  F   UNL A   1      42.938  26.764  25.943  1.00  0.00    -0.206 F 
ATOM     74  C   UNL A   1      44.850  23.779  25.649  1.00  0.00     0.060 A 
BRANCH  74  75
ATOM     75  S   UNL A   1      45.654  22.826  24.354  1.00  0.00     0.124 S 
ATOM     76  O   UNL A   1      46.246  21.727  25.110  1.00  0.00    -0.237 OA
ATOM     77  O   UNL A   1      44.533  22.475  23.491  1.00  0.00    -0.237 OA
ATOM     78  O   UNL A   1      46.610  23.769  23.778  1.00  0.00    -0.744 OA
ENDBRANCH  74  75
ENDBRANCH  53  67
BRANCH  54  79
ATOM     79  C   UNL A   1      39.419  31.916  33.105  1.00  0.00     0.058 A 
ATOM     80  C   UNL A   1      39.204  33.291  32.871  1.00  0.00     0.135 A 
ATOM     81  C   UNL A   1      38.283  31.104  33.023  1.00  0.00     0.135 A 
ATOM     82  F   UNL A   1      40.260  34.104  32.697  1.00  0.00    -0.206 F 
ATOM     83  C   UNL A   1      37.968  33.843  32.602  1.00  0.00     0.059 A 
ATOM     84  C   UNL A   1      37.016  31.637  32.694  1.00  0.00     0.059 A 
ATOM     85  F   UNL A   1      38.399  29.772  33.126  1.00  0.00    -0.206 F 
ATOM     86  C   UNL A   1      36.878  33.010  32.475  1.00  0.00     0.060 A 
BRANCH  86  87
ATOM     87  S   UNL A   1      35.392  33.788  31.810  1.00  0.00     0.124 S 
ATOM     88  O   UNL A   1      35.343  35.022  32.587  1.00  0.00    -0.237 OA
ATOM     89  O   UNL A   1      35.752  33.949  30.400  1.00  0.00    -0.237 OA
ATOM     90  O   UNL A   1      34.350  32.808  32.086  1.00  0.00    -0.744 OA
ENDBRANCH  86  87
ENDBRANCH  54  79
BRANCH  66  91
ATOM     91  C   UNL A   1      44.279  26.767  34.331  1.00  0.00     0.058 A 
ATOM     92  C   UNL A   1      45.601  26.771  34.818  1.00  0.00     0.135 A 
ATOM     93  C   UNL A   1      43.391  25.864  34.951  1.00  0.00     0.135 A 
ATOM     94  F   UNL A   1      46.512  27.663  34.402  1.00  0.00    -0.206 F 
ATOM     95  C   UNL A   1      46.036  25.883  35.787  1.00  0.00     0.059 A 
ATOM     96  C   UNL A   1      43.793  25.006  35.966  1.00  0.00     0.059 A 
ATOM     97  F   UNL A   1      42.094  25.808  34.612  1.00  0.00    -0.206 F 
ATOM     98  C   UNL A   1      45.127  24.997  36.349  1.00  0.00     0.060 A 
BRANCH  98  99
ATOM     99  S   UNL A   1      45.718  23.837  37.582  1.00  0.00     0.124 S 
ATOM    100  O   UNL A   1      45.404  22.563  36.943  1.00  0.00    -0.237 OA
ATOM    101  O   UNL A   1      47.140  24.165  37.670  1.00  0.00    -0.237 OA
ATOM    102  O   UNL A   1      44.929  24.166  38.763  1.00  0.00    -0.744 OA
ENDBRANCH  98  99
ENDBRANCH  66  91
ENDBRANCH  40  41
ENDBRANCH  33  35
ENDBRANCH  32  33
ENDBRANCH  31  32
ENDBRANCH   1  31
TORSDOF 19
ENDMDL
MODEL 2
REMARK VINA RESULT:     -12.7      3.639      9.683
REMARK SMILES Cc1ccc(C(=O)OCCOCCOC(=O)c2ccc(-c3c4nc(c(-c5c(F)cc(S(=O)(=O)[O-])cc5F)c5ccc([nH]5)c(-c5c(F)cc(S(=O)(=O)[O-])cc5F)c5nc(c(-c6c(F)cc(S(=O)(=O)[O-])cc6F)c6ccc3[nH]6)C=C5)C=C4)cc2)cc1NC(=O)c1nn(C)c(=O)c2ccccc12
REMARK SMILES IDX 12 1 11 2 10 3 9 4 8 5 6 6 7 7 5 8 1 9 2 10 3 11 84 12 4 13
REMARK SMILES IDX 83 14 85 15 86 16 87 18 88 19 89 20 99 21 90 22 94 23 98 24
REMARK SMILES IDX 91 25 92 26 95 27 97 28 93 29 96 30 13 31 14 32 15 33 16 34
REMARK SMILES IDX 17 35 18 36 82 37 19 38 81 39 20 40 21 41 22 42 75 43 23 44
REMARK SMILES IDX 80 45 74 46 76 47 24 48 79 49 73 50 72 51 25 53 59 54 38 55
REMARK SMILES IDX 58 56 39 57 42 58 57 59 77 60 40 61 41 62 56 64 78 65 43 66
REMARK SMILES IDX 26 67 27 68 36 69 28 70 29 71 35 72 37 73 30 74 31 75 32 76
REMARK SMILES IDX 33 77 34 78 60 79 61 80 70 81 62 82 63 83 69 84 71 85 64 86
REMARK SMILES IDX 65 87 66 88 67 89 68 90 44 91 45 92 54 93 46 94 47 95 53 96
REMARK SMILES IDX 55 97 48 98 49 99 50 100 51 101 52 102
REMARK H PARENT 85 17 76 52 42 63
REMARK Flexibility Score: inf
ROOT
ATOM      1  C   UNL A   1      36.641  22.253  23.839  1.00  0.00     0.202 C 
ENDROOT
BRANCH   1   2
ATOM      2  O   UNL A   1      36.112  23.453  24.351  1.00  0.00    -0.374 OA
BRANCH   2   3
ATOM      3  C   UNL A   1      34.875  23.851  23.788  1.00  0.00     0.202 C 
BRANCH   3   4
ATOM      4  C   UNL A   1      34.500  22.760  22.848  1.00  0.00     0.261 C 
BRANCH   4   5
ATOM      5  O   UNL A   1      33.087  22.698  22.643  1.00  0.00    -0.460 OA
BRANCH   5   6
ATOM      6  C   UNL A   1      32.352  21.550  22.788  1.00  0.00     0.338 C 
ATOM      7  O   UNL A   1      32.038  20.719  21.995  1.00  0.00    -0.246 OA
BRANCH   6   8
ATOM      8  C   UNL A   1      32.190  21.482  24.262  1.00  0.00     0.062 A 
ATOM      9  C   UNL A   1      33.769  22.564  28.037  1.00  0.00     0.046 C 
ATOM     10  C   UNL A   1      33.087  22.243  26.739  1.00  0.00    -0.027 A 
ATOM     11  C   UNL A   1      33.474  20.992  26.178  1.00  0.00     0.006 A 
ATOM     12  C   UNL A   1      32.129  23.065  26.083  1.00  0.00     0.045 A 
ATOM     13  C   UNL A   1      33.057  20.622  24.914  1.00  0.00     0.016 A 
ATOM     14  C   UNL A   1      31.584  22.577  24.907  1.00  0.00     0.042 A 
BRANCH  12  15
ATOM     15  N   UNL A   1      31.938  24.462  26.368  1.00  0.00    -0.320 N 
ATOM     16  C   UNL A   1      30.721  25.183  26.203  1.00  0.00     0.276 C 
ATOM     17  H   UNL A   1      32.715  24.964  26.706  1.00  0.00     0.170 HD
ATOM     18  O   UNL A   1      29.627  24.833  26.616  1.00  0.00    -0.267 OA
BRANCH  16  19
ATOM     19  C   UNL A   1      30.868  26.446  25.295  1.00  0.00     0.157 A 
ATOM     20  N   UNL A   1      30.221  26.285  24.173  1.00  0.00    -0.164 NA
ATOM     21  C   UNL A   1      31.418  27.801  25.708  1.00  0.00     0.020 A 
ATOM     22  N   UNL A   1      29.845  27.405  23.487  1.00  0.00    -0.232 N 
ATOM     23  C   UNL A   1      31.218  28.851  24.794  1.00  0.00     0.051 A 
ATOM     24  C   UNL A   1      31.942  28.149  26.963  1.00  0.00     0.011 A 
ATOM     25  C   UNL A   1      28.407  27.618  23.550  1.00  0.00     0.178 C 
ATOM     26  C   UNL A   1      30.596  28.568  23.494  1.00  0.00     0.274 A 
ATOM     27  C   UNL A   1      31.382  30.205  25.146  1.00  0.00     0.014 A 
ATOM     28  C   UNL A   1      32.109  29.512  27.321  1.00  0.00     0.001 A 
ATOM     29  O   UNL A   1      30.627  29.381  22.578  1.00  0.00    -0.267 OA
ATOM     30  C   UNL A   1      31.796  30.537  26.427  1.00  0.00     0.001 A 
ENDBRANCH  16  19
ENDBRANCH  12  15
ENDBRANCH   6   8
ENDBRANCH   5   6
ENDBRANCH   4   5
ENDBRANCH   3   4
ENDBRANCH   2   3
ENDBRANCH   1   2
BRANCH   1  31
ATOM     31  C   UNL A   1      37.491  21.489  24.860  1.00  0.00     0.261 C 
BRANCH  31  32
ATOM     32  O   UNL A   1      37.665  22.293  26.046  1.00  0.00    -0.460 OA
BRANCH  32  33
ATOM     33  C   UNL A   1      38.951  22.457  26.480  1.00  0.00     0.338 C 
ATOM     34  O   UNL A   1      39.737  21.538  26.621  1.00  0.00    -0.246 OA
BRANCH  33  35
ATOM     35  C   UNL A   1      39.220  23.900  26.763  1.00  0.00     0.060 A 
ATOM     36  C   UNL A   1      39.933  24.706  25.857  1.00  0.00     0.016 A 
ATOM     37  C   UNL A   1      38.924  24.398  28.031  1.00  0.00     0.016 A 
ATOM     38  C   UNL A   1      40.462  25.945  26.269  1.00  0.00     0.010 A 
ATOM     39  C   UNL A   1      39.506  25.577  28.456  1.00  0.00     0.010 A 
ATOM     40  C   UNL A   1      40.307  26.345  27.595  1.00  0.00    -0.014 A 
BRANCH  40  41
ATOM     41  C   UNL A   1      40.989  27.460  28.261  1.00  0.00     0.031 A 
ATOM     42  C   UNL A   1      40.279  28.732  28.442  1.00  0.00     0.074 A 
ATOM     43  C   UNL A   1      42.095  27.241  29.007  1.00  0.00     0.049 A 
ATOM     44  N   UNL A   1      40.820  29.798  28.920  1.00  0.00    -0.248 NA
ATOM     45  C   UNL A   1      38.888  28.931  28.044  1.00  0.00     0.031 C 
ATOM     46  C   UNL A   1      42.605  27.961  30.175  1.00  0.00     0.029 A 
ATOM     47  N   UNL A   1      43.107  26.336  28.748  1.00  0.00    -0.354 N 
ATOM     48  C   UNL A   1      39.780  30.592  29.334  1.00  0.00     0.074 A 
ATOM     49  C   UNL A   1      38.662  30.149  28.545  1.00  0.00     0.031 C 
ATOM     50  C   UNL A   1      43.920  27.714  30.312  1.00  0.00     0.029 A 
ATOM     51  C   UNL A   1      44.300  26.932  29.153  1.00  0.00     0.049 A 
ATOM     52  H   UNL A   1      43.005  25.439  28.353  1.00  0.00     0.167 HD
ATOM     53  C   UNL A   1      39.953  31.339  30.462  1.00  0.00     0.037 A 
ATOM     54  C   UNL A   1      45.288  27.134  28.248  1.00  0.00     0.037 A 
ATOM     55  C   UNL A   1      41.369  31.354  30.873  1.00  0.00     0.049 A 
ATOM     56  C   UNL A   1      45.668  28.560  28.342  1.00  0.00     0.074 A 
ATOM     57  C   UNL A   1      42.055  30.892  31.984  1.00  0.00     0.029 A 
ATOM     58  N   UNL A   1      42.344  31.702  29.937  1.00  0.00    -0.354 N 
ATOM     59  N   UNL A   1      44.770  29.487  28.539  1.00  0.00    -0.248 NA
ATOM     60  C   UNL A   1      47.044  29.024  28.502  1.00  0.00     0.031 C 
ATOM     61  C   UNL A   1      43.447  30.898  31.675  1.00  0.00     0.029 A 
ATOM     62  C   UNL A   1      43.607  31.376  30.381  1.00  0.00     0.049 A 
ATOM     63  H   UNL A   1      42.154  32.126  29.069  1.00  0.00     0.167 HD
ATOM     64  C   UNL A   1      45.415  30.589  29.004  1.00  0.00     0.074 A 
ATOM     65  C   UNL A   1      46.834  30.292  28.897  1.00  0.00     0.031 C 
ATOM     66  C   UNL A   1      44.772  31.649  29.556  1.00  0.00     0.037 A 
BRANCH  53  67
ATOM     67  C   UNL A   1      38.829  31.876  31.339  1.00  0.00     0.058 A 
ATOM     68  C   UNL A   1      38.645  33.272  31.473  1.00  0.00     0.135 A 
ATOM     69  C   UNL A   1      37.949  31.106  32.136  1.00  0.00     0.135 A 
ATOM     70  F   UNL A   1      39.405  34.146  30.797  1.00  0.00    -0.206 F 
ATOM     71  C   UNL A   1      37.684  33.844  32.312  1.00  0.00     0.059 A 
ATOM     72  C   UNL A   1      36.950  31.654  32.942  1.00  0.00     0.059 A 
ATOM     73  F   UNL A   1      38.021  29.776  32.223  1.00  0.00    -0.206 F 
ATOM     74  C   UNL A   1      36.827  33.027  33.033  1.00  0.00     0.060 A 
BRANCH  74  75
ATOM     75  S   UNL A   1      35.553  33.768  34.062  1.00  0.00     0.124 S 
ATOM     76  O   UNL A   1      34.346  33.113  33.570  1.00  0.00    -0.237 OA
ATOM     77  O   UNL A   1      35.983  33.388  35.403  1.00  0.00    -0.237 OA
ATOM     78  O   UNL A   1      35.654  35.193  33.759  1.00  0.00    -0.744 OA
ENDBRANCH  74  75
ENDBRANCH  53  67
BRANCH  54  79
ATOM     79  C   UNL A   1      45.161  26.194  27.098  1.00  0.00     0.058 A 
ATOM     80  C   UNL A   1      45.722  24.921  27.330  1.00  0.00     0.135 A 
ATOM     81  C   UNL A   1      44.244  26.268  26.044  1.00  0.00     0.135 A 
ATOM     82  F   UNL A   1      46.424  24.703  28.455  1.00  0.00    -0.206 F 
ATOM     83  C   UNL A   1      45.434  23.802  26.576  1.00  0.00     0.059 A 
ATOM     84  C   UNL A   1      43.889  25.124  25.292  1.00  0.00     0.059 A 
ATOM     85  F   UNL A   1      43.577  27.407  25.810  1.00  0.00    -0.206 F 
ATOM     86  C   UNL A   1      44.486  23.894  25.579  1.00  0.00     0.060 A 
BRANCH  86  87
ATOM     87  S   UNL A   1      43.955  22.319  24.878  1.00  0.00     0.124 S 
ATOM     88  O   UNL A   1      44.805  21.382  25.604  1.00  0.00    -0.237 OA
ATOM     89  O   UNL A   1      42.538  22.297  25.247  1.00  0.00    -0.237 OA
ATOM     90  O   UNL A   1      44.232  22.476  23.456  1.00  0.00    -0.744 OA
ENDBRANCH  86  87
ENDBRANCH  54  79
BRANCH  66  91
ATOM     91  C   UNL A   1      45.218  33.045  29.263  1.00  0.00     0.058 A 
ATOM     92  C   UNL A   1      44.747  33.773  28.152  1.00  0.00     0.135 A 
ATOM     93  C   UNL A   1      45.969  33.773  30.209  1.00  0.00     0.135 A 
ATOM     94  F   UNL A   1      43.921  33.232  27.243  1.00  0.00    -0.206 F 
ATOM     95  C   UNL A   1      45.071  35.103  27.946  1.00  0.00     0.059 A 
ATOM     96  C   UNL A   1      46.255  35.124  30.051  1.00  0.00     0.059 A 
ATOM     97  F   UNL A   1      46.423  33.204  31.336  1.00  0.00    -0.206 F 
ATOM     98  C   UNL A   1      45.834  35.768  28.896  1.00  0.00     0.060 A 
BRANCH  98  99
ATOM     99  S   UNL A   1      46.264  37.482  28.595  1.00  0.00     0.124 S 
ATOM    100  O   UNL A   1      47.390  37.332  27.678  1.00  0.00    -0.237 OA
ATOM    101  O   UNL A   1      45.039  38.019  28.008  1.00  0.00    -0.237 OA
ATOM    102  O   UNL A   1      46.591  37.989  29.923  1.00  0.00    -0.744 OA
ENDBRANCH  98  99
ENDBRANCH  66  91
ENDBRANCH  40  41
ENDBRANCH  33  35
ENDBRANCH  32  33
ENDBRANCH  31  32
ENDBRANCH   1  31
TORSDOF 19
ENDMDL
MODEL 3
REMARK VINA RESULT:     -12.2      1.232      3.560
REMARK SMILES Cc1ccc(C(=O)OCCOCCOC(=O)c2ccc(-c3c4nc(c(-c5c(F)cc(S(=O)(=O)[O-])cc5F)c5ccc([nH]5)c(-c5c(F)cc(S(=O)(=O)[O-])cc5F)c5nc(c(-c6c(F)cc(S(=O)(=O)[O-])cc6F)c6ccc3[nH]6)C=C5)C=C4)cc2)cc1NC(=O)c1nn(C)c(=O)c2ccccc12
REMARK SMILES IDX 12 1 11 2 10 3 9 4 8 5 6 6 7 7 5 8 1 9 2 10 3 11 84 12 4 13
REMARK SMILES IDX 83 14 85 15 86 16 87 18 88 19 89 20 99 21 90 22 94 23 98 24
REMARK SMILES IDX 91 25 92 26 95 27 97 28 93 29 96 30 13 31 14 32 15 33 16 34
REMARK SMILES IDX 17 35 18 36 82 37 19 38 81 39 20 40 21 41 22 42 75 43 23 44
REMARK SMILES IDX 80 45 74 46 76 47 24 48 79 49 73 50 72 51 25 53 59 54 38 55
REMARK SMILES IDX 58 56 39 57 42 58 57 59 77 60 40 61 41 62 56 64 78 65 43 66
REMARK SMILES IDX 26 67 27 68 36 69 28 70 29 71 35 72 37 73 30 74 31 75 32 76
REMARK SMILES IDX 33 77 34 78 60 79 61 80 70 81 62 82 63 83 69 84 71 85 64 86
REMARK SMILES IDX 65 87 66 88 67 89 68 90 44 91 45 92 54 93 46 94 47 95 53 96
REMARK SMILES IDX 55 97 48 98 49 99 50 100 51 101 52 102
REMARK H PARENT 85 17 76 52 42 63
REMARK Flexibility Score: inf
ROOT
ATOM      1  C   UNL A   1      34.096  28.596  25.936  1.00  0.00     0.202 C 
ENDROOT
BRANCH   1   2
ATOM      2  O   UNL A   1      33.564  27.403  26.459  1.00  0.00    -0.374 OA
BRANCH   2   3
ATOM      3  C   UNL A   1      33.476  26.331  25.537  1.00  0.00     0.202 C 
BRANCH   3   4
ATOM      4  C   UNL A   1      34.326  25.251  26.106  1.00  0.00     0.261 C 
BRANCH   4   5
ATOM      5  O   UNL A   1      35.348  24.842  25.193  1.00  0.00    -0.460 OA
BRANCH   5   6
ATOM      6  C   UNL A   1      36.317  23.924  25.505  1.00  0.00     0.338 C 
ATOM      7  O   UNL A   1      37.275  24.010  26.207  1.00  0.00    -0.246 OA
BRANCH   6   8
ATOM      8  C   UNL A   1      35.769  22.690  24.889  1.00  0.00     0.062 A 
ATOM      9  C   UNL A   1      32.510  19.998  24.680  1.00  0.00     0.046 C 
ATOM     10  C   UNL A   1      33.654  20.968  24.612  1.00  0.00    -0.027 A 
ATOM     11  C   UNL A   1      34.699  20.692  25.540  1.00  0.00     0.006 A 
ATOM     12  C   UNL A   1      33.749  22.073  23.721  1.00  0.00     0.045 A 
ATOM     13  C   UNL A   1      35.746  21.577  25.712  1.00  0.00     0.016 A 
ATOM     14  C   UNL A   1      34.904  22.835  23.787  1.00  0.00     0.042 A 
BRANCH  12  15
ATOM     15  N   UNL A   1      32.629  22.634  23.013  1.00  0.00    -0.320 N 
ATOM     16  C   UNL A   1      32.704  23.639  22.007  1.00  0.00     0.276 C 
ATOM     17  H   UNL A   1      31.734  22.296  23.244  1.00  0.00     0.170 HD
ATOM     18  O   UNL A   1      33.452  23.623  21.042  1.00  0.00    -0.267 OA
BRANCH  16  19
ATOM     19  C   UNL A   1      31.817  24.889  22.313  1.00  0.00     0.157 A 
ATOM     20  N   UNL A   1      30.716  24.536  22.919  1.00  0.00    -0.164 NA
ATOM     21  C   UNL A   1      32.238  26.345  22.213  1.00  0.00     0.020 A 
ATOM     22  N   UNL A   1      30.068  25.479  23.665  1.00  0.00    -0.232 N 
ATOM     23  C   UNL A   1      31.354  27.281  22.779  1.00  0.00     0.051 A 
ATOM     24  C   UNL A   1      33.480  26.834  21.778  1.00  0.00     0.011 A 
ATOM     25  C   UNL A   1      30.188  25.216  25.091  1.00  0.00     0.178 C 
ATOM     26  C   UNL A   1      30.072  26.823  23.329  1.00  0.00     0.274 A 
ATOM     27  C   UNL A   1      31.728  28.613  23.046  1.00  0.00     0.014 A 
ATOM     28  C   UNL A   1      33.860  28.175  22.046  1.00  0.00     0.001 A 
ATOM     29  O   UNL A   1      29.172  27.610  23.601  1.00  0.00    -0.267 OA
ATOM     30  C   UNL A   1      33.000  29.051  22.710  1.00  0.00     0.001 A 
ENDBRANCH  16  19
ENDBRANCH  12  15
ENDBRANCH   6   8
ENDBRANCH   5   6
ENDBRANCH   4   5
ENDBRANCH   3   4
ENDBRANCH   2   3
ENDBRANCH   1   2
BRANCH   1  31
ATOM     31  C   UNL A   1      33.194  29.812  26.179  1.00  0.00     0.261 C 
BRANCH  31  32
ATOM     32  O   UNL A   1      33.444  30.347  27.496  1.00  0.00    -0.460 OA
BRANCH  32  33
ATOM     33  C   UNL A   1      34.581  31.092  27.637  1.00  0.00     0.338 C 
ATOM     34  O   UNL A   1      34.644  32.282  27.382  1.00  0.00    -0.246 OA
BRANCH  33  35
ATOM     35  C   UNL A   1      35.705  30.233  28.124  1.00  0.00     0.060 A 
ATOM     36  C   UNL A   1      35.687  29.660  29.408  1.00  0.00     0.016 A 
ATOM     37  C   UNL A   1      36.869  30.162  27.360  1.00  0.00     0.016 A 
ATOM     38  C   UNL A   1      36.870  29.142  29.972  1.00  0.00     0.010 A 
ATOM     39  C   UNL A   1      38.042  29.722  27.942  1.00  0.00     0.010 A 
ATOM     40  C   UNL A   1      38.064  29.241  29.261  1.00  0.00    -0.014 A 
BRANCH  40  41
ATOM     41  C   UNL A   1      39.415  28.992  29.775  1.00  0.00     0.031 A 
ATOM     42  C   UNL A   1      40.046  27.688  29.537  1.00  0.00     0.074 A 
ATOM     43  C   UNL A   1      40.210  30.021  30.144  1.00  0.00     0.049 A 
ATOM     44  N   UNL A   1      41.182  27.335  30.032  1.00  0.00    -0.248 NA
ATOM     45  C   UNL A   1      39.417  26.630  28.751  1.00  0.00     0.031 C 
ATOM     46  C   UNL A   1      41.668  30.144  30.123  1.00  0.00     0.029 A 
ATOM     47  N   UNL A   1      39.821  31.187  30.776  1.00  0.00    -0.354 N 
ATOM     48  C   UNL A   1      41.618  26.290  29.258  1.00  0.00     0.074 A 
ATOM     49  C   UNL A   1      40.414  25.743  28.691  1.00  0.00     0.031 C 
ATOM     50  C   UNL A   1      42.047  31.108  30.980  1.00  0.00     0.029 A 
ATOM     51  C   UNL A   1      40.841  31.531  31.662  1.00  0.00     0.049 A 
ATOM     52  H   UNL A   1      38.982  31.682  30.628  1.00  0.00     0.167 HD
ATOM     53  C   UNL A   1      42.956  26.192  29.007  1.00  0.00     0.037 A 
ATOM     54  C   UNL A   1      40.573  31.626  32.986  1.00  0.00     0.037 A 
ATOM     55  C   UNL A   1      43.723  27.103  29.875  1.00  0.00     0.049 A 
ATOM     56  C   UNL A   1      41.567  30.782  33.685  1.00  0.00     0.074 A 
ATOM     57  C   UNL A   1      44.529  28.206  29.640  1.00  0.00     0.029 A 
ATOM     58  N   UNL A   1      43.510  27.070  31.253  1.00  0.00    -0.354 N 
ATOM     59  N   UNL A   1      41.957  29.642  33.182  1.00  0.00    -0.248 NA
ATOM     60  C   UNL A   1      42.383  31.246  34.804  1.00  0.00     0.031 C 
ATOM     61  C   UNL A   1      44.733  28.872  30.885  1.00  0.00     0.029 A 
ATOM     62  C   UNL A   1      44.062  28.168  31.875  1.00  0.00     0.049 A 
ATOM     63  H   UNL A   1      43.024  26.353  31.722  1.00  0.00     0.167 HD
ATOM     64  C   UNL A   1      43.135  29.315  33.775  1.00  0.00     0.074 A 
ATOM     65  C   UNL A   1      43.332  30.295  34.831  1.00  0.00     0.031 C 
ATOM     66  C   UNL A   1      43.951  28.333  33.315  1.00  0.00     0.037 A 
BRANCH  53  67
ATOM     67  C   UNL A   1      43.575  25.449  27.830  1.00  0.00     0.058 A 
ATOM     68  C   UNL A   1      43.742  24.046  27.891  1.00  0.00     0.135 A 
ATOM     69  C   UNL A   1      44.098  26.034  26.653  1.00  0.00     0.135 A 
ATOM     70  F   UNL A   1      43.313  23.335  28.944  1.00  0.00    -0.206 F 
ATOM     71  C   UNL A   1      44.364  23.300  26.885  1.00  0.00     0.059 A 
ATOM     72  C   UNL A   1      44.680  25.305  25.614  1.00  0.00     0.059 A 
ATOM     73  F   UNL A   1      44.124  27.352  26.445  1.00  0.00    -0.206 F 
ATOM     74  C   UNL A   1      44.817  23.936  25.740  1.00  0.00     0.060 A 
BRANCH  74  75
ATOM     75  S   UNL A   1      45.561  22.964  24.422  1.00  0.00     0.124 S 
ATOM     76  O   UNL A   1      46.204  21.886  25.165  1.00  0.00    -0.237 OA
ATOM     77  O   UNL A   1      44.398  22.586  23.628  1.00  0.00    -0.237 OA
ATOM     78  O   UNL A   1      46.474  23.905  23.777  1.00  0.00    -0.744 OA
ENDBRANCH  74  75
ENDBRANCH  53  67
BRANCH  54  79
ATOM     79  C   UNL A   1      39.125  31.889  33.222  1.00  0.00     0.058 A 
ATOM     80  C   UNL A   1      38.755  33.243  33.081  1.00  0.00     0.135 A 
ATOM     81  C   UNL A   1      38.077  30.965  33.154  1.00  0.00     0.135 A 
ATOM     82  F   UNL A   1      39.708  34.173  32.897  1.00  0.00    -0.206 F 
ATOM     83  C   UNL A   1      37.455  33.674  32.910  1.00  0.00     0.059 A 
ATOM     84  C   UNL A   1      36.743  31.377  32.925  1.00  0.00     0.059 A 
ATOM     85  F   UNL A   1      38.335  29.650  33.173  1.00  0.00    -0.206 F 
ATOM     86  C   UNL A   1      36.451  32.737  32.794  1.00  0.00     0.060 A 
BRANCH  86  87
ATOM     87  S   UNL A   1      34.856  33.386  32.256  1.00  0.00     0.124 S 
ATOM     88  O   UNL A   1      34.048  33.188  33.454  1.00  0.00    -0.237 OA
ATOM     89  O   UNL A   1      35.195  34.777  31.950  1.00  0.00    -0.237 OA
ATOM     90  O   UNL A   1      34.526  32.551  31.108  1.00  0.00    -0.744 OA
ENDBRANCH  86  87
ENDBRANCH  54  79
BRANCH  66  91
ATOM     91  C   UNL A   1      44.654  27.420  34.268  1.00  0.00     0.058 A 
ATOM     92  C   UNL A   1      45.947  27.689  34.759  1.00  0.00     0.135 A 
ATOM     93  C   UNL A   1      43.963  26.356  34.885  1.00  0.00     0.135 A 
ATOM     94  F   UNL A   1      46.662  28.746  34.346  1.00  0.00    -0.206 F 
ATOM     95  C   UNL A   1      46.549  26.905  35.729  1.00  0.00     0.059 A 
ATOM     96  C   UNL A   1      44.527  25.595  35.901  1.00  0.00     0.059 A 
ATOM     97  F   UNL A   1      42.705  26.041  34.543  1.00  0.00    -0.206 F 
ATOM     98  C   UNL A   1      45.835  25.853  36.287  1.00  0.00     0.060 A 
BRANCH  98  99
ATOM     99  S   UNL A   1      46.644  24.835  37.521  1.00  0.00     0.124 S 
ATOM    100  O   UNL A   1      47.837  24.410  36.795  1.00  0.00    -0.237 OA
ATOM    101  O   UNL A   1      46.872  25.779  38.612  1.00  0.00    -0.237 OA
ATOM    102  O   UNL A   1      45.664  23.790  37.795  1.00  0.00    -0.744 OA
ENDBRANCH  98  99
ENDBRANCH  66  91
ENDBRANCH  40  41
ENDBRANCH  33  35
ENDBRANCH  32  33
ENDBRANCH  31  32
ENDBRANCH   1  31
TORSDOF 19
ENDMDL
