MODEL 1
REMARK VINA RESULT:     -10.3      0.000      0.000
REMARK SMILES Cc1cnc2c(c1)nc(SCC(=O)OCCOCCOC(=O)c1ccc(-c3c4nc(c(-c5c(F)cc(S(=O)(=O)[O-])cc5F)c5ccc([nH]5)c(-c5c(F)cc(S(=O)(=O)[O-])cc5F)c5nc(c(-c6c(F)cc(S(=O)(=O)[O-])cc6F)c6ccc3[nH]6)C=C5)C=C4)cc1)n2[C@@H](C)C1CC1
REMARK SMILES IDX 16 1 15 2 14 3 12 4 13 5 11 6 10 7 9 8 1 9 2 10 3 11 7 12
REMARK SMILES IDX 4 13 6 14 5 15 8 16 89 17 90 18 91 19 92 20 93 21 94 22
REMARK SMILES IDX 17 23 18 24 19 25 20 26 21 27 22 28 23 29 24 30 88 31 25 32
REMARK SMILES IDX 87 33 26 34 27 35 28 36 81 37 29 38 86 39 80 40 82 41 30 42
REMARK SMILES IDX 85 43 79 44 78 45 31 47 65 48 44 49 64 50 45 51 48 52 63 53
REMARK SMILES IDX 83 54 46 55 47 56 62 58 84 59 49 60 32 61 33 62 42 63 34 64
REMARK SMILES IDX 35 65 41 66 43 67 36 68 37 69 38 70 39 71 40 72 66 73 67 74
REMARK SMILES IDX 76 75 68 76 69 77 75 78 77 79 70 80 71 81 72 82 73 83 74 84
REMARK SMILES IDX 50 85 51 86 60 87 52 88 53 89 59 90 61 91 54 92 55 93 56 94
REMARK SMILES IDX 57 95 58 96
REMARK H PARENT 82 46 48 57
REMARK Flexibility Score: inf
ROOT
ATOM      1  C   UNL A   1      39.904  20.696  25.803  1.00  0.00     0.202 C 
ENDROOT
BRANCH   1   2
ATOM      2  C   UNL A   1      38.495  21.422  25.826  1.00  0.00     0.261 C 
BRANCH   2   3
ATOM      3  O   UNL A   1      38.527  22.853  25.387  1.00  0.00    -0.463 OA
BRANCH   3   4
ATOM      4  C   UNL A   1      37.515  23.688  25.773  1.00  0.00     0.316 C 
ATOM      5  O   UNL A   1      37.647  24.439  26.747  1.00  0.00    -0.251 OA
BRANCH   4   6
ATOM      6  C   UNL A   1      36.150  23.706  25.000  1.00  0.00     0.200 C 
BRANCH   6   7
ATOM      7  S   UNL A   1      34.606  24.498  25.517  1.00  0.00    -0.076 SA
BRANCH   7   8
ATOM      8  C   UNL A   1      34.067  26.110  24.962  1.00  0.00     0.171 A 
ATOM      9  C   UNL A   1      31.425  31.191  26.528  1.00  0.00     0.046 C 
ATOM     10  C   UNL A   1      31.969  30.011  25.778  1.00  0.00    -0.030 A 
ATOM     11  C   UNL A   1      31.287  29.541  24.658  1.00  0.00     0.117 A 
ATOM     12  C   UNL A   1      33.107  29.300  26.208  1.00  0.00     0.037 A 
ATOM     13  N   UNL A   1      31.645  28.479  23.902  1.00  0.00    -0.236 NA
ATOM     14  C   UNL A   1      33.466  28.134  25.506  1.00  0.00     0.109 A 
ATOM     15  C   UNL A   1      32.723  27.819  24.388  1.00  0.00     0.160 A 
ATOM     16  N   UNL A   1      34.372  27.130  25.764  1.00  0.00    -0.221 NA
ATOM     17  N   UNL A   1      33.171  26.562  23.980  1.00  0.00    -0.301 N 
BRANCH  17  18
ATOM     18  C   UNL A   1      32.295  25.828  23.084  1.00  0.00     0.091 C 
ATOM     19  C   UNL A   1      32.966  25.052  21.972  1.00  0.00     0.032 C 
BRANCH  18  20
ATOM     20  C   UNL A   1      31.405  25.014  23.910  1.00  0.00     0.012 C 
ATOM     21  C   UNL A   1      29.920  25.269  23.675  1.00  0.00     0.006 C 
ATOM     22  C   UNL A   1      30.546  23.944  23.386  1.00  0.00     0.006 C 
ENDBRANCH  18  20
ENDBRANCH  17  18
ENDBRANCH   7   8
ENDBRANCH   6   7
ENDBRANCH   4   6
ENDBRANCH   3   4
ENDBRANCH   2   3
ENDBRANCH   1   2
BRANCH   1  23
ATOM     23  O   UNL A   1      40.537  20.681  27.093  1.00  0.00    -0.374 OA
BRANCH  23  24
ATOM     24  C   UNL A   1      41.941  20.401  27.260  1.00  0.00     0.202 C 
BRANCH  24  25
ATOM     25  C   UNL A   1      42.988  20.934  26.255  1.00  0.00     0.261 C 
BRANCH  25  26
ATOM     26  O   UNL A   1      43.407  22.270  26.469  1.00  0.00    -0.460 OA
BRANCH  26  27
ATOM     27  C   UNL A   1      42.887  23.169  25.628  1.00  0.00     0.338 C 
ATOM     28  O   UNL A   1      42.980  23.169  24.399  1.00  0.00    -0.246 OA
BRANCH  27  29
ATOM     29  C   UNL A   1      42.295  24.233  26.429  1.00  0.00     0.060 A 
ATOM     30  C   UNL A   1      41.519  25.132  25.712  1.00  0.00     0.016 A 
ATOM     31  C   UNL A   1      42.631  24.449  27.782  1.00  0.00     0.016 A 
ATOM     32  C   UNL A   1      41.230  26.339  26.295  1.00  0.00     0.010 A 
ATOM     33  C   UNL A   1      42.310  25.656  28.377  1.00  0.00     0.010 A 
ATOM     34  C   UNL A   1      41.674  26.615  27.601  1.00  0.00    -0.014 A 
BRANCH  34  35
ATOM     35  C   UNL A   1      41.346  27.940  28.091  1.00  0.00     0.031 A 
ATOM     36  C   UNL A   1      42.438  28.916  27.871  1.00  0.00     0.074 A 
ATOM     37  C   UNL A   1      40.230  28.242  28.773  1.00  0.00     0.049 A 
ATOM     38  N   UNL A   1      43.282  29.348  28.747  1.00  0.00    -0.248 NA
ATOM     39  C   UNL A   1      42.757  29.278  26.485  1.00  0.00     0.031 C 
ATOM     40  C   UNL A   1      38.978  27.494  28.891  1.00  0.00     0.029 A 
ATOM     41  N   UNL A   1      39.989  29.366  29.499  1.00  0.00    -0.354 N 
ATOM     42  C   UNL A   1      44.136  30.198  28.057  1.00  0.00     0.074 A 
ATOM     43  C   UNL A   1      43.870  29.990  26.657  1.00  0.00     0.031 C 
ATOM     44  C   UNL A   1      38.043  28.286  29.470  1.00  0.00     0.029 A 
ATOM     45  C   UNL A   1      38.671  29.528  29.896  1.00  0.00     0.049 A 
ATOM     46  H   UNL A   1      40.695  30.014  29.725  1.00  0.00     0.167 HD
ATOM     47  C   UNL A   1      44.848  31.158  28.705  1.00  0.00     0.037 A 
ATOM     48  C   UNL A   1      38.149  30.637  30.480  1.00  0.00     0.037 A 
ATOM     49  C   UNL A   1      44.966  30.866  30.112  1.00  0.00     0.049 A 
ATOM     50  C   UNL A   1      39.281  31.368  31.111  1.00  0.00     0.074 A 
ATOM     51  C   UNL A   1      45.547  29.850  30.846  1.00  0.00     0.029 A 
ATOM     52  N   UNL A   1      44.115  31.511  30.977  1.00  0.00    -0.354 N 
ATOM     53  N   UNL A   1      39.949  30.928  32.143  1.00  0.00    -0.248 NA
ATOM     54  C   UNL A   1      39.954  32.394  30.327  1.00  0.00     0.031 C 
ATOM     55  C   UNL A   1      44.679  29.648  31.959  1.00  0.00     0.029 A 
ATOM     56  C   UNL A   1      43.644  30.578  31.866  1.00  0.00     0.049 A 
ATOM     57  H   UNL A   1      43.885  32.468  30.961  1.00  0.00     0.167 HD
ATOM     58  C   UNL A   1      41.264  31.302  31.905  1.00  0.00     0.074 A 
ATOM     59  C   UNL A   1      41.190  32.276  30.819  1.00  0.00     0.031 C 
ATOM     60  C   UNL A   1      42.309  30.594  32.427  1.00  0.00     0.037 A 
BRANCH  47  61
ATOM     61  C   UNL A   1      45.111  32.527  28.127  1.00  0.00     0.058 A 
ATOM     62  C   UNL A   1      46.429  32.897  27.795  1.00  0.00     0.135 A 
ATOM     63  C   UNL A   1      44.171  33.582  28.155  1.00  0.00     0.135 A 
ATOM     64  F   UNL A   1      47.407  31.978  27.742  1.00  0.00    -0.206 F 
ATOM     65  C   UNL A   1      46.801  34.226  27.589  1.00  0.00     0.059 A 
ATOM     66  C   UNL A   1      44.508  34.905  27.900  1.00  0.00     0.059 A 
ATOM     67  F   UNL A   1      42.899  33.406  28.530  1.00  0.00    -0.206 F 
ATOM     68  C   UNL A   1      45.833  35.223  27.663  1.00  0.00     0.060 A 
BRANCH  68  69
ATOM     69  S   UNL A   1      46.324  36.948  27.520  1.00  0.00     0.124 S 
ATOM     70  O   UNL A   1      47.216  37.091  28.665  1.00  0.00    -0.237 OA
ATOM     71  O   UNL A   1      46.958  36.973  26.207  1.00  0.00    -0.237 OA
ATOM     72  O   UNL A   1      45.057  37.668  27.612  1.00  0.00    -0.744 OA
ENDBRANCH  68  69
ENDBRANCH  47  61
BRANCH  48  73
ATOM     73  C   UNL A   1      36.847  31.295  30.188  1.00  0.00     0.058 A 
ATOM     74  C   UNL A   1      36.123  31.936  31.212  1.00  0.00     0.135 A 
ATOM     75  C   UNL A   1      36.442  31.583  28.870  1.00  0.00     0.135 A 
ATOM     76  F   UNL A   1      36.445  31.728  32.498  1.00  0.00    -0.206 F 
ATOM     77  C   UNL A   1      35.111  32.864  30.943  1.00  0.00     0.059 A 
ATOM     78  C   UNL A   1      35.430  32.496  28.578  1.00  0.00     0.059 A 
ATOM     79  F   UNL A   1      37.083  31.057  27.816  1.00  0.00    -0.206 F 
ATOM     80  C   UNL A   1      34.792  33.159  29.620  1.00  0.00     0.060 A 
BRANCH  80  81
ATOM     81  S   UNL A   1      33.629  34.498  29.268  1.00  0.00     0.124 S 
ATOM     82  O   UNL A   1      32.717  33.865  28.321  1.00  0.00    -0.237 OA
ATOM     83  O   UNL A   1      33.081  34.783  30.589  1.00  0.00    -0.237 OA
ATOM     84  O   UNL A   1      34.479  35.548  28.709  1.00  0.00    -0.744 OA
ENDBRANCH  80  81
ENDBRANCH  48  73
BRANCH  60  85
ATOM     85  C   UNL A   1      42.019  29.590  33.512  1.00  0.00     0.058 A 
ATOM     86  C   UNL A   1      41.553  28.282  33.282  1.00  0.00     0.135 A 
ATOM     87  C   UNL A   1      42.377  29.919  34.829  1.00  0.00     0.135 A 
ATOM     88  F   UNL A   1      41.280  27.855  32.042  1.00  0.00    -0.206 F 
ATOM     89  C   UNL A   1      41.424  27.357  34.321  1.00  0.00     0.059 A 
ATOM     90  C   UNL A   1      42.285  29.004  35.874  1.00  0.00     0.059 A 
ATOM     91  F   UNL A   1      42.880  31.134  35.105  1.00  0.00    -0.206 F 
ATOM     92  C   UNL A   1      41.798  27.724  35.614  1.00  0.00     0.060 A 
BRANCH  92  93
ATOM     93  S   UNL A   1      41.717  26.497  36.937  1.00  0.00     0.124 S 
ATOM     94  O   UNL A   1      42.880  26.839  37.748  1.00  0.00    -0.237 OA
ATOM     95  O   UNL A   1      40.418  26.773  37.545  1.00  0.00    -0.237 OA
ATOM     96  O   UNL A   1      41.805  25.222  36.229  1.00  0.00    -0.744 OA
ENDBRANCH  92  93
ENDBRANCH  60  85
ENDBRANCH  34  35
ENDBRANCH  27  29
ENDBRANCH  26  27
ENDBRANCH  25  26
ENDBRANCH  24  25
ENDBRANCH  23  24
ENDBRANCH   1  23
TORSDOF 21
ENDMDL
MODEL 2
REMARK VINA RESULT:     -10.2      3.080      9.803
REMARK SMILES Cc1cnc2c(c1)nc(SCC(=O)OCCOCCOC(=O)c1ccc(-c3c4nc(c(-c5c(F)cc(S(=O)(=O)[O-])cc5F)c5ccc([nH]5)c(-c5c(F)cc(S(=O)(=O)[O-])cc5F)c5nc(c(-c6c(F)cc(S(=O)(=O)[O-])cc6F)c6ccc3[nH]6)C=C5)C=C4)cc1)n2[C@@H](C)C1CC1
REMARK SMILES IDX 16 1 15 2 14 3 12 4 13 5 11 6 10 7 9 8 1 9 2 10 3 11 7 12
REMARK SMILES IDX 4 13 6 14 5 15 8 16 89 17 90 18 91 19 92 20 93 21 94 22
REMARK SMILES IDX 17 23 18 24 19 25 20 26 21 27 22 28 23 29 24 30 88 31 25 32
REMARK SMILES IDX 87 33 26 34 27 35 28 36 81 37 29 38 86 39 80 40 82 41 30 42
REMARK SMILES IDX 85 43 79 44 78 45 31 47 65 48 44 49 64 50 45 51 48 52 63 53
REMARK SMILES IDX 83 54 46 55 47 56 62 58 84 59 49 60 32 61 33 62 42 63 34 64
REMARK SMILES IDX 35 65 41 66 43 67 36 68 37 69 38 70 39 71 40 72 66 73 67 74
REMARK SMILES IDX 76 75 68 76 69 77 75 78 77 79 70 80 71 81 72 82 73 83 74 84
REMARK SMILES IDX 50 85 51 86 60 87 52 88 53 89 59 90 61 91 54 92 55 93 56 94
REMARK SMILES IDX 57 95 58 96
REMARK H PARENT 82 46 48 57
REMARK Flexibility Score: inf
ROOT
ATOM      1  C   UNL A   1      33.331  28.700  25.392  1.00  0.00     0.202 C 
ENDROOT
BRANCH   1   2
ATOM      2  C   UNL A   1      32.940  27.912  26.711  1.00  0.00     0.261 C 
BRANCH   2   3
ATOM      3  O   UNL A   1      31.774  26.986  26.559  1.00  0.00    -0.463 OA
BRANCH   3   4
ATOM      4  C   UNL A   1      32.003  25.640  26.472  1.00  0.00     0.316 C 
ATOM      5  O   UNL A   1      31.065  24.834  26.467  1.00  0.00    -0.251 OA
BRANCH   4   6
ATOM      6  C   UNL A   1      33.466  25.079  26.390  1.00  0.00     0.200 C 
BRANCH   6   7
ATOM      7  S   UNL A   1      33.983  23.345  26.476  1.00  0.00    -0.076 SA
BRANCH   7   8
ATOM      8  C   UNL A   1      33.089  21.990  25.728  1.00  0.00     0.171 A 
ATOM      9  C   UNL A   1      33.506  16.525  23.447  1.00  0.00     0.046 C 
ATOM     10  C   UNL A   1      33.084  17.922  23.796  1.00  0.00    -0.030 A 
ATOM     11  C   UNL A   1      32.447  18.703  22.834  1.00  0.00     0.117 A 
ATOM     12  C   UNL A   1      33.380  18.513  25.040  1.00  0.00     0.037 A 
ATOM     13  N   UNL A   1      32.035  19.979  22.999  1.00  0.00    -0.236 NA
ATOM     14  C   UNL A   1      33.052  19.869  25.226  1.00  0.00     0.109 A 
ATOM     15  C   UNL A   1      32.381  20.500  24.200  1.00  0.00     0.160 A 
ATOM     16  N   UNL A   1      33.364  20.778  26.211  1.00  0.00    -0.221 NA
ATOM     17  N   UNL A   1      32.320  21.846  24.562  1.00  0.00    -0.301 N 
BRANCH  17  18
ATOM     18  C   UNL A   1      32.031  22.786  23.493  1.00  0.00     0.091 C 
ATOM     19  C   UNL A   1      30.748  23.578  23.621  1.00  0.00     0.032 C 
BRANCH  18  20
ATOM     20  C   UNL A   1      33.217  23.620  23.309  1.00  0.00     0.012 C 
ATOM     21  C   UNL A   1      33.914  23.436  21.966  1.00  0.00     0.006 C 
ATOM     22  C   UNL A   1      33.298  24.738  22.360  1.00  0.00     0.006 C 
ENDBRANCH  18  20
ENDBRANCH  17  18
ENDBRANCH   7   8
ENDBRANCH   6   7
ENDBRANCH   4   6
ENDBRANCH   3   4
ENDBRANCH   2   3
ENDBRANCH   1   2
BRANCH   1  23
ATOM     23  O   UNL A   1      32.684  29.980  25.303  1.00  0.00    -0.374 OA
BRANCH  23  24
ATOM     24  C   UNL A   1      32.011  30.583  26.426  1.00  0.00     0.202 C 
BRANCH  24  25
ATOM     25  C   UNL A   1      32.746  31.563  27.368  1.00  0.00     0.261 C 
BRANCH  25  26
ATOM     26  O   UNL A   1      33.935  31.065  27.952  1.00  0.00    -0.460 OA
BRANCH  26  27
ATOM     27  C   UNL A   1      34.707  31.983  28.541  1.00  0.00     0.338 C 
ATOM     28  O   UNL A   1      34.345  33.074  28.989  1.00  0.00    -0.246 OA
BRANCH  27  29
ATOM     29  C   UNL A   1      36.088  31.527  28.447  1.00  0.00     0.060 A 
ATOM     30  C   UNL A   1      36.247  30.280  27.860  1.00  0.00     0.016 A 
ATOM     31  C   UNL A   1      37.160  32.201  29.071  1.00  0.00     0.016 A 
ATOM     32  C   UNL A   1      37.435  29.625  28.055  1.00  0.00     0.010 A 
ATOM     33  C   UNL A   1      38.368  31.548  29.238  1.00  0.00     0.010 A 
ATOM     34  C   UNL A   1      38.466  30.238  28.789  1.00  0.00    -0.014 A 
BRANCH  34  35
ATOM     35  C   UNL A   1      39.656  29.429  28.966  1.00  0.00     0.031 A 
ATOM     36  C   UNL A   1      39.979  29.191  30.392  1.00  0.00     0.074 A 
ATOM     37  C   UNL A   1      40.456  29.025  27.965  1.00  0.00     0.049 A 
ATOM     38  N   UNL A   1      40.887  29.784  31.092  1.00  0.00    -0.248 NA
ATOM     39  C   UNL A   1      39.046  28.369  31.172  1.00  0.00     0.031 C 
ATOM     40  C   UNL A   1      40.194  28.971  26.527  1.00  0.00     0.029 A 
ATOM     41  N   UNL A   1      41.714  28.522  28.070  1.00  0.00    -0.354 N 
ATOM     42  C   UNL A   1      40.770  29.265  32.375  1.00  0.00     0.074 A 
ATOM     43  C   UNL A   1      39.531  28.531  32.403  1.00  0.00     0.031 C 
ATOM     44  C   UNL A   1      41.183  28.269  25.923  1.00  0.00     0.029 A 
ATOM     45  C   UNL A   1      42.212  27.960  26.905  1.00  0.00     0.049 A 
ATOM     46  H   UNL A   1      42.230  28.552  28.908  1.00  0.00     0.167 HD
ATOM     47  C   UNL A   1      41.810  29.309  33.249  1.00  0.00     0.037 A 
ATOM     48  C   UNL A   1      43.364  27.251  26.796  1.00  0.00     0.037 A 
ATOM     49  C   UNL A   1      42.772  30.315  32.872  1.00  0.00     0.049 A 
ATOM     50  C   UNL A   1      44.231  27.653  27.938  1.00  0.00     0.074 A 
ATOM     51  C   UNL A   1      42.738  31.691  32.744  1.00  0.00     0.029 A 
ATOM     52  N   UNL A   1      43.902  29.907  32.206  1.00  0.00    -0.354 N 
ATOM     53  N   UNL A   1      44.768  28.837  28.063  1.00  0.00    -0.248 NA
ATOM     54  C   UNL A   1      44.152  26.874  29.164  1.00  0.00     0.031 C 
ATOM     55  C   UNL A   1      43.576  31.984  31.629  1.00  0.00     0.029 A 
ATOM     56  C   UNL A   1      44.108  30.780  31.167  1.00  0.00     0.049 A 
ATOM     57  H   UNL A   1      44.461  29.129  32.431  1.00  0.00     0.167 HD
ATOM     58  C   UNL A   1      44.711  29.113  29.422  1.00  0.00     0.074 A 
ATOM     59  C   UNL A   1      44.403  27.835  30.057  1.00  0.00     0.031 C 
ATOM     60  C   UNL A   1      44.655  30.398  29.883  1.00  0.00     0.037 A 
BRANCH  47  61
ATOM     61  C   UNL A   1      42.122  28.199  34.221  1.00  0.00     0.058 A 
ATOM     62  C   UNL A   1      41.905  28.403  35.598  1.00  0.00     0.135 A 
ATOM     63  C   UNL A   1      42.890  27.060  33.888  1.00  0.00     0.135 A 
ATOM     64  F   UNL A   1      41.192  29.454  36.032  1.00  0.00    -0.206 F 
ATOM     65  C   UNL A   1      42.477  27.583  36.573  1.00  0.00     0.059 A 
ATOM     66  C   UNL A   1      43.423  26.200  34.839  1.00  0.00     0.059 A 
ATOM     67  F   UNL A   1      43.250  26.775  32.631  1.00  0.00    -0.206 F 
ATOM     68  C   UNL A   1      43.250  26.494  36.179  1.00  0.00     0.060 A 
BRANCH  68  69
ATOM     69  S   UNL A   1      44.090  25.507  37.426  1.00  0.00     0.124 S 
ATOM     70  O   UNL A   1      45.484  25.662  37.027  1.00  0.00    -0.237 OA
ATOM     71  O   UNL A   1      43.697  26.180  38.658  1.00  0.00    -0.237 OA
ATOM     72  O   UNL A   1      43.523  24.174  37.238  1.00  0.00    -0.744 OA
ENDBRANCH  68  69
ENDBRANCH  47  61
BRANCH  48  73
ATOM     73  C   UNL A   1      43.594  25.994  26.034  1.00  0.00     0.058 A 
ATOM     74  C   UNL A   1      44.817  25.769  25.374  1.00  0.00     0.135 A 
ATOM     75  C   UNL A   1      42.762  24.869  26.194  1.00  0.00     0.135 A 
ATOM     76  F   UNL A   1      45.678  26.781  25.184  1.00  0.00    -0.206 F 
ATOM     77  C   UNL A   1      45.224  24.494  24.966  1.00  0.00     0.059 A 
ATOM     78  C   UNL A   1      43.141  23.590  25.788  1.00  0.00     0.059 A 
ATOM     79  F   UNL A   1      41.590  24.959  26.840  1.00  0.00    -0.206 F 
ATOM     80  C   UNL A   1      44.389  23.405  25.205  1.00  0.00     0.060 A 
BRANCH  80  81
ATOM     81  S   UNL A   1      44.993  21.735  24.863  1.00  0.00     0.124 S 
ATOM     82  O   UNL A   1      44.112  20.919  25.691  1.00  0.00    -0.237 OA
ATOM     83  O   UNL A   1      44.795  21.628  23.422  1.00  0.00    -0.237 OA
ATOM     84  O   UNL A   1      46.388  21.784  25.296  1.00  0.00    -0.744 OA
ENDBRANCH  80  81
ENDBRANCH  48  73
BRANCH  60  85
ATOM     85  C   UNL A   1      44.968  31.515  28.921  1.00  0.00     0.058 A 
ATOM     86  C   UNL A   1      46.256  32.037  28.699  1.00  0.00     0.135 A 
ATOM     87  C   UNL A   1      43.941  31.967  28.078  1.00  0.00     0.135 A 
ATOM     88  F   UNL A   1      47.310  31.590  29.395  1.00  0.00    -0.206 F 
ATOM     89  C   UNL A   1      46.501  32.986  27.703  1.00  0.00     0.059 A 
ATOM     90  C   UNL A   1      44.168  32.889  27.060  1.00  0.00     0.059 A 
ATOM     91  F   UNL A   1      42.700  31.466  28.203  1.00  0.00    -0.206 F 
ATOM     92  C   UNL A   1      45.451  33.401  26.883  1.00  0.00     0.060 A 
BRANCH  92  93
ATOM     93  S   UNL A   1      45.790  34.558  25.537  1.00  0.00     0.124 S 
ATOM     94  O   UNL A   1      44.915  34.066  24.478  1.00  0.00    -0.237 OA
ATOM     95  O   UNL A   1      45.415  35.843  26.122  1.00  0.00    -0.237 OA
ATOM     96  O   UNL A   1      47.221  34.390  25.292  1.00  0.00    -0.744 OA
ENDBRANCH  92  93
ENDBRANCH  60  85
ENDBRANCH  34  35
ENDBRANCH  27  29
ENDBRANCH  26  27
ENDBRANCH  25  26
ENDBRANCH  24  25
ENDBRANCH  23  24
ENDBRANCH   1  23
TORSDOF 21
ENDMDL
MODEL 3
REMARK VINA RESULT:      -9.9      1.600      2.369
REMARK SMILES Cc1cnc2c(c1)nc(SCC(=O)OCCOCCOC(=O)c1ccc(-c3c4nc(c(-c5c(F)cc(S(=O)(=O)[O-])cc5F)c5ccc([nH]5)c(-c5c(F)cc(S(=O)(=O)[O-])cc5F)c5nc(c(-c6c(F)cc(S(=O)(=O)[O-])cc6F)c6ccc3[nH]6)C=C5)C=C4)cc1)n2[C@@H](C)C1CC1
REMARK SMILES IDX 16 1 15 2 14 3 12 4 13 5 11 6 10 7 9 8 1 9 2 10 3 11 7 12
REMARK SMILES IDX 4 13 6 14 5 15 8 16 89 17 90 18 91 19 92 20 93 21 94 22
REMARK SMILES IDX 17 23 18 24 19 25 20 26 21 27 22 28 23 29 24 30 88 31 25 32
REMARK SMILES IDX 87 33 26 34 27 35 28 36 81 37 29 38 86 39 80 40 82 41 30 42
REMARK SMILES IDX 85 43 79 44 78 45 31 47 65 48 44 49 64 50 45 51 48 52 63 53
REMARK SMILES IDX 83 54 46 55 47 56 62 58 84 59 49 60 32 61 33 62 42 63 34 64
REMARK SMILES IDX 35 65 41 66 43 67 36 68 37 69 38 70 39 71 40 72 66 73 67 74
REMARK SMILES IDX 76 75 68 76 69 77 75 78 77 79 70 80 71 81 72 82 73 83 74 84
REMARK SMILES IDX 50 85 51 86 60 87 52 88 53 89 59 90 61 91 54 92 55 93 56 94
REMARK SMILES IDX 57 95 58 96
REMARK H PARENT 82 46 48 57
REMARK Flexibility Score: inf
ROOT
ATOM      1  C   UNL A   1      37.142  22.957  25.667  1.00  0.00     0.202 C 
ENDROOT
BRANCH   1   2
ATOM      2  C   UNL A   1      36.410  22.041  24.600  1.00  0.00     0.261 C 
BRANCH   2   3
ATOM      3  O   UNL A   1      35.176  21.363  25.107  1.00  0.00    -0.463 OA
BRANCH   3   4
ATOM      4  C   UNL A   1      33.952  21.830  24.711  1.00  0.00     0.316 C 
ATOM      5  O   UNL A   1      33.590  21.746  23.532  1.00  0.00    -0.251 OA
BRANCH   4   6
ATOM      6  C   UNL A   1      32.979  22.502  25.741  1.00  0.00     0.200 C 
BRANCH   6   7
ATOM      7  S   UNL A   1      32.003  24.010  25.508  1.00  0.00    -0.076 SA
BRANCH   7   8
ATOM      8  C   UNL A   1      32.707  25.628  25.220  1.00  0.00     0.171 A 
ATOM      9  C   UNL A   1      33.956  30.914  27.618  1.00  0.00     0.046 C 
ATOM     10  C   UNL A   1      33.644  29.784  26.681  1.00  0.00    -0.030 A 
ATOM     11  C   UNL A   1      32.912  30.039  25.524  1.00  0.00     0.117 A 
ATOM     12  C   UNL A   1      33.994  28.449  26.964  1.00  0.00     0.037 A 
ATOM     13  N   UNL A   1      32.539  29.121  24.606  1.00  0.00    -0.236 NA
ATOM     14  C   UNL A   1      33.548  27.445  26.082  1.00  0.00     0.109 A 
ATOM     15  C   UNL A   1      32.871  27.855  24.953  1.00  0.00     0.160 A 
ATOM     16  N   UNL A   1      33.544  26.071  26.159  1.00  0.00    -0.221 NA
ATOM     17  N   UNL A   1      32.410  26.686  24.346  1.00  0.00    -0.301 N 
BRANCH  17  18
ATOM     18  C   UNL A   1      31.341  26.845  23.376  1.00  0.00     0.091 C 
ATOM     19  C   UNL A   1      31.284  25.824  22.262  1.00  0.00     0.032 C 
BRANCH  18  20
ATOM     20  C   UNL A   1      30.089  26.970  24.120  1.00  0.00     0.012 C 
ATOM     21  C   UNL A   1      29.079  27.928  23.498  1.00  0.00     0.006 C 
ATOM     22  C   UNL A   1      28.794  26.469  23.642  1.00  0.00     0.006 C 
ENDBRANCH  18  20
ENDBRANCH  17  18
ENDBRANCH   7   8
ENDBRANCH   6   7
ENDBRANCH   4   6
ENDBRANCH   3   4
ENDBRANCH   2   3
ENDBRANCH   1   2
BRANCH   1  23
ATOM     23  O   UNL A   1      38.543  22.657  25.783  1.00  0.00    -0.374 OA
BRANCH  23  24
ATOM     24  C   UNL A   1      39.023  21.346  26.143  1.00  0.00     0.202 C 
BRANCH  24  25
ATOM     25  C   UNL A   1      40.536  21.040  26.218  1.00  0.00     0.261 C 
BRANCH  25  26
ATOM     26  O   UNL A   1      41.371  21.933  25.503  1.00  0.00    -0.460 OA
BRANCH  26  27
ATOM     27  C   UNL A   1      42.445  22.363  26.170  1.00  0.00     0.338 C 
ATOM     28  O   UNL A   1      43.568  21.853  26.169  1.00  0.00    -0.246 OA
BRANCH  27  29
ATOM     29  C   UNL A   1      42.027  23.478  27.011  1.00  0.00     0.060 A 
ATOM     30  C   UNL A   1      41.327  24.474  26.345  1.00  0.00     0.016 A 
ATOM     31  C   UNL A   1      42.458  23.633  28.346  1.00  0.00     0.016 A 
ATOM     32  C   UNL A   1      41.216  25.698  26.953  1.00  0.00     0.010 A 
ATOM     33  C   UNL A   1      42.315  24.860  28.968  1.00  0.00     0.010 A 
ATOM     34  C   UNL A   1      41.759  25.899  28.235  1.00  0.00    -0.014 A 
BRANCH  34  35
ATOM     35  C   UNL A   1      41.619  27.246  28.754  1.00  0.00     0.031 A 
ATOM     36  C   UNL A   1      42.759  28.119  28.393  1.00  0.00     0.074 A 
ATOM     37  C   UNL A   1      40.628  27.647  29.568  1.00  0.00     0.049 A 
ATOM     38  N   UNL A   1      43.743  28.467  29.154  1.00  0.00    -0.248 NA
ATOM     39  C   UNL A   1      42.935  28.456  26.976  1.00  0.00     0.031 C 
ATOM     40  C   UNL A   1      39.338  27.017  29.846  1.00  0.00     0.029 A 
ATOM     41  N   UNL A   1      40.585  28.784  30.312  1.00  0.00    -0.354 N 
ATOM     42  C   UNL A   1      44.579  29.238  28.358  1.00  0.00     0.074 A 
ATOM     43  C   UNL A   1      44.122  29.062  27.003  1.00  0.00     0.031 C 
ATOM     44  C   UNL A   1      38.559  27.888  30.532  1.00  0.00     0.029 A 
ATOM     45  C   UNL A   1      39.347  29.065  30.868  1.00  0.00     0.049 A 
ATOM     46  H   UNL A   1      41.370  29.363  30.443  1.00  0.00     0.167 HD
ATOM     47  C   UNL A   1      45.451  30.125  28.906  1.00  0.00     0.037 A 
ATOM     48  C   UNL A   1      39.007  30.214  31.505  1.00  0.00     0.037 A 
ATOM     49  C   UNL A   1      45.717  29.815  30.289  1.00  0.00     0.049 A 
ATOM     50  C   UNL A   1      40.272  30.835  31.986  1.00  0.00     0.074 A 
ATOM     51  C   UNL A   1      46.289  28.746  30.951  1.00  0.00     0.029 A 
ATOM     52  N   UNL A   1      45.043  30.532  31.249  1.00  0.00    -0.354 N 
ATOM     53  N   UNL A   1      41.019  30.330  32.929  1.00  0.00    -0.248 NA
ATOM     54  C   UNL A   1      40.933  31.798  31.118  1.00  0.00     0.031 C 
ATOM     55  C   UNL A   1      45.551  28.619  32.165  1.00  0.00     0.029 A 
ATOM     56  C   UNL A   1      44.602  29.642  32.196  1.00  0.00     0.049 A 
ATOM     57  H   UNL A   1      44.902  31.506  31.256  1.00  0.00     0.167 HD
ATOM     58  C   UNL A   1      42.323  30.582  32.527  1.00  0.00     0.074 A 
ATOM     59  C   UNL A   1      42.205  31.564  31.452  1.00  0.00     0.031 C 
ATOM     60  C   UNL A   1      43.355  29.778  32.919  1.00  0.00     0.037 A 
BRANCH  47  61
ATOM     61  C   UNL A   1      45.765  31.466  28.291  1.00  0.00     0.058 A 
ATOM     62  C   UNL A   1      44.708  32.314  27.904  1.00  0.00     0.135 A 
ATOM     63  C   UNL A   1      47.043  31.825  27.805  1.00  0.00     0.135 A 
ATOM     64  F   UNL A   1      43.450  32.068  28.303  1.00  0.00    -0.206 F 
ATOM     65  C   UNL A   1      44.896  33.389  27.033  1.00  0.00     0.059 A 
ATOM     66  C   UNL A   1      47.261  32.921  26.982  1.00  0.00     0.059 A 
ATOM     67  F   UNL A   1      48.132  31.077  28.018  1.00  0.00    -0.206 F 
ATOM     68  C   UNL A   1      46.176  33.671  26.565  1.00  0.00     0.060 A 
BRANCH  68  69
ATOM     69  S   UNL A   1      46.407  34.976  25.349  1.00  0.00     0.124 S 
ATOM     70  O   UNL A   1      46.057  36.160  26.125  1.00  0.00    -0.237 OA
ATOM     71  O   UNL A   1      47.817  34.826  25.010  1.00  0.00    -0.237 OA
ATOM     72  O   UNL A   1      45.471  34.617  24.288  1.00  0.00    -0.744 OA
ENDBRANCH  68  69
ENDBRANCH  47  61
BRANCH  48  73
ATOM     73  C   UNL A   1      37.745  30.992  31.374  1.00  0.00     0.058 A 
ATOM     74  C   UNL A   1      36.886  31.156  32.478  1.00  0.00     0.135 A 
ATOM     75  C   UNL A   1      37.510  31.841  30.276  1.00  0.00     0.135 A 
ATOM     76  F   UNL A   1      37.042  30.396  33.573  1.00  0.00    -0.206 F 
ATOM     77  C   UNL A   1      35.906  32.153  32.521  1.00  0.00     0.059 A 
ATOM     78  C   UNL A   1      36.532  32.835  30.291  1.00  0.00     0.059 A 
ATOM     79  F   UNL A   1      38.288  31.797  29.185  1.00  0.00    -0.206 F 
ATOM     80  C   UNL A   1      35.757  33.008  31.431  1.00  0.00     0.060 A 
BRANCH  80  81
ATOM     81  S   UNL A   1      34.632  34.417  31.560  1.00  0.00     0.124 S 
ATOM     82  O   UNL A   1      34.398  34.747  30.158  1.00  0.00    -0.237 OA
ATOM     83  O   UNL A   1      33.500  33.841  32.277  1.00  0.00    -0.237 OA
ATOM     84  O   UNL A   1      35.407  35.402  32.312  1.00  0.00    -0.744 OA
ENDBRANCH  80  81
ENDBRANCH  48  73
BRANCH  60  85
ATOM     85  C   UNL A   1      43.112  28.799  34.039  1.00  0.00     0.058 A 
ATOM     86  C   UNL A   1      43.285  29.093  35.404  1.00  0.00     0.135 A 
ATOM     87  C   UNL A   1      42.530  27.562  33.719  1.00  0.00     0.135 A 
ATOM     88  F   UNL A   1      43.744  30.288  35.799  1.00  0.00    -0.206 F 
ATOM     89  C   UNL A   1      42.922  28.184  36.401  1.00  0.00     0.059 A 
ATOM     90  C   UNL A   1      42.133  26.655  34.697  1.00  0.00     0.059 A 
ATOM     91  F   UNL A   1      42.287  27.245  32.436  1.00  0.00    -0.206 F 
ATOM     92  C   UNL A   1      42.340  26.969  36.038  1.00  0.00     0.060 A 
BRANCH  92  93
ATOM     93  S   UNL A   1      41.788  25.837  37.333  1.00  0.00     0.124 S 
ATOM     94  O   UNL A   1      41.881  24.540  36.670  1.00  0.00    -0.237 OA
ATOM     95  O   UNL A   1      42.759  26.075  38.398  1.00  0.00    -0.237 OA
ATOM     96  O   UNL A   1      40.430  26.288  37.628  1.00  0.00    -0.744 OA
ENDBRANCH  92  93
ENDBRANCH  60  85
ENDBRANCH  34  35
ENDBRANCH  27  29
ENDBRANCH  26  27
ENDBRANCH  25  26
ENDBRANCH  24  25
ENDBRANCH  23  24
ENDBRANCH   1  23
TORSDOF 21
ENDMDL
