MODEL 1
REMARK VINA RESULT:     -11.4      0.000      0.000
REMARK SMILES O=C(Cn1cccc1C(=O)NCCC1CCCCC1)OCCOCCOC(=O)c1ccc(-c2c3nc(c(-c4c(F)cc(S(=O)(=O)[O-])cc4F)c4ccc([nH]4)c(-c4c(F)cc(S(=O)(=O)[O-])cc4F)c4nc(c(-c5c(F)cc(S(=O)(=O)[O-])cc5F)c5ccc2[nH]5)C=C4)C=C3)cc1
REMARK SMILES IDX 22 1 21 2 20 3 2 4 1 5 3 6 4 7 5 8 8 9 6 10 7 11 9 12 10 13
REMARK SMILES IDX 11 14 12 16 13 17 14 18 15 19 19 20 16 21 18 22 17 23 23 24
REMARK SMILES IDX 24 25 25 26 26 27 27 28 28 29 29 30 30 31 94 32 31 33 93 34
REMARK SMILES IDX 32 35 33 36 34 37 87 38 35 39 92 40 86 41 88 42 36 43 91 44
REMARK SMILES IDX 85 45 84 46 37 48 71 49 50 50 70 51 51 52 54 53 69 54 89 55
REMARK SMILES IDX 52 56 53 57 68 59 90 60 55 61 38 62 39 63 48 64 40 65 41 66
REMARK SMILES IDX 47 67 49 68 42 69 43 70 44 71 45 72 46 73 72 74 73 75 82 76
REMARK SMILES IDX 74 77 75 78 81 79 83 80 76 81 77 82 78 83 79 84 80 85 56 86
REMARK SMILES IDX 57 87 66 88 58 89 59 90 65 91 67 92 60 93 61 94 62 95 63 96
REMARK SMILES IDX 64 97
REMARK H PARENT 11 15 88 47 54 58
REMARK Flexibility Score: inf
ROOT
ATOM      1  C   UNL A   1      35.564  23.779  25.335  1.00  0.00     0.202 C 
ENDROOT
BRANCH   1   2
ATOM      2  C   UNL A   1      34.842  24.498  24.208  1.00  0.00     0.261 C 
BRANCH   2   3
ATOM      3  O   UNL A   1      34.093  23.575  23.392  1.00  0.00    -0.462 OA
BRANCH   3   4
ATOM      4  C   UNL A   1      33.013  23.901  22.644  1.00  0.00     0.326 C 
ATOM      5  O   UNL A   1      33.178  24.216  21.463  1.00  0.00    -0.250 OA
BRANCH   4   6
ATOM      6  C   UNL A   1      31.630  23.950  23.251  1.00  0.00     0.244 C 
BRANCH   6   7
ATOM      7  N   UNL A   1      31.410  24.879  24.337  1.00  0.00    -0.332 N 
ATOM      8  C   UNL A   1      31.525  26.235  24.116  1.00  0.00     0.087 A 
ATOM      9  C   UNL A   1      30.989  24.619  25.644  1.00  0.00     0.107 A 
ATOM     10  C   UNL A   1      31.025  26.893  25.203  1.00  0.00     0.020 A 
ATOM     11  C   UNL A   1      30.691  25.900  26.141  1.00  0.00     0.033 A 
BRANCH   9  12
ATOM     12  C   UNL A   1      30.771  23.429  26.497  1.00  0.00     0.267 C 
ATOM     13  O   UNL A   1      29.822  23.430  27.296  1.00  0.00    -0.268 OA
ATOM     14  N   UNL A   1      31.526  22.282  26.601  1.00  0.00    -0.351 N 
ATOM     15  H   UNL A   1      31.331  21.760  27.413  1.00  0.00     0.163 HD
BRANCH  14  16
ATOM     16  C   UNL A   1      32.538  21.686  25.777  1.00  0.00     0.116 C 
BRANCH  16  17
ATOM     17  C   UNL A   1      32.112  20.746  24.653  1.00  0.00     0.025 C 
BRANCH  17  18
ATOM     18  C   UNL A   1      33.077  19.685  24.068  1.00  0.00    -0.009 C 
ATOM     19  C   UNL A   1      34.013  18.963  25.045  1.00  0.00     0.003 C 
ATOM     20  C   UNL A   1      32.227  18.641  23.303  1.00  0.00     0.003 C 
ATOM     21  C   UNL A   1      34.865  17.897  24.348  1.00  0.00     0.000 C 
ATOM     22  C   UNL A   1      33.074  17.588  22.601  1.00  0.00     0.000 C 
ATOM     23  C   UNL A   1      34.016  16.891  23.573  1.00  0.00     0.000 C 
ENDBRANCH  17  18
ENDBRANCH  16  17
ENDBRANCH  14  16
ENDBRANCH   9  12
ENDBRANCH   6   7
ENDBRANCH   4   6
ENDBRANCH   3   4
ENDBRANCH   2   3
ENDBRANCH   1   2
BRANCH   1  24
ATOM     24  O   UNL A   1      36.212  22.608  24.845  1.00  0.00    -0.374 OA
BRANCH  24  25
ATOM     25  C   UNL A   1      36.938  21.820  25.797  1.00  0.00     0.202 C 
BRANCH  25  26
ATOM     26  C   UNL A   1      38.008  21.015  25.088  1.00  0.00     0.261 C 
BRANCH  26  27
ATOM     27  O   UNL A   1      39.195  21.167  25.825  1.00  0.00    -0.460 OA
BRANCH  27  28
ATOM     28  C   UNL A   1      39.996  20.101  25.969  1.00  0.00     0.338 C 
ATOM     29  O   UNL A   1      39.746  18.915  25.743  1.00  0.00    -0.246 OA
BRANCH  28  30
ATOM     30  C   UNL A   1      41.240  20.620  26.537  1.00  0.00     0.060 A 
ATOM     31  C   UNL A   1      41.125  21.156  27.817  1.00  0.00     0.016 A 
ATOM     32  C   UNL A   1      42.172  21.079  25.595  1.00  0.00     0.016 A 
ATOM     33  C   UNL A   1      41.680  22.392  28.014  1.00  0.00     0.010 A 
ATOM     34  C   UNL A   1      42.535  22.384  25.702  1.00  0.00     0.010 A 
ATOM     35  C   UNL A   1      42.284  23.021  26.919  1.00  0.00    -0.014 A 
BRANCH  35  36
ATOM     36  C   UNL A   1      42.906  24.314  27.119  1.00  0.00     0.031 A 
ATOM     37  C   UNL A   1      41.797  25.346  27.387  1.00  0.00     0.074 A 
ATOM     38  C   UNL A   1      44.269  24.313  27.016  1.00  0.00     0.049 A 
ATOM     39  N   UNL A   1      41.805  26.625  27.206  1.00  0.00    -0.248 NA
ATOM     40  C   UNL A   1      40.438  24.894  27.837  1.00  0.00     0.031 C 
ATOM     41  C   UNL A   1      45.118  23.123  26.740  1.00  0.00     0.029 A 
ATOM     42  N   UNL A   1      45.221  25.297  27.116  1.00  0.00    -0.354 N 
ATOM     43  C   UNL A   1      40.609  27.125  27.758  1.00  0.00     0.074 A 
ATOM     44  C   UNL A   1      39.744  26.018  27.983  1.00  0.00     0.031 C 
ATOM     45  C   UNL A   1      46.415  23.477  26.596  1.00  0.00     0.029 A 
ATOM     46  C   UNL A   1      46.553  24.904  26.813  1.00  0.00     0.049 A 
ATOM     47  H   UNL A   1      44.996  26.217  27.382  1.00  0.00     0.167 HD
ATOM     48  C   UNL A   1      40.467  28.412  28.168  1.00  0.00     0.037 A 
ATOM     49  C   UNL A   1      47.664  25.700  26.714  1.00  0.00     0.037 A 
ATOM     50  C   UNL A   1      41.665  29.135  27.903  1.00  0.00     0.049 A 
ATOM     51  C   UNL A   1      47.219  27.006  27.227  1.00  0.00     0.074 A 
ATOM     52  C   UNL A   1      42.236  29.517  26.716  1.00  0.00     0.029 A 
ATOM     53  N   UNL A   1      42.625  29.119  28.891  1.00  0.00    -0.354 N 
ATOM     54  N   UNL A   1      46.931  27.257  28.470  1.00  0.00    -0.248 NA
ATOM     55  C   UNL A   1      46.954  28.082  26.264  1.00  0.00     0.031 C 
ATOM     56  C   UNL A   1      43.602  29.246  26.918  1.00  0.00     0.029 A 
ATOM     57  C   UNL A   1      43.843  28.970  28.272  1.00  0.00     0.049 A 
ATOM     58  H   UNL A   1      42.468  29.198  29.859  1.00  0.00     0.167 HD
ATOM     59  C   UNL A   1      46.143  28.376  28.372  1.00  0.00     0.074 A 
ATOM     60  C   UNL A   1      46.457  28.992  27.099  1.00  0.00     0.031 C 
ATOM     61  C   UNL A   1      44.952  28.419  29.023  1.00  0.00     0.037 A 
BRANCH  48  62
ATOM     62  C   UNL A   1      39.431  29.053  29.028  1.00  0.00     0.058 A 
ATOM     63  C   UNL A   1      38.537  29.943  28.398  1.00  0.00     0.135 A 
ATOM     64  C   UNL A   1      39.509  29.113  30.428  1.00  0.00     0.135 A 
ATOM     65  F   UNL A   1      38.358  29.906  27.066  1.00  0.00    -0.206 F 
ATOM     66  C   UNL A   1      37.880  30.944  29.096  1.00  0.00     0.059 A 
ATOM     67  C   UNL A   1      38.820  30.082  31.155  1.00  0.00     0.059 A 
ATOM     68  F   UNL A   1      40.323  28.299  31.115  1.00  0.00    -0.206 F 
ATOM     69  C   UNL A   1      38.061  31.030  30.471  1.00  0.00     0.060 A 
BRANCH  69  70
ATOM     70  S   UNL A   1      37.345  32.443  31.332  1.00  0.00     0.124 S 
ATOM     71  O   UNL A   1      36.148  31.852  31.918  1.00  0.00    -0.237 OA
ATOM     72  O   UNL A   1      38.403  32.797  32.274  1.00  0.00    -0.237 OA
ATOM     73  O   UNL A   1      37.121  33.409  30.262  1.00  0.00    -0.744 OA
ENDBRANCH  69  70
ENDBRANCH  48  62
BRANCH  49  74
ATOM     74  C   UNL A   1      49.070  25.643  26.152  1.00  0.00     0.058 A 
ATOM     75  C   UNL A   1      49.505  26.179  24.934  1.00  0.00     0.135 A 
ATOM     76  C   UNL A   1      50.126  25.169  26.986  1.00  0.00     0.135 A 
ATOM     77  F   UNL A   1      48.632  26.539  23.986  1.00  0.00    -0.206 F 
ATOM     78  C   UNL A   1      50.870  26.392  24.649  1.00  0.00     0.059 A 
ATOM     79  C   UNL A   1      51.474  25.425  26.759  1.00  0.00     0.059 A 
ATOM     80  F   UNL A   1      49.883  24.474  28.106  1.00  0.00    -0.206 F 
ATOM     81  C   UNL A   1      51.841  26.074  25.599  1.00  0.00     0.060 A 
BRANCH  81  82
ATOM     82  S   UNL A   1      53.553  26.618  25.408  1.00  0.00     0.124 S 
ATOM     83  O   UNL A   1      54.068  26.490  26.765  1.00  0.00    -0.237 OA
ATOM     84  O   UNL A   1      54.082  25.668  24.432  1.00  0.00    -0.237 OA
ATOM     85  O   UNL A   1      53.411  27.986  24.913  1.00  0.00    -0.744 OA
ENDBRANCH  81  82
ENDBRANCH  49  74
BRANCH  61  86
ATOM     86  C   UNL A   1      44.868  27.558  30.276  1.00  0.00     0.058 A 
ATOM     87  C   UNL A   1      45.684  27.850  31.384  1.00  0.00     0.135 A 
ATOM     88  C   UNL A   1      44.071  26.406  30.403  1.00  0.00     0.135 A 
ATOM     89  F   UNL A   1      46.467  28.940  31.366  1.00  0.00    -0.206 F 
ATOM     90  C   UNL A   1      45.712  27.049  32.532  1.00  0.00     0.059 A 
ATOM     91  C   UNL A   1      44.076  25.587  31.538  1.00  0.00     0.059 A 
ATOM     92  F   UNL A   1      43.251  26.040  29.419  1.00  0.00    -0.206 F 
ATOM     93  C   UNL A   1      44.902  25.918  32.603  1.00  0.00     0.060 A 
BRANCH  93  94
ATOM     94  S   UNL A   1      44.921  24.914  34.108  1.00  0.00     0.124 S 
ATOM     95  O   UNL A   1      45.158  23.570  33.588  1.00  0.00    -0.237 OA
ATOM     96  O   UNL A   1      46.027  25.505  34.855  1.00  0.00    -0.237 OA
ATOM     97  O   UNL A   1      43.595  25.127  34.685  1.00  0.00    -0.744 OA
ENDBRANCH  93  94
ENDBRANCH  61  86
ENDBRANCH  35  36
ENDBRANCH  28  30
ENDBRANCH  27  28
ENDBRANCH  26  27
ENDBRANCH  25  26
ENDBRANCH  24  25
ENDBRANCH   1  24
TORSDOF 22
ENDMDL
MODEL 2
REMARK VINA RESULT:     -10.8      5.233     11.486
REMARK SMILES O=C(Cn1cccc1C(=O)NCCC1CCCCC1)OCCOCCOC(=O)c1ccc(-c2c3nc(c(-c4c(F)cc(S(=O)(=O)[O-])cc4F)c4ccc([nH]4)c(-c4c(F)cc(S(=O)(=O)[O-])cc4F)c4nc(c(-c5c(F)cc(S(=O)(=O)[O-])cc5F)c5ccc2[nH]5)C=C4)C=C3)cc1
REMARK SMILES IDX 22 1 21 2 20 3 2 4 1 5 3 6 4 7 5 8 8 9 6 10 7 11 9 12 10 13
REMARK SMILES IDX 11 14 12 16 13 17 14 18 15 19 19 20 16 21 18 22 17 23 23 24
REMARK SMILES IDX 24 25 25 26 26 27 27 28 28 29 29 30 30 31 94 32 31 33 93 34
REMARK SMILES IDX 32 35 33 36 34 37 87 38 35 39 92 40 86 41 88 42 36 43 91 44
REMARK SMILES IDX 85 45 84 46 37 48 71 49 50 50 70 51 51 52 54 53 69 54 89 55
REMARK SMILES IDX 52 56 53 57 68 59 90 60 55 61 38 62 39 63 48 64 40 65 41 66
REMARK SMILES IDX 47 67 49 68 42 69 43 70 44 71 45 72 46 73 72 74 73 75 82 76
REMARK SMILES IDX 74 77 75 78 81 79 83 80 76 81 77 82 78 83 79 84 80 85 56 86
REMARK SMILES IDX 57 87 66 88 58 89 59 90 65 91 67 92 60 93 61 94 62 95 63 96
REMARK SMILES IDX 64 97
REMARK H PARENT 11 15 88 47 54 58
REMARK Flexibility Score: inf
ROOT
ATOM      1  C   UNL A   1      31.766  29.211  26.571  1.00  0.00     0.202 C 
ENDROOT
BRANCH   1   2
ATOM      2  C   UNL A   1      31.943  27.894  27.307  1.00  0.00     0.261 C 
BRANCH   2   3
ATOM      3  O   UNL A   1      31.284  26.813  26.616  1.00  0.00    -0.462 OA
BRANCH   3   4
ATOM      4  C   UNL A   1      31.912  25.854  25.898  1.00  0.00     0.326 C 
ATOM      5  O   UNL A   1      33.130  25.709  26.032  1.00  0.00    -0.250 OA
BRANCH   4   6
ATOM      6  C   UNL A   1      31.159  25.011  24.895  1.00  0.00     0.244 C 
BRANCH   6   7
ATOM      7  N   UNL A   1      31.933  24.331  23.880  1.00  0.00    -0.332 N 
ATOM      8  C   UNL A   1      32.085  22.961  23.935  1.00  0.00     0.087 A 
ATOM      9  C   UNL A   1      32.523  24.854  22.728  1.00  0.00     0.107 A 
ATOM     10  C   UNL A   1      32.622  22.539  22.752  1.00  0.00     0.020 A 
ATOM     11  C   UNL A   1      32.887  23.703  22.007  1.00  0.00     0.033 A 
BRANCH   9  12
ATOM     12  C   UNL A   1      32.776  26.194  22.150  1.00  0.00     0.267 C 
ATOM     13  O   UNL A   1      33.859  26.408  21.584  1.00  0.00    -0.268 OA
ATOM     14  N   UNL A   1      31.990  27.324  22.195  1.00  0.00    -0.351 N 
ATOM     15  H   UNL A   1      32.481  28.148  21.972  1.00  0.00     0.163 HD
BRANCH  14  16
ATOM     16  C   UNL A   1      30.606  27.554  22.496  1.00  0.00     0.116 C 
BRANCH  16  17
ATOM     17  C   UNL A   1      30.235  28.727  23.399  1.00  0.00     0.025 C 
BRANCH  17  18
ATOM     18  C   UNL A   1      29.148  29.755  22.994  1.00  0.00    -0.009 C 
ATOM     19  C   UNL A   1      29.038  31.035  23.830  1.00  0.00     0.003 C 
ATOM     20  C   UNL A   1      29.378  30.127  21.509  1.00  0.00     0.003 C 
ATOM     21  C   UNL A   1      27.971  31.991  23.285  1.00  0.00     0.000 C 
ATOM     22  C   UNL A   1      28.311  31.068  20.963  1.00  0.00     0.000 C 
ATOM     23  C   UNL A   1      28.192  32.327  21.811  1.00  0.00     0.000 C 
ENDBRANCH  17  18
ENDBRANCH  16  17
ENDBRANCH  14  16
ENDBRANCH   9  12
ENDBRANCH   6   7
ENDBRANCH   4   6
ENDBRANCH   3   4
ENDBRANCH   2   3
ENDBRANCH   1   2
BRANCH   1  24
ATOM     24  O   UNL A   1      32.575  30.225  27.161  1.00  0.00    -0.374 OA
BRANCH  24  25
ATOM     25  C   UNL A   1      33.996  30.049  27.085  1.00  0.00     0.202 C 
BRANCH  25  26
ATOM     26  C   UNL A   1      34.695  31.282  27.621  1.00  0.00     0.261 C 
BRANCH  26  27
ATOM     27  O   UNL A   1      33.822  31.882  28.545  1.00  0.00    -0.460 OA
BRANCH  27  28
ATOM     28  C   UNL A   1      33.699  33.217  28.529  1.00  0.00     0.338 C 
ATOM     29  O   UNL A   1      32.997  33.916  27.794  1.00  0.00    -0.246 OA
BRANCH  28  30
ATOM     30  C   UNL A   1      34.644  33.710  29.530  1.00  0.00     0.060 A 
ATOM     31  C   UNL A   1      35.797  34.297  29.014  1.00  0.00     0.016 A 
ATOM     32  C   UNL A   1      34.614  33.029  30.755  1.00  0.00     0.016 A 
ATOM     33  C   UNL A   1      36.987  33.872  29.541  1.00  0.00     0.010 A 
ATOM     34  C   UNL A   1      35.776  32.437  31.138  1.00  0.00     0.010 A 
ATOM     35  C   UNL A   1      36.950  32.874  30.522  1.00  0.00    -0.014 A 
BRANCH  35  36
ATOM     36  C   UNL A   1      38.199  32.438  31.114  1.00  0.00     0.031 A 
ATOM     37  C   UNL A   1      38.719  31.234  30.311  1.00  0.00     0.074 A 
ATOM     38  C   UNL A   1      38.596  33.161  32.204  1.00  0.00     0.049 A 
ATOM     39  N   UNL A   1      39.512  30.283  30.678  1.00  0.00    -0.248 NA
ATOM     40  C   UNL A   1      38.219  30.983  28.917  1.00  0.00     0.031 C 
ATOM     41  C   UNL A   1      37.872  34.322  32.786  1.00  0.00     0.029 A 
ATOM     42  N   UNL A   1      39.675  33.077  33.047  1.00  0.00    -0.354 N 
ATOM     43  C   UNL A   1      39.803  29.524  29.528  1.00  0.00     0.074 A 
ATOM     44  C   UNL A   1      38.868  29.894  28.521  1.00  0.00     0.031 C 
ATOM     45  C   UNL A   1      38.471  34.748  33.921  1.00  0.00     0.029 A 
ATOM     46  C   UNL A   1      39.661  33.955  34.164  1.00  0.00     0.049 A 
ATOM     47  H   UNL A   1      40.414  32.447  32.888  1.00  0.00     0.167 HD
ATOM     48  C   UNL A   1      40.919  28.758  29.412  1.00  0.00     0.037 A 
ATOM     49  C   UNL A   1      40.538  33.995  35.216  1.00  0.00     0.037 A 
ATOM     50  C   UNL A   1      41.671  28.820  30.620  1.00  0.00     0.049 A 
ATOM     51  C   UNL A   1      41.629  33.093  34.812  1.00  0.00     0.074 A 
ATOM     52  C   UNL A   1      41.396  28.329  31.870  1.00  0.00     0.029 A 
ATOM     53  N   UNL A   1      42.599  29.833  30.717  1.00  0.00    -0.354 N 
ATOM     54  N   UNL A   1      42.481  33.339  33.861  1.00  0.00    -0.248 NA
ATOM     55  C   UNL A   1      41.700  31.763  35.426  1.00  0.00     0.031 C 
ATOM     56  C   UNL A   1      41.793  29.380  32.718  1.00  0.00     0.029 A 
ATOM     57  C   UNL A   1      42.522  30.334  31.994  1.00  0.00     0.049 A 
ATOM     58  H   UNL A   1      43.204  30.141  30.004  1.00  0.00     0.167 HD
ATOM     59  C   UNL A   1      42.943  32.086  33.546  1.00  0.00     0.074 A 
ATOM     60  C   UNL A   1      42.693  31.251  34.703  1.00  0.00     0.031 C 
ATOM     61  C   UNL A   1      42.975  31.686  32.248  1.00  0.00     0.037 A 
BRANCH  48  62
ATOM     62  C   UNL A   1      41.555  28.137  28.215  1.00  0.00     0.058 A 
ATOM     63  C   UNL A   1      41.504  26.731  28.120  1.00  0.00     0.135 A 
ATOM     64  C   UNL A   1      42.483  28.797  27.394  1.00  0.00     0.135 A 
ATOM     65  F   UNL A   1      40.601  26.029  28.825  1.00  0.00    -0.206 F 
ATOM     66  C   UNL A   1      42.426  26.009  27.378  1.00  0.00     0.059 A 
ATOM     67  C   UNL A   1      43.389  28.092  26.605  1.00  0.00     0.059 A 
ATOM     68  F   UNL A   1      42.597  30.133  27.408  1.00  0.00    -0.206 F 
ATOM     69  C   UNL A   1      43.392  26.699  26.656  1.00  0.00     0.060 A 
BRANCH  69  70
ATOM     70  S   UNL A   1      44.688  25.743  25.847  1.00  0.00     0.124 S 
ATOM     71  O   UNL A   1      45.403  25.192  26.991  1.00  0.00    -0.237 OA
ATOM     72  O   UNL A   1      43.917  24.785  25.060  1.00  0.00    -0.237 OA
ATOM     73  O   UNL A   1      45.408  26.746  25.068  1.00  0.00    -0.744 OA
ENDBRANCH  69  70
ENDBRANCH  48  62
BRANCH  49  74
ATOM     74  C   UNL A   1      40.624  34.567  36.617  1.00  0.00     0.058 A 
ATOM     75  C   UNL A   1      41.653  35.364  37.133  1.00  0.00     0.135 A 
ATOM     76  C   UNL A   1      39.486  34.465  37.473  1.00  0.00     0.135 A 
ATOM     77  F   UNL A   1      42.838  35.448  36.515  1.00  0.00    -0.206 F 
ATOM     78  C   UNL A   1      41.495  36.133  38.304  1.00  0.00     0.059 A 
ATOM     79  C   UNL A   1      39.280  35.260  38.595  1.00  0.00     0.059 A 
ATOM     80  F   UNL A   1      38.485  33.610  37.218  1.00  0.00    -0.206 F 
ATOM     81  C   UNL A   1      40.279  36.126  38.988  1.00  0.00     0.060 A 
BRANCH  81  82
ATOM     82  S   UNL A   1      39.931  37.326  40.292  1.00  0.00     0.124 S 
ATOM     83  O   UNL A   1      40.657  38.502  39.829  1.00  0.00    -0.237 OA
ATOM     84  O   UNL A   1      38.474  37.421  40.255  1.00  0.00    -0.237 OA
ATOM     85  O   UNL A   1      40.471  36.681  41.487  1.00  0.00    -0.744 OA
ENDBRANCH  81  82
ENDBRANCH  49  74
BRANCH  61  86
ATOM     86  C   UNL A   1      43.117  32.810  31.229  1.00  0.00     0.058 A 
ATOM     87  C   UNL A   1      42.069  33.078  30.330  1.00  0.00     0.135 A 
ATOM     88  C   UNL A   1      44.277  33.585  31.051  1.00  0.00     0.135 A 
ATOM     89  F   UNL A   1      40.914  32.402  30.432  1.00  0.00    -0.206 F 
ATOM     90  C   UNL A   1      42.171  34.042  29.321  1.00  0.00     0.059 A 
ATOM     91  C   UNL A   1      44.407  34.557  30.053  1.00  0.00     0.059 A 
ATOM     92  F   UNL A   1      45.328  33.424  31.854  1.00  0.00    -0.206 F 
ATOM     93  C   UNL A   1      43.345  34.782  29.189  1.00  0.00     0.060 A 
BRANCH  93  94
ATOM     94  S   UNL A   1      43.447  36.050  27.902  1.00  0.00     0.124 S 
ATOM     95  O   UNL A   1      43.130  35.297  26.692  1.00  0.00    -0.237 OA
ATOM     96  O   UNL A   1      42.434  37.005  28.335  1.00  0.00    -0.237 OA
ATOM     97  O   UNL A   1      44.828  36.522  27.991  1.00  0.00    -0.744 OA
ENDBRANCH  93  94
ENDBRANCH  61  86
ENDBRANCH  35  36
ENDBRANCH  28  30
ENDBRANCH  27  28
ENDBRANCH  26  27
ENDBRANCH  25  26
ENDBRANCH  24  25
ENDBRANCH   1  24
TORSDOF 22
ENDMDL
MODEL 3
REMARK VINA RESULT:     -10.6      5.098     11.105
REMARK SMILES O=C(Cn1cccc1C(=O)NCCC1CCCCC1)OCCOCCOC(=O)c1ccc(-c2c3nc(c(-c4c(F)cc(S(=O)(=O)[O-])cc4F)c4ccc([nH]4)c(-c4c(F)cc(S(=O)(=O)[O-])cc4F)c4nc(c(-c5c(F)cc(S(=O)(=O)[O-])cc5F)c5ccc2[nH]5)C=C4)C=C3)cc1
REMARK SMILES IDX 22 1 21 2 20 3 2 4 1 5 3 6 4 7 5 8 8 9 6 10 7 11 9 12 10 13
REMARK SMILES IDX 11 14 12 16 13 17 14 18 15 19 19 20 16 21 18 22 17 23 23 24
REMARK SMILES IDX 24 25 25 26 26 27 27 28 28 29 29 30 30 31 94 32 31 33 93 34
REMARK SMILES IDX 32 35 33 36 34 37 87 38 35 39 92 40 86 41 88 42 36 43 91 44
REMARK SMILES IDX 85 45 84 46 37 48 71 49 50 50 70 51 51 52 54 53 69 54 89 55
REMARK SMILES IDX 52 56 53 57 68 59 90 60 55 61 38 62 39 63 48 64 40 65 41 66
REMARK SMILES IDX 47 67 49 68 42 69 43 70 44 71 45 72 46 73 72 74 73 75 82 76
REMARK SMILES IDX 74 77 75 78 81 79 83 80 76 81 77 82 78 83 79 84 80 85 56 86
REMARK SMILES IDX 57 87 66 88 58 89 59 90 65 91 67 92 60 93 61 94 62 95 63 96
REMARK SMILES IDX 64 97
REMARK H PARENT 11 15 88 47 54 58
REMARK Flexibility Score: inf
ROOT
ATOM      1  C   UNL A   1      31.812  30.124  26.032  1.00  0.00     0.202 C 
ENDROOT
BRANCH   1   2
ATOM      2  C   UNL A   1      32.902  29.127  25.677  1.00  0.00     0.261 C 
BRANCH   2   3
ATOM      3  O   UNL A   1      32.983  28.068  26.653  1.00  0.00    -0.462 OA
BRANCH   3   4
ATOM      4  C   UNL A   1      32.320  26.891  26.577  1.00  0.00     0.326 C 
ATOM      5  O   UNL A   1      31.132  26.852  26.906  1.00  0.00    -0.250 OA
BRANCH   4   6
ATOM      6  C   UNL A   1      33.028  25.622  26.162  1.00  0.00     0.244 C 
BRANCH   6   7
ATOM      7  N   UNL A   1      32.222  24.435  25.983  1.00  0.00    -0.332 N 
ATOM      8  C   UNL A   1      32.243  23.439  26.937  1.00  0.00     0.087 A 
ATOM      9  C   UNL A   1      31.299  24.144  24.976  1.00  0.00     0.107 A 
ATOM     10  C   UNL A   1      31.226  22.568  26.672  1.00  0.00     0.020 A 
ATOM     11  C   UNL A   1      30.642  23.003  25.469  1.00  0.00     0.033 A 
BRANCH   9  12
ATOM     12  C   UNL A   1      30.882  24.732  23.682  1.00  0.00     0.267 C 
ATOM     13  O   UNL A   1      29.738  25.200  23.578  1.00  0.00    -0.268 OA
ATOM     14  N   UNL A   1      31.571  24.793  22.491  1.00  0.00    -0.351 N 
ATOM     15  H   UNL A   1      30.993  24.991  21.718  1.00  0.00     0.163 HD
BRANCH  14  16
ATOM     16  C   UNL A   1      32.951  24.629  22.138  1.00  0.00     0.116 C 
BRANCH  16  17
ATOM     17  C   UNL A   1      33.544  23.224  22.116  1.00  0.00     0.025 C 
BRANCH  17  18
ATOM     18  C   UNL A   1      34.581  22.759  23.170  1.00  0.00    -0.009 C 
ATOM     19  C   UNL A   1      35.277  23.842  24.003  1.00  0.00     0.003 C 
ATOM     20  C   UNL A   1      33.878  21.755  24.115  1.00  0.00     0.003 C 
ATOM     21  C   UNL A   1      36.226  23.245  25.049  1.00  0.00     0.000 C 
ATOM     22  C   UNL A   1      34.823  21.153  25.147  1.00  0.00     0.000 C 
ATOM     23  C   UNL A   1      35.528  22.233  25.955  1.00  0.00     0.000 C 
ENDBRANCH  17  18
ENDBRANCH  16  17
ENDBRANCH  14  16
ENDBRANCH   9  12
ENDBRANCH   6   7
ENDBRANCH   4   6
ENDBRANCH   3   4
ENDBRANCH   2   3
ENDBRANCH   1   2
BRANCH   1  24
ATOM     24  O   UNL A   1      32.297  31.079  26.972  1.00  0.00    -0.374 OA
BRANCH  24  25
ATOM     25  C   UNL A   1      33.678  30.982  27.345  1.00  0.00     0.202 C 
BRANCH  25  26
ATOM     26  C   UNL A   1      34.204  32.350  27.729  1.00  0.00     0.261 C 
BRANCH  26  27
ATOM     27  O   UNL A   1      33.307  32.889  28.668  1.00  0.00    -0.460 OA
BRANCH  27  28
ATOM     28  C   UNL A   1      33.265  34.221  28.815  1.00  0.00     0.338 C 
ATOM     29  O   UNL A   1      32.553  35.038  28.228  1.00  0.00    -0.246 OA
BRANCH  28  30
ATOM     30  C   UNL A   1      34.314  34.540  29.784  1.00  0.00     0.060 A 
ATOM     31  C   UNL A   1      35.573  34.771  29.235  1.00  0.00     0.016 A 
ATOM     32  C   UNL A   1      34.123  33.994  31.061  1.00  0.00     0.016 A 
ATOM     33  C   UNL A   1      36.622  34.104  29.810  1.00  0.00     0.010 A 
ATOM     34  C   UNL A   1      35.101  33.161  31.506  1.00  0.00     0.010 A 
ATOM     35  C   UNL A   1      36.342  33.234  30.871  1.00  0.00    -0.014 A 
BRANCH  35  36
ATOM     36  C   UNL A   1      37.445  32.547  31.512  1.00  0.00     0.031 A 
ATOM     37  C   UNL A   1      37.738  31.261  30.721  1.00  0.00     0.074 A 
ATOM     38  C   UNL A   1      37.935  33.171  32.625  1.00  0.00     0.049 A 
ATOM     39  N   UNL A   1      38.299  30.165  31.113  1.00  0.00    -0.248 NA
ATOM     40  C   UNL A   1      37.259  31.120  29.304  1.00  0.00     0.031 C 
ATOM     41  C   UNL A   1      37.443  34.458  33.186  1.00  0.00     0.029 A 
ATOM     42  N   UNL A   1      38.934  32.863  33.514  1.00  0.00    -0.354 N 
ATOM     43  C   UNL A   1      38.476  29.363  29.969  1.00  0.00     0.074 A 
ATOM     44  C   UNL A   1      37.684  29.919  28.927  1.00  0.00     0.031 C 
ATOM     45  C   UNL A   1      38.066  34.748  34.350  1.00  0.00     0.029 A 
ATOM     46  C   UNL A   1      39.053  33.726  34.637  1.00  0.00     0.049 A 
ATOM     47  H   UNL A   1      39.532  32.093  33.381  1.00  0.00     0.167 HD
ATOM     48  C   UNL A   1      39.412  28.381  29.895  1.00  0.00     0.037 A 
ATOM     49  C   UNL A   1      39.871  33.581  35.727  1.00  0.00     0.037 A 
ATOM     50  C   UNL A   1      40.106  28.285  31.135  1.00  0.00     0.049 A 
ATOM     51  C   UNL A   1      40.767  32.472  35.362  1.00  0.00     0.074 A 
ATOM     52  C   UNL A   1      39.679  27.862  32.368  1.00  0.00     0.029 A 
ATOM     53  N   UNL A   1      41.219  29.082  31.282  1.00  0.00    -0.354 N 
ATOM     54  N   UNL A   1      41.693  32.535  34.451  1.00  0.00    -0.248 NA
ATOM     55  C   UNL A   1      40.532  31.156  35.966  1.00  0.00     0.031 C 
ATOM     56  C   UNL A   1      40.248  28.807  33.242  1.00  0.00     0.029 A 
ATOM     57  C   UNL A   1      41.191  29.588  32.560  1.00  0.00     0.049 A 
ATOM     58  H   UNL A   1      41.906  29.257  30.600  1.00  0.00     0.167 HD
ATOM     59  C   UNL A   1      41.898  31.213  34.145  1.00  0.00     0.074 A 
ATOM     60  C   UNL A   1      41.429  30.448  35.282  1.00  0.00     0.031 C 
ATOM     61  C   UNL A   1      41.904  30.816  32.846  1.00  0.00     0.037 A 
BRANCH  48  62
ATOM     62  C   UNL A   1      39.958  27.641  28.721  1.00  0.00     0.058 A 
ATOM     63  C   UNL A   1      39.798  26.240  28.717  1.00  0.00     0.135 A 
ATOM     64  C   UNL A   1      40.903  28.177  27.833  1.00  0.00     0.135 A 
ATOM     65  F   UNL A   1      38.871  25.654  29.493  1.00  0.00    -0.206 F 
ATOM     66  C   UNL A   1      40.637  25.405  27.995  1.00  0.00     0.059 A 
ATOM     67  C   UNL A   1      41.726  27.358  27.062  1.00  0.00     0.059 A 
ATOM     68  F   UNL A   1      41.117  29.499  27.758  1.00  0.00    -0.206 F 
ATOM     69  C   UNL A   1      41.626  25.975  27.202  1.00  0.00     0.060 A 
BRANCH  69  70
ATOM     70  S   UNL A   1      42.818  24.874  26.416  1.00  0.00     0.124 S 
ATOM     71  O   UNL A   1      43.854  24.786  27.438  1.00  0.00    -0.237 OA
ATOM     72  O   UNL A   1      42.028  23.664  26.208  1.00  0.00    -0.237 OA
ATOM     73  O   UNL A   1      43.183  25.591  25.198  1.00  0.00    -0.744 OA
ENDBRANCH  69  70
ENDBRANCH  48  62
BRANCH  49  74
ATOM     74  C   UNL A   1      40.012  34.122  37.136  1.00  0.00     0.058 A 
ATOM     75  C   UNL A   1      41.070  34.892  37.633  1.00  0.00     0.135 A 
ATOM     76  C   UNL A   1      38.901  34.019  38.026  1.00  0.00     0.135 A 
ATOM     77  F   UNL A   1      42.235  34.972  36.979  1.00  0.00    -0.206 F 
ATOM     78  C   UNL A   1      40.962  35.640  38.825  1.00  0.00     0.059 A 
ATOM     79  C   UNL A   1      38.745  34.794  39.170  1.00  0.00     0.059 A 
ATOM     80  F   UNL A   1      37.879  33.186  37.787  1.00  0.00    -0.206 F 
ATOM     81  C   UNL A   1      39.769  35.636  39.548  1.00  0.00     0.060 A 
BRANCH  81  82
ATOM     82  S   UNL A   1      39.482  36.814  40.887  1.00  0.00     0.124 S 
ATOM     83  O   UNL A   1      40.834  37.267  41.191  1.00  0.00    -0.237 OA
ATOM     84  O   UNL A   1      38.605  37.800  40.261  1.00  0.00    -0.237 OA
ATOM     85  O   UNL A   1      38.844  35.995  41.916  1.00  0.00    -0.744 OA
ENDBRANCH  81  82
ENDBRANCH  49  74
BRANCH  61  86
ATOM     86  C   UNL A   1      42.322  31.885  31.845  1.00  0.00     0.058 A 
ATOM     87  C   UNL A   1      43.623  32.418  31.891  1.00  0.00     0.135 A 
ATOM     88  C   UNL A   1      41.468  32.463  30.890  1.00  0.00     0.135 A 
ATOM     89  F   UNL A   1      44.518  31.918  32.758  1.00  0.00    -0.206 F 
ATOM     90  C   UNL A   1      44.041  33.458  31.052  1.00  0.00     0.059 A 
ATOM     91  C   UNL A   1      41.857  33.502  30.036  1.00  0.00     0.059 A 
ATOM     92  F   UNL A   1      40.216  32.028  30.750  1.00  0.00    -0.206 F 
ATOM     93  C   UNL A   1      43.152  33.995  30.123  1.00  0.00     0.060 A 
BRANCH  93  94
ATOM     94  S   UNL A   1      43.719  35.313  29.021  1.00  0.00     0.124 S 
ATOM     95  O   UNL A   1      44.425  36.207  29.935  1.00  0.00    -0.237 OA
ATOM     96  O   UNL A   1      44.559  34.582  28.079  1.00  0.00    -0.237 OA
ATOM     97  O   UNL A   1      42.481  35.854  28.463  1.00  0.00    -0.744 OA
ENDBRANCH  93  94
ENDBRANCH  61  86
ENDBRANCH  35  36
ENDBRANCH  28  30
ENDBRANCH  27  28
ENDBRANCH  26  27
ENDBRANCH  25  26
ENDBRANCH  24  25
ENDBRANCH   1  24
TORSDOF 22
ENDMDL
