MODEL 1
REMARK VINA RESULT:      -8.5      0.000      0.000
REMARK SMILES C=C[C@@H]1[C@@H](O)C[C@@H]2[C@@]3(CC[C@@]4(C)[C@@H]([C@H](C)CCC=C(C)C)CC[C@@]24C)C[C@@]13CCC(=O)OCCOCCOC(=O)c1ccc(-c2c3nc(c(-c4c(F)cc(S(=O)(=O)[O-])cc4F)c4ccc([nH]4)c(-c4c(F)cc(S(=O)(=O)[O-])cc4F)c4nc(c(-c5c(F)cc(S(=O)(=O)[O-])cc5F)c5ccc2[nH]5)C=C4)C=C3)cc1
REMARK SMILES IDX 33 1 32 2 30 3 31 4 29 5 28 6 27 7 3 8 4 9 6 10 8 11 26 12
REMARK SMILES IDX 7 13 9 14 24 15 10 16 11 17 23 18 25 19 12 20 13 21 22 22
REMARK SMILES IDX 2 23 1 24 5 25 14 27 15 28 16 29 17 30 18 31 19 32 20 33
REMARK SMILES IDX 21 34 34 35 35 36 36 37 37 38 38 39 39 40 40 41 41 42 42 43
REMARK SMILES IDX 106 44 43 45 105 46 44 47 45 48 46 49 99 50 47 51 104 52
REMARK SMILES IDX 98 53 100 54 48 55 103 56 97 57 96 58 49 60 83 61 62 62
REMARK SMILES IDX 82 63 63 64 66 65 81 66 101 67 64 68 65 69 80 71 102 72
REMARK SMILES IDX 67 73 50 74 51 75 60 76 52 77 53 78 59 79 61 80 54 81 55 82
REMARK SMILES IDX 56 83 57 84 58 85 84 86 85 87 94 88 86 89 87 90 93 91 95 92
REMARK SMILES IDX 88 93 89 94 90 95 91 96 92 97 68 98 69 99 78 100 70 101
REMARK SMILES IDX 71 102 77 103 79 104 72 105 73 106 74 107 75 108 76 109
REMARK H PARENT 5 26 100 59 66 70
REMARK Flexibility Score: inf
ROOT
ATOM      1  C   UNL A   1      36.101  33.438  33.697  1.00  0.00     0.261 C 
ENDROOT
BRANCH   1   2
ATOM      2  O   UNL A   1      36.749  32.343  34.287  1.00  0.00    -0.463 OA
BRANCH   2   3
ATOM      3  C   UNL A   1      37.371  32.679  35.464  1.00  0.00     0.305 C 
ATOM      4  O   UNL A   1      37.036  33.540  36.287  1.00  0.00    -0.252 OA
BRANCH   3   5
ATOM      5  C   UNL A   1      38.547  31.816  35.580  1.00  0.00     0.123 C 
BRANCH   5   6
ATOM      6  C   UNL A   1      39.123  31.675  34.156  1.00  0.00     0.020 C 
BRANCH   6   7
ATOM      7  C   UNL A   1      40.398  32.522  33.924  1.00  0.00    -0.014 C 
ATOM      8  C   UNL A   1      40.336  33.451  32.675  1.00  0.00     0.047 C 
ATOM      9  C   UNL A   1      41.634  33.393  31.828  1.00  0.00     0.122 C 
ATOM     10  C   UNL A   1      42.919  33.267  32.653  1.00  0.00     0.037 C 
ATOM     11  C   UNL A   1      41.843  32.115  34.591  1.00  0.00    -0.019 C 
ATOM     12  C   UNL A   1      40.972  33.286  35.051  1.00  0.00     0.016 C 
ATOM     13  C   UNL A   1      42.898  31.943  33.440  1.00  0.00     0.005 C 
ATOM     14  C   UNL A   1      42.210  31.449  35.905  1.00  0.00     0.008 C 
ATOM     15  C   UNL A   1      44.346  31.400  33.865  1.00  0.00    -0.023 C 
ATOM     16  C   UNL A   1      43.562  30.719  35.994  1.00  0.00     0.008 C 
ATOM     17  C   UNL A   1      44.364  30.090  34.793  1.00  0.00    -0.024 C 
ATOM     18  C   UNL A   1      45.196  30.869  32.703  1.00  0.00     0.008 C 
ATOM     19  C   UNL A   1      44.969  32.635  34.546  1.00  0.00     0.012 C 
ATOM     20  C   UNL A   1      45.770  29.727  35.422  1.00  0.00     0.012 C 
ATOM     21  C   UNL A   1      44.163  28.714  33.707  1.00  0.00    -0.002 C 
ATOM     22  C   UNL A   1      44.805  29.384  32.426  1.00  0.00     0.005 C 
BRANCH   8  23
ATOM     23  C   UNL A   1      39.041  33.404  31.874  1.00  0.00    -0.028 C 
ATOM     24  C   UNL A   1      38.879  33.645  30.566  1.00  0.00     0.004 C 
ENDBRANCH   8  23
BRANCH   9  25
ATOM     25  O   UNL A   1      41.736  34.588  31.047  1.00  0.00    -0.392 OA
ATOM     26  H   UNL A   1      42.660  34.726  30.785  1.00  0.00     0.210 HD
ENDBRANCH   9  25
BRANCH  21  27
ATOM     27  C   UNL A   1      43.266  27.099  33.538  1.00  0.00    -0.010 C 
ATOM     28  C   UNL A   1      41.750  27.406  33.687  1.00  0.00     0.008 C 
BRANCH  27  29
ATOM     29  C   UNL A   1      43.393  25.332  34.087  1.00  0.00     0.008 C 
BRANCH  29  30
ATOM     30  C   UNL A   1      44.636  24.191  33.989  1.00  0.00     0.027 C 
BRANCH  30  31
ATOM     31  C   UNL A   1      44.751  22.663  34.061  1.00  0.00    -0.028 C 
ATOM     32  C   UNL A   1      45.214  21.944  35.139  1.00  0.00    -0.080 C 
ATOM     33  C   UNL A   1      45.271  20.435  35.127  1.00  0.00     0.039 C 
ATOM     34  C   UNL A   1      45.731  22.447  36.486  1.00  0.00     0.039 C 
ENDBRANCH  30  31
ENDBRANCH  29  30
ENDBRANCH  27  29
ENDBRANCH  21  27
ENDBRANCH   6   7
ENDBRANCH   5   6
ENDBRANCH   3   5
ENDBRANCH   2   3
ENDBRANCH   1   2
BRANCH   1  35
ATOM     35  C   UNL A   1      34.512  33.386  33.402  1.00  0.00     0.202 C 
BRANCH  35  36
ATOM     36  O   UNL A   1      33.867  33.055  32.191  1.00  0.00    -0.374 OA
BRANCH  36  37
ATOM     37  C   UNL A   1      34.681  33.209  31.010  1.00  0.00     0.202 C 
BRANCH  37  38
ATOM     38  C   UNL A   1      34.969  32.086  29.940  1.00  0.00     0.261 C 
BRANCH  38  39
ATOM     39  O   UNL A   1      36.267  31.423  29.812  1.00  0.00    -0.460 OA
BRANCH  39  40
ATOM     40  C   UNL A   1      36.662  30.379  30.596  1.00  0.00     0.338 C 
ATOM     41  O   UNL A   1      35.903  29.732  31.303  1.00  0.00    -0.246 OA
BRANCH  40  42
ATOM     42  C   UNL A   1      38.129  29.993  30.361  1.00  0.00     0.060 A 
ATOM     43  C   UNL A   1      38.619  30.018  29.040  1.00  0.00     0.016 A 
ATOM     44  C   UNL A   1      39.074  29.780  31.378  1.00  0.00     0.016 A 
ATOM     45  C   UNL A   1      40.011  30.030  28.752  1.00  0.00     0.010 A 
ATOM     46  C   UNL A   1      40.476  29.746  31.081  1.00  0.00     0.010 A 
ATOM     47  C   UNL A   1      40.976  29.926  29.762  1.00  0.00    -0.014 A 
BRANCH  47  48
ATOM     48  C   UNL A   1      42.423  29.635  29.379  1.00  0.00     0.031 A 
ATOM     49  C   UNL A   1      42.652  28.201  28.976  1.00  0.00     0.074 A 
ATOM     50  C   UNL A   1      43.469  30.496  29.227  1.00  0.00     0.049 A 
ATOM     51  N   UNL A   1      43.717  27.629  28.485  1.00  0.00    -0.248 NA
ATOM     52  C   UNL A   1      41.478  27.313  29.068  1.00  0.00     0.031 C 
ATOM     53  C   UNL A   1      43.421  31.951  29.305  1.00  0.00     0.029 A 
ATOM     54  N   UNL A   1      44.819  30.283  28.968  1.00  0.00    -0.354 N 
ATOM     55  C   UNL A   1      43.322  26.339  28.163  1.00  0.00     0.074 A 
ATOM     56  C   UNL A   1      41.950  26.185  28.578  1.00  0.00     0.031 C 
ATOM     57  C   UNL A   1      44.658  32.480  29.313  1.00  0.00     0.029 A 
ATOM     58  C   UNL A   1      45.615  31.422  29.047  1.00  0.00     0.049 A 
ATOM     59  H   UNL A   1      45.183  29.395  28.747  1.00  0.00     0.167 HD
ATOM     60  C   UNL A   1      44.019  25.368  27.537  1.00  0.00     0.037 A 
ATOM     61  C   UNL A   1      46.940  31.632  28.853  1.00  0.00     0.037 A 
ATOM     62  C   UNL A   1      45.392  25.497  27.154  1.00  0.00     0.049 A 
ATOM     63  C   UNL A   1      47.749  30.489  28.296  1.00  0.00     0.074 A 
ATOM     64  C   UNL A   1      46.213  24.545  26.584  1.00  0.00     0.029 A 
ATOM     65  N   UNL A   1      46.155  26.643  27.333  1.00  0.00    -0.354 N 
ATOM     66  N   UNL A   1      47.338  29.283  27.982  1.00  0.00    -0.248 NA
ATOM     67  C   UNL A   1      49.169  30.733  28.005  1.00  0.00     0.031 C 
ATOM     68  C   UNL A   1      47.495  25.092  26.483  1.00  0.00     0.029 A 
ATOM     69  C   UNL A   1      47.454  26.407  26.922  1.00  0.00     0.049 A 
ATOM     70  H   UNL A   1      45.821  27.494  27.697  1.00  0.00     0.167 HD
ATOM     71  C   UNL A   1      48.435  28.637  27.430  1.00  0.00     0.074 A 
ATOM     72  C   UNL A   1      49.528  29.588  27.439  1.00  0.00     0.031 C 
ATOM     73  C   UNL A   1      48.526  27.373  26.951  1.00  0.00     0.037 A 
BRANCH  60  74
ATOM     74  C   UNL A   1      43.294  24.072  27.335  1.00  0.00     0.058 A 
ATOM     75  C   UNL A   1      43.302  23.055  28.308  1.00  0.00     0.135 A 
ATOM     76  C   UNL A   1      42.704  23.795  26.094  1.00  0.00     0.135 A 
ATOM     77  F   UNL A   1      43.907  23.253  29.490  1.00  0.00    -0.206 F 
ATOM     78  C   UNL A   1      42.796  21.791  28.033  1.00  0.00     0.059 A 
ATOM     79  C   UNL A   1      42.162  22.548  25.811  1.00  0.00     0.059 A 
ATOM     80  F   UNL A   1      42.700  24.724  25.126  1.00  0.00    -0.206 F 
ATOM     81  C   UNL A   1      42.234  21.546  26.778  1.00  0.00     0.060 A 
BRANCH  81  82
ATOM     82  S   UNL A   1      41.620  19.890  26.415  1.00  0.00     0.124 S 
ATOM     83  O   UNL A   1      42.444  19.517  25.271  1.00  0.00    -0.237 OA
ATOM     84  O   UNL A   1      41.899  19.177  27.658  1.00  0.00    -0.237 OA
ATOM     85  O   UNL A   1      40.206  20.109  26.126  1.00  0.00    -0.744 OA
ENDBRANCH  81  82
ENDBRANCH  60  74
BRANCH  61  86
ATOM     86  C   UNL A   1      47.586  32.967  29.114  1.00  0.00     0.058 A 
ATOM     87  C   UNL A   1      47.768  33.934  28.108  1.00  0.00     0.135 A 
ATOM     88  C   UNL A   1      48.089  33.286  30.389  1.00  0.00     0.135 A 
ATOM     89  F   UNL A   1      47.335  33.691  26.862  1.00  0.00    -0.206 F 
ATOM     90  C   UNL A   1      48.427  35.145  28.347  1.00  0.00     0.059 A 
ATOM     91  C   UNL A   1      48.733  34.498  30.659  1.00  0.00     0.059 A 
ATOM     92  F   UNL A   1      47.962  32.408  31.396  1.00  0.00    -0.206 F 
ATOM     93  C   UNL A   1      48.904  35.421  29.630  1.00  0.00     0.060 A 
BRANCH  93  94
ATOM     94  S   UNL A   1      49.724  37.008  29.937  1.00  0.00     0.124 S 
ATOM     95  O   UNL A   1      49.913  36.975  31.382  1.00  0.00    -0.237 OA
ATOM     96  O   UNL A   1      50.937  36.885  29.133  1.00  0.00    -0.237 OA
ATOM     97  O   UNL A   1      48.756  37.988  29.452  1.00  0.00    -0.744 OA
ENDBRANCH  93  94
ENDBRANCH  61  86
BRANCH  73  98
ATOM     98  C   UNL A   1      49.848  26.933  26.397  1.00  0.00     0.058 A 
ATOM     99  C   UNL A   1      50.733  26.152  27.152  1.00  0.00     0.135 A 
ATOM    100  C   UNL A   1      50.177  27.205  25.060  1.00  0.00     0.135 A 
ATOM    101  F   UNL A   1      50.462  25.869  28.436  1.00  0.00    -0.206 F 
ATOM    102  C   UNL A   1      51.909  25.658  26.602  1.00  0.00     0.059 A 
ATOM    103  C   UNL A   1      51.331  26.694  24.479  1.00  0.00     0.059 A 
ATOM    104  F   UNL A   1      49.353  27.939  24.295  1.00  0.00    -0.206 F 
ATOM    105  C   UNL A   1      52.192  25.926  25.261  1.00  0.00     0.060 A 
BRANCH 105 106
ATOM    106  S   UNL A   1      53.687  25.218  24.541  1.00  0.00     0.124 S 
ATOM    107  O   UNL A   1      53.517  23.802  24.848  1.00  0.00    -0.237 OA
ATOM    108  O   UNL A   1      53.557  25.583  23.134  1.00  0.00    -0.237 OA
ATOM    109  O   UNL A   1      54.763  25.893  25.261  1.00  0.00    -0.744 OA
ENDBRANCH 105 106
ENDBRANCH  73  98
ENDBRANCH  47  48
ENDBRANCH  40  42
ENDBRANCH  39  40
ENDBRANCH  38  39
ENDBRANCH  37  38
ENDBRANCH  36  37
ENDBRANCH  35  36
ENDBRANCH   1  35
TORSDOF 25
ENDMDL
MODEL 2
REMARK VINA RESULT:      -7.5      2.557      9.175
REMARK SMILES C=C[C@@H]1[C@@H](O)C[C@@H]2[C@@]3(CC[C@@]4(C)[C@@H]([C@H](C)CCC=C(C)C)CC[C@@]24C)C[C@@]13CCC(=O)OCCOCCOC(=O)c1ccc(-c2c3nc(c(-c4c(F)cc(S(=O)(=O)[O-])cc4F)c4ccc([nH]4)c(-c4c(F)cc(S(=O)(=O)[O-])cc4F)c4nc(c(-c5c(F)cc(S(=O)(=O)[O-])cc5F)c5ccc2[nH]5)C=C4)C=C3)cc1
REMARK SMILES IDX 33 1 32 2 30 3 31 4 29 5 28 6 27 7 3 8 4 9 6 10 8 11 26 12
REMARK SMILES IDX 7 13 9 14 24 15 10 16 11 17 23 18 25 19 12 20 13 21 22 22
REMARK SMILES IDX 2 23 1 24 5 25 14 27 15 28 16 29 17 30 18 31 19 32 20 33
REMARK SMILES IDX 21 34 34 35 35 36 36 37 37 38 38 39 39 40 40 41 41 42 42 43
REMARK SMILES IDX 106 44 43 45 105 46 44 47 45 48 46 49 99 50 47 51 104 52
REMARK SMILES IDX 98 53 100 54 48 55 103 56 97 57 96 58 49 60 83 61 62 62
REMARK SMILES IDX 82 63 63 64 66 65 81 66 101 67 64 68 65 69 80 71 102 72
REMARK SMILES IDX 67 73 50 74 51 75 60 76 52 77 53 78 59 79 61 80 54 81 55 82
REMARK SMILES IDX 56 83 57 84 58 85 84 86 85 87 94 88 86 89 87 90 93 91 95 92
REMARK SMILES IDX 88 93 89 94 90 95 91 96 92 97 68 98 69 99 78 100 70 101
REMARK SMILES IDX 71 102 77 103 79 104 72 105 73 106 74 107 75 108 76 109
REMARK H PARENT 5 26 100 59 66 70
REMARK Flexibility Score: inf
ROOT
ATOM      1  C   UNL A   1      36.448  33.626  33.738  1.00  0.00     0.261 C 
ENDROOT
BRANCH   1   2
ATOM      2  O   UNL A   1      37.254  32.607  34.266  1.00  0.00    -0.463 OA
BRANCH   2   3
ATOM      3  C   UNL A   1      37.515  32.790  35.602  1.00  0.00     0.305 C 
ATOM      4  O   UNL A   1      36.798  33.329  36.454  1.00  0.00    -0.252 OA
BRANCH   3   5
ATOM      5  C   UNL A   1      38.840  32.222  35.854  1.00  0.00     0.123 C 
BRANCH   5   6
ATOM      6  C   UNL A   1      39.410  31.827  34.477  1.00  0.00     0.020 C 
BRANCH   6   7
ATOM      7  C   UNL A   1      40.937  32.057  34.356  1.00  0.00    -0.014 C 
ATOM      8  C   UNL A   1      41.795  30.762  34.471  1.00  0.00     0.047 C 
ATOM      9  C   UNL A   1      43.022  30.945  35.403  1.00  0.00     0.122 C 
ATOM     10  C   UNL A   1      43.684  32.322  35.308  1.00  0.00     0.037 C 
ATOM     11  C   UNL A   1      41.613  33.533  34.608  1.00  0.00    -0.019 C 
ATOM     12  C   UNL A   1      41.458  32.869  33.238  1.00  0.00     0.016 C 
ATOM     13  C   UNL A   1      42.684  33.406  35.752  1.00  0.00     0.005 C 
ATOM     14  C   UNL A   1      41.117  34.942  34.345  1.00  0.00     0.008 C 
ATOM     15  C   UNL A   1      43.362  34.769  36.257  1.00  0.00    -0.023 C 
ATOM     16  C   UNL A   1      41.720  36.090  35.174  1.00  0.00     0.008 C 
ATOM     17  C   UNL A   1      42.355  35.970  36.611  1.00  0.00    -0.024 C 
ATOM     18  C   UNL A   1      44.076  34.664  37.611  1.00  0.00     0.008 C 
ATOM     19  C   UNL A   1      44.322  35.104  35.098  1.00  0.00     0.012 C 
ATOM     20  C   UNL A   1      43.038  37.377  36.845  1.00  0.00     0.012 C 
ATOM     21  C   UNL A   1      41.765  35.653  38.243  1.00  0.00    -0.002 C 
ATOM     22  C   UNL A   1      43.030  34.851  38.753  1.00  0.00     0.005 C 
BRANCH   8  23
ATOM     23  C   UNL A   1      41.021  29.466  34.672  1.00  0.00    -0.028 C 
ATOM     24  C   UNL A   1      40.845  28.473  33.789  1.00  0.00     0.004 C 
ENDBRANCH   8  23
BRANCH   9  25
ATOM     25  O   UNL A   1      44.011  29.965  35.070  1.00  0.00    -0.392 OA
ATOM     26  H   UNL A   1      43.769  29.114  35.466  1.00  0.00     0.210 HD
ENDBRANCH   9  25
BRANCH  21  27
ATOM     27  C   UNL A   1      40.223  35.675  39.275  1.00  0.00    -0.010 C 
ATOM     28  C   UNL A   1      39.225  34.683  38.616  1.00  0.00     0.008 C 
BRANCH  27  29
ATOM     29  C   UNL A   1      39.110  36.871  40.153  1.00  0.00     0.008 C 
BRANCH  29  30
ATOM     30  C   UNL A   1      39.336  38.455  40.695  1.00  0.00     0.027 C 
BRANCH  30  31
ATOM     31  C   UNL A   1      40.181  39.665  40.274  1.00  0.00    -0.028 C 
ATOM     32  C   UNL A   1      41.518  39.842  40.546  1.00  0.00    -0.080 C 
ATOM     33  C   UNL A   1      42.275  41.060  40.071  1.00  0.00     0.039 C 
ATOM     34  C   UNL A   1      42.476  38.935  41.318  1.00  0.00     0.039 C 
ENDBRANCH  30  31
ENDBRANCH  29  30
ENDBRANCH  27  29
ENDBRANCH  21  27
ENDBRANCH   6   7
ENDBRANCH   5   6
ENDBRANCH   3   5
ENDBRANCH   2   3
ENDBRANCH   1   2
BRANCH   1  35
ATOM     35  C   UNL A   1      34.849  33.424  33.618  1.00  0.00     0.202 C 
BRANCH  35  36
ATOM     36  O   UNL A   1      34.050  33.510  32.458  1.00  0.00    -0.374 OA
BRANCH  36  37
ATOM     37  C   UNL A   1      34.675  34.175  31.341  1.00  0.00     0.202 C 
BRANCH  37  38
ATOM     38  C   UNL A   1      35.437  33.462  30.157  1.00  0.00     0.261 C 
BRANCH  38  39
ATOM     39  O   UNL A   1      36.688  32.729  30.345  1.00  0.00    -0.460 OA
BRANCH  39  40
ATOM     40  C   UNL A   1      36.752  31.453  30.823  1.00  0.00     0.338 C 
ATOM     41  O   UNL A   1      35.817  30.881  31.366  1.00  0.00    -0.246 OA
BRANCH  40  42
ATOM     42  C   UNL A   1      38.066  30.753  30.450  1.00  0.00     0.060 A 
ATOM     43  C   UNL A   1      38.234  30.321  29.119  1.00  0.00     0.016 A 
ATOM     44  C   UNL A   1      39.189  30.658  31.288  1.00  0.00     0.016 A 
ATOM     45  C   UNL A   1      39.512  29.995  28.588  1.00  0.00     0.010 A 
ATOM     46  C   UNL A   1      40.468  30.285  30.761  1.00  0.00     0.010 A 
ATOM     47  C   UNL A   1      40.665  29.997  29.382  1.00  0.00    -0.014 A 
BRANCH  47  48
ATOM     48  C   UNL A   1      41.937  29.349  28.845  1.00  0.00     0.031 A 
ATOM     49  C   UNL A   1      43.090  30.313  28.732  1.00  0.00     0.074 A 
ATOM     50  C   UNL A   1      42.200  28.035  28.592  1.00  0.00     0.049 A 
ATOM     51  N   UNL A   1      44.339  30.092  28.428  1.00  0.00    -0.248 NA
ATOM     52  C   UNL A   1      42.796  31.711  29.097  1.00  0.00     0.031 C 
ATOM     53  C   UNL A   1      41.330  26.900  28.875  1.00  0.00     0.029 A 
ATOM     54  N   UNL A   1      43.299  27.400  28.024  1.00  0.00    -0.354 N 
ATOM     55  C   UNL A   1      44.981  31.306  28.619  1.00  0.00     0.074 A 
ATOM     56  C   UNL A   1      43.981  32.276  28.991  1.00  0.00     0.031 C 
ATOM     57  C   UNL A   1      41.803  25.772  28.316  1.00  0.00     0.029 A 
ATOM     58  C   UNL A   1      43.125  26.041  27.780  1.00  0.00     0.049 A 
ATOM     59  H   UNL A   1      44.135  27.875  27.810  1.00  0.00     0.167 HD
ATOM     60  C   UNL A   1      46.296  31.595  28.536  1.00  0.00     0.037 A 
ATOM     61  C   UNL A   1      43.941  25.088  27.267  1.00  0.00     0.037 A 
ATOM     62  C   UNL A   1      47.293  30.650  28.131  1.00  0.00     0.049 A 
ATOM     63  C   UNL A   1      45.381  25.463  27.029  1.00  0.00     0.074 A 
ATOM     64  C   UNL A   1      48.643  30.862  27.939  1.00  0.00     0.029 A 
ATOM     65  N   UNL A   1      47.038  29.320  27.826  1.00  0.00    -0.354 N 
ATOM     66  N   UNL A   1      45.963  26.620  27.240  1.00  0.00    -0.248 NA
ATOM     67  C   UNL A   1      46.292  24.412  26.550  1.00  0.00     0.031 C 
ATOM     68  C   UNL A   1      49.196  29.676  27.448  1.00  0.00     0.029 A 
ATOM     69  C   UNL A   1      48.204  28.707  27.404  1.00  0.00     0.049 A 
ATOM     70  H   UNL A   1      46.161  28.880  27.898  1.00  0.00     0.167 HD
ATOM     71  C   UNL A   1      47.307  26.431  26.952  1.00  0.00     0.074 A 
ATOM     72  C   UNL A   1      47.459  25.043  26.563  1.00  0.00     0.031 C 
ATOM     73  C   UNL A   1      48.324  27.324  27.013  1.00  0.00     0.037 A 
BRANCH  60  74
ATOM     74  C   UNL A   1      46.669  33.021  28.806  1.00  0.00     0.058 A 
ATOM     75  C   UNL A   1      46.961  33.482  30.103  1.00  0.00     0.135 A 
ATOM     76  C   UNL A   1      46.593  33.963  27.771  1.00  0.00     0.135 A 
ATOM     77  F   UNL A   1      46.986  32.626  31.137  1.00  0.00    -0.206 F 
ATOM     78  C   UNL A   1      47.112  34.837  30.370  1.00  0.00     0.059 A 
ATOM     79  C   UNL A   1      46.775  35.319  28.010  1.00  0.00     0.059 A 
ATOM     80  F   UNL A   1      46.288  33.574  26.524  1.00  0.00    -0.206 F 
ATOM     81  C   UNL A   1      47.009  35.749  29.316  1.00  0.00     0.060 A 
BRANCH  81  82
ATOM     82  S   UNL A   1      47.163  37.508  29.679  1.00  0.00     0.124 S 
ATOM     83  O   UNL A   1      47.256  37.499  31.135  1.00  0.00    -0.237 OA
ATOM     84  O   UNL A   1      48.386  37.865  28.966  1.00  0.00    -0.237 OA
ATOM     85  O   UNL A   1      45.934  38.075  29.132  1.00  0.00    -0.744 OA
ENDBRANCH  81  82
ENDBRANCH  60  74
BRANCH  61  86
ATOM     86  C   UNL A   1      43.465  23.684  26.999  1.00  0.00     0.058 A 
ATOM     87  C   UNL A   1      43.046  23.252  25.728  1.00  0.00     0.135 A 
ATOM     88  C   UNL A   1      43.371  22.745  28.044  1.00  0.00     0.135 A 
ATOM     89  F   UNL A   1      43.085  24.099  24.689  1.00  0.00    -0.206 F 
ATOM     90  C   UNL A   1      42.545  21.964  25.504  1.00  0.00     0.059 A 
ATOM     91  C   UNL A   1      42.894  21.446  27.843  1.00  0.00     0.059 A 
ATOM     92  F   UNL A   1      43.742  23.089  29.287  1.00  0.00    -0.206 F 
ATOM     93  C   UNL A   1      42.476  21.065  26.570  1.00  0.00     0.060 A 
BRANCH  93  94
ATOM     94  S   UNL A   1      41.859  19.389  26.261  1.00  0.00     0.124 S 
ATOM     95  O   UNL A   1      42.275  18.688  27.470  1.00  0.00    -0.237 OA
ATOM     96  O   UNL A   1      40.424  19.614  26.117  1.00  0.00    -0.237 OA
ATOM     97  O   UNL A   1      42.551  18.994  25.037  1.00  0.00    -0.744 OA
ENDBRANCH  93  94
ENDBRANCH  61  86
BRANCH  73  98
ATOM     98  C   UNL A   1      49.695  26.839  26.650  1.00  0.00     0.058 A 
ATOM     99  C   UNL A   1      50.150  26.856  25.324  1.00  0.00     0.135 A 
ATOM    100  C   UNL A   1      50.599  26.463  27.656  1.00  0.00     0.135 A 
ATOM    101  F   UNL A   1      49.320  27.207  24.328  1.00  0.00    -0.206 F 
ATOM    102  C   UNL A   1      51.455  26.507  25.003  1.00  0.00     0.059 A 
ATOM    103  C   UNL A   1      51.918  26.141  27.363  1.00  0.00     0.059 A 
ATOM    104  F   UNL A   1      50.213  26.444  28.941  1.00  0.00    -0.206 F 
ATOM    105  C   UNL A   1      52.334  26.162  26.032  1.00  0.00     0.060 A 
BRANCH 105 106
ATOM    106  S   UNL A   1      54.046  25.781  25.607  1.00  0.00     0.124 S 
ATOM    107  O   UNL A   1      53.873  24.731  24.609  1.00  0.00    -0.237 OA
ATOM    108  O   UNL A   1      54.533  27.061  25.106  1.00  0.00    -0.237 OA
ATOM    109  O   UNL A   1      54.623  25.350  26.878  1.00  0.00    -0.744 OA
ENDBRANCH 105 106
ENDBRANCH  73  98
ENDBRANCH  47  48
ENDBRANCH  40  42
ENDBRANCH  39  40
ENDBRANCH  38  39
ENDBRANCH  37  38
ENDBRANCH  36  37
ENDBRANCH  35  36
ENDBRANCH   1  35
TORSDOF 25
ENDMDL
MODEL 3
REMARK VINA RESULT:      -7.5      0.988      7.773
REMARK SMILES C=C[C@@H]1[C@@H](O)C[C@@H]2[C@@]3(CC[C@@]4(C)[C@@H]([C@H](C)CCC=C(C)C)CC[C@@]24C)C[C@@]13CCC(=O)OCCOCCOC(=O)c1ccc(-c2c3nc(c(-c4c(F)cc(S(=O)(=O)[O-])cc4F)c4ccc([nH]4)c(-c4c(F)cc(S(=O)(=O)[O-])cc4F)c4nc(c(-c5c(F)cc(S(=O)(=O)[O-])cc5F)c5ccc2[nH]5)C=C4)C=C3)cc1
REMARK SMILES IDX 33 1 32 2 30 3 31 4 29 5 28 6 27 7 3 8 4 9 6 10 8 11 26 12
REMARK SMILES IDX 7 13 9 14 24 15 10 16 11 17 23 18 25 19 12 20 13 21 22 22
REMARK SMILES IDX 2 23 1 24 5 25 14 27 15 28 16 29 17 30 18 31 19 32 20 33
REMARK SMILES IDX 21 34 34 35 35 36 36 37 37 38 38 39 39 40 40 41 41 42 42 43
REMARK SMILES IDX 106 44 43 45 105 46 44 47 45 48 46 49 99 50 47 51 104 52
REMARK SMILES IDX 98 53 100 54 48 55 103 56 97 57 96 58 49 60 83 61 62 62
REMARK SMILES IDX 82 63 63 64 66 65 81 66 101 67 64 68 65 69 80 71 102 72
REMARK SMILES IDX 67 73 50 74 51 75 60 76 52 77 53 78 59 79 61 80 54 81 55 82
REMARK SMILES IDX 56 83 57 84 58 85 84 86 85 87 94 88 86 89 87 90 93 91 95 92
REMARK SMILES IDX 88 93 89 94 90 95 91 96 92 97 68 98 69 99 78 100 70 101
REMARK SMILES IDX 71 102 77 103 79 104 72 105 73 106 74 107 75 108 76 109
REMARK H PARENT 5 26 100 59 66 70
REMARK Flexibility Score: inf
ROOT
ATOM      1  C   UNL A   1      36.721  33.044  33.944  1.00  0.00     0.261 C 
ENDROOT
BRANCH   1   2
ATOM      2  O   UNL A   1      37.072  31.742  34.333  1.00  0.00    -0.463 OA
BRANCH   2   3
ATOM      3  C   UNL A   1      37.942  31.735  35.395  1.00  0.00     0.305 C 
ATOM      4  O   UNL A   1      37.679  31.822  36.601  1.00  0.00    -0.252 OA
BRANCH   3   5
ATOM      5  C   UNL A   1      39.289  31.607  34.834  1.00  0.00     0.123 C 
BRANCH   5   6
ATOM      6  C   UNL A   1      39.359  32.589  33.648  1.00  0.00     0.020 C 
BRANCH   6   7
ATOM      7  C   UNL A   1      40.658  33.432  33.627  1.00  0.00    -0.014 C 
ATOM      8  C   UNL A   1      40.864  34.263  32.325  1.00  0.00     0.047 C 
ATOM      9  C   UNL A   1      42.313  34.158  31.778  1.00  0.00     0.122 C 
ATOM     10  C   UNL A   1      43.393  34.110  32.863  1.00  0.00     0.037 C 
ATOM     11  C   UNL A   1      41.927  33.094  34.613  1.00  0.00    -0.019 C 
ATOM     12  C   UNL A   1      40.983  34.286  34.787  1.00  0.00     0.016 C 
ATOM     13  C   UNL A   1      43.201  32.849  33.727  1.00  0.00     0.005 C 
ATOM     14  C   UNL A   1      42.005  32.534  36.021  1.00  0.00     0.008 C 
ATOM     15  C   UNL A   1      44.525  32.358  34.488  1.00  0.00    -0.023 C 
ATOM     16  C   UNL A   1      43.305  31.830  36.450  1.00  0.00     0.008 C 
ATOM     17  C   UNL A   1      44.341  31.122  35.497  1.00  0.00    -0.024 C 
ATOM     18  C   UNL A   1      45.599  31.751  33.577  1.00  0.00     0.008 C 
ATOM     19  C   UNL A   1      44.994  33.649  35.190  1.00  0.00     0.012 C 
ATOM     20  C   UNL A   1      45.580  30.825  36.434  1.00  0.00     0.012 C 
ATOM     21  C   UNL A   1      44.368  29.666  34.502  1.00  0.00    -0.002 C 
ATOM     22  C   UNL A   1      45.270  30.245  33.337  1.00  0.00     0.005 C 
BRANCH   8  23
ATOM     23  C   UNL A   1      39.768  34.140  31.275  1.00  0.00    -0.028 C 
ATOM     24  C   UNL A   1      39.902  33.781  29.991  1.00  0.00     0.004 C 
ENDBRANCH   8  23
BRANCH   9  25
ATOM     25  O   UNL A   1      42.582  35.291  30.947  1.00  0.00    -0.392 OA
ATOM     26  H   UNL A   1      41.943  35.318  30.219  1.00  0.00     0.210 HD
ENDBRANCH   9  25
BRANCH  21  27
ATOM     27  C   UNL A   1      43.522  28.031  34.271  1.00  0.00    -0.010 C 
ATOM     28  C   UNL A   1      42.785  28.093  32.904  1.00  0.00     0.008 C 
BRANCH  27  29
ATOM     29  C   UNL A   1      42.530  26.789  35.227  1.00  0.00     0.008 C 
BRANCH  29  30
ATOM     30  C   UNL A   1      42.221  25.145  34.987  1.00  0.00     0.027 C 
BRANCH  30  31
ATOM     31  C   UNL A   1      42.992  23.831  35.165  1.00  0.00    -0.028 C 
ATOM     32  C   UNL A   1      44.270  23.713  35.660  1.00  0.00    -0.080 C 
ATOM     33  C   UNL A   1      44.943  22.370  35.820  1.00  0.00     0.039 C 
ATOM     34  C   UNL A   1      45.230  24.805  36.129  1.00  0.00     0.039 C 
ENDBRANCH  30  31
ENDBRANCH  29  30
ENDBRANCH  27  29
ENDBRANCH  21  27
ENDBRANCH   6   7
ENDBRANCH   5   6
ENDBRANCH   3   5
ENDBRANCH   2   3
ENDBRANCH   1   2
BRANCH   1  35
ATOM     35  C   UNL A   1      35.175  33.515  33.970  1.00  0.00     0.202 C 
BRANCH  35  36
ATOM     36  O   UNL A   1      34.359  33.868  32.874  1.00  0.00    -0.374 OA
BRANCH  36  37
ATOM     37  C   UNL A   1      35.077  34.301  31.700  1.00  0.00     0.202 C 
BRANCH  37  38
ATOM     38  C   UNL A   1      35.438  33.397  30.458  1.00  0.00     0.261 C 
BRANCH  38  39
ATOM     39  O   UNL A   1      36.639  32.563  30.406  1.00  0.00    -0.460 OA
BRANCH  39  40
ATOM     40  C   UNL A   1      36.686  31.275  30.853  1.00  0.00     0.338 C 
ATOM     41  O   UNL A   1      35.743  30.703  31.383  1.00  0.00    -0.246 OA
BRANCH  40  42
ATOM     42  C   UNL A   1      37.989  30.565  30.461  1.00  0.00     0.060 A 
ATOM     43  C   UNL A   1      38.247  30.359  29.091  1.00  0.00     0.016 A 
ATOM     44  C   UNL A   1      39.031  30.255  31.351  1.00  0.00     0.016 A 
ATOM     45  C   UNL A   1      39.547  30.047  28.607  1.00  0.00     0.010 A 
ATOM     46  C   UNL A   1      40.329  29.896  30.863  1.00  0.00     0.010 A 
ATOM     47  C   UNL A   1      40.627  29.837  29.473  1.00  0.00    -0.014 A 
BRANCH  47  48
ATOM     48  C   UNL A   1      41.906  29.210  28.927  1.00  0.00     0.031 A 
ATOM     49  C   UNL A   1      43.049  30.186  28.830  1.00  0.00     0.074 A 
ATOM     50  C   UNL A   1      42.181  27.903  28.654  1.00  0.00     0.049 A 
ATOM     51  N   UNL A   1      44.301  29.982  28.522  1.00  0.00    -0.248 NA
ATOM     52  C   UNL A   1      42.742  31.575  29.217  1.00  0.00     0.031 C 
ATOM     53  C   UNL A   1      41.322  26.755  28.918  1.00  0.00     0.029 A 
ATOM     54  N   UNL A   1      43.286  27.287  28.076  1.00  0.00    -0.354 N 
ATOM     55  C   UNL A   1      44.931  31.199  28.732  1.00  0.00     0.074 A 
ATOM     56  C   UNL A   1      43.922  32.153  29.120  1.00  0.00     0.031 C 
ATOM     57  C   UNL A   1      41.806  25.640  28.342  1.00  0.00     0.029 A 
ATOM     58  C   UNL A   1      43.125  25.930  27.811  1.00  0.00     0.049 A 
ATOM     59  H   UNL A   1      44.118  27.773  27.870  1.00  0.00     0.167 HD
ATOM     60  C   UNL A   1      46.244  31.501  28.655  1.00  0.00     0.037 A 
ATOM     61  C   UNL A   1      43.951  24.993  27.283  1.00  0.00     0.037 A 
ATOM     62  C   UNL A   1      47.249  30.573  28.235  1.00  0.00     0.049 A 
ATOM     63  C   UNL A   1      45.387  25.385  27.052  1.00  0.00     0.074 A 
ATOM     64  C   UNL A   1      48.597  30.800  28.048  1.00  0.00     0.029 A 
ATOM     65  N   UNL A   1      47.007  29.245  27.909  1.00  0.00    -0.354 N 
ATOM     66  N   UNL A   1      45.958  26.545  27.281  1.00  0.00    -0.248 NA
ATOM     67  C   UNL A   1      46.308  24.351  26.557  1.00  0.00     0.031 C 
ATOM     68  C   UNL A   1      49.161  29.628  27.538  1.00  0.00     0.029 A 
ATOM     69  C   UNL A   1      48.179  28.650  27.479  1.00  0.00     0.049 A 
ATOM     70  H   UNL A   1      46.134  28.796  27.975  1.00  0.00     0.167 HD
ATOM     71  C   UNL A   1      47.303  26.373  26.990  1.00  0.00     0.074 A 
ATOM     72  C   UNL A   1      47.469  24.993  26.579  1.00  0.00     0.031 C 
ATOM     73  C   UNL A   1      48.312  27.274  27.066  1.00  0.00     0.037 A 
BRANCH  60  74
ATOM     74  C   UNL A   1      46.603  32.927  28.948  1.00  0.00     0.058 A 
ATOM     75  C   UNL A   1      46.459  33.943  27.986  1.00  0.00     0.135 A 
ATOM     76  C   UNL A   1      47.230  33.247  30.160  1.00  0.00     0.135 A 
ATOM     77  F   UNL A   1      45.919  33.671  26.787  1.00  0.00    -0.206 F 
ATOM     78  C   UNL A   1      46.976  35.216  28.199  1.00  0.00     0.059 A 
ATOM     79  C   UNL A   1      47.722  34.522  30.407  1.00  0.00     0.059 A 
ATOM     80  F   UNL A   1      47.415  32.303  31.095  1.00  0.00    -0.206 F 
ATOM     81  C   UNL A   1      47.612  35.492  29.411  1.00  0.00     0.060 A 
BRANCH  81  82
ATOM     82  S   UNL A   1      48.317  37.133  29.662  1.00  0.00     0.124 S 
ATOM     83  O   UNL A   1      49.747  36.843  29.631  1.00  0.00    -0.237 OA
ATOM     84  O   UNL A   1      47.793  37.872  28.518  1.00  0.00    -0.237 OA
ATOM     85  O   UNL A   1      47.786  37.534  30.961  1.00  0.00    -0.744 OA
ENDBRANCH  81  82
ENDBRANCH  60  74
BRANCH  61  86
ATOM     86  C   UNL A   1      43.488  23.589  26.993  1.00  0.00     0.058 A 
ATOM     87  C   UNL A   1      43.312  22.623  28.001  1.00  0.00     0.135 A 
ATOM     88  C   UNL A   1      43.256  23.167  25.671  1.00  0.00     0.135 A 
ATOM     89  F   UNL A   1      43.536  22.946  29.283  1.00  0.00    -0.206 F 
ATOM     90  C   UNL A   1      42.942  21.304  27.713  1.00  0.00     0.059 A 
ATOM     91  C   UNL A   1      42.867  21.860  25.359  1.00  0.00     0.059 A 
ATOM     92  F   UNL A   1      43.415  24.030  24.656  1.00  0.00    -0.206 F 
ATOM     93  C   UNL A   1      42.718  20.931  26.387  1.00  0.00     0.060 A 
BRANCH  93  94
ATOM     94  S   UNL A   1      42.206  19.229  26.030  1.00  0.00     0.124 S 
ATOM     95  O   UNL A   1      40.782  19.394  25.762  1.00  0.00    -0.237 OA
ATOM     96  O   UNL A   1      43.037  18.896  24.877  1.00  0.00    -0.237 OA
ATOM     97  O   UNL A   1      42.535  18.513  27.260  1.00  0.00    -0.744 OA
ENDBRANCH  93  94
ENDBRANCH  61  86
BRANCH  73  98
ATOM     98  C   UNL A   1      49.688  26.809  26.696  1.00  0.00     0.058 A 
ATOM     99  C   UNL A   1      50.567  26.289  27.656  1.00  0.00     0.135 A 
ATOM    100  C   UNL A   1      50.083  26.779  25.349  1.00  0.00     0.135 A 
ATOM    101  F   UNL A   1      50.234  26.298  28.956  1.00  0.00    -0.206 F 
ATOM    102  C   UNL A   1      51.800  25.761  27.294  1.00  0.00     0.059 A 
ATOM    103  C   UNL A   1      51.297  26.227  24.961  1.00  0.00     0.059 A 
ATOM    104  F   UNL A   1      49.268  27.255  24.393  1.00  0.00    -0.206 F 
ATOM    105  C   UNL A   1      52.150  25.725  25.942  1.00  0.00     0.060 A 
BRANCH 105 106
ATOM    106  S   UNL A   1      53.723  24.971  25.482  1.00  0.00     0.124 S 
ATOM    107  O   UNL A   1      54.519  25.199  26.682  1.00  0.00    -0.237 OA
ATOM    108  O   UNL A   1      53.340  23.586  25.228  1.00  0.00    -0.237 OA
ATOM    109  O   UNL A   1      54.131  25.730  24.303  1.00  0.00    -0.744 OA
ENDBRANCH 105 106
ENDBRANCH  73  98
ENDBRANCH  47  48
ENDBRANCH  40  42
ENDBRANCH  39  40
ENDBRANCH  38  39
ENDBRANCH  37  38
ENDBRANCH  36  37
ENDBRANCH  35  36
ENDBRANCH   1  35
TORSDOF 25
ENDMDL
