MODEL 1
REMARK VINA RESULT:     -11.0      0.000      0.000
REMARK SMILES C#Cc1ccc2c(c1)C=C(C(=O)OCCOCCOC(=O)c1ccc(-c3c4nc(c(-c5c(F)cc(S(=O)(=O)[O-])cc5F)c5ccc([nH]5)c(-c5c(F)cc(S(=O)(=O)[O-])cc5F)c5nc(c(-c6c(F)cc(S(=O)(=O)[O-])cc6F)c6ccc3[nH]6)C=C5)C=C4)cc1)[C@@H](C(F)(F)F)O2
REMARK SMILES IDX 17 1 16 2 15 3 14 4 13 5 11 6 12 7 10 8 3 9 4 10 8 11 5 12
REMARK SMILES IDX 7 13 6 14 9 15 93 16 88 17 2 18 1 19 89 20 90 21 91 22 92 23
REMARK SMILES IDX 18 24 19 25 20 26 21 27 22 28 23 29 87 30 24 31 86 32 25 33
REMARK SMILES IDX 26 34 27 35 80 36 28 37 85 38 79 39 81 40 29 41 84 42 78 43
REMARK SMILES IDX 77 44 30 46 64 47 43 48 63 49 44 50 47 51 62 52 82 53 45 54
REMARK SMILES IDX 46 55 61 57 83 58 48 59 31 60 32 61 41 62 33 63 34 64 40 65
REMARK SMILES IDX 42 66 35 67 36 68 37 69 38 70 39 71 65 72 66 73 75 74 67 75
REMARK SMILES IDX 68 76 74 77 76 78 69 79 70 80 71 81 72 82 73 83 49 84 50 85
REMARK SMILES IDX 59 86 51 87 52 88 58 89 60 90 53 91 54 92 55 93 56 94 57 95
REMARK H PARENT 81 45 47 56
REMARK Flexibility Score: inf
ROOT
ATOM      1  C   UNL A   1      34.564  31.974  28.043  1.00  0.00     0.202 C 
ENDROOT
BRANCH   1   2
ATOM      2  O   UNL A   1      34.562  30.718  27.370  1.00  0.00    -0.374 OA
BRANCH   2   3
ATOM      3  C   UNL A   1      33.321  30.058  27.139  1.00  0.00     0.202 C 
BRANCH   3   4
ATOM      4  C   UNL A   1      32.973  29.603  25.719  1.00  0.00     0.261 C 
BRANCH   4   5
ATOM      5  O   UNL A   1      33.525  28.319  25.400  1.00  0.00    -0.460 OA
BRANCH   5   6
ATOM      6  C   UNL A   1      32.597  27.359  25.178  1.00  0.00     0.338 C 
ATOM      7  O   UNL A   1      31.385  27.481  25.250  1.00  0.00    -0.246 OA
BRANCH   6   8
ATOM      8  C   UNL A   1      33.255  26.138  24.675  1.00  0.00     0.087 C 
ATOM      9  C   UNL A   1      36.959  23.119  25.098  1.00  0.00     0.025 A 
ATOM     10  C   UNL A   1      36.664  22.590  23.841  1.00  0.00     0.021 A 
ATOM     11  C   UNL A   1      36.122  24.086  25.658  1.00  0.00     0.029 A 
ATOM     12  C   UNL A   1      35.523  23.012  23.153  1.00  0.00     0.048 A 
ATOM     13  C   UNL A   1      35.006  24.541  24.948  1.00  0.00     0.018 A 
ATOM     14  C   UNL A   1      34.695  23.989  23.705  1.00  0.00     0.128 A 
ATOM     15  C   UNL A   1      34.220  25.643  25.462  1.00  0.00     0.027 C 
ATOM     16  O   UNL A   1      33.602  24.350  22.970  1.00  0.00    -0.475 OA
ATOM     17  C   UNL A   1      32.861  25.545  23.351  1.00  0.00     0.316 C 
BRANCH   9  18
ATOM     18  C   UNL A   1      38.133  22.706  25.802  1.00  0.00    -0.070 C 
ATOM     19  C   UNL A   1      39.135  22.367  26.373  1.00  0.00     0.010 C 
ENDBRANCH   9  18
BRANCH  17  20
ATOM     20  C   UNL A   1      32.953  26.561  22.202  1.00  0.00     0.430 C 
ATOM     21  F   UNL A   1      33.117  25.938  21.012  1.00  0.00    -0.167 F 
ATOM     22  F   UNL A   1      31.830  27.308  22.103  1.00  0.00    -0.167 F 
ATOM     23  F   UNL A   1      33.993  27.408  22.367  1.00  0.00    -0.167 F 
ENDBRANCH  17  20
ENDBRANCH   6   8
ENDBRANCH   5   6
ENDBRANCH   4   5
ENDBRANCH   3   4
ENDBRANCH   2   3
ENDBRANCH   1   2
BRANCH   1  24
ATOM     24  C   UNL A   1      34.835  32.033  29.553  1.00  0.00     0.261 C 
BRANCH  24  25
ATOM     25  O   UNL A   1      36.227  31.977  29.896  1.00  0.00    -0.460 OA
BRANCH  25  26
ATOM     26  C   UNL A   1      36.577  30.914  30.669  1.00  0.00     0.338 C 
ATOM     27  O   UNL A   1      35.900  30.371  31.523  1.00  0.00    -0.246 OA
BRANCH  26  28
ATOM     28  C   UNL A   1      37.854  30.368  30.176  1.00  0.00     0.060 A 
ATOM     29  C   UNL A   1      38.096  30.248  28.809  1.00  0.00     0.016 A 
ATOM     30  C   UNL A   1      38.833  30.004  31.111  1.00  0.00     0.016 A 
ATOM     31  C   UNL A   1      39.336  29.772  28.377  1.00  0.00     0.010 A 
ATOM     32  C   UNL A   1      40.070  29.529  30.677  1.00  0.00     0.010 A 
ATOM     33  C   UNL A   1      40.339  29.425  29.305  1.00  0.00    -0.014 A 
BRANCH  33  34
ATOM     34  C   UNL A   1      41.698  29.068  28.826  1.00  0.00     0.031 A 
ATOM     35  C   UNL A   1      42.812  30.073  28.807  1.00  0.00     0.074 A 
ATOM     36  C   UNL A   1      41.917  27.807  28.404  1.00  0.00     0.049 A 
ATOM     37  N   UNL A   1      44.069  29.897  28.490  1.00  0.00    -0.248 NA
ATOM     38  C   UNL A   1      42.474  31.453  29.184  1.00  0.00     0.031 C 
ATOM     39  C   UNL A   1      40.899  26.756  28.345  1.00  0.00     0.029 A 
ATOM     40  N   UNL A   1      43.060  27.189  27.964  1.00  0.00    -0.354 N 
ATOM     41  C   UNL A   1      44.681  31.133  28.651  1.00  0.00     0.074 A 
ATOM     42  C   UNL A   1      43.642  32.066  29.036  1.00  0.00     0.031 C 
ATOM     43  C   UNL A   1      41.473  25.614  27.939  1.00  0.00     0.029 A 
ATOM     44  C   UNL A   1      42.886  25.859  27.667  1.00  0.00     0.049 A 
ATOM     45  H   UNL A   1      43.922  27.655  27.868  1.00  0.00     0.167 HD
ATOM     46  C   UNL A   1      45.991  31.451  28.512  1.00  0.00     0.037 A 
ATOM     47  C   UNL A   1      43.764  24.935  27.227  1.00  0.00     0.037 A 
ATOM     48  C   UNL A   1      47.013  30.516  28.110  1.00  0.00     0.049 A 
ATOM     49  C   UNL A   1      45.201  25.329  27.025  1.00  0.00     0.074 A 
ATOM     50  C   UNL A   1      48.372  30.739  27.969  1.00  0.00     0.029 A 
ATOM     51  N   UNL A   1      46.792  29.187  27.771  1.00  0.00    -0.354 N 
ATOM     52  N   UNL A   1      45.777  26.487  27.250  1.00  0.00    -0.248 NA
ATOM     53  C   UNL A   1      46.109  24.295  26.513  1.00  0.00     0.031 C 
ATOM     54  C   UNL A   1      48.961  29.568  27.481  1.00  0.00     0.029 A 
ATOM     55  C   UNL A   1      47.983  28.591  27.386  1.00  0.00     0.049 A 
ATOM     56  H   UNL A   1      45.918  28.735  27.799  1.00  0.00     0.167 HD
ATOM     57  C   UNL A   1      47.119  26.313  26.927  1.00  0.00     0.074 A 
ATOM     58  C   UNL A   1      47.271  24.934  26.511  1.00  0.00     0.031 C 
ATOM     59  C   UNL A   1      48.129  27.217  26.968  1.00  0.00     0.037 A 
BRANCH  46  60
ATOM     60  C   UNL A   1      46.405  32.871  28.799  1.00  0.00     0.058 A 
ATOM     61  C   UNL A   1      46.803  33.274  30.084  1.00  0.00     0.135 A 
ATOM     62  C   UNL A   1      46.473  33.823  27.768  1.00  0.00     0.135 A 
ATOM     63  F   UNL A   1      46.752  32.410  31.110  1.00  0.00    -0.206 F 
ATOM     64  C   UNL A   1      47.225  34.574  30.343  1.00  0.00     0.059 A 
ATOM     65  C   UNL A   1      46.923  35.121  27.997  1.00  0.00     0.059 A 
ATOM     66  F   UNL A   1      46.109  33.494  26.518  1.00  0.00    -0.206 F 
ATOM     67  C   UNL A   1      47.285  35.490  29.292  1.00  0.00     0.060 A 
BRANCH  67  68
ATOM     68  S   UNL A   1      47.837  37.171  29.649  1.00  0.00     0.124 S 
ATOM     69  O   UNL A   1      47.847  37.763  28.315  1.00  0.00    -0.237 OA
ATOM     70  O   UNL A   1      46.793  37.653  30.549  1.00  0.00    -0.237 OA
ATOM     71  O   UNL A   1      49.148  36.979  30.258  1.00  0.00    -0.744 OA
ENDBRANCH  67  68
ENDBRANCH  46  60
BRANCH  47  72
ATOM     72  C   UNL A   1      43.303  23.542  26.981  1.00  0.00     0.058 A 
ATOM     73  C   UNL A   1      43.059  23.080  25.680  1.00  0.00     0.135 A 
ATOM     74  C   UNL A   1      43.135  22.633  28.039  1.00  0.00     0.135 A 
ATOM     75  F   UNL A   1      43.197  23.911  24.636  1.00  0.00    -0.206 F 
ATOM     76  C   UNL A   1      42.662  21.770  25.434  1.00  0.00     0.059 A 
ATOM     77  C   UNL A   1      42.768  21.310  27.816  1.00  0.00     0.059 A 
ATOM     78  F   UNL A   1      43.368  23.021  29.303  1.00  0.00    -0.206 F 
ATOM     79  C   UNL A   1      42.530  20.889  26.510  1.00  0.00     0.060 A 
BRANCH  79  80
ATOM     80  S   UNL A   1      42.076  19.176  26.168  1.00  0.00     0.124 S 
ATOM     81  O   UNL A   1      42.945  18.859  25.040  1.00  0.00    -0.237 OA
ATOM     82  O   UNL A   1      42.403  18.519  27.430  1.00  0.00    -0.237 OA
ATOM     83  O   UNL A   1      40.650  19.258  25.861  1.00  0.00    -0.744 OA
ENDBRANCH  79  80
ENDBRANCH  47  72
BRANCH  59  84
ATOM     84  C   UNL A   1      49.504  26.751  26.565  1.00  0.00     0.058 A 
ATOM     85  C   UNL A   1      50.327  26.030  27.445  1.00  0.00     0.135 A 
ATOM     86  C   UNL A   1      49.976  26.960  25.257  1.00  0.00     0.135 A 
ATOM     87  F   UNL A   1      49.931  25.805  28.708  1.00  0.00    -0.206 F 
ATOM     88  C   UNL A   1      51.572  25.550  27.050  1.00  0.00     0.059 A 
ATOM     89  C   UNL A   1      51.203  26.461  24.831  1.00  0.00     0.059 A 
ATOM     90  F   UNL A   1      49.229  27.636  24.369  1.00  0.00    -0.206 F 
ATOM     91  C   UNL A   1      51.998  25.764  25.739  1.00  0.00     0.060 A 
BRANCH  91  92
ATOM     92  S   UNL A   1      53.599  25.097  25.235  1.00  0.00     0.124 S 
ATOM     93  O   UNL A   1      53.341  23.661  25.256  1.00  0.00    -0.237 OA
ATOM     94  O   UNL A   1      53.777  25.690  23.914  1.00  0.00    -0.237 OA
ATOM     95  O   UNL A   1      54.512  25.583  26.265  1.00  0.00    -0.744 OA
ENDBRANCH  91  92
ENDBRANCH  59  84
ENDBRANCH  33  34
ENDBRANCH  26  28
ENDBRANCH  25  26
ENDBRANCH  24  25
ENDBRANCH   1  24
TORSDOF 19
ENDMDL
MODEL 2
REMARK VINA RESULT:     -11.0      6.639     12.079
REMARK SMILES C#Cc1ccc2c(c1)C=C(C(=O)OCCOCCOC(=O)c1ccc(-c3c4nc(c(-c5c(F)cc(S(=O)(=O)[O-])cc5F)c5ccc([nH]5)c(-c5c(F)cc(S(=O)(=O)[O-])cc5F)c5nc(c(-c6c(F)cc(S(=O)(=O)[O-])cc6F)c6ccc3[nH]6)C=C5)C=C4)cc1)[C@@H](C(F)(F)F)O2
REMARK SMILES IDX 17 1 16 2 15 3 14 4 13 5 11 6 12 7 10 8 3 9 4 10 8 11 5 12
REMARK SMILES IDX 7 13 6 14 9 15 93 16 88 17 2 18 1 19 89 20 90 21 91 22 92 23
REMARK SMILES IDX 18 24 19 25 20 26 21 27 22 28 23 29 87 30 24 31 86 32 25 33
REMARK SMILES IDX 26 34 27 35 80 36 28 37 85 38 79 39 81 40 29 41 84 42 78 43
REMARK SMILES IDX 77 44 30 46 64 47 43 48 63 49 44 50 47 51 62 52 82 53 45 54
REMARK SMILES IDX 46 55 61 57 83 58 48 59 31 60 32 61 41 62 33 63 34 64 40 65
REMARK SMILES IDX 42 66 35 67 36 68 37 69 38 70 39 71 65 72 66 73 75 74 67 75
REMARK SMILES IDX 68 76 74 77 76 78 69 79 70 80 71 81 72 82 73 83 49 84 50 85
REMARK SMILES IDX 59 86 51 87 52 88 58 89 60 90 53 91 54 92 55 93 56 94 57 95
REMARK H PARENT 81 45 47 56
REMARK Flexibility Score: inf
ROOT
ATOM      1  C   UNL A   1      39.454  21.867  26.273  1.00  0.00     0.202 C 
ENDROOT
BRANCH   1   2
ATOM      2  O   UNL A   1      38.398  21.233  25.556  1.00  0.00    -0.374 OA
BRANCH   2   3
ATOM      3  C   UNL A   1      37.309  22.021  25.086  1.00  0.00     0.202 C 
BRANCH   3   4
ATOM      4  C   UNL A   1      35.914  21.789  25.676  1.00  0.00     0.261 C 
BRANCH   4   5
ATOM      5  O   UNL A   1      35.194  23.010  25.885  1.00  0.00    -0.460 OA
BRANCH   5   6
ATOM      6  C   UNL A   1      34.225  23.244  24.969  1.00  0.00     0.338 C 
ATOM      7  O   UNL A   1      33.934  22.541  24.014  1.00  0.00    -0.246 OA
BRANCH   6   8
ATOM      8  C   UNL A   1      33.435  24.424  25.370  1.00  0.00     0.087 C 
ATOM      9  C   UNL A   1      33.518  28.919  27.044  1.00  0.00     0.025 A 
ATOM     10  C   UNL A   1      32.158  28.827  27.343  1.00  0.00     0.021 A 
ATOM     11  C   UNL A   1      34.159  27.862  26.395  1.00  0.00     0.029 A 
ATOM     12  C   UNL A   1      31.435  27.688  26.974  1.00  0.00     0.048 A 
ATOM     13  C   UNL A   1      33.444  26.705  26.067  1.00  0.00     0.018 A 
ATOM     14  C   UNL A   1      32.078  26.627  26.339  1.00  0.00     0.128 A 
ATOM     15  C   UNL A   1      34.137  25.555  25.524  1.00  0.00     0.027 C 
ATOM     16  O   UNL A   1      31.304  25.550  26.014  1.00  0.00    -0.475 OA
ATOM     17  C   UNL A   1      31.955  24.311  25.609  1.00  0.00     0.316 C 
BRANCH   9  18
ATOM     18  C   UNL A   1      34.269  30.071  27.432  1.00  0.00    -0.070 C 
ATOM     19  C   UNL A   1      34.909  31.028  27.781  1.00  0.00     0.010 C 
ENDBRANCH   9  18
BRANCH  17  20
ATOM     20  C   UNL A   1      31.608  23.221  26.634  1.00  0.00     0.430 C 
ATOM     21  F   UNL A   1      30.408  23.460  27.214  1.00  0.00    -0.167 F 
ATOM     22  F   UNL A   1      31.528  21.999  26.059  1.00  0.00    -0.167 F 
ATOM     23  F   UNL A   1      32.531  23.149  27.619  1.00  0.00    -0.167 F 
ENDBRANCH  17  20
ENDBRANCH   6   8
ENDBRANCH   5   6
ENDBRANCH   4   5
ENDBRANCH   3   4
ENDBRANCH   2   3
ENDBRANCH   1   2
BRANCH   1  24
ATOM     24  C   UNL A   1      39.414  23.383  26.513  1.00  0.00     0.261 C 
BRANCH  24  25
ATOM     25  O   UNL A   1      40.695  23.959  26.804  1.00  0.00    -0.460 OA
BRANCH  25  26
ATOM     26  C   UNL A   1      40.815  25.270  26.464  1.00  0.00     0.338 C 
ATOM     27  O   UNL A   1      40.779  25.747  25.344  1.00  0.00    -0.246 OA
BRANCH  26  28
ATOM     28  C   UNL A   1      40.795  26.084  27.693  1.00  0.00     0.060 A 
ATOM     29  C   UNL A   1      41.822  26.986  27.966  1.00  0.00     0.016 A 
ATOM     30  C   UNL A   1      39.706  25.955  28.565  1.00  0.00     0.016 A 
ATOM     31  C   UNL A   1      41.746  27.775  29.115  1.00  0.00     0.010 A 
ATOM     32  C   UNL A   1      39.632  26.746  29.712  1.00  0.00     0.010 A 
ATOM     33  C   UNL A   1      40.644  27.675  29.988  1.00  0.00    -0.014 A 
BRANCH  33  34
ATOM     34  C   UNL A   1      40.507  28.627  31.119  1.00  0.00     0.031 A 
ATOM     35  C   UNL A   1      41.383  28.533  32.333  1.00  0.00     0.074 A 
ATOM     36  C   UNL A   1      39.571  29.592  31.035  1.00  0.00     0.049 A 
ATOM     37  N   UNL A   1      41.439  29.331  33.368  1.00  0.00    -0.248 NA
ATOM     38  C   UNL A   1      42.312  27.394  32.401  1.00  0.00     0.031 C 
ATOM     39  C   UNL A   1      38.638  29.758  29.917  1.00  0.00     0.029 A 
ATOM     40  N   UNL A   1      39.256  30.621  31.886  1.00  0.00    -0.354 N 
ATOM     41  C   UNL A   1      42.421  28.811  34.201  1.00  0.00     0.074 A 
ATOM     42  C   UNL A   1      42.894  27.592  33.577  1.00  0.00     0.031 C 
ATOM     43  C   UNL A   1      37.890  30.849  30.130  1.00  0.00     0.029 A 
ATOM     44  C   UNL A   1      38.256  31.438  31.415  1.00  0.00     0.049 A 
ATOM     45  H   UNL A   1      39.704  30.760  32.751  1.00  0.00     0.167 HD
ATOM     46  C   UNL A   1      42.898  29.318  35.363  1.00  0.00     0.037 A 
ATOM     47  C   UNL A   1      37.694  32.538  31.955  1.00  0.00     0.037 A 
ATOM     48  C   UNL A   1      42.405  30.524  35.983  1.00  0.00     0.049 A 
ATOM     49  C   UNL A   1      38.202  33.046  33.275  1.00  0.00     0.074 A 
ATOM     50  C   UNL A   1      42.844  31.131  37.147  1.00  0.00     0.029 A 
ATOM     51  N   UNL A   1      41.358  31.299  35.503  1.00  0.00    -0.354 N 
ATOM     52  N   UNL A   1      39.181  32.581  34.016  1.00  0.00    -0.248 NA
ATOM     53  C   UNL A   1      37.534  34.229  33.835  1.00  0.00     0.031 C 
ATOM     54  C   UNL A   1      42.021  32.232  37.406  1.00  0.00     0.029 A 
ATOM     55  C   UNL A   1      41.113  32.356  36.366  1.00  0.00     0.049 A 
ATOM     56  H   UNL A   1      40.861  31.124  34.671  1.00  0.00     0.167 HD
ATOM     57  C   UNL A   1      39.259  33.428  35.117  1.00  0.00     0.074 A 
ATOM     58  C   UNL A   1      38.243  34.443  34.935  1.00  0.00     0.031 C 
ATOM     59  C   UNL A   1      40.096  33.363  36.182  1.00  0.00     0.037 A 
BRANCH  46  60
ATOM     60  C   UNL A   1      44.015  28.576  36.050  1.00  0.00     0.058 A 
ATOM     61  C   UNL A   1      45.354  28.971  35.908  1.00  0.00     0.135 A 
ATOM     62  C   UNL A   1      43.741  27.502  36.914  1.00  0.00     0.135 A 
ATOM     63  F   UNL A   1      45.678  29.986  35.091  1.00  0.00    -0.206 F 
ATOM     64  C   UNL A   1      46.384  28.313  36.574  1.00  0.00     0.059 A 
ATOM     65  C   UNL A   1      44.751  26.849  37.615  1.00  0.00     0.059 A 
ATOM     66  F   UNL A   1      42.478  27.082  37.092  1.00  0.00    -0.206 F 
ATOM     67  C   UNL A   1      46.071  27.254  37.428  1.00  0.00     0.060 A 
BRANCH  67  68
ATOM     68  S   UNL A   1      47.422  26.415  38.283  1.00  0.00     0.124 S 
ATOM     69  O   UNL A   1      48.217  25.926  37.161  1.00  0.00    -0.237 OA
ATOM     70  O   UNL A   1      48.017  27.500  39.058  1.00  0.00    -0.237 OA
ATOM     71  O   UNL A   1      46.745  25.386  39.065  1.00  0.00    -0.744 OA
ENDBRANCH  67  68
ENDBRANCH  46  60
BRANCH  47  72
ATOM     72  C   UNL A   1      36.609  33.243  31.221  1.00  0.00     0.058 A 
ATOM     73  C   UNL A   1      36.886  34.003  30.076  1.00  0.00     0.135 A 
ATOM     74  C   UNL A   1      35.268  33.141  31.627  1.00  0.00     0.135 A 
ATOM     75  F   UNL A   1      38.152  34.139  29.651  1.00  0.00    -0.206 F 
ATOM     76  C   UNL A   1      35.877  34.639  29.360  1.00  0.00     0.059 A 
ATOM     77  C   UNL A   1      34.238  33.742  30.912  1.00  0.00     0.059 A 
ATOM     78  F   UNL A   1      34.947  32.416  32.711  1.00  0.00    -0.206 F 
ATOM     79  C   UNL A   1      34.554  34.493  29.781  1.00  0.00     0.060 A 
BRANCH  79  80
ATOM     80  S   UNL A   1      33.250  35.271  28.806  1.00  0.00     0.124 S 
ATOM     81  O   UNL A   1      32.415  35.864  29.844  1.00  0.00    -0.237 OA
ATOM     82  O   UNL A   1      34.007  36.209  27.982  1.00  0.00    -0.237 OA
ATOM     83  O   UNL A   1      32.654  34.151  28.082  1.00  0.00    -0.744 OA
ENDBRANCH  79  80
ENDBRANCH  47  72
BRANCH  59  84
ATOM     84  C   UNL A   1      39.966  34.427  37.242  1.00  0.00     0.058 A 
ATOM     85  C   UNL A   1      40.611  35.668  37.125  1.00  0.00     0.135 A 
ATOM     86  C   UNL A   1      39.124  34.234  38.351  1.00  0.00     0.135 A 
ATOM     87  F   UNL A   1      41.432  35.908  36.090  1.00  0.00    -0.206 F 
ATOM     88  C   UNL A   1      40.442  36.670  38.076  1.00  0.00     0.059 A 
ATOM     89  C   UNL A   1      38.913  35.234  39.296  1.00  0.00     0.059 A 
ATOM     90  F   UNL A   1      38.472  33.070  38.511  1.00  0.00    -0.206 F 
ATOM     91  C   UNL A   1      39.584  36.446  39.153  1.00  0.00     0.060 A 
BRANCH  91  92
ATOM     92  S   UNL A   1      39.346  37.774  40.353  1.00  0.00     0.124 S 
ATOM     93  O   UNL A   1      40.582  38.535  40.202  1.00  0.00    -0.237 OA
ATOM     94  O   UNL A   1      38.137  38.424  39.858  1.00  0.00    -0.237 OA
ATOM     95  O   UNL A   1      39.198  37.067  41.622  1.00  0.00    -0.744 OA
ENDBRANCH  91  92
ENDBRANCH  59  84
ENDBRANCH  33  34
ENDBRANCH  26  28
ENDBRANCH  25  26
ENDBRANCH  24  25
ENDBRANCH   1  24
TORSDOF 19
ENDMDL
MODEL 3
REMARK VINA RESULT:     -10.8      6.593     12.005
REMARK SMILES C#Cc1ccc2c(c1)C=C(C(=O)OCCOCCOC(=O)c1ccc(-c3c4nc(c(-c5c(F)cc(S(=O)(=O)[O-])cc5F)c5ccc([nH]5)c(-c5c(F)cc(S(=O)(=O)[O-])cc5F)c5nc(c(-c6c(F)cc(S(=O)(=O)[O-])cc6F)c6ccc3[nH]6)C=C5)C=C4)cc1)[C@@H](C(F)(F)F)O2
REMARK SMILES IDX 17 1 16 2 15 3 14 4 13 5 11 6 12 7 10 8 3 9 4 10 8 11 5 12
REMARK SMILES IDX 7 13 6 14 9 15 93 16 88 17 2 18 1 19 89 20 90 21 91 22 92 23
REMARK SMILES IDX 18 24 19 25 20 26 21 27 22 28 23 29 87 30 24 31 86 32 25 33
REMARK SMILES IDX 26 34 27 35 80 36 28 37 85 38 79 39 81 40 29 41 84 42 78 43
REMARK SMILES IDX 77 44 30 46 64 47 43 48 63 49 44 50 47 51 62 52 82 53 45 54
REMARK SMILES IDX 46 55 61 57 83 58 48 59 31 60 32 61 41 62 33 63 34 64 40 65
REMARK SMILES IDX 42 66 35 67 36 68 37 69 38 70 39 71 65 72 66 73 75 74 67 75
REMARK SMILES IDX 68 76 74 77 76 78 69 79 70 80 71 81 72 82 73 83 49 84 50 85
REMARK SMILES IDX 59 86 51 87 52 88 58 89 60 90 53 91 54 92 55 93 56 94 57 95
REMARK H PARENT 81 45 47 56
REMARK Flexibility Score: inf
ROOT
ATOM      1  C   UNL A   1      39.399  21.564  26.083  1.00  0.00     0.202 C 
ENDROOT
BRANCH   1   2
ATOM      2  O   UNL A   1      37.990  21.619  25.879  1.00  0.00    -0.374 OA
BRANCH   2   3
ATOM      3  C   UNL A   1      37.440  22.701  25.134  1.00  0.00     0.202 C 
BRANCH   3   4
ATOM      4  C   UNL A   1      36.474  23.667  25.828  1.00  0.00     0.261 C 
BRANCH   4   5
ATOM      5  O   UNL A   1      35.373  22.992  26.451  1.00  0.00    -0.460 OA
BRANCH   5   6
ATOM      6  C   UNL A   1      34.158  23.432  26.048  1.00  0.00     0.338 C 
ATOM      7  O   UNL A   1      33.690  24.547  26.214  1.00  0.00    -0.246 OA
BRANCH   6   8
ATOM      8  C   UNL A   1      33.503  22.399  25.224  1.00  0.00     0.087 C 
ATOM      9  C   UNL A   1      32.679  17.717  24.576  1.00  0.00     0.025 A 
ATOM     10  C   UNL A   1      32.251  17.978  23.273  1.00  0.00     0.021 A 
ATOM     11  C   UNL A   1      33.020  18.776  25.420  1.00  0.00     0.029 A 
ATOM     12  C   UNL A   1      32.145  19.297  22.821  1.00  0.00     0.048 A 
ATOM     13  C   UNL A   1      32.957  20.092  24.951  1.00  0.00     0.018 A 
ATOM     14  C   UNL A   1      32.500  20.354  23.659  1.00  0.00     0.128 A 
ATOM     15  C   UNL A   1      33.445  21.179  25.775  1.00  0.00     0.027 C 
ATOM     16  O   UNL A   1      32.373  21.611  23.143  1.00  0.00    -0.475 OA
ATOM     17  C   UNL A   1      32.982  22.729  23.852  1.00  0.00     0.316 C 
BRANCH   9  18
ATOM     18  C   UNL A   1      32.806  16.372  25.042  1.00  0.00    -0.070 C 
ATOM     19  C   UNL A   1      32.894  15.232  25.416  1.00  0.00     0.010 C 
ENDBRANCH   9  18
BRANCH  17  20
ATOM     20  C   UNL A   1      34.058  23.350  22.949  1.00  0.00     0.430 C 
ATOM     21  F   UNL A   1      35.221  22.664  23.033  1.00  0.00    -0.167 F 
ATOM     22  F   UNL A   1      33.688  23.338  21.648  1.00  0.00    -0.167 F 
ATOM     23  F   UNL A   1      34.314  24.633  23.288  1.00  0.00    -0.167 F 
ENDBRANCH  17  20
ENDBRANCH   6   8
ENDBRANCH   5   6
ENDBRANCH   4   5
ENDBRANCH   3   4
ENDBRANCH   2   3
ENDBRANCH   1   2
BRANCH   1  24
ATOM     24  C   UNL A   1      40.068  22.529  27.073  1.00  0.00     0.261 C 
BRANCH  24  25
ATOM     25  O   UNL A   1      40.017  23.904  26.668  1.00  0.00    -0.460 OA
BRANCH  25  26
ATOM     26  C   UNL A   1      41.171  24.594  26.867  1.00  0.00     0.338 C 
ATOM     27  O   UNL A   1      42.208  24.494  26.235  1.00  0.00    -0.246 OA
BRANCH  26  28
ATOM     28  C   UNL A   1      40.925  25.658  27.857  1.00  0.00     0.060 A 
ATOM     29  C   UNL A   1      39.706  25.737  28.528  1.00  0.00     0.016 A 
ATOM     30  C   UNL A   1      41.954  26.568  28.135  1.00  0.00     0.016 A 
ATOM     31  C   UNL A   1      39.524  26.728  29.495  1.00  0.00     0.010 A 
ATOM     32  C   UNL A   1      41.770  27.556  29.102  1.00  0.00     0.010 A 
ATOM     33  C   UNL A   1      40.559  27.633  29.803  1.00  0.00    -0.014 A 
BRANCH  33  34
ATOM     34  C   UNL A   1      40.401  28.579  30.937  1.00  0.00     0.031 A 
ATOM     35  C   UNL A   1      41.264  28.485  32.161  1.00  0.00     0.074 A 
ATOM     36  C   UNL A   1      39.459  29.537  30.846  1.00  0.00     0.049 A 
ATOM     37  N   UNL A   1      41.300  29.279  33.200  1.00  0.00    -0.248 NA
ATOM     38  C   UNL A   1      42.200  27.354  32.234  1.00  0.00     0.031 C 
ATOM     39  C   UNL A   1      38.538  29.700  29.719  1.00  0.00     0.029 A 
ATOM     40  N   UNL A   1      39.126  30.559  31.698  1.00  0.00    -0.354 N 
ATOM     41  C   UNL A   1      42.277  28.762  34.042  1.00  0.00     0.074 A 
ATOM     42  C   UNL A   1      42.767  27.550  33.418  1.00  0.00     0.031 C 
ATOM     43  C   UNL A   1      37.779  30.785  29.927  1.00  0.00     0.029 A 
ATOM     44  C   UNL A   1      38.125  31.370  31.220  1.00  0.00     0.049 A 
ATOM     45  H   UNL A   1      39.562  30.697  32.570  1.00  0.00     0.167 HD
ATOM     46  C   UNL A   1      42.736  29.267  35.213  1.00  0.00     0.037 A 
ATOM     47  C   UNL A   1      37.548  32.463  31.758  1.00  0.00     0.037 A 
ATOM     48  C   UNL A   1      42.226  30.466  35.832  1.00  0.00     0.049 A 
ATOM     49  C   UNL A   1      38.036  32.969  33.087  1.00  0.00     0.074 A 
ATOM     50  C   UNL A   1      42.646  31.071  37.005  1.00  0.00     0.029 A 
ATOM     51  N   UNL A   1      41.179  31.235  35.344  1.00  0.00    -0.354 N 
ATOM     52  N   UNL A   1      39.010  32.508  33.837  1.00  0.00    -0.248 NA
ATOM     53  C   UNL A   1      37.352  34.143  33.644  1.00  0.00     0.031 C 
ATOM     54  C   UNL A   1      41.812  32.164  37.258  1.00  0.00     0.029 A 
ATOM     55  C   UNL A   1      40.916  32.286  36.209  1.00  0.00     0.049 A 
ATOM     56  H   UNL A   1      40.693  31.060  34.505  1.00  0.00     0.167 HD
ATOM     57  C   UNL A   1      39.068  33.349  34.943  1.00  0.00     0.074 A 
ATOM     58  C   UNL A   1      38.046  34.358  34.754  1.00  0.00     0.031 C 
ATOM     59  C   UNL A   1      39.893  33.286  36.018  1.00  0.00     0.037 A 
BRANCH  46  60
ATOM     60  C   UNL A   1      43.850  28.530  35.910  1.00  0.00     0.058 A 
ATOM     61  C   UNL A   1      45.196  28.879  35.712  1.00  0.00     0.135 A 
ATOM     62  C   UNL A   1      43.571  27.512  36.836  1.00  0.00     0.135 A 
ATOM     63  F   UNL A   1      45.525  29.839  34.833  1.00  0.00    -0.206 F 
ATOM     64  C   UNL A   1      46.225  28.227  36.385  1.00  0.00     0.059 A 
ATOM     65  C   UNL A   1      44.581  26.868  37.545  1.00  0.00     0.059 A 
ATOM     66  F   UNL A   1      42.302  27.139  37.069  1.00  0.00    -0.206 F 
ATOM     67  C   UNL A   1      45.907  27.225  37.303  1.00  0.00     0.060 A 
BRANCH  67  68
ATOM     68  S   UNL A   1      47.256  26.393  38.166  1.00  0.00     0.124 S 
ATOM     69  O   UNL A   1      46.842  24.996  38.076  1.00  0.00    -0.237 OA
ATOM     70  O   UNL A   1      48.414  26.765  37.359  1.00  0.00    -0.237 OA
ATOM     71  O   UNL A   1      47.215  26.972  39.505  1.00  0.00    -0.744 OA
ENDBRANCH  67  68
ENDBRANCH  46  60
BRANCH  47  72
ATOM     72  C   UNL A   1      36.466  33.164  31.014  1.00  0.00     0.058 A 
ATOM     73  C   UNL A   1      35.130  33.075  31.428  1.00  0.00     0.135 A 
ATOM     74  C   UNL A   1      36.752  33.967  29.898  1.00  0.00     0.135 A 
ATOM     75  F   UNL A   1      34.803  32.314  32.484  1.00  0.00    -0.206 F 
ATOM     76  C   UNL A   1      34.113  33.753  30.763  1.00  0.00     0.059 A 
ATOM     77  C   UNL A   1      35.758  34.680  29.235  1.00  0.00     0.059 A 
ATOM     78  F   UNL A   1      38.017  34.096  29.468  1.00  0.00    -0.206 F 
ATOM     79  C   UNL A   1      34.441  34.562  29.673  1.00  0.00     0.060 A 
BRANCH  79  80
ATOM     80  S   UNL A   1      33.120  35.486  28.861  1.00  0.00     0.124 S 
ATOM     81  O   UNL A   1      32.460  34.442  28.087  1.00  0.00    -0.237 OA
ATOM     82  O   UNL A   1      32.370  36.007  30.001  1.00  0.00    -0.237 OA
ATOM     83  O   UNL A   1      33.840  36.490  28.081  1.00  0.00    -0.744 OA
ENDBRANCH  79  80
ENDBRANCH  47  72
BRANCH  59  84
ATOM     84  C   UNL A   1      39.742  34.344  37.081  1.00  0.00     0.058 A 
ATOM     85  C   UNL A   1      38.970  34.128  38.233  1.00  0.00     0.135 A 
ATOM     86  C   UNL A   1      40.439  35.561  36.984  1.00  0.00     0.135 A 
ATOM     87  F   UNL A   1      38.277  32.987  38.378  1.00  0.00    -0.206 F 
ATOM     88  C   UNL A   1      38.880  35.084  39.240  1.00  0.00     0.059 A 
ATOM     89  C   UNL A   1      40.391  36.517  37.994  1.00  0.00     0.059 A 
ATOM     90  F   UNL A   1      41.201  35.820  35.908  1.00  0.00    -0.206 F 
ATOM     91  C   UNL A   1      39.601  36.272  39.115  1.00  0.00     0.060 A 
BRANCH  91  92
ATOM     92  S   UNL A   1      39.504  37.482  40.452  1.00  0.00     0.124 S 
ATOM     93  O   UNL A   1      38.886  36.697  41.517  1.00  0.00    -0.237 OA
ATOM     94  O   UNL A   1      40.906  37.832  40.654  1.00  0.00    -0.237 OA
ATOM     95  O   UNL A   1      38.671  38.543  39.894  1.00  0.00    -0.744 OA
ENDBRANCH  91  92
ENDBRANCH  59  84
ENDBRANCH  33  34
ENDBRANCH  26  28
ENDBRANCH  25  26
ENDBRANCH  24  25
ENDBRANCH   1  24
TORSDOF 19
ENDMDL
