MODEL 1
REMARK VINA RESULT:     -11.9      0.000      0.000
REMARK SMILES Cc1c(CC(=O)OCCOCCOC(=O)c2ccc(-c3c4nc(c(-c5c(F)cc(S(=O)(=O)[O-])cc5F)c5ccc([nH]5)c(-c5c(F)cc(S(=O)(=O)[O-])cc5F)c5nc(c(-c6c(F)cc(S(=O)(=O)[O-])cc6F)c6ccc3[nH]6)C=C5)C=C4)cc2)cc(-c2ccc(S(C)(=O)=O)cc2)n1-c1cccc(F)c1
REMARK SMILES IDX 10 1 9 2 8 3 7 4 5 5 6 6 4 7 3 8 1 9 2 10 94 11 82 12 83 13
REMARK SMILES IDX 95 14 96 15 101 16 97 17 99 18 98 19 100 20 84 21 85 22
REMARK SMILES IDX 93 23 86 24 92 25 87 26 88 27 89 28 90 29 91 30 11 31 12 32
REMARK SMILES IDX 13 33 14 34 15 35 16 36 17 37 81 38 18 39 80 40 19 41 20 42
REMARK SMILES IDX 21 43 74 44 22 45 79 46 73 47 75 48 23 49 78 50 72 51 71 52
REMARK SMILES IDX 24 54 58 55 37 56 57 57 38 58 41 59 56 60 76 61 39 62 40 63
REMARK SMILES IDX 55 65 77 66 42 67 25 68 26 69 35 70 27 71 28 72 34 73 36 74
REMARK SMILES IDX 29 75 30 76 31 77 32 78 33 79 59 80 60 81 69 82 61 83 62 84
REMARK SMILES IDX 68 85 70 86 63 87 64 88 65 89 66 90 67 91 43 92 44 93 53 94
REMARK SMILES IDX 45 95 46 96 52 97 54 98 47 99 48 100 49 101 50 102 51 103
REMARK H PARENT 75 53 41 64
REMARK Flexibility Score: inf
ROOT
ATOM      1  O   UNL A   1      36.869  20.106  25.080  1.00  0.00    -0.374 OA
ENDROOT
BRANCH   1   2
ATOM      2  C   UNL A   1      36.093  21.250  25.394  1.00  0.00     0.202 C 
BRANCH   2   3
ATOM      3  C   UNL A   1      34.914  21.507  24.443  1.00  0.00     0.261 C 
BRANCH   3   4
ATOM      4  O   UNL A   1      33.631  21.216  25.042  1.00  0.00    -0.463 OA
BRANCH   4   5
ATOM      5  C   UNL A   1      32.599  21.018  24.177  1.00  0.00     0.310 C 
ATOM      6  O   UNL A   1      32.658  20.270  23.201  1.00  0.00    -0.252 OA
BRANCH   5   7
ATOM      7  C   UNL A   1      31.352  21.842  24.439  1.00  0.00     0.160 C 
BRANCH   7   8
ATOM      8  C   UNL A   1      31.435  23.342  24.604  1.00  0.00    -0.015 A 
ATOM      9  C   UNL A   1      32.352  23.647  27.033  1.00  0.00     0.065 C 
ATOM     10  C   UNL A   1      31.870  24.104  25.694  1.00  0.00     0.024 A 
ATOM     11  N   UNL A   1      31.663  25.460  25.410  1.00  0.00    -0.313 N 
ATOM     12  C   UNL A   1      30.848  24.266  23.700  1.00  0.00     0.033 A 
ATOM     13  C   UNL A   1      30.904  25.533  24.249  1.00  0.00     0.053 A 
BRANCH  11  14
ATOM     14  C   UNL A   1      32.117  26.583  26.175  1.00  0.00     0.049 A 
ATOM     15  C   UNL A   1      31.253  27.348  26.958  1.00  0.00     0.027 A 
ATOM     16  C   UNL A   1      33.419  27.041  25.997  1.00  0.00     0.065 A 
ATOM     17  C   UNL A   1      31.716  28.526  27.571  1.00  0.00     0.005 A 
ATOM     18  C   UNL A   1      33.878  28.199  26.609  1.00  0.00     0.125 A 
ATOM     19  C   UNL A   1      33.036  28.951  27.401  1.00  0.00     0.039 A 
ATOM     20  F   UNL A   1      35.135  28.604  26.387  1.00  0.00    -0.207 F 
ENDBRANCH  11  14
BRANCH  13  21
ATOM     21  C   UNL A   1      30.343  26.762  23.703  1.00  0.00    -0.001 A 
ATOM     22  C   UNL A   1      29.012  27.106  23.950  1.00  0.00     0.011 A 
ATOM     23  C   UNL A   1      31.137  27.592  22.906  1.00  0.00     0.011 A 
ATOM     24  C   UNL A   1      28.459  28.254  23.390  1.00  0.00     0.021 A 
ATOM     25  C   UNL A   1      30.593  28.741  22.334  1.00  0.00     0.021 A 
ATOM     26  C   UNL A   1      29.254  29.059  22.572  1.00  0.00     0.067 A 
BRANCH  26  27
ATOM     27  S   UNL A   1      28.545  30.527  21.871  1.00  0.00     0.175 S 
ATOM     28  C   UNL A   1      27.309  31.022  23.045  1.00  0.00     0.163 C 
ATOM     29  O   UNL A   1      29.584  31.518  21.826  1.00  0.00    -0.224 OA
ATOM     30  O   UNL A   1      27.842  30.119  20.653  1.00  0.00    -0.224 OA
ENDBRANCH  26  27
ENDBRANCH  13  21
ENDBRANCH   7   8
ENDBRANCH   5   7
ENDBRANCH   4   5
ENDBRANCH   3   4
ENDBRANCH   2   3
ENDBRANCH   1   2
BRANCH   1  31
ATOM     31  C   UNL A   1      38.275  20.342  24.964  1.00  0.00     0.202 C 
BRANCH  31  32
ATOM     32  C   UNL A   1      38.903  21.484  25.827  1.00  0.00     0.261 C 
BRANCH  32  33
ATOM     33  O   UNL A   1      40.137  21.287  26.676  1.00  0.00    -0.460 OA
BRANCH  33  34
ATOM     34  C   UNL A   1      41.291  21.973  26.252  1.00  0.00     0.338 C 
ATOM     35  O   UNL A   1      42.094  21.419  25.507  1.00  0.00    -0.246 OA
BRANCH  34  36
ATOM     36  C   UNL A   1      41.623  23.455  26.713  1.00  0.00     0.060 A 
ATOM     37  C   UNL A   1      41.528  23.866  28.047  1.00  0.00     0.016 A 
ATOM     38  C   UNL A   1      41.630  24.570  25.831  1.00  0.00     0.016 A 
ATOM     39  C   UNL A   1      41.531  25.290  28.461  1.00  0.00     0.010 A 
ATOM     40  C   UNL A   1      41.600  26.015  26.252  1.00  0.00     0.010 A 
ATOM     41  C   UNL A   1      41.570  26.454  27.598  1.00  0.00    -0.014 A 
BRANCH  41  42
ATOM     42  C   UNL A   1      40.939  27.915  28.187  1.00  0.00     0.031 A 
ATOM     43  C   UNL A   1      42.117  28.802  27.959  1.00  0.00     0.074 A 
ATOM     44  C   UNL A   1      39.855  28.570  28.840  1.00  0.00     0.049 A 
ATOM     45  N   UNL A   1      43.280  28.476  28.456  1.00  0.00    -0.248 NA
ATOM     46  C   UNL A   1      42.165  29.800  26.893  1.00  0.00     0.031 C 
ATOM     47  C   UNL A   1      38.613  27.976  29.385  1.00  0.00     0.029 A 
ATOM     48  N   UNL A   1      39.576  29.965  29.196  1.00  0.00    -0.354 N 
ATOM     49  C   UNL A   1      44.159  29.432  28.021  1.00  0.00     0.074 A 
ATOM     50  C   UNL A   1      43.479  30.049  26.887  1.00  0.00     0.031 C 
ATOM     51  C   UNL A   1      37.710  28.916  29.819  1.00  0.00     0.029 A 
ATOM     52  C   UNL A   1      38.227  30.283  29.701  1.00  0.00     0.049 A 
ATOM     53  H   UNL A   1      40.262  30.664  29.100  1.00  0.00     0.167 HD
ATOM     54  C   UNL A   1      44.867  30.056  29.006  1.00  0.00     0.037 A 
ATOM     55  C   UNL A   1      37.596  31.499  30.070  1.00  0.00     0.037 A 
ATOM     56  C   UNL A   1      44.294  31.327  29.355  1.00  0.00     0.049 A 
ATOM     57  C   UNL A   1      38.691  32.402  30.449  1.00  0.00     0.074 A 
ATOM     58  C   UNL A   1      43.837  32.383  28.593  1.00  0.00     0.029 A 
ATOM     59  N   UNL A   1      43.694  31.437  30.595  1.00  0.00    -0.354 N 
ATOM     60  N   UNL A   1      39.311  32.296  31.583  1.00  0.00    -0.248 NA
ATOM     61  C   UNL A   1      39.082  33.537  29.619  1.00  0.00     0.031 C 
ATOM     62  C   UNL A   1      42.618  32.746  29.196  1.00  0.00     0.029 A 
ATOM     63  C   UNL A   1      42.583  32.245  30.491  1.00  0.00     0.049 A 
ATOM     64  H   UNL A   1      44.010  31.004  31.422  1.00  0.00     0.167 HD
ATOM     65  C   UNL A   1      40.476  32.954  31.348  1.00  0.00     0.074 A 
ATOM     66  C   UNL A   1      40.175  33.903  30.290  1.00  0.00     0.031 C 
ATOM     67  C   UNL A   1      41.610  32.240  31.557  1.00  0.00     0.037 A 
BRANCH  54  68
ATOM     68  C   UNL A   1      45.510  29.132  29.997  1.00  0.00     0.058 A 
ATOM     69  C   UNL A   1      46.892  28.924  29.922  1.00  0.00     0.135 A 
ATOM     70  C   UNL A   1      44.791  28.389  30.957  1.00  0.00     0.135 A 
ATOM     71  F   UNL A   1      47.631  29.622  29.043  1.00  0.00    -0.206 F 
ATOM     72  C   UNL A   1      47.532  28.003  30.744  1.00  0.00     0.059 A 
ATOM     73  C   UNL A   1      45.403  27.433  31.760  1.00  0.00     0.059 A 
ATOM     74  F   UNL A   1      43.477  28.602  31.140  1.00  0.00    -0.206 F 
ATOM     75  C   UNL A   1      46.777  27.251  31.649  1.00  0.00     0.060 A 
BRANCH  75  76
ATOM     76  S   UNL A   1      47.629  26.032  32.671  1.00  0.00     0.124 S 
ATOM     77  O   UNL A   1      48.757  25.652  31.824  1.00  0.00    -0.237 OA
ATOM     78  O   UNL A   1      47.971  26.824  33.847  1.00  0.00    -0.237 OA
ATOM     79  O   UNL A   1      46.631  24.987  32.870  1.00  0.00    -0.744 OA
ENDBRANCH  75  76
ENDBRANCH  54  68
BRANCH  55  80
ATOM     80  C   UNL A   1      36.223  32.265  30.411  1.00  0.00     0.058 A 
ATOM     81  C   UNL A   1      35.763  32.438  31.777  1.00  0.00     0.135 A 
ATOM     82  C   UNL A   1      35.581  33.158  29.535  1.00  0.00     0.135 A 
ATOM     83  F   UNL A   1      36.189  31.632  32.761  1.00  0.00    -0.206 F 
ATOM     84  C   UNL A   1      34.915  33.475  32.238  1.00  0.00     0.059 A 
ATOM     85  C   UNL A   1      34.694  34.196  29.975  1.00  0.00     0.059 A 
ATOM     86  F   UNL A   1      35.852  33.107  28.225  1.00  0.00    -0.206 F 
ATOM     87  C   UNL A   1      34.416  34.390  31.332  1.00  0.00     0.060 A 
BRANCH  87  88
ATOM     88  S   UNL A   1      33.571  35.887  31.961  1.00  0.00     0.124 S 
ATOM     89  O   UNL A   1      33.405  36.701  30.761  1.00  0.00    -0.237 OA
ATOM     90  O   UNL A   1      32.337  35.340  32.521  1.00  0.00    -0.237 OA
ATOM     91  O   UNL A   1      34.507  36.416  32.948  1.00  0.00    -0.744 OA
ENDBRANCH  87  88
ENDBRANCH  55  80
BRANCH  67  92
ATOM     92  C   UNL A   1      41.675  31.412  32.831  1.00  0.00     0.058 A 
ATOM     93  C   UNL A   1      42.141  31.835  34.100  1.00  0.00     0.135 A 
ATOM     94  C   UNL A   1      41.331  30.055  32.728  1.00  0.00     0.135 A 
ATOM     95  F   UNL A   1      42.389  33.124  34.376  1.00  0.00    -0.206 F 
ATOM     96  C   UNL A   1      42.354  30.939  35.153  1.00  0.00     0.059 A 
ATOM     97  C   UNL A   1      41.480  29.156  33.783  1.00  0.00     0.059 A 
ATOM     98  F   UNL A   1      40.846  29.578  31.570  1.00  0.00    -0.206 F 
ATOM     99  C   UNL A   1      42.034  29.597  34.980  1.00  0.00     0.060 A 
BRANCH  99 100
ATOM    100  S   UNL A   1      42.345  28.439  36.330  1.00  0.00     0.124 S 
ATOM    101  O   UNL A   1      40.989  28.097  36.753  1.00  0.00    -0.237 OA
ATOM    102  O   UNL A   1      43.085  27.368  35.671  1.00  0.00    -0.237 OA
ATOM    103  O   UNL A   1      43.107  29.233  37.290  1.00  0.00    -0.744 OA
ENDBRANCH  99 100
ENDBRANCH  67  92
ENDBRANCH  41  42
ENDBRANCH  34  36
ENDBRANCH  33  34
ENDBRANCH  32  33
ENDBRANCH  31  32
ENDBRANCH   1  31
TORSDOF 21
ENDMDL
MODEL 2
REMARK VINA RESULT:     -11.1      2.544      4.574
REMARK SMILES Cc1c(CC(=O)OCCOCCOC(=O)c2ccc(-c3c4nc(c(-c5c(F)cc(S(=O)(=O)[O-])cc5F)c5ccc([nH]5)c(-c5c(F)cc(S(=O)(=O)[O-])cc5F)c5nc(c(-c6c(F)cc(S(=O)(=O)[O-])cc6F)c6ccc3[nH]6)C=C5)C=C4)cc2)cc(-c2ccc(S(C)(=O)=O)cc2)n1-c1cccc(F)c1
REMARK SMILES IDX 10 1 9 2 8 3 7 4 5 5 6 6 4 7 3 8 1 9 2 10 94 11 82 12 83 13
REMARK SMILES IDX 95 14 96 15 101 16 97 17 99 18 98 19 100 20 84 21 85 22
REMARK SMILES IDX 93 23 86 24 92 25 87 26 88 27 89 28 90 29 91 30 11 31 12 32
REMARK SMILES IDX 13 33 14 34 15 35 16 36 17 37 81 38 18 39 80 40 19 41 20 42
REMARK SMILES IDX 21 43 74 44 22 45 79 46 73 47 75 48 23 49 78 50 72 51 71 52
REMARK SMILES IDX 24 54 58 55 37 56 57 57 38 58 41 59 56 60 76 61 39 62 40 63
REMARK SMILES IDX 55 65 77 66 42 67 25 68 26 69 35 70 27 71 28 72 34 73 36 74
REMARK SMILES IDX 29 75 30 76 31 77 32 78 33 79 59 80 60 81 69 82 61 83 62 84
REMARK SMILES IDX 68 85 70 86 63 87 64 88 65 89 66 90 67 91 43 92 44 93 53 94
REMARK SMILES IDX 45 95 46 96 52 97 54 98 47 99 48 100 49 101 50 102 51 103
REMARK H PARENT 75 53 41 64
REMARK Flexibility Score: inf
ROOT
ATOM      1  O   UNL A   1      43.019  19.321  24.986  1.00  0.00    -0.374 OA
ENDROOT
BRANCH   1   2
ATOM      2  C   UNL A   1      42.771  19.404  26.380  1.00  0.00     0.202 C 
BRANCH   2   3
ATOM      3  C   UNL A   1      42.448  20.816  26.892  1.00  0.00     0.261 C 
BRANCH   3   4
ATOM      4  O   UNL A   1      41.095  20.942  27.386  1.00  0.00    -0.463 OA
BRANCH   4   5
ATOM      5  C   UNL A   1      40.106  20.775  26.468  1.00  0.00     0.310 C 
ATOM      6  O   UNL A   1      39.797  19.686  25.983  1.00  0.00    -0.252 OA
BRANCH   5   7
ATOM      7  C   UNL A   1      39.421  22.046  25.998  1.00  0.00     0.160 C 
BRANCH   7   8
ATOM      8  C   UNL A   1      37.921  22.094  25.814  1.00  0.00    -0.015 A 
ATOM      9  C   UNL A   1      37.410  19.986  24.353  1.00  0.00     0.065 C 
ATOM     10  C   UNL A   1      37.071  21.217  25.131  1.00  0.00     0.024 A 
ATOM     11  N   UNL A   1      35.771  21.739  25.153  1.00  0.00    -0.313 N 
ATOM     12  C   UNL A   1      37.124  23.220  26.147  1.00  0.00     0.033 A 
ATOM     13  C   UNL A   1      35.848  23.034  25.650  1.00  0.00     0.053 A 
BRANCH  11  14
ATOM     14  C   UNL A   1      34.570  21.088  24.722  1.00  0.00     0.049 A 
ATOM     15  C   UNL A   1      33.771  21.601  23.700  1.00  0.00     0.027 A 
ATOM     16  C   UNL A   1      34.084  20.010  25.456  1.00  0.00     0.065 A 
ATOM     17  C   UNL A   1      32.528  21.007  23.414  1.00  0.00     0.005 A 
ATOM     18  C   UNL A   1      32.861  19.419  25.168  1.00  0.00     0.125 A 
ATOM     19  C   UNL A   1      32.074  19.909  24.146  1.00  0.00     0.039 A 
ATOM     20  F   UNL A   1      32.432  18.399  25.920  1.00  0.00    -0.207 F 
ENDBRANCH  11  14
BRANCH  13  21
ATOM     21  C   UNL A   1      34.735  23.973  25.688  1.00  0.00    -0.001 A 
ATOM     22  C   UNL A   1      33.672  23.780  26.573  1.00  0.00     0.011 A 
ATOM     23  C   UNL A   1      34.720  25.066  24.815  1.00  0.00     0.011 A 
ATOM     24  C   UNL A   1      32.585  24.647  26.578  1.00  0.00     0.021 A 
ATOM     25  C   UNL A   1      33.633  25.939  24.807  1.00  0.00     0.021 A 
ATOM     26  C   UNL A   1      32.568  25.718  25.682  1.00  0.00     0.067 A 
BRANCH  26  27
ATOM     27  S   UNL A   1      31.183  26.827  25.703  1.00  0.00     0.175 S 
ATOM     28  C   UNL A   1      30.206  26.337  24.304  1.00  0.00     0.163 C 
ATOM     29  O   UNL A   1      30.451  26.567  26.910  1.00  0.00    -0.224 OA
ATOM     30  O   UNL A   1      31.706  28.164  25.414  1.00  0.00    -0.224 OA
ENDBRANCH  26  27
ENDBRANCH  13  21
ENDBRANCH   7   8
ENDBRANCH   5   7
ENDBRANCH   4   5
ENDBRANCH   3   4
ENDBRANCH   2   3
ENDBRANCH   1   2
BRANCH   1  31
ATOM     31  C   UNL A   1      44.395  19.174  24.624  1.00  0.00     0.202 C 
BRANCH  31  32
ATOM     32  C   UNL A   1      45.239  20.470  24.399  1.00  0.00     0.261 C 
BRANCH  32  33
ATOM     33  O   UNL A   1      45.278  21.607  25.394  1.00  0.00    -0.460 OA
BRANCH  33  34
ATOM     34  C   UNL A   1      45.191  22.904  24.849  1.00  0.00     0.338 C 
ATOM     35  O   UNL A   1      45.131  23.054  23.633  1.00  0.00    -0.246 OA
BRANCH  34  36
ATOM     36  C   UNL A   1      45.184  24.210  25.750  1.00  0.00     0.060 A 
ATOM     37  C   UNL A   1      44.830  24.189  27.104  1.00  0.00     0.016 A 
ATOM     38  C   UNL A   1      45.117  25.529  25.222  1.00  0.00     0.016 A 
ATOM     39  C   UNL A   1      44.520  25.412  27.882  1.00  0.00     0.010 A 
ATOM     40  C   UNL A   1      44.771  26.766  26.007  1.00  0.00     0.010 A 
ATOM     41  C   UNL A   1      44.473  26.775  27.391  1.00  0.00    -0.014 A 
BRANCH  41  42
ATOM     42  C   UNL A   1      43.515  27.899  28.227  1.00  0.00     0.031 A 
ATOM     43  C   UNL A   1      44.567  28.887  28.605  1.00  0.00     0.074 A 
ATOM     44  C   UNL A   1      42.228  28.216  28.749  1.00  0.00     0.049 A 
ATOM     45  N   UNL A   1      45.626  28.489  29.257  1.00  0.00    -0.248 NA
ATOM     46  C   UNL A   1      44.700  30.192  27.960  1.00  0.00     0.031 C 
ATOM     47  C   UNL A   1      40.999  27.390  28.736  1.00  0.00     0.029 A 
ATOM     48  N   UNL A   1      41.670  29.382  29.442  1.00  0.00    -0.354 N 
ATOM     49  C   UNL A   1      46.426  29.593  29.390  1.00  0.00     0.074 A 
ATOM     50  C   UNL A   1      45.930  30.515  28.374  1.00  0.00     0.031 C 
ATOM     51  C   UNL A   1      39.891  28.060  29.195  1.00  0.00     0.029 A 
ATOM     52  C   UNL A   1      40.211  29.416  29.654  1.00  0.00     0.049 A 
ATOM     53  H   UNL A   1      42.248  30.115  29.754  1.00  0.00     0.167 HD
ATOM     54  C   UNL A   1      46.796  29.887  30.670  1.00  0.00     0.037 A 
ATOM     55  C   UNL A   1      39.339  30.387  30.211  1.00  0.00     0.037 A 
ATOM     56  C   UNL A   1      45.975  30.919  31.242  1.00  0.00     0.049 A 
ATOM     57  C   UNL A   1      40.174  31.175  31.127  1.00  0.00     0.074 A 
ATOM     58  C   UNL A   1      45.546  32.140  30.762  1.00  0.00     0.029 A 
ATOM     59  N   UNL A   1      45.106  30.556  32.253  1.00  0.00    -0.354 N 
ATOM     60  N   UNL A   1      40.535  30.728  32.289  1.00  0.00    -0.248 NA
ATOM     61  C   UNL A   1      40.564  32.549  30.829  1.00  0.00     0.031 C 
ATOM     62  C   UNL A   1      44.183  32.191  31.111  1.00  0.00     0.029 A 
ATOM     63  C   UNL A   1      43.937  31.274  32.125  1.00  0.00     0.049 A 
ATOM     64  H   UNL A   1      45.292  29.888  32.952  1.00  0.00     0.167 HD
ATOM     65  C   UNL A   1      41.611  31.503  32.584  1.00  0.00     0.074 A 
ATOM     66  C   UNL A   1      41.413  32.735  31.840  1.00  0.00     0.031 C 
ATOM     67  C   UNL A   1      42.764  30.838  32.843  1.00  0.00     0.037 A 
BRANCH  54  68
ATOM     68  C   UNL A   1      47.335  28.724  31.449  1.00  0.00     0.058 A 
ATOM     69  C   UNL A   1      48.718  28.625  31.638  1.00  0.00     0.135 A 
ATOM     70  C   UNL A   1      46.534  27.670  31.940  1.00  0.00     0.135 A 
ATOM     71  F   UNL A   1      49.527  29.610  31.214  1.00  0.00    -0.206 F 
ATOM     72  C   UNL A   1      49.288  27.520  32.262  1.00  0.00     0.059 A 
ATOM     73  C   UNL A   1      47.084  26.537  32.528  1.00  0.00     0.059 A 
ATOM     74  F   UNL A   1      45.195  27.742  31.868  1.00  0.00    -0.206 F 
ATOM     75  C   UNL A   1      48.464  26.474  32.689  1.00  0.00     0.060 A 
BRANCH  75  76
ATOM     76  S   UNL A   1      49.236  25.034  33.455  1.00  0.00     0.124 S 
ATOM     77  O   UNL A   1      50.160  25.647  34.406  1.00  0.00    -0.237 OA
ATOM     78  O   UNL A   1      48.084  24.364  34.047  1.00  0.00    -0.237 OA
ATOM     79  O   UNL A   1      49.873  24.346  32.336  1.00  0.00    -0.744 OA
ENDBRANCH  75  76
ENDBRANCH  54  68
BRANCH  55  80
ATOM     80  C   UNL A   1      37.825  30.895  30.407  1.00  0.00     0.058 A 
ATOM     81  C   UNL A   1      37.104  30.684  31.650  1.00  0.00     0.135 A 
ATOM     82  C   UNL A   1      37.223  31.897  29.627  1.00  0.00     0.135 A 
ATOM     83  F   UNL A   1      37.462  29.717  32.507  1.00  0.00    -0.206 F 
ATOM     84  C   UNL A   1      36.036  31.483  32.130  1.00  0.00     0.059 A 
ATOM     85  C   UNL A   1      36.122  32.697  30.080  1.00  0.00     0.059 A 
ATOM     86  F   UNL A   1      37.732  32.192  28.424  1.00  0.00    -0.206 F 
ATOM     87  C   UNL A   1      35.575  32.529  31.355  1.00  0.00     0.060 A 
BRANCH  87  88
ATOM     88  S   UNL A   1      34.409  33.731  32.095  1.00  0.00     0.124 S 
ATOM     89  O   UNL A   1      35.295  34.694  32.741  1.00  0.00    -0.237 OA
ATOM     90  O   UNL A   1      33.687  34.230  30.926  1.00  0.00    -0.237 OA
ATOM     91  O   UNL A   1      33.610  32.914  33.003  1.00  0.00    -0.744 OA
ENDBRANCH  87  88
ENDBRANCH  55  80
BRANCH  67  92
ATOM     92  C   UNL A   1      42.668  29.630  33.762  1.00  0.00     0.058 A 
ATOM     93  C   UNL A   1      42.318  28.307  33.398  1.00  0.00     0.135 A 
ATOM     94  C   UNL A   1      42.846  29.859  35.135  1.00  0.00     0.135 A 
ATOM     95  F   UNL A   1      42.235  27.917  32.117  1.00  0.00    -0.206 F 
ATOM     96  C   UNL A   1      42.056  27.316  34.351  1.00  0.00     0.059 A 
ATOM     97  C   UNL A   1      42.648  28.870  36.098  1.00  0.00     0.059 A 
ATOM     98  F   UNL A   1      43.214  31.077  35.565  1.00  0.00    -0.206 F 
ATOM     99  C   UNL A   1      42.209  27.612  35.700  1.00  0.00     0.060 A 
BRANCH  99 100
ATOM    100  S   UNL A   1      41.835  26.339  36.926  1.00  0.00     0.124 S 
ATOM    101  O   UNL A   1      40.558  26.803  37.463  1.00  0.00    -0.237 OA
ATOM    102  O   UNL A   1      41.772  25.125  36.118  1.00  0.00    -0.237 OA
ATOM    103  O   UNL A   1      42.959  26.420  37.853  1.00  0.00    -0.744 OA
ENDBRANCH  99 100
ENDBRANCH  67  92
ENDBRANCH  41  42
ENDBRANCH  34  36
ENDBRANCH  33  34
ENDBRANCH  32  33
ENDBRANCH  31  32
ENDBRANCH   1  31
TORSDOF 21
ENDMDL
MODEL 3
REMARK VINA RESULT:     -10.7      3.439      5.712
REMARK SMILES Cc1c(CC(=O)OCCOCCOC(=O)c2ccc(-c3c4nc(c(-c5c(F)cc(S(=O)(=O)[O-])cc5F)c5ccc([nH]5)c(-c5c(F)cc(S(=O)(=O)[O-])cc5F)c5nc(c(-c6c(F)cc(S(=O)(=O)[O-])cc6F)c6ccc3[nH]6)C=C5)C=C4)cc2)cc(-c2ccc(S(C)(=O)=O)cc2)n1-c1cccc(F)c1
REMARK SMILES IDX 10 1 9 2 8 3 7 4 5 5 6 6 4 7 3 8 1 9 2 10 94 11 82 12 83 13
REMARK SMILES IDX 95 14 96 15 101 16 97 17 99 18 98 19 100 20 84 21 85 22
REMARK SMILES IDX 93 23 86 24 92 25 87 26 88 27 89 28 90 29 91 30 11 31 12 32
REMARK SMILES IDX 13 33 14 34 15 35 16 36 17 37 81 38 18 39 80 40 19 41 20 42
REMARK SMILES IDX 21 43 74 44 22 45 79 46 73 47 75 48 23 49 78 50 72 51 71 52
REMARK SMILES IDX 24 54 58 55 37 56 57 57 38 58 41 59 56 60 76 61 39 62 40 63
REMARK SMILES IDX 55 65 77 66 42 67 25 68 26 69 35 70 27 71 28 72 34 73 36 74
REMARK SMILES IDX 29 75 30 76 31 77 32 78 33 79 59 80 60 81 69 82 61 83 62 84
REMARK SMILES IDX 68 85 70 86 63 87 64 88 65 89 66 90 67 91 43 92 44 93 53 94
REMARK SMILES IDX 45 95 46 96 52 97 54 98 47 99 48 100 49 101 50 102 51 103
REMARK H PARENT 75 53 41 64
REMARK Flexibility Score: inf
ROOT
ATOM      1  O   UNL A   1      43.452  18.477  25.816  1.00  0.00    -0.374 OA
ENDROOT
BRANCH   1   2
ATOM      2  C   UNL A   1      42.278  19.251  25.999  1.00  0.00     0.202 C 
BRANCH   2   3
ATOM      3  C   UNL A   1      41.830  19.402  27.461  1.00  0.00     0.261 C 
BRANCH   3   4
ATOM      4  O   UNL A   1      40.782  20.383  27.632  1.00  0.00    -0.463 OA
BRANCH   4   5
ATOM      5  C   UNL A   1      41.177  21.685  27.634  1.00  0.00     0.310 C 
ATOM      6  O   UNL A   1      41.870  22.189  28.519  1.00  0.00    -0.252 OA
BRANCH   5   7
ATOM      7  C   UNL A   1      40.649  22.537  26.494  1.00  0.00     0.160 C 
BRANCH   7   8
ATOM      8  C   UNL A   1      39.207  22.432  26.052  1.00  0.00    -0.015 A 
ATOM      9  C   UNL A   1      38.138  24.662  26.901  1.00  0.00     0.065 C 
ATOM     10  C   UNL A   1      38.150  23.335  26.213  1.00  0.00     0.024 A 
ATOM     11  N   UNL A   1      36.976  22.748  25.726  1.00  0.00    -0.313 N 
ATOM     12  C   UNL A   1      38.619  21.235  25.566  1.00  0.00     0.033 A 
ATOM     13  C   UNL A   1      37.252  21.411  25.470  1.00  0.00     0.053 A 
BRANCH  11  14
ATOM     14  C   UNL A   1      35.703  23.380  25.544  1.00  0.00     0.049 A 
ATOM     15  C   UNL A   1      35.435  24.213  24.457  1.00  0.00     0.027 A 
ATOM     16  C   UNL A   1      34.762  23.314  26.567  1.00  0.00     0.065 A 
ATOM     17  C   UNL A   1      34.225  24.927  24.401  1.00  0.00     0.005 A 
ATOM     18  C   UNL A   1      33.564  24.012  26.507  1.00  0.00     0.125 A 
ATOM     19  C   UNL A   1      33.282  24.822  25.426  1.00  0.00     0.039 A 
ATOM     20  F   UNL A   1      32.704  23.928  27.529  1.00  0.00    -0.207 F 
ENDBRANCH  11  14
BRANCH  13  21
ATOM     21  C   UNL A   1      36.254  20.416  25.097  1.00  0.00    -0.001 A 
ATOM     22  C   UNL A   1      34.906  20.766  24.999  1.00  0.00     0.011 A 
ATOM     23  C   UNL A   1      36.647  19.095  24.859  1.00  0.00     0.011 A 
ATOM     24  C   UNL A   1      33.944  19.808  24.692  1.00  0.00     0.021 A 
ATOM     25  C   UNL A   1      35.692  18.126  24.557  1.00  0.00     0.021 A 
ATOM     26  C   UNL A   1      34.345  18.487  24.485  1.00  0.00     0.067 A 
BRANCH  26  27
ATOM     27  S   UNL A   1      33.114  17.274  24.081  1.00  0.00     0.175 S 
ATOM     28  C   UNL A   1      33.133  16.153  25.458  1.00  0.00     0.163 C 
ATOM     29  O   UNL A   1      31.849  17.953  24.037  1.00  0.00    -0.224 OA
ATOM     30  O   UNL A   1      33.612  16.535  22.919  1.00  0.00    -0.224 OA
ENDBRANCH  26  27
ENDBRANCH  13  21
ENDBRANCH   7   8
ENDBRANCH   5   7
ENDBRANCH   4   5
ENDBRANCH   3   4
ENDBRANCH   2   3
ENDBRANCH   1   2
BRANCH   1  31
ATOM     31  C   UNL A   1      44.485  19.115  25.060  1.00  0.00     0.202 C 
BRANCH  31  32
ATOM     32  C   UNL A   1      44.439  20.671  24.917  1.00  0.00     0.261 C 
BRANCH  32  33
ATOM     33  O   UNL A   1      45.549  21.573  25.406  1.00  0.00    -0.460 OA
BRANCH  33  34
ATOM     34  C   UNL A   1      45.418  22.938  25.085  1.00  0.00     0.338 C 
ATOM     35  O   UNL A   1      45.380  23.289  23.909  1.00  0.00    -0.246 OA
BRANCH  34  36
ATOM     36  C   UNL A   1      45.333  24.072  26.192  1.00  0.00     0.060 A 
ATOM     37  C   UNL A   1      44.593  23.919  27.370  1.00  0.00     0.016 A 
ATOM     38  C   UNL A   1      45.617  25.441  25.938  1.00  0.00     0.016 A 
ATOM     39  C   UNL A   1      44.246  25.049  28.264  1.00  0.00     0.010 A 
ATOM     40  C   UNL A   1      45.237  26.592  26.832  1.00  0.00     0.010 A 
ATOM     41  C   UNL A   1      44.545  26.452  28.060  1.00  0.00    -0.014 A 
BRANCH  41  42
ATOM     42  C   UNL A   1      43.555  27.605  28.816  1.00  0.00     0.031 A 
ATOM     43  C   UNL A   1      44.606  28.503  29.377  1.00  0.00     0.074 A 
ATOM     44  C   UNL A   1      42.231  27.988  29.179  1.00  0.00     0.049 A 
ATOM     45  N   UNL A   1      45.541  28.008  30.142  1.00  0.00    -0.248 NA
ATOM     46  C   UNL A   1      44.906  29.820  28.819  1.00  0.00     0.031 C 
ATOM     47  C   UNL A   1      40.967  27.248  28.964  1.00  0.00     0.029 A 
ATOM     48  N   UNL A   1      41.659  29.161  29.848  1.00  0.00    -0.354 N 
ATOM     49  C   UNL A   1      46.383  29.049  30.433  1.00  0.00     0.074 A 
ATOM     50  C   UNL A   1      46.086  30.043  29.406  1.00  0.00     0.031 C 
ATOM     51  C   UNL A   1      39.851  27.974  29.306  1.00  0.00     0.029 A 
ATOM     52  C   UNL A   1      40.190  29.285  29.867  1.00  0.00     0.049 A 
ATOM     53  H   UNL A   1      42.235  29.840  30.268  1.00  0.00     0.167 HD
ATOM     54  C   UNL A   1      46.595  29.265  31.763  1.00  0.00     0.037 A 
ATOM     55  C   UNL A   1      39.313  30.290  30.352  1.00  0.00     0.037 A 
ATOM     56  C   UNL A   1      45.771  30.328  32.272  1.00  0.00     0.049 A 
ATOM     57  C   UNL A   1      40.065  30.983  31.407  1.00  0.00     0.074 A 
ATOM     58  C   UNL A   1      45.486  31.593  31.799  1.00  0.00     0.029 A 
ATOM     59  N   UNL A   1      44.752  29.984  33.140  1.00  0.00    -0.354 N 
ATOM     60  N   UNL A   1      40.238  30.466  32.583  1.00  0.00    -0.248 NA
ATOM     61  C   UNL A   1      40.576  32.338  31.230  1.00  0.00     0.031 C 
ATOM     62  C   UNL A   1      44.095  31.722  31.967  1.00  0.00     0.029 A 
ATOM     63  C   UNL A   1      43.658  30.785  32.895  1.00  0.00     0.049 A 
ATOM     64  H   UNL A   1      44.800  29.278  33.825  1.00  0.00     0.167 HD
ATOM     65  C   UNL A   1      41.310  31.154  33.055  1.00  0.00     0.074 A 
ATOM     66  C   UNL A   1      41.291  32.425  32.352  1.00  0.00     0.031 C 
ATOM     67  C   UNL A   1      42.374  30.402  33.430  1.00  0.00     0.037 A 
BRANCH  54  68
ATOM     68  C   UNL A   1      46.951  28.038  32.549  1.00  0.00     0.058 A 
ATOM     69  C   UNL A   1      45.935  27.136  32.881  1.00  0.00     0.135 A 
ATOM     70  C   UNL A   1      48.245  27.774  33.047  1.00  0.00     0.135 A 
ATOM     71  F   UNL A   1      44.689  27.323  32.414  1.00  0.00    -0.206 F 
ATOM     72  C   UNL A   1      46.181  26.033  33.693  1.00  0.00     0.059 A 
ATOM     73  C   UNL A   1      48.505  26.703  33.893  1.00  0.00     0.059 A 
ATOM     74  F   UNL A   1      49.282  28.552  32.695  1.00  0.00    -0.206 F 
ATOM     75  C   UNL A   1      47.465  25.833  34.207  1.00  0.00     0.060 A 
BRANCH  75  76
ATOM     76  S   UNL A   1      47.743  24.420  35.293  1.00  0.00     0.124 S 
ATOM     77  O   UNL A   1      48.568  23.548  34.461  1.00  0.00    -0.237 OA
ATOM     78  O   UNL A   1      48.433  25.045  36.417  1.00  0.00    -0.237 OA
ATOM     79  O   UNL A   1      46.399  23.920  35.563  1.00  0.00    -0.744 OA
ENDBRANCH  75  76
ENDBRANCH  54  68
BRANCH  55  80
ATOM     80  C   UNL A   1      37.821  30.892  30.372  1.00  0.00     0.058 A 
ATOM     81  C   UNL A   1      36.893  30.599  31.450  1.00  0.00     0.135 A 
ATOM     82  C   UNL A   1      37.418  32.022  29.639  1.00  0.00     0.135 A 
ATOM     83  F   UNL A   1      37.047  29.514  32.224  1.00  0.00    -0.206 F 
ATOM     84  C   UNL A   1      35.812  31.420  31.854  1.00  0.00     0.059 A 
ATOM     85  C   UNL A   1      36.307  32.850  30.011  1.00  0.00     0.059 A 
ATOM     86  F   UNL A   1      38.135  32.410  28.577  1.00  0.00    -0.206 F 
ATOM     87  C   UNL A   1      35.549  32.581  31.155  1.00  0.00     0.060 A 
BRANCH  87  88
ATOM     88  S   UNL A   1      34.351  33.780  31.849  1.00  0.00     0.124 S 
ATOM     89  O   UNL A   1      33.558  32.962  32.760  1.00  0.00    -0.237 OA
ATOM     90  O   UNL A   1      35.224  34.763  32.488  1.00  0.00    -0.237 OA
ATOM     91  O   UNL A   1      33.640  34.270  30.671  1.00  0.00    -0.744 OA
ENDBRANCH  87  88
ENDBRANCH  55  80
BRANCH  67  92
ATOM     92  C   UNL A   1      42.081  29.167  34.269  1.00  0.00     0.058 A 
ATOM     93  C   UNL A   1      41.926  29.107  35.675  1.00  0.00     0.135 A 
ATOM     94  C   UNL A   1      42.056  27.934  33.598  1.00  0.00     0.135 A 
ATOM     95  F   UNL A   1      41.809  30.212  36.427  1.00  0.00    -0.206 F 
ATOM     96  C   UNL A   1      41.865  27.894  36.368  1.00  0.00     0.059 A 
ATOM     97  C   UNL A   1      41.937  26.714  34.265  1.00  0.00     0.059 A 
ATOM     98  F   UNL A   1      42.160  27.901  32.260  1.00  0.00    -0.206 F 
ATOM     99  C   UNL A   1      41.887  26.701  35.654  1.00  0.00     0.060 A 
BRANCH  99 100
ATOM    100  S   UNL A   1      41.845  25.137  36.557  1.00  0.00     0.124 S 
ATOM    101  O   UNL A   1      41.401  24.204  35.524  1.00  0.00    -0.237 OA
ATOM    102  O   UNL A   1      43.229  24.980  36.991  1.00  0.00    -0.237 OA
ATOM    103  O   UNL A   1      40.875  25.385  37.620  1.00  0.00    -0.744 OA
ENDBRANCH  99 100
ENDBRANCH  67  92
ENDBRANCH  41  42
ENDBRANCH  34  36
ENDBRANCH  33  34
ENDBRANCH  32  33
ENDBRANCH  31  32
ENDBRANCH   1  31
TORSDOF 21
ENDMDL
