MODEL 1
REMARK VINA RESULT:      -9.5      0.000      0.000
REMARK SMILES CC(C)(CC(=O)OCCOCCOC(=O)c1ccc(-c2c3nc(c(-c4c(F)cc(S(=O)(=O)[O-])cc4F)c4ccc([nH]4)c(-c4c(F)cc(S(=O)(=O)[O-])cc4F)c4nc(c(-c5c(F)cc(S(=O)(=O)[O-])cc5F)c5ccc2[nH]5)C=C4)C=C3)cc1)Cc1nc([C@@]2(C)CCCO2)no1
REMARK SMILES IDX 9 1 8 2 7 3 5 4 6 5 4 6 2 7 1 8 3 9 82 10 83 11 84 12 93 13
REMARK SMILES IDX 85 14 92 15 86 16 87 17 88 18 91 19 89 20 90 21 10 22 11 23
REMARK SMILES IDX 12 24 13 25 14 26 15 27 16 28 17 29 81 30 18 31 80 32 19 33
REMARK SMILES IDX 20 34 21 35 74 36 22 37 79 38 73 39 75 40 23 41 78 42 72 43
REMARK SMILES IDX 71 44 24 46 58 47 37 48 57 49 38 50 41 51 56 52 76 53 39 54
REMARK SMILES IDX 40 55 55 57 77 58 42 59 25 60 26 61 35 62 27 63 28 64 34 65
REMARK SMILES IDX 36 66 29 67 30 68 31 69 32 70 33 71 59 72 60 73 69 74 61 75
REMARK SMILES IDX 62 76 68 77 70 78 63 79 64 80 65 81 66 82 67 83 43 84 44 85
REMARK SMILES IDX 53 86 45 87 46 88 52 89 54 90 47 91 48 92 49 93 50 94 51 95
REMARK H PARENT 75 45 41 56
REMARK Flexibility Score: inf
ROOT
ATOM      1  C   UNL A   1      44.575  25.034  25.484  1.00  0.00     0.202 C 
ENDROOT
BRANCH   1   2
ATOM      2  C   UNL A   1      45.116  24.911  26.918  1.00  0.00     0.261 C 
BRANCH   2   3
ATOM      3  O   UNL A   1      46.510  25.179  27.056  1.00  0.00    -0.463 OA
BRANCH   3   4
ATOM      4  C   UNL A   1      46.819  25.785  28.214  1.00  0.00     0.306 C 
ATOM      5  O   UNL A   1      46.649  25.301  29.329  1.00  0.00    -0.252 OA
BRANCH   4   6
ATOM      6  C   UNL A   1      47.459  27.135  28.043  1.00  0.00     0.129 C 
BRANCH   6   7
ATOM      7  C   UNL A   1      46.869  28.326  27.230  1.00  0.00    -0.016 C 
ATOM      8  C   UNL A   1      46.756  28.057  25.726  1.00  0.00     0.012 C 
ATOM      9  C   UNL A   1      45.404  28.392  27.789  1.00  0.00     0.012 C 
BRANCH   7  10
ATOM     10  C   UNL A   1      47.491  29.731  27.481  1.00  0.00     0.107 C 
BRANCH  10  11
ATOM     11  C   UNL A   1      46.716  30.994  27.218  1.00  0.00     0.227 A 
ATOM     12  N   UNL A   1      45.891  32.123  28.091  1.00  0.00    -0.193 NA
ATOM     13  O   UNL A   1      46.065  31.118  25.467  1.00  0.00    -0.339 OA
ATOM     14  C   UNL A   1      44.643  33.076  27.046  1.00  0.00     0.203 A 
ATOM     15  N   UNL A   1      44.697  32.513  25.431  1.00  0.00    -0.059 NA
BRANCH  14  16
ATOM     16  C   UNL A   1      43.960  34.415  27.368  1.00  0.00     0.128 C 
ATOM     17  C   UNL A   1      43.171  35.142  26.245  1.00  0.00     0.051 C 
ATOM     18  C   UNL A   1      43.090  34.281  28.630  1.00  0.00     0.046 C 
ATOM     19  O   UNL A   1      44.946  35.402  27.794  1.00  0.00    -0.367 OA
ATOM     20  C   UNL A   1      42.969  35.706  29.109  1.00  0.00     0.032 C 
ATOM     21  C   UNL A   1      44.301  36.309  28.709  1.00  0.00     0.161 C 
ENDBRANCH  14  16
ENDBRANCH  10  11
ENDBRANCH   7  10
ENDBRANCH   6   7
ENDBRANCH   4   6
ENDBRANCH   3   4
ENDBRANCH   2   3
ENDBRANCH   1   2
BRANCH   1  22
ATOM     22  O   UNL A   1      44.928  24.176  24.414  1.00  0.00    -0.374 OA
BRANCH  22  23
ATOM     23  C   UNL A   1      44.316  22.899  24.292  1.00  0.00     0.202 C 
BRANCH  23  24
ATOM     24  C   UNL A   1      43.311  22.127  25.405  1.00  0.00     0.261 C 
BRANCH  24  25
ATOM     25  O   UNL A   1      41.343  22.591  25.981  1.00  0.00    -0.460 OA
BRANCH  25  26
ATOM     26  C   UNL A   1      40.081  22.929  26.363  1.00  0.00     0.338 C 
ATOM     27  O   UNL A   1      39.256  22.056  26.633  1.00  0.00    -0.246 OA
BRANCH  26  28
ATOM     28  C   UNL A   1      39.624  24.340  26.575  1.00  0.00     0.060 A 
ATOM     29  C   UNL A   1      40.371  25.390  26.057  1.00  0.00     0.016 A 
ATOM     30  C   UNL A   1      38.984  24.551  27.794  1.00  0.00     0.016 A 
ATOM     31  C   UNL A   1      40.824  26.427  26.869  1.00  0.00     0.010 A 
ATOM     32  C   UNL A   1      39.293  25.672  28.565  1.00  0.00     0.010 A 
ATOM     33  C   UNL A   1      40.288  26.567  28.146  1.00  0.00    -0.014 A 
BRANCH  33  34
ATOM     34  C   UNL A   1      40.691  27.687  29.021  1.00  0.00     0.031 A 
ATOM     35  C   UNL A   1      41.934  27.585  29.856  1.00  0.00     0.074 A 
ATOM     36  C   UNL A   1      39.888  28.765  29.091  1.00  0.00     0.049 A 
ATOM     37  N   UNL A   1      42.342  28.372  30.816  1.00  0.00    -0.248 NA
ATOM     38  C   UNL A   1      42.829  26.450  29.584  1.00  0.00     0.031 C 
ATOM     39  C   UNL A   1      38.691  28.970  28.271  1.00  0.00     0.029 A 
ATOM     40  N   UNL A   1      39.936  29.876  29.889  1.00  0.00    -0.354 N 
ATOM     41  C   UNL A   1      43.524  27.813  31.286  1.00  0.00     0.074 A 
ATOM     42  C   UNL A   1      43.757  26.609  30.518  1.00  0.00     0.031 C 
ATOM     43  C   UNL A   1      38.121  30.135  28.604  1.00  0.00     0.029 A 
ATOM     44  C   UNL A   1      38.858  30.712  29.718  1.00  0.00     0.049 A 
ATOM     45  H   UNL A   1      40.670  30.058  30.520  1.00  0.00     0.167 HD
ATOM     46  C   UNL A   1      44.325  28.271  32.277  1.00  0.00     0.037 A 
ATOM     47  C   UNL A   1      38.473  31.793  30.422  1.00  0.00     0.037 A 
ATOM     48  C   UNL A   1      44.045  29.467  33.033  1.00  0.00     0.049 A 
ATOM     49  C   UNL A   1      39.332  32.222  31.577  1.00  0.00     0.074 A 
ATOM     50  C   UNL A   1      44.782  30.030  34.059  1.00  0.00     0.029 A 
ATOM     51  N   UNL A   1      42.927  30.275  32.855  1.00  0.00    -0.354 N 
ATOM     52  N   UNL A   1      40.446  31.686  32.017  1.00  0.00    -0.248 NA
ATOM     53  C   UNL A   1      38.885  33.396  32.330  1.00  0.00     0.031 C 
ATOM     54  C   UNL A   1      44.068  31.123  34.558  1.00  0.00     0.029 A 
ATOM     55  C   UNL A   1      42.936  31.307  33.778  1.00  0.00     0.049 A 
ATOM     56  H   UNL A   1      42.232  30.133  32.173  1.00  0.00     0.167 HD
ATOM     57  C   UNL A   1      40.857  32.484  33.078  1.00  0.00     0.074 A 
ATOM     58  C   UNL A   1      39.875  33.544  33.198  1.00  0.00     0.031 C 
ATOM     59  C   UNL A   1      41.947  32.354  33.875  1.00  0.00     0.037 A 
BRANCH  46  60
ATOM     60  C   UNL A   1      45.536  27.452  32.637  1.00  0.00     0.058 A 
ATOM     61  C   UNL A   1      45.507  26.468  33.637  1.00  0.00     0.135 A 
ATOM     62  C   UNL A   1      46.746  27.643  31.947  1.00  0.00     0.135 A 
ATOM     63  F   UNL A   1      44.385  26.251  34.342  1.00  0.00    -0.206 F 
ATOM     64  C   UNL A   1      46.638  25.723  33.959  1.00  0.00     0.059 A 
ATOM     65  C   UNL A   1      47.878  26.883  32.225  1.00  0.00     0.059 A 
ATOM     66  F   UNL A   1      46.837  28.575  30.985  1.00  0.00    -0.206 F 
ATOM     67  C   UNL A   1      47.817  25.933  33.241  1.00  0.00     0.060 A 
BRANCH  67  68
ATOM     68  S   UNL A   1      49.262  24.934  33.651  1.00  0.00     0.124 S 
ATOM     69  O   UNL A   1      49.895  24.779  32.344  1.00  0.00    -0.237 OA
ATOM     70  O   UNL A   1      49.968  25.791  34.599  1.00  0.00    -0.237 OA
ATOM     71  O   UNL A   1      48.688  23.717  34.217  1.00  0.00    -0.744 OA
ENDBRANCH  67  68
ENDBRANCH  46  60
BRANCH  47  72
ATOM     72  C   UNL A   1      37.218  32.509  30.072  1.00  0.00     0.058 A 
ATOM     73  C   UNL A   1      37.226  33.588  29.176  1.00  0.00     0.135 A 
ATOM     74  C   UNL A   1      35.981  32.129  30.621  1.00  0.00     0.135 A 
ATOM     75  F   UNL A   1      38.379  33.991  28.624  1.00  0.00    -0.206 F 
ATOM     76  C   UNL A   1      36.063  34.279  28.857  1.00  0.00     0.059 A 
ATOM     77  C   UNL A   1      34.797  32.779  30.286  1.00  0.00     0.059 A 
ATOM     78  F   UNL A   1      35.909  31.091  31.470  1.00  0.00    -0.206 F 
ATOM     79  C   UNL A   1      34.852  33.862  29.412  1.00  0.00     0.060 A 
BRANCH  79  80
ATOM     80  S   UNL A   1      33.344  34.740  28.951  1.00  0.00     0.124 S 
ATOM     81  O   UNL A   1      32.762  33.833  27.969  1.00  0.00    -0.237 OA
ATOM     82  O   UNL A   1      32.648  34.833  30.230  1.00  0.00    -0.237 OA
ATOM     83  O   UNL A   1      33.841  36.007  28.422  1.00  0.00    -0.744 OA
ENDBRANCH  79  80
ENDBRANCH  47  72
BRANCH  59  84
ATOM     84  C   UNL A   1      42.165  33.423  34.912  1.00  0.00     0.058 A 
ATOM     85  C   UNL A   1      42.827  34.626  34.621  1.00  0.00     0.135 A 
ATOM     86  C   UNL A   1      41.661  33.251  36.213  1.00  0.00     0.135 A 
ATOM     87  F   UNL A   1      43.335  34.841  33.397  1.00  0.00    -0.206 F 
ATOM     88  C   UNL A   1      43.016  35.603  35.592  1.00  0.00     0.059 A 
ATOM     89  C   UNL A   1      41.793  34.235  37.185  1.00  0.00     0.059 A 
ATOM     90  F   UNL A   1      41.010  32.124  36.544  1.00  0.00    -0.206 F 
ATOM     91  C   UNL A   1      42.486  35.400  36.869  1.00  0.00     0.060 A 
BRANCH  91  92
ATOM     92  S   UNL A   1      42.706  36.695  38.105  1.00  0.00     0.124 S 
ATOM     93  O   UNL A   1      43.440  35.987  39.148  1.00  0.00    -0.237 OA
ATOM     94  O   UNL A   1      43.462  37.701  37.365  1.00  0.00    -0.237 OA
ATOM     95  O   UNL A   1      41.338  37.074  38.449  1.00  0.00    -0.744 OA
ENDBRANCH  91  92
ENDBRANCH  59  84
ENDBRANCH  33  34
ENDBRANCH  26  28
ENDBRANCH  25  26
ENDBRANCH  24  25
ENDBRANCH  23  24
ENDBRANCH  22  23
ENDBRANCH   1  22
TORSDOF 21
ENDMDL
MODEL 2
REMARK VINA RESULT:      -9.4      5.245     12.776
REMARK SMILES CC(C)(CC(=O)OCCOCCOC(=O)c1ccc(-c2c3nc(c(-c4c(F)cc(S(=O)(=O)[O-])cc4F)c4ccc([nH]4)c(-c4c(F)cc(S(=O)(=O)[O-])cc4F)c4nc(c(-c5c(F)cc(S(=O)(=O)[O-])cc5F)c5ccc2[nH]5)C=C4)C=C3)cc1)Cc1nc([C@@]2(C)CCCO2)no1
REMARK SMILES IDX 9 1 8 2 7 3 5 4 6 5 4 6 2 7 1 8 3 9 82 10 83 11 84 12 93 13
REMARK SMILES IDX 85 14 92 15 86 16 87 17 88 18 91 19 89 20 90 21 10 22 11 23
REMARK SMILES IDX 12 24 13 25 14 26 15 27 16 28 17 29 81 30 18 31 80 32 19 33
REMARK SMILES IDX 20 34 21 35 74 36 22 37 79 38 73 39 75 40 23 41 78 42 72 43
REMARK SMILES IDX 71 44 24 46 58 47 37 48 57 49 38 50 41 51 56 52 76 53 39 54
REMARK SMILES IDX 40 55 55 57 77 58 42 59 25 60 26 61 35 62 27 63 28 64 34 65
REMARK SMILES IDX 36 66 29 67 30 68 31 69 32 70 33 71 59 72 60 73 69 74 61 75
REMARK SMILES IDX 62 76 68 77 70 78 63 79 64 80 65 81 66 82 67 83 43 84 44 85
REMARK SMILES IDX 53 86 45 87 46 88 52 89 54 90 47 91 48 92 49 93 50 94 51 95
REMARK H PARENT 75 45 41 56
REMARK Flexibility Score: inf
ROOT
ATOM      1  C   UNL A   1      35.131  31.690  27.691  1.00  0.00     0.202 C 
ENDROOT
BRANCH   1   2
ATOM      2  C   UNL A   1      33.671  31.217  27.598  1.00  0.00     0.261 C 
BRANCH   2   3
ATOM      3  O   UNL A   1      33.366  30.442  26.439  1.00  0.00    -0.463 OA
BRANCH   3   4
ATOM      4  C   UNL A   1      32.051  30.223  26.282  1.00  0.00     0.306 C 
ATOM      5  O   UNL A   1      31.224  31.081  25.988  1.00  0.00    -0.252 OA
BRANCH   4   6
ATOM      6  C   UNL A   1      31.650  28.784  26.453  1.00  0.00     0.129 C 
BRANCH   6   7
ATOM      7  C   UNL A   1      31.385  27.768  25.301  1.00  0.00    -0.016 C 
ATOM      8  C   UNL A   1      30.794  28.402  24.038  1.00  0.00     0.012 C 
ATOM      9  C   UNL A   1      32.844  27.315  24.942  1.00  0.00     0.012 C 
BRANCH   7  10
ATOM     10  C   UNL A   1      30.607  26.470  25.668  1.00  0.00     0.107 C 
BRANCH  10  11
ATOM     11  C   UNL A   1      31.255  25.114  25.585  1.00  0.00     0.227 A 
ATOM     12  N   UNL A   1      31.532  23.963  24.438  1.00  0.00    -0.193 NA
ATOM     13  O   UNL A   1      31.355  24.235  27.235  1.00  0.00    -0.339 OA
ATOM     14  C   UNL A   1      31.829  22.256  25.184  1.00  0.00     0.203 A 
ATOM     15  N   UNL A   1      31.735  22.350  26.891  1.00  0.00    -0.059 NA
BRANCH  14  16
ATOM     16  C   UNL A   1      32.467  21.026  24.519  1.00  0.00     0.128 C 
ATOM     17  C   UNL A   1      32.228  20.785  23.003  1.00  0.00     0.051 C 
ATOM     18  C   UNL A   1      33.971  20.966  24.838  1.00  0.00     0.046 C 
ATOM     19  O   UNL A   1      31.986  19.799  25.145  1.00  0.00    -0.367 OA
ATOM     20  C   UNL A   1      34.305  19.511  24.625  1.00  0.00     0.032 C 
ATOM     21  C   UNL A   1      33.027  18.809  25.046  1.00  0.00     0.161 C 
ENDBRANCH  14  16
ENDBRANCH  10  11
ENDBRANCH   7  10
ENDBRANCH   6   7
ENDBRANCH   4   6
ENDBRANCH   3   4
ENDBRANCH   2   3
ENDBRANCH   1   2
BRANCH   1  22
ATOM     22  O   UNL A   1      35.542  33.044  27.648  1.00  0.00    -0.374 OA
BRANCH  22  23
ATOM     23  C   UNL A   1      35.186  33.932  28.699  1.00  0.00     0.202 C 
BRANCH  23  24
ATOM     24  C   UNL A   1      35.762  33.936  30.285  1.00  0.00     0.261 C 
BRANCH  24  25
ATOM     25  O   UNL A   1      37.181  32.682  31.197  1.00  0.00    -0.460 OA
BRANCH  25  26
ATOM     26  C   UNL A   1      38.121  31.903  31.801  1.00  0.00     0.338 C 
ATOM     27  O   UNL A   1      38.494  32.153  32.947  1.00  0.00    -0.246 OA
BRANCH  26  28
ATOM     28  C   UNL A   1      38.695  30.663  31.188  1.00  0.00     0.060 A 
ATOM     29  C   UNL A   1      39.720  29.986  31.836  1.00  0.00     0.016 A 
ATOM     30  C   UNL A   1      38.719  30.678  29.796  1.00  0.00     0.016 A 
ATOM     31  C   UNL A   1      40.924  29.709  31.195  1.00  0.00     0.010 A 
ATOM     32  C   UNL A   1      39.855  30.250  29.109  1.00  0.00     0.010 A 
ATOM     33  C   UNL A   1      41.001  29.853  29.812  1.00  0.00    -0.014 A 
BRANCH  33  34
ATOM     34  C   UNL A   1      42.238  29.511  29.080  1.00  0.00     0.031 A 
ATOM     35  C   UNL A   1      42.442  28.123  28.547  1.00  0.00     0.074 A 
ATOM     36  C   UNL A   1      43.189  30.455  28.957  1.00  0.00     0.049 A 
ATOM     37  N   UNL A   1      43.527  27.587  28.054  1.00  0.00    -0.248 NA
ATOM     38  C   UNL A   1      41.282  27.219  28.580  1.00  0.00     0.031 C 
ATOM     39  C   UNL A   1      43.049  31.846  29.396  1.00  0.00     0.029 A 
ATOM     40  N   UNL A   1      44.460  30.394  28.452  1.00  0.00    -0.354 N 
ATOM     41  C   UNL A   1      43.194  26.274  27.747  1.00  0.00     0.074 A 
ATOM     42  C   UNL A   1      41.810  26.089  28.126  1.00  0.00     0.031 C 
ATOM     43  C   UNL A   1      44.184  32.508  29.138  1.00  0.00     0.029 A 
ATOM     44  C   UNL A   1      45.159  31.569  28.603  1.00  0.00     0.049 A 
ATOM     45  H   UNL A   1      44.835  29.591  28.024  1.00  0.00     0.167 HD
ATOM     46  C   UNL A   1      43.986  25.319  27.205  1.00  0.00     0.037 A 
ATOM     47  C   UNL A   1      46.458  31.844  28.388  1.00  0.00     0.037 A 
ATOM     48  C   UNL A   1      45.369  25.539  26.860  1.00  0.00     0.049 A 
ATOM     49  C   UNL A   1      47.336  30.737  27.877  1.00  0.00     0.074 A 
ATOM     50  C   UNL A   1      46.271  24.649  26.305  1.00  0.00     0.029 A 
ATOM     51  N   UNL A   1      46.054  26.733  27.053  1.00  0.00    -0.354 N 
ATOM     52  N   UNL A   1      47.013  29.497  27.591  1.00  0.00    -0.248 NA
ATOM     53  C   UNL A   1      48.748  31.062  27.659  1.00  0.00     0.031 C 
ATOM     54  C   UNL A   1      47.519  25.275  26.246  1.00  0.00     0.029 A 
ATOM     55  C   UNL A   1      47.376  26.590  26.665  1.00  0.00     0.049 A 
ATOM     56  H   UNL A   1      45.658  27.559  27.412  1.00  0.00     0.167 HD
ATOM     57  C   UNL A   1      48.177  28.902  27.121  1.00  0.00     0.074 A 
ATOM     58  C   UNL A   1      49.203  29.927  27.149  1.00  0.00     0.031 C 
ATOM     59  C   UNL A   1      48.379  27.628  26.700  1.00  0.00     0.037 A 
BRANCH  46  60
ATOM     60  C   UNL A   1      43.399  23.946  27.011  1.00  0.00     0.058 A 
ATOM     61  C   UNL A   1      42.847  23.532  25.789  1.00  0.00     0.135 A 
ATOM     62  C   UNL A   1      43.412  23.018  28.067  1.00  0.00     0.135 A 
ATOM     63  F   UNL A   1      42.790  24.379  24.749  1.00  0.00    -0.206 F 
ATOM     64  C   UNL A   1      42.304  22.260  25.628  1.00  0.00     0.059 A 
ATOM     65  C   UNL A   1      42.912  21.728  27.917  1.00  0.00     0.059 A 
ATOM     66  F   UNL A   1      43.921  23.358  29.261  1.00  0.00    -0.206 F 
ATOM     67  C   UNL A   1      42.350  21.363  26.696  1.00  0.00     0.060 A 
BRANCH  67  68
ATOM     68  S   UNL A   1      41.673  19.708  26.458  1.00  0.00     0.124 S 
ATOM     69  O   UNL A   1      40.255  19.993  26.260  1.00  0.00    -0.237 OA
ATOM     70  O   UNL A   1      42.397  19.248  25.276  1.00  0.00    -0.237 OA
ATOM     71  O   UNL A   1      42.005  19.019  27.701  1.00  0.00    -0.744 OA
ENDBRANCH  67  68
ENDBRANCH  46  60
BRANCH  47  72
ATOM     72  C   UNL A   1      46.999  33.197  28.682  1.00  0.00     0.058 A 
ATOM     73  C   UNL A   1      46.893  34.238  27.747  1.00  0.00     0.135 A 
ATOM     74  C   UNL A   1      47.629  33.484  29.906  1.00  0.00     0.135 A 
ATOM     75  F   UNL A   1      46.302  34.017  26.564  1.00  0.00    -0.206 F 
ATOM     76  C   UNL A   1      47.413  35.502  28.001  1.00  0.00     0.059 A 
ATOM     77  C   UNL A   1      48.120  34.752  30.200  1.00  0.00     0.059 A 
ATOM     78  F   UNL A   1      47.742  32.533  30.846  1.00  0.00    -0.206 F 
ATOM     79  C   UNL A   1      48.018  35.751  29.234  1.00  0.00     0.060 A 
BRANCH  79  80
ATOM     80  S   UNL A   1      48.645  37.411  29.567  1.00  0.00     0.124 S 
ATOM     81  O   UNL A   1      49.913  37.398  28.846  1.00  0.00    -0.237 OA
ATOM     82  O   UNL A   1      47.594  38.248  28.999  1.00  0.00    -0.237 OA
ATOM     83  O   UNL A   1      48.748  37.446  31.023  1.00  0.00    -0.744 OA
ENDBRANCH  79  80
ENDBRANCH  47  72
BRANCH  59  84
ATOM     84  C   UNL A   1      49.749  27.289  26.180  1.00  0.00     0.058 A 
ATOM     85  C   UNL A   1      50.796  26.892  27.028  1.00  0.00     0.135 A 
ATOM     86  C   UNL A   1      50.003  27.321  24.798  1.00  0.00     0.135 A 
ATOM     87  F   UNL A   1      50.613  26.850  28.357  1.00  0.00    -0.206 F 
ATOM     88  C   UNL A   1      52.055  26.579  26.528  1.00  0.00     0.059 A 
ATOM     89  C   UNL A   1      51.238  26.963  24.272  1.00  0.00     0.059 A 
ATOM     90  F   UNL A   1      49.035  27.683  23.940  1.00  0.00    -0.206 F 
ATOM     91  C   UNL A   1      52.262  26.609  25.147  1.00  0.00     0.060 A 
BRANCH  91  92
ATOM     92  S   UNL A   1      53.889  26.160  24.513  1.00  0.00     0.124 S 
ATOM     93  O   UNL A   1      53.801  24.704  24.476  1.00  0.00    -0.237 OA
ATOM     94  O   UNL A   1      53.909  26.829  23.215  1.00  0.00    -0.237 OA
ATOM     95  O   UNL A   1      54.807  26.707  25.508  1.00  0.00    -0.744 OA
ENDBRANCH  91  92
ENDBRANCH  59  84
ENDBRANCH  33  34
ENDBRANCH  26  28
ENDBRANCH  25  26
ENDBRANCH  24  25
ENDBRANCH  23  24
ENDBRANCH  22  23
ENDBRANCH   1  22
TORSDOF 21
ENDMDL
MODEL 3
REMARK VINA RESULT:      -9.3      4.163      7.637
REMARK SMILES CC(C)(CC(=O)OCCOCCOC(=O)c1ccc(-c2c3nc(c(-c4c(F)cc(S(=O)(=O)[O-])cc4F)c4ccc([nH]4)c(-c4c(F)cc(S(=O)(=O)[O-])cc4F)c4nc(c(-c5c(F)cc(S(=O)(=O)[O-])cc5F)c5ccc2[nH]5)C=C4)C=C3)cc1)Cc1nc([C@@]2(C)CCCO2)no1
REMARK SMILES IDX 9 1 8 2 7 3 5 4 6 5 4 6 2 7 1 8 3 9 82 10 83 11 84 12 93 13
REMARK SMILES IDX 85 14 92 15 86 16 87 17 88 18 91 19 89 20 90 21 10 22 11 23
REMARK SMILES IDX 12 24 13 25 14 26 15 27 16 28 17 29 81 30 18 31 80 32 19 33
REMARK SMILES IDX 20 34 21 35 74 36 22 37 79 38 73 39 75 40 23 41 78 42 72 43
REMARK SMILES IDX 71 44 24 46 58 47 37 48 57 49 38 50 41 51 56 52 76 53 39 54
REMARK SMILES IDX 40 55 55 57 77 58 42 59 25 60 26 61 35 62 27 63 28 64 34 65
REMARK SMILES IDX 36 66 29 67 30 68 31 69 32 70 33 71 59 72 60 73 69 74 61 75
REMARK SMILES IDX 62 76 68 77 70 78 63 79 64 80 65 81 66 82 67 83 43 84 44 85
REMARK SMILES IDX 53 86 45 87 46 88 52 89 54 90 47 91 48 92 49 93 50 94 51 95
REMARK H PARENT 75 45 41 56
REMARK Flexibility Score: inf
ROOT
ATOM      1  C   UNL A   1      31.947  23.943  25.191  1.00  0.00     0.202 C 
ENDROOT
BRANCH   1   2
ATOM      2  C   UNL A   1      32.497  25.378  25.152  1.00  0.00     0.261 C 
BRANCH   2   3
ATOM      3  O   UNL A   1      32.803  25.936  26.429  1.00  0.00    -0.463 OA
BRANCH   3   4
ATOM      4  C   UNL A   1      31.906  26.849  26.835  1.00  0.00     0.306 C 
ATOM      5  O   UNL A   1      30.689  26.743  26.715  1.00  0.00    -0.252 OA
BRANCH   4   6
ATOM      6  C   UNL A   1      32.518  28.042  27.516  1.00  0.00     0.129 C 
BRANCH   6   7
ATOM      7  C   UNL A   1      33.467  29.084  26.852  1.00  0.00    -0.016 C 
ATOM      8  C   UNL A   1      33.186  30.532  27.265  1.00  0.00     0.012 C 
ATOM      9  C   UNL A   1      34.850  28.693  27.481  1.00  0.00     0.012 C 
BRANCH   7  10
ATOM     10  C   UNL A   1      33.652  28.989  25.309  1.00  0.00     0.107 C 
BRANCH  10  11
ATOM     11  C   UNL A   1      32.527  29.306  24.360  1.00  0.00     0.227 A 
ATOM     12  N   UNL A   1      31.106  30.141  24.389  1.00  0.00    -0.193 NA
ATOM     13  O   UNL A   1      32.385  28.092  22.942  1.00  0.00    -0.339 OA
ATOM     14  C   UNL A   1      29.911  29.582  23.041  1.00  0.00     0.203 A 
ATOM     15  N   UNL A   1      30.629  28.331  22.119  1.00  0.00    -0.059 NA
BRANCH  14  16
ATOM     16  C   UNL A   1      28.675  30.320  22.500  1.00  0.00     0.128 C 
ATOM     17  C   UNL A   1      27.287  30.013  23.124  1.00  0.00     0.051 C 
ATOM     18  C   UNL A   1      28.927  31.837  22.477  1.00  0.00     0.046 C 
ATOM     19  O   UNL A   1      28.490  30.032  21.081  1.00  0.00    -0.367 OA
ATOM     20  C   UNL A   1      27.933  32.329  21.456  1.00  0.00     0.032 C 
ATOM     21  C   UNL A   1      27.863  31.176  20.473  1.00  0.00     0.161 C 
ENDBRANCH  14  16
ENDBRANCH  10  11
ENDBRANCH   7  10
ENDBRANCH   6   7
ENDBRANCH   4   6
ENDBRANCH   3   4
ENDBRANCH   2   3
ENDBRANCH   1   2
BRANCH   1  22
ATOM     22  O   UNL A   1      32.746  22.775  25.197  1.00  0.00    -0.374 OA
BRANCH  22  23
ATOM     23  C   UNL A   1      33.426  22.380  26.382  1.00  0.00     0.202 C 
BRANCH  23  24
ATOM     24  C   UNL A   1      34.758  23.123  27.102  1.00  0.00     0.261 C 
BRANCH  24  25
ATOM     25  O   UNL A   1      36.623  23.624  26.272  1.00  0.00    -0.460 OA
BRANCH  25  26
ATOM     26  C   UNL A   1      37.850  23.932  25.767  1.00  0.00     0.338 C 
ATOM     27  O   UNL A   1      38.009  24.063  24.554  1.00  0.00    -0.246 OA
BRANCH  26  28
ATOM     28  C   UNL A   1      39.051  24.223  26.614  1.00  0.00     0.060 A 
ATOM     29  C   UNL A   1      38.935  24.211  27.998  1.00  0.00     0.016 A 
ATOM     30  C   UNL A   1      39.930  25.146  26.054  1.00  0.00     0.016 A 
ATOM     31  C   UNL A   1      39.318  25.308  28.766  1.00  0.00     0.010 A 
ATOM     32  C   UNL A   1      40.465  26.169  26.836  1.00  0.00     0.010 A 
ATOM     33  C   UNL A   1      40.084  26.310  28.178  1.00  0.00    -0.014 A 
BRANCH  33  34
ATOM     34  C   UNL A   1      40.566  27.462  28.968  1.00  0.00     0.031 A 
ATOM     35  C   UNL A   1      41.854  27.369  29.732  1.00  0.00     0.074 A 
ATOM     36  C   UNL A   1      39.795  28.563  29.027  1.00  0.00     0.049 A 
ATOM     37  N   UNL A   1      42.337  28.192  30.624  1.00  0.00    -0.248 NA
ATOM     38  C   UNL A   1      42.703  26.196  29.468  1.00  0.00     0.031 C 
ATOM     39  C   UNL A   1      38.556  28.759  28.269  1.00  0.00     0.029 A 
ATOM     40  N   UNL A   1      39.918  29.712  29.762  1.00  0.00    -0.354 N 
ATOM     41  C   UNL A   1      43.531  27.625  31.053  1.00  0.00     0.074 A 
ATOM     42  C   UNL A   1      43.689  26.378  30.337  1.00  0.00     0.031 C 
ATOM     43  C   UNL A   1      38.036  29.955  28.573  1.00  0.00     0.029 A 
ATOM     44  C   UNL A   1      38.851  30.567  29.611  1.00  0.00     0.049 A 
ATOM     45  H   UNL A   1      40.692  29.906  30.338  1.00  0.00     0.167 HD
ATOM     46  C   UNL A   1      44.401  28.111  31.970  1.00  0.00     0.037 A 
ATOM     47  C   UNL A   1      38.536  31.692  30.278  1.00  0.00     0.037 A 
ATOM     48  C   UNL A   1      44.196  29.351  32.677  1.00  0.00     0.049 A 
ATOM     49  C   UNL A   1      39.472  32.156  31.357  1.00  0.00     0.074 A 
ATOM     50  C   UNL A   1      45.007  29.945  33.628  1.00  0.00     0.029 A 
ATOM     51  N   UNL A   1      43.090  30.179  32.523  1.00  0.00    -0.354 N 
ATOM     52  N   UNL A   1      40.598  31.613  31.758  1.00  0.00    -0.248 NA
ATOM     53  C   UNL A   1      39.100  33.380  32.072  1.00  0.00     0.031 C 
ATOM     54  C   UNL A   1      44.350  31.082  34.109  1.00  0.00     0.029 A 
ATOM     55  C   UNL A   1      43.178  31.257  33.388  1.00  0.00     0.049 A 
ATOM     56  H   UNL A   1      42.351  30.022  31.890  1.00  0.00     0.167 HD
ATOM     57  C   UNL A   1      41.091  32.453  32.750  1.00  0.00     0.074 A 
ATOM     58  C   UNL A   1      40.144  33.544  32.871  1.00  0.00     0.031 C 
ATOM     59  C   UNL A   1      42.223  32.334  33.488  1.00  0.00     0.037 A 
BRANCH  46  60
ATOM     60  C   UNL A   1      45.611  27.279  32.300  1.00  0.00     0.058 A 
ATOM     61  C   UNL A   1      46.858  27.492  31.691  1.00  0.00     0.135 A 
ATOM     62  C   UNL A   1      45.525  26.261  33.267  1.00  0.00     0.135 A 
ATOM     63  F   UNL A   1      46.999  28.438  30.748  1.00  0.00    -0.206 F 
ATOM     64  C   UNL A   1      47.966  26.710  32.005  1.00  0.00     0.059 A 
ATOM     65  C   UNL A   1      46.629  25.494  33.625  1.00  0.00     0.059 A 
ATOM     66  F   UNL A   1      44.358  26.006  33.878  1.00  0.00    -0.206 F 
ATOM     67  C   UNL A   1      47.842  25.718  32.980  1.00  0.00     0.060 A 
BRANCH  67  68
ATOM     68  S   UNL A   1      49.298  24.739  33.398  1.00  0.00     0.124 S 
ATOM     69  O   UNL A   1      49.905  24.536  32.086  1.00  0.00    -0.237 OA
ATOM     70  O   UNL A   1      50.021  25.632  34.299  1.00  0.00    -0.237 OA
ATOM     71  O   UNL A   1      48.739  23.542  34.021  1.00  0.00    -0.744 OA
ENDBRANCH  67  68
ENDBRANCH  46  60
BRANCH  47  72
ATOM     72  C   UNL A   1      37.280  32.424  29.965  1.00  0.00     0.058 A 
ATOM     73  C   UNL A   1      36.059  32.046  30.545  1.00  0.00     0.135 A 
ATOM     74  C   UNL A   1      37.270  33.519  29.085  1.00  0.00     0.135 A 
ATOM     75  F   UNL A   1      36.013  31.007  31.391  1.00  0.00    -0.206 F 
ATOM     76  C   UNL A   1      34.874  32.708  30.244  1.00  0.00     0.059 A 
ATOM     77  C   UNL A   1      36.104  34.223  28.800  1.00  0.00     0.059 A 
ATOM     78  F   UNL A   1      38.411  33.938  28.515  1.00  0.00    -0.206 F 
ATOM     79  C   UNL A   1      34.908  33.800  29.376  1.00  0.00     0.060 A 
BRANCH  79  80
ATOM     80  S   UNL A   1      33.369  34.678  29.034  1.00  0.00     0.124 S 
ATOM     81  O   UNL A   1      32.732  33.792  28.066  1.00  0.00    -0.237 OA
ATOM     82  O   UNL A   1      32.753  34.731  30.356  1.00  0.00    -0.237 OA
ATOM     83  O   UNL A   1      33.823  35.962  28.509  1.00  0.00    -0.744 OA
ENDBRANCH  79  80
ENDBRANCH  47  72
BRANCH  59  84
ATOM     84  C   UNL A   1      42.529  33.448  34.453  1.00  0.00     0.058 A 
ATOM     85  C   UNL A   1      43.253  34.590  34.075  1.00  0.00     0.135 A 
ATOM     86  C   UNL A   1      42.047  33.385  35.772  1.00  0.00     0.135 A 
ATOM     87  F   UNL A   1      43.743  34.700  32.830  1.00  0.00    -0.206 F 
ATOM     88  C   UNL A   1      43.522  35.609  34.980  1.00  0.00     0.059 A 
ATOM     89  C   UNL A   1      42.260  34.415  36.679  1.00  0.00     0.059 A 
ATOM     90  F   UNL A   1      41.339  32.321  36.185  1.00  0.00    -0.206 F 
ATOM     91  C   UNL A   1      43.013  35.516  36.278  1.00  0.00     0.060 A 
BRANCH  91  92
ATOM     92  S   UNL A   1      43.338  36.867  37.427  1.00  0.00     0.124 S 
ATOM     93  O   UNL A   1      43.996  37.840  36.561  1.00  0.00    -0.237 OA
ATOM     94  O   UNL A   1      41.994  37.220  37.874  1.00  0.00    -0.237 OA
ATOM     95  O   UNL A   1      44.191  36.255  38.442  1.00  0.00    -0.744 OA
ENDBRANCH  91  92
ENDBRANCH  59  84
ENDBRANCH  33  34
ENDBRANCH  26  28
ENDBRANCH  25  26
ENDBRANCH  24  25
ENDBRANCH  23  24
ENDBRANCH  22  23
ENDBRANCH   1  22
TORSDOF 21
ENDMDL
