MODEL 1
REMARK VINA RESULT:     -11.4      0.000      0.000
REMARK SMILES O=C(Cn1c(=O)[nH]c2ccccc2c1=O)NC[C@H]1CC[C@@H](C(=O)N2CCC(C(=O)OCCOCCOC(=O)c3ccc(-c4c5nc(c(-c6c(F)cc(S(=O)(=O)[O-])cc6F)c6ccc([nH]6)c(-c6c(F)cc(S(=O)(=O)[O-])cc6F)c6nc(c(-c7c(F)cc(S(=O)(=O)[O-])cc7F)c7ccc4[nH]7)C=C6)C=C5)cc3)CC2)CC1
REMARK SMILES IDX 32 1 31 2 30 3 28 4 29 5 27 6 22 7 23 8 24 9 25 10 106 11
REMARK SMILES IDX 26 12 105 13 21 14 18 15 19 16 108 17 20 18 107 19 17 20
REMARK SMILES IDX 16 21 1 22 2 23 3 25 4 26 5 27 14 28 6 29 7 30 13 31 15 32
REMARK SMILES IDX 8 33 12 35 9 36 11 37 10 38 33 39 34 40 35 41 36 42 37 43
REMARK SMILES IDX 38 44 39 45 40 46 104 47 41 48 103 49 42 50 43 51 44 52
REMARK SMILES IDX 97 53 45 54 102 55 96 56 98 57 46 58 101 59 95 60 94 61
REMARK SMILES IDX 47 63 81 64 60 65 80 66 61 67 64 68 79 69 99 70 62 71 63 72
REMARK SMILES IDX 78 74 100 75 65 76 48 77 49 78 58 79 50 80 51 81 57 82 59 83
REMARK SMILES IDX 52 84 53 85 54 86 55 87 56 88 82 89 83 90 92 91 84 92 85 93
REMARK SMILES IDX 91 94 93 95 86 96 87 97 88 98 89 99 90 100 66 101 67 102
REMARK SMILES IDX 76 103 68 104 69 105 75 106 77 107 70 108 71 109 72 110
REMARK SMILES IDX 73 111 74 112
REMARK H PARENT 16 24 7 34 98 62 64 73
REMARK Flexibility Score: inf
ROOT
ATOM      1  C   UNL A   1      38.462  21.431  25.746  1.00  0.00     0.202 C 
ENDROOT
BRANCH   1   2
ATOM      2  C   UNL A   1      37.368  21.115  24.728  1.00  0.00     0.261 C 
BRANCH   2   3
ATOM      3  O   UNL A   1      36.315  20.354  25.327  1.00  0.00    -0.463 OA
BRANCH   3   4
ATOM      4  C   UNL A   1      35.109  20.965  25.375  1.00  0.00     0.309 C 
ATOM      5  O   UNL A   1      34.020  20.424  25.231  1.00  0.00    -0.252 OA
BRANCH   4   6
ATOM      6  C   UNL A   1      35.241  22.451  25.559  1.00  0.00     0.103 C 
ATOM      7  C   UNL A   1      33.968  26.507  25.472  1.00  0.00     0.225 C 
ATOM      8  O   UNL A   1      33.795  26.992  24.346  1.00  0.00    -0.275 OA
ATOM      9  N   UNL A   1      34.457  25.221  25.595  1.00  0.00    -0.342 N 
ATOM     10  C   UNL A   1      35.437  24.772  24.606  1.00  0.00     0.120 C 
ATOM     11  C   UNL A   1      34.222  24.360  26.732  1.00  0.00     0.120 C 
ATOM     12  C   UNL A   1      35.354  23.285  24.281  1.00  0.00     0.037 C 
ATOM     13  C   UNL A   1      34.040  22.908  26.365  1.00  0.00     0.037 C 
BRANCH   7  14
ATOM     14  C   UNL A   1      33.897  27.469  26.684  1.00  0.00     0.078 C 
ATOM     15  C   UNL A   1      31.921  29.714  26.256  1.00  0.00     0.008 C 
ATOM     16  C   UNL A   1      31.513  28.244  26.381  1.00  0.00     0.006 C 
ATOM     17  C   UNL A   1      33.432  29.984  26.125  1.00  0.00     0.006 C 
ATOM     18  C   UNL A   1      32.468  27.430  27.242  1.00  0.00     0.014 C 
ATOM     19  C   UNL A   1      34.388  28.915  26.675  1.00  0.00     0.014 C 
BRANCH  15  20
ATOM     20  C   UNL A   1      31.096  30.477  25.185  1.00  0.00     0.119 C 
BRANCH  20  21
ATOM     21  N   UNL A   1      30.480  29.680  24.127  1.00  0.00    -0.354 N 
ATOM     22  O   UNL A   1      32.411  29.452  22.930  1.00  0.00    -0.273 OA
ATOM     23  C   UNL A   1      31.252  29.091  23.143  1.00  0.00     0.240 C 
ATOM     24  H   UNL A   1      29.503  29.561  24.114  1.00  0.00     0.163 HD
BRANCH  23  25
ATOM     25  C   UNL A   1      30.582  28.076  22.195  1.00  0.00     0.230 C 
BRANCH  25  26
ATOM     26  N   UNL A   1      30.652  26.638  22.457  1.00  0.00    -0.250 N 
ATOM     27  C   UNL A   1      29.876  26.118  23.475  1.00  0.00     0.329 A 
ATOM     28  C   UNL A   1      31.759  25.954  21.939  1.00  0.00     0.264 A 
ATOM     29  O   UNL A   1      29.103  26.782  24.163  1.00  0.00    -0.248 OA
ATOM     30  N   UNL A   1      29.967  24.776  23.698  1.00  0.00    -0.307 N 
ATOM     31  C   UNL A   1      31.913  24.533  22.322  1.00  0.00     0.064 A 
ATOM     32  O   UNL A   1      32.601  26.472  21.208  1.00  0.00    -0.268 OA
ATOM     33  C   UNL A   1      30.941  23.962  23.130  1.00  0.00     0.055 A 
ATOM     34  H   UNL A   1      29.305  24.359  24.296  1.00  0.00     0.171 HD
ATOM     35  C   UNL A   1      32.989  23.756  21.882  1.00  0.00     0.016 A 
ATOM     36  C   UNL A   1      30.977  22.599  23.426  1.00  0.00     0.027 A 
ATOM     37  C   UNL A   1      33.030  22.391  22.169  1.00  0.00     0.001 A 
ATOM     38  C   UNL A   1      32.013  21.810  22.923  1.00  0.00     0.002 A 
ENDBRANCH  25  26
ENDBRANCH  23  25
ENDBRANCH  20  21
ENDBRANCH  15  20
ENDBRANCH   7  14
ENDBRANCH   4   6
ENDBRANCH   3   4
ENDBRANCH   2   3
ENDBRANCH   1   2
BRANCH   1  39
ATOM     39  O   UNL A   1      39.624  20.603  25.751  1.00  0.00    -0.374 OA
BRANCH  39  40
ATOM     40  C   UNL A   1      40.742  21.015  26.536  1.00  0.00     0.202 C 
BRANCH  40  41
ATOM     41  C   UNL A   1      41.495  22.289  26.143  1.00  0.00     0.261 C 
BRANCH  41  42
ATOM     42  O   UNL A   1      41.067  23.438  26.883  1.00  0.00    -0.460 OA
BRANCH  42  43
ATOM     43  C   UNL A   1      41.661  24.598  26.513  1.00  0.00     0.338 C 
ATOM     44  O   UNL A   1      42.218  24.839  25.453  1.00  0.00    -0.246 OA
BRANCH  43  45
ATOM     45  C   UNL A   1      41.333  25.635  27.506  1.00  0.00     0.060 A 
ATOM     46  C   UNL A   1      40.162  25.572  28.261  1.00  0.00     0.016 A 
ATOM     47  C   UNL A   1      42.247  26.682  27.683  1.00  0.00     0.016 A 
ATOM     48  C   UNL A   1      39.927  26.549  29.230  1.00  0.00     0.010 A 
ATOM     49  C   UNL A   1      42.010  27.656  28.648  1.00  0.00     0.010 A 
ATOM     50  C   UNL A   1      40.861  27.579  29.446  1.00  0.00    -0.014 A 
BRANCH  50  51
ATOM     51  C   UNL A   1      40.712  28.489  30.605  1.00  0.00     0.031 A 
ATOM     52  C   UNL A   1      41.591  28.371  31.812  1.00  0.00     0.074 A 
ATOM     53  C   UNL A   1      39.735  29.415  30.558  1.00  0.00     0.049 A 
ATOM     54  N   UNL A   1      41.617  29.123  32.881  1.00  0.00    -0.248 NA
ATOM     55  C   UNL A   1      42.555  27.263  31.826  1.00  0.00     0.031 C 
ATOM     56  C   UNL A   1      38.797  29.584  29.446  1.00  0.00     0.029 A 
ATOM     57  N   UNL A   1      39.375  30.389  31.451  1.00  0.00    -0.354 N 
ATOM     58  C   UNL A   1      42.620  28.602  33.687  1.00  0.00     0.074 A 
ATOM     59  C   UNL A   1      43.134  27.428  33.009  1.00  0.00     0.031 C 
ATOM     60  C   UNL A   1      37.997  30.630  29.703  1.00  0.00     0.029 A 
ATOM     61  C   UNL A   1      38.342  31.180  31.010  1.00  0.00     0.049 A 
ATOM     62  H   UNL A   1      39.814  30.511  32.324  1.00  0.00     0.167 HD
ATOM     63  C   UNL A   1      43.085  29.078  34.868  1.00  0.00     0.037 A 
ATOM     64  C   UNL A   1      37.742  32.237  31.591  1.00  0.00     0.037 A 
ATOM     65  C   UNL A   1      42.542  30.232  35.541  1.00  0.00     0.049 A 
ATOM     66  C   UNL A   1      38.235  32.710  32.930  1.00  0.00     0.074 A 
ATOM     67  C   UNL A   1      42.951  30.805  36.733  1.00  0.00     0.029 A 
ATOM     68  N   UNL A   1      41.465  30.985  35.089  1.00  0.00    -0.354 N 
ATOM     69  N   UNL A   1      39.226  32.244  33.652  1.00  0.00    -0.248 NA
ATOM     70  C   UNL A   1      37.531  33.849  33.531  1.00  0.00     0.031 C 
ATOM     71  C   UNL A   1      42.089  31.866  37.030  1.00  0.00     0.029 A 
ATOM     72  C   UNL A   1      41.177  31.996  35.994  1.00  0.00     0.049 A 
ATOM     73  H   UNL A   1      40.976  30.823  34.250  1.00  0.00     0.167 HD
ATOM     74  C   UNL A   1      39.280  33.048  34.785  1.00  0.00     0.074 A 
ATOM     75  C   UNL A   1      38.230  34.037  34.642  1.00  0.00     0.031 C 
ATOM     76  C   UNL A   1      40.122  32.971  35.846  1.00  0.00     0.037 A 
BRANCH  63  77
ATOM     77  C   UNL A   1      44.242  28.356  35.504  1.00  0.00     0.058 A 
ATOM     78  C   UNL A   1      45.570  28.692  35.196  1.00  0.00     0.135 A 
ATOM     79  C   UNL A   1      44.029  27.350  36.461  1.00  0.00     0.135 A 
ATOM     80  F   UNL A   1      45.835  29.639  34.282  1.00  0.00    -0.206 F 
ATOM     81  C   UNL A   1      46.645  28.035  35.786  1.00  0.00     0.059 A 
ATOM     82  C   UNL A   1      45.090  26.698  37.085  1.00  0.00     0.059 A 
ATOM     83  F   UNL A   1      42.781  26.989  36.798  1.00  0.00    -0.206 F 
ATOM     84  C   UNL A   1      46.394  27.037  36.730  1.00  0.00     0.060 A 
BRANCH  84  85
ATOM     85  S   UNL A   1      47.803  26.183  37.467  1.00  0.00     0.124 S 
ATOM     86  O   UNL A   1      47.634  24.831  36.937  1.00  0.00    -0.237 OA
ATOM     87  O   UNL A   1      48.935  26.932  36.933  1.00  0.00    -0.237 OA
ATOM     88  O   UNL A   1      47.578  26.325  38.902  1.00  0.00    -0.744 OA
ENDBRANCH  84  85
ENDBRANCH  63  77
BRANCH  64  89
ATOM     89  C   UNL A   1      36.647  32.942  30.874  1.00  0.00     0.058 A 
ATOM     90  C   UNL A   1      35.312  32.782  31.271  1.00  0.00     0.135 A 
ATOM     91  C   UNL A   1      36.916  33.830  29.821  1.00  0.00     0.135 A 
ATOM     92  F   UNL A   1      35.005  31.940  32.270  1.00  0.00    -0.206 F 
ATOM     93  C   UNL A   1      34.280  33.477  30.651  1.00  0.00     0.059 A 
ATOM     94  C   UNL A   1      35.904  34.558  29.202  1.00  0.00     0.059 A 
ATOM     95  F   UNL A   1      38.179  34.030  29.414  1.00  0.00    -0.206 F 
ATOM     96  C   UNL A   1      34.588  34.372  29.623  1.00  0.00     0.060 A 
BRANCH  96  97
ATOM     97  S   UNL A   1      33.245  35.320  28.876  1.00  0.00     0.124 S 
ATOM     98  O   UNL A   1      33.980  36.314  28.102  1.00  0.00    -0.237 OA
ATOM     99  O   UNL A   1      32.547  34.297  28.103  1.00  0.00    -0.237 OA
ATOM    100  O   UNL A   1      32.512  35.833  30.029  1.00  0.00    -0.744 OA
ENDBRANCH  96  97
ENDBRANCH  64  89
BRANCH  76 101
ATOM    101  C   UNL A   1      39.953  33.989  36.943  1.00  0.00     0.058 A 
ATOM    102  C   UNL A   1      40.465  35.291  36.822  1.00  0.00     0.135 A 
ATOM    103  C   UNL A   1      39.211  33.681  38.096  1.00  0.00     0.135 A 
ATOM    104  F   UNL A   1      41.188  35.636  35.745  1.00  0.00    -0.206 F 
ATOM    105  C   UNL A   1      40.262  36.246  37.813  1.00  0.00     0.059 A 
ATOM    106  C   UNL A   1      38.970  34.630  39.084  1.00  0.00     0.059 A 
ATOM    107  F   UNL A   1      38.691  32.454  38.258  1.00  0.00    -0.206 F 
ATOM    108  C   UNL A   1      39.506  35.908  38.938  1.00  0.00     0.060 A 
BRANCH 108 109
ATOM    109  S   UNL A   1      39.214  37.175  40.190  1.00  0.00     0.124 S 
ATOM    110  O   UNL A   1      40.570  37.454  40.651  1.00  0.00    -0.237 OA
ATOM    111  O   UNL A   1      38.578  38.236  39.414  1.00  0.00    -0.237 OA
ATOM    112  O   UNL A   1      38.348  36.507  41.157  1.00  0.00    -0.744 OA
ENDBRANCH 108 109
ENDBRANCH  76 101
ENDBRANCH  50  51
ENDBRANCH  43  45
ENDBRANCH  42  43
ENDBRANCH  41  42
ENDBRANCH  40  41
ENDBRANCH  39  40
ENDBRANCH   1  39
TORSDOF 22
ENDMDL
MODEL 2
REMARK VINA RESULT:     -10.5      4.553      8.255
REMARK SMILES O=C(Cn1c(=O)[nH]c2ccccc2c1=O)NC[C@H]1CC[C@@H](C(=O)N2CCC(C(=O)OCCOCCOC(=O)c3ccc(-c4c5nc(c(-c6c(F)cc(S(=O)(=O)[O-])cc6F)c6ccc([nH]6)c(-c6c(F)cc(S(=O)(=O)[O-])cc6F)c6nc(c(-c7c(F)cc(S(=O)(=O)[O-])cc7F)c7ccc4[nH]7)C=C6)C=C5)cc3)CC2)CC1
REMARK SMILES IDX 32 1 31 2 30 3 28 4 29 5 27 6 22 7 23 8 24 9 25 10 106 11
REMARK SMILES IDX 26 12 105 13 21 14 18 15 19 16 108 17 20 18 107 19 17 20
REMARK SMILES IDX 16 21 1 22 2 23 3 25 4 26 5 27 14 28 6 29 7 30 13 31 15 32
REMARK SMILES IDX 8 33 12 35 9 36 11 37 10 38 33 39 34 40 35 41 36 42 37 43
REMARK SMILES IDX 38 44 39 45 40 46 104 47 41 48 103 49 42 50 43 51 44 52
REMARK SMILES IDX 97 53 45 54 102 55 96 56 98 57 46 58 101 59 95 60 94 61
REMARK SMILES IDX 47 63 81 64 60 65 80 66 61 67 64 68 79 69 99 70 62 71 63 72
REMARK SMILES IDX 78 74 100 75 65 76 48 77 49 78 58 79 50 80 51 81 57 82 59 83
REMARK SMILES IDX 52 84 53 85 54 86 55 87 56 88 82 89 83 90 92 91 84 92 85 93
REMARK SMILES IDX 91 94 93 95 86 96 87 97 88 98 89 99 90 100 66 101 67 102
REMARK SMILES IDX 76 103 68 104 69 105 75 106 77 107 70 108 71 109 72 110
REMARK SMILES IDX 73 111 74 112
REMARK H PARENT 16 24 7 34 98 62 64 73
REMARK Flexibility Score: inf
ROOT
ATOM      1  C   UNL A   1      36.740  21.520  24.799  1.00  0.00     0.202 C 
ENDROOT
BRANCH   1   2
ATOM      2  C   UNL A   1      35.323  21.082  25.167  1.00  0.00     0.261 C 
BRANCH   2   3
ATOM      3  O   UNL A   1      34.609  22.143  25.808  1.00  0.00    -0.463 OA
BRANCH   3   4
ATOM      4  C   UNL A   1      33.274  22.162  25.590  1.00  0.00     0.309 C 
ATOM      5  O   UNL A   1      32.561  21.184  25.398  1.00  0.00    -0.252 OA
BRANCH   4   6
ATOM      6  C   UNL A   1      32.735  23.564  25.532  1.00  0.00     0.103 C 
ATOM      7  C   UNL A   1      32.167  27.567  26.849  1.00  0.00     0.225 C 
ATOM      8  O   UNL A   1      31.499  27.702  27.883  1.00  0.00    -0.275 OA
ATOM      9  N   UNL A   1      32.337  26.308  26.304  1.00  0.00    -0.342 N 
ATOM     10  C   UNL A   1      31.218  25.370  26.409  1.00  0.00     0.120 C 
ATOM     11  C   UNL A   1      33.453  25.917  25.474  1.00  0.00     0.120 C 
ATOM     12  C   UNL A   1      31.643  23.912  26.544  1.00  0.00     0.037 C 
ATOM     13  C   UNL A   1      33.916  24.500  25.709  1.00  0.00     0.037 C 
BRANCH   7  14
ATOM     14  C   UNL A   1      32.539  28.849  26.064  1.00  0.00     0.078 C 
ATOM     15  C   UNL A   1      34.672  30.472  27.458  1.00  0.00     0.008 C 
ATOM     16  C   UNL A   1      34.919  29.079  26.872  1.00  0.00     0.006 C 
ATOM     17  C   UNL A   1      33.200  30.927  27.513  1.00  0.00     0.006 C 
ATOM     18  C   UNL A   1      34.023  28.763  25.684  1.00  0.00     0.014 C 
ATOM     19  C   UNL A   1      32.224  30.271  26.525  1.00  0.00     0.014 C 
BRANCH  15  20
ATOM     20  C   UNL A   1      35.403  30.694  28.809  1.00  0.00     0.119 C 
BRANCH  20  21
ATOM     21  N   UNL A   1      36.637  29.944  29.029  1.00  0.00    -0.354 N 
ATOM     22  O   UNL A   1      36.284  29.671  31.269  1.00  0.00    -0.273 OA
ATOM     23  C   UNL A   1      36.898  29.349  30.250  1.00  0.00     0.240 C 
ATOM     24  H   UNL A   1      37.292  29.861  28.299  1.00  0.00     0.163 HD
BRANCH  23  25
ATOM     25  C   UNL A   1      38.094  28.381  30.353  1.00  0.00     0.230 C 
BRANCH  25  26
ATOM     26  N   UNL A   1      39.314  28.762  31.065  1.00  0.00    -0.250 N 
ATOM     27  C   UNL A   1      40.337  29.350  30.345  1.00  0.00     0.329 A 
ATOM     28  C   UNL A   1      39.527  28.173  32.317  1.00  0.00     0.264 A 
ATOM     29  O   UNL A   1      40.280  29.602  29.144  1.00  0.00    -0.248 OA
ATOM     30  N   UNL A   1      41.463  29.689  31.035  1.00  0.00    -0.307 N 
ATOM     31  C   UNL A   1      40.824  28.438  32.977  1.00  0.00     0.064 A 
ATOM     32  O   UNL A   1      38.708  27.446  32.877  1.00  0.00    -0.268 OA
ATOM     33  C   UNL A   1      41.725  29.278  32.338  1.00  0.00     0.055 A 
ATOM     34  H   UNL A   1      42.130  30.258  30.586  1.00  0.00     0.171 HD
ATOM     35  C   UNL A   1      41.154  27.887  34.218  1.00  0.00     0.016 A 
ATOM     36  C   UNL A   1      42.912  29.654  32.968  1.00  0.00     0.027 A 
ATOM     37  C   UNL A   1      42.338  28.261  34.857  1.00  0.00     0.001 A 
ATOM     38  C   UNL A   1      43.206  29.160  34.240  1.00  0.00     0.002 A 
ENDBRANCH  25  26
ENDBRANCH  23  25
ENDBRANCH  20  21
ENDBRANCH  15  20
ENDBRANCH   7  14
ENDBRANCH   4   6
ENDBRANCH   3   4
ENDBRANCH   2   3
ENDBRANCH   1   2
BRANCH   1  39
ATOM     39  O   UNL A   1      37.794  20.573  24.974  1.00  0.00    -0.374 OA
BRANCH  39  40
ATOM     40  C   UNL A   1      38.929  20.964  25.745  1.00  0.00     0.202 C 
BRANCH  40  41
ATOM     41  C   UNL A   1      39.979  19.910  26.107  1.00  0.00     0.261 C 
BRANCH  41  42
ATOM     42  O   UNL A   1      40.952  20.391  27.041  1.00  0.00    -0.460 OA
BRANCH  42  43
ATOM     43  C   UNL A   1      42.085  20.871  26.475  1.00  0.00     0.338 C 
ATOM     44  O   UNL A   1      42.570  20.548  25.401  1.00  0.00    -0.246 OA
BRANCH  43  45
ATOM     45  C   UNL A   1      42.547  22.034  27.251  1.00  0.00     0.060 A 
ATOM     46  C   UNL A   1      41.681  22.737  28.088  1.00  0.00     0.016 A 
ATOM     47  C   UNL A   1      43.893  22.404  27.136  1.00  0.00     0.016 A 
ATOM     48  C   UNL A   1      42.182  23.796  28.847  1.00  0.00     0.010 A 
ATOM     49  C   UNL A   1      44.391  23.461  27.892  1.00  0.00     0.010 A 
ATOM     50  C   UNL A   1      43.543  24.146  28.772  1.00  0.00    -0.014 A 
BRANCH  50  51
ATOM     51  C   UNL A   1      44.113  25.128  29.724  1.00  0.00     0.031 A 
ATOM     52  C   UNL A   1      44.529  24.729  31.106  1.00  0.00     0.074 A 
ATOM     53  C   UNL A   1      44.221  26.408  29.319  1.00  0.00     0.049 A 
ATOM     54  N   UNL A   1      45.089  25.458  32.034  1.00  0.00    -0.248 NA
ATOM     55  C   UNL A   1      44.273  23.337  31.501  1.00  0.00     0.031 C 
ATOM     56  C   UNL A   1      43.804  26.908  28.007  1.00  0.00     0.029 A 
ATOM     57  N   UNL A   1      44.718  27.513  29.956  1.00  0.00    -0.354 N 
ATOM     58  C   UNL A   1      45.285  24.612  33.116  1.00  0.00     0.074 A 
ATOM     59  C   UNL A   1      44.721  23.328  32.750  1.00  0.00     0.031 C 
ATOM     60  C   UNL A   1      44.105  28.213  27.921  1.00  0.00     0.029 A 
ATOM     61  C   UNL A   1      44.701  28.647  29.180  1.00  0.00     0.049 A 
ATOM     62  H   UNL A   1      45.056  27.498  30.881  1.00  0.00     0.167 HD
ATOM     63  C   UNL A   1      45.903  24.877  34.293  1.00  0.00     0.037 A 
ATOM     64  C   UNL A   1      45.124  29.897  29.449  1.00  0.00     0.037 A 
ATOM     65  C   UNL A   1      46.434  26.170  34.650  1.00  0.00     0.049 A 
ATOM     66  C   UNL A   1      45.751  30.182  30.785  1.00  0.00     0.074 A 
ATOM     67  C   UNL A   1      47.091  26.539  35.811  1.00  0.00     0.029 A 
ATOM     68  N   UNL A   1      46.359  27.309  33.859  1.00  0.00    -0.354 N 
ATOM     69  N   UNL A   1      45.985  29.355  31.777  1.00  0.00    -0.248 NA
ATOM     70  C   UNL A   1      46.171  31.565  31.039  1.00  0.00     0.031 C 
ATOM     71  C   UNL A   1      47.363  27.910  35.746  1.00  0.00     0.029 A 
ATOM     72  C   UNL A   1      46.930  28.387  34.519  1.00  0.00     0.049 A 
ATOM     73  H   UNL A   1      45.957  27.346  32.960  1.00  0.00     0.167 HD
ATOM     74  C   UNL A   1      46.601  30.114  32.766  1.00  0.00     0.074 A 
ATOM     75  C   UNL A   1      46.716  31.462  32.244  1.00  0.00     0.031 C 
ATOM     76  C   UNL A   1      47.031  29.728  33.993  1.00  0.00     0.037 A 
BRANCH  63  77
ATOM     77  C   UNL A   1      46.045  23.747  35.277  1.00  0.00     0.058 A 
ATOM     78  C   UNL A   1      47.107  22.832  35.190  1.00  0.00     0.135 A 
ATOM     79  C   UNL A   1      45.142  23.597  36.342  1.00  0.00     0.135 A 
ATOM     80  F   UNL A   1      47.996  22.921  34.187  1.00  0.00    -0.206 F 
ATOM     81  C   UNL A   1      47.250  21.791  36.100  1.00  0.00     0.059 A 
ATOM     82  C   UNL A   1      45.281  22.578  37.281  1.00  0.00     0.059 A 
ATOM     83  F   UNL A   1      44.109  24.443  36.478  1.00  0.00    -0.206 F 
ATOM     84  C   UNL A   1      46.330  21.671  37.142  1.00  0.00     0.060 A 
BRANCH  84  85
ATOM     85  S   UNL A   1      46.522  20.298  38.300  1.00  0.00     0.124 S 
ATOM     86  O   UNL A   1      47.977  20.190  38.384  1.00  0.00    -0.237 OA
ATOM     87  O   UNL A   1      45.857  20.804  39.495  1.00  0.00    -0.237 OA
ATOM     88  O   UNL A   1      45.850  19.189  37.630  1.00  0.00    -0.744 OA
ENDBRANCH  84  85
ENDBRANCH  63  77
BRANCH  64  89
ATOM     89  C   UNL A   1      45.010  30.948  28.405  1.00  0.00     0.058 A 
ATOM     90  C   UNL A   1      45.985  31.075  27.406  1.00  0.00     0.135 A 
ATOM     91  C   UNL A   1      43.899  31.805  28.349  1.00  0.00     0.135 A 
ATOM     92  F   UNL A   1      47.067  30.281  27.420  1.00  0.00    -0.206 F 
ATOM     93  C   UNL A   1      45.866  32.014  26.388  1.00  0.00     0.059 A 
ATOM     94  C   UNL A   1      43.744  32.734  27.325  1.00  0.00     0.059 A 
ATOM     95  F   UNL A   1      42.930  31.712  29.272  1.00  0.00    -0.206 F 
ATOM     96  C   UNL A   1      44.736  32.833  26.350  1.00  0.00     0.060 A 
BRANCH  96  97
ATOM     97  S   UNL A   1      44.562  33.998  24.982  1.00  0.00     0.124 S 
ATOM     98  O   UNL A   1      44.158  33.116  23.892  1.00  0.00    -0.237 OA
ATOM     99  O   UNL A   1      43.534  34.904  25.485  1.00  0.00    -0.237 OA
ATOM    100  O   UNL A   1      45.895  34.579  24.861  1.00  0.00    -0.744 OA
ENDBRANCH  96  97
ENDBRANCH  64  89
BRANCH  76 101
ATOM    101  C   UNL A   1      47.674  30.774  34.864  1.00  0.00     0.058 A 
ATOM    102  C   UNL A   1      49.053  31.033  34.804  1.00  0.00     0.135 A 
ATOM    103  C   UNL A   1      46.895  31.573  35.717  1.00  0.00     0.135 A 
ATOM    104  F   UNL A   1      49.847  30.294  34.012  1.00  0.00    -0.206 F 
ATOM    105  C   UNL A   1      49.638  32.035  35.571  1.00  0.00     0.059 A 
ATOM    106  C   UNL A   1      47.454  32.601  36.470  1.00  0.00     0.059 A 
ATOM    107  F   UNL A   1      45.571  31.374  35.806  1.00  0.00    -0.206 F 
ATOM    108  C   UNL A   1      48.829  32.819  36.396  1.00  0.00     0.060 A 
BRANCH 108 109
ATOM    109  S   UNL A   1      49.599  34.146  37.347  1.00  0.00     0.124 S 
ATOM    110  O   UNL A   1      49.198  33.806  38.708  1.00  0.00    -0.237 OA
ATOM    111  O   UNL A   1      51.016  33.964  37.041  1.00  0.00    -0.237 OA
ATOM    112  O   UNL A   1      48.996  35.356  36.798  1.00  0.00    -0.744 OA
ENDBRANCH 108 109
ENDBRANCH  76 101
ENDBRANCH  50  51
ENDBRANCH  43  45
ENDBRANCH  42  43
ENDBRANCH  41  42
ENDBRANCH  40  41
ENDBRANCH  39  40
ENDBRANCH   1  39
TORSDOF 22
ENDMDL
MODEL 3
REMARK VINA RESULT:     -10.4      6.299     10.605
REMARK SMILES O=C(Cn1c(=O)[nH]c2ccccc2c1=O)NC[C@H]1CC[C@@H](C(=O)N2CCC(C(=O)OCCOCCOC(=O)c3ccc(-c4c5nc(c(-c6c(F)cc(S(=O)(=O)[O-])cc6F)c6ccc([nH]6)c(-c6c(F)cc(S(=O)(=O)[O-])cc6F)c6nc(c(-c7c(F)cc(S(=O)(=O)[O-])cc7F)c7ccc4[nH]7)C=C6)C=C5)cc3)CC2)CC1
REMARK SMILES IDX 32 1 31 2 30 3 28 4 29 5 27 6 22 7 23 8 24 9 25 10 106 11
REMARK SMILES IDX 26 12 105 13 21 14 18 15 19 16 108 17 20 18 107 19 17 20
REMARK SMILES IDX 16 21 1 22 2 23 3 25 4 26 5 27 14 28 6 29 7 30 13 31 15 32
REMARK SMILES IDX 8 33 12 35 9 36 11 37 10 38 33 39 34 40 35 41 36 42 37 43
REMARK SMILES IDX 38 44 39 45 40 46 104 47 41 48 103 49 42 50 43 51 44 52
REMARK SMILES IDX 97 53 45 54 102 55 96 56 98 57 46 58 101 59 95 60 94 61
REMARK SMILES IDX 47 63 81 64 60 65 80 66 61 67 64 68 79 69 99 70 62 71 63 72
REMARK SMILES IDX 78 74 100 75 65 76 48 77 49 78 58 79 50 80 51 81 57 82 59 83
REMARK SMILES IDX 52 84 53 85 54 86 55 87 56 88 82 89 83 90 92 91 84 92 85 93
REMARK SMILES IDX 91 94 93 95 86 96 87 97 88 98 89 99 90 100 66 101 67 102
REMARK SMILES IDX 76 103 68 104 69 105 75 106 77 107 70 108 71 109 72 110
REMARK SMILES IDX 73 111 74 112
REMARK H PARENT 16 24 7 34 98 62 64 73
REMARK Flexibility Score: inf
ROOT
ATOM      1  C   UNL A   1      35.097  33.139  28.803  1.00  0.00     0.202 C 
ENDROOT
BRANCH   1   2
ATOM      2  C   UNL A   1      33.790  32.801  28.087  1.00  0.00     0.261 C 
BRANCH   2   3
ATOM      3  O   UNL A   1      33.867  31.516  27.461  1.00  0.00    -0.463 OA
BRANCH   3   4
ATOM      4  C   UNL A   1      32.725  31.084  26.878  1.00  0.00     0.309 C 
ATOM      5  O   UNL A   1      31.653  31.677  26.866  1.00  0.00    -0.252 OA
BRANCH   4   6
ATOM      6  C   UNL A   1      32.884  29.714  26.281  1.00  0.00     0.103 C 
ATOM      7  C   UNL A   1      31.597  25.917  24.866  1.00  0.00     0.225 C 
ATOM      8  O   UNL A   1      31.181  25.134  25.731  1.00  0.00    -0.275 OA
ATOM      9  N   UNL A   1      32.109  27.144  25.243  1.00  0.00    -0.342 N 
ATOM     10  C   UNL A   1      32.855  27.208  26.500  1.00  0.00     0.120 C 
ATOM     11  C   UNL A   1      32.130  28.317  24.400  1.00  0.00     0.120 C 
ATOM     12  C   UNL A   1      32.713  28.533  27.238  1.00  0.00     0.037 C 
ATOM     13  C   UNL A   1      31.882  29.604  25.147  1.00  0.00     0.037 C 
BRANCH   7  14
ATOM     14  C   UNL A   1      31.783  25.365  23.431  1.00  0.00     0.078 C 
ATOM     15  C   UNL A   1      33.020  22.609  23.410  1.00  0.00     0.008 C 
ATOM     16  C   UNL A   1      31.629  22.905  23.976  1.00  0.00     0.006 C 
ATOM     17  C   UNL A   1      33.876  23.839  23.052  1.00  0.00     0.006 C 
ATOM     18  C   UNL A   1      30.947  24.085  23.299  1.00  0.00     0.014 C 
ATOM     19  C   UNL A   1      33.133  25.150  22.751  1.00  0.00     0.014 C 
BRANCH  15  20
ATOM     20  C   UNL A   1      33.808  21.576  24.260  1.00  0.00     0.119 C 
BRANCH  20  21
ATOM     21  N   UNL A   1      35.263  21.707  24.286  1.00  0.00    -0.354 N 
ATOM     22  O   UNL A   1      35.425  21.447  26.549  1.00  0.00    -0.273 OA
ATOM     23  C   UNL A   1      35.976  21.469  25.446  1.00  0.00     0.240 C 
ATOM     24  H   UNL A   1      35.742  21.968  23.466  1.00  0.00     0.163 HD
BRANCH  23  25
ATOM     25  C   UNL A   1      37.513  21.392  25.359  1.00  0.00     0.230 C 
BRANCH  25  26
ATOM     26  N   UNL A   1      38.359  22.324  26.106  1.00  0.00    -0.250 N 
ATOM     27  C   UNL A   1      38.056  23.671  26.054  1.00  0.00     0.329 A 
ATOM     28  C   UNL A   1      39.620  21.858  26.500  1.00  0.00     0.264 A 
ATOM     29  O   UNL A   1      37.100  24.141  25.441  1.00  0.00    -0.248 OA
ATOM     30  N   UNL A   1      38.865  24.515  26.757  1.00  0.00    -0.307 N 
ATOM     31  C   UNL A   1      40.536  22.837  27.125  1.00  0.00     0.064 A 
ATOM     32  O   UNL A   1      40.000  20.699  26.340  1.00  0.00    -0.268 OA
ATOM     33  C   UNL A   1      40.080  24.133  27.316  1.00  0.00     0.055 A 
ATOM     34  H   UNL A   1      38.573  25.448  26.874  1.00  0.00     0.171 HD
ATOM     35  C   UNL A   1      41.825  22.490  27.540  1.00  0.00     0.016 A 
ATOM     36  C   UNL A   1      40.859  25.064  28.005  1.00  0.00     0.027 A 
ATOM     37  C   UNL A   1      42.609  23.414  28.233  1.00  0.00     0.001 A 
ATOM     38  C   UNL A   1      42.117  24.694  28.482  1.00  0.00     0.002 A 
ENDBRANCH  25  26
ENDBRANCH  23  25
ENDBRANCH  20  21
ENDBRANCH  15  20
ENDBRANCH   7  14
ENDBRANCH   4   6
ENDBRANCH   3   4
ENDBRANCH   2   3
ENDBRANCH   1   2
BRANCH   1  39
ATOM     39  O   UNL A   1      35.025  33.488  30.185  1.00  0.00    -0.374 OA
BRANCH  39  40
ATOM     40  C   UNL A   1      34.769  32.449  31.130  1.00  0.00     0.202 C 
BRANCH  40  41
ATOM     41  C   UNL A   1      35.809  32.163  32.217  1.00  0.00     0.261 C 
BRANCH  41  42
ATOM     42  O   UNL A   1      36.001  30.762  32.446  1.00  0.00    -0.460 OA
BRANCH  42  43
ATOM     43  C   UNL A   1      36.489  30.081  31.382  1.00  0.00     0.338 C 
ATOM     44  O   UNL A   1      35.883  29.307  30.658  1.00  0.00    -0.246 OA
BRANCH  43  45
ATOM     45  C   UNL A   1      37.835  30.591  31.069  1.00  0.00     0.060 A 
ATOM     46  C   UNL A   1      38.884  30.480  31.983  1.00  0.00     0.016 A 
ATOM     47  C   UNL A   1      38.036  31.177  29.812  1.00  0.00     0.016 A 
ATOM     48  C   UNL A   1      40.153  30.926  31.614  1.00  0.00     0.010 A 
ATOM     49  C   UNL A   1      39.302  31.622  29.448  1.00  0.00     0.010 A 
ATOM     50  C   UNL A   1      40.374  31.475  30.338  1.00  0.00    -0.014 A 
BRANCH  50  51
ATOM     51  C   UNL A   1      41.754  31.756  29.876  1.00  0.00     0.031 A 
ATOM     52  C   UNL A   1      42.586  30.705  29.209  1.00  0.00     0.074 A 
ATOM     53  C   UNL A   1      42.256  32.985  30.102  1.00  0.00     0.049 A 
ATOM     54  N   UNL A   1      43.787  30.810  28.705  1.00  0.00    -0.248 NA
ATOM     55  C   UNL A   1      42.000  29.361  29.103  1.00  0.00     0.031 C 
ATOM     56  C   UNL A   1      41.543  34.067  30.783  1.00  0.00     0.029 A 
ATOM     57  N   UNL A   1      43.468  33.534  29.778  1.00  0.00    -0.354 N 
ATOM     58  C   UNL A   1      44.095  29.558  28.191  1.00  0.00     0.074 A 
ATOM     59  C   UNL A   1      42.977  28.690  28.506  1.00  0.00     0.031 C 
ATOM     60  C   UNL A   1      42.313  35.165  30.787  1.00  0.00     0.029 A 
ATOM     61  C   UNL A   1      43.585  34.854  30.142  1.00  0.00     0.049 A 
ATOM     62  H   UNL A   1      44.186  33.033  29.329  1.00  0.00     0.167 HD
ATOM     63  C   UNL A   1      45.197  29.178  27.499  1.00  0.00     0.037 A 
ATOM     64  C   UNL A   1      44.600  35.721  29.969  1.00  0.00     0.037 A 
ATOM     65  C   UNL A   1      46.313  30.050  27.220  1.00  0.00     0.049 A 
ATOM     66  C   UNL A   1      45.838  35.260  29.252  1.00  0.00     0.074 A 
ATOM     67  C   UNL A   1      47.469  29.767  26.514  1.00  0.00     0.029 A 
ATOM     68  N   UNL A   1      46.419  31.368  27.642  1.00  0.00    -0.354 N 
ATOM     69  N   UNL A   1      46.091  34.089  28.717  1.00  0.00    -0.248 NA
ATOM     70  C   UNL A   1      46.927  36.235  29.112  1.00  0.00     0.031 C 
ATOM     71  C   UNL A   1      48.297  30.894  26.557  1.00  0.00     0.029 A 
ATOM     72  C   UNL A   1      47.634  31.902  27.238  1.00  0.00     0.049 A 
ATOM     73  H   UNL A   1      45.733  31.854  28.155  1.00  0.00     0.167 HD
ATOM     74  C   UNL A   1      47.359  34.192  28.159  1.00  0.00     0.074 A 
ATOM     75  C   UNL A   1      47.813  35.546  28.407  1.00  0.00     0.031 C 
ATOM     76  C   UNL A   1      48.080  33.251  27.500  1.00  0.00     0.037 A 
BRANCH  63  77
ATOM     77  C   UNL A   1      45.248  27.763  26.989  1.00  0.00     0.058 A 
ATOM     78  C   UNL A   1      44.518  27.369  25.856  1.00  0.00     0.135 A 
ATOM     79  C   UNL A   1      46.062  26.800  27.607  1.00  0.00     0.135 A 
ATOM     80  F   UNL A   1      43.715  28.245  25.230  1.00  0.00    -0.206 F 
ATOM     81  C   UNL A   1      44.566  26.066  25.374  1.00  0.00     0.059 A 
ATOM     82  C   UNL A   1      46.148  25.496  27.125  1.00  0.00     0.059 A 
ATOM     83  F   UNL A   1      46.785  27.120  28.692  1.00  0.00    -0.206 F 
ATOM     84  C   UNL A   1      45.383  25.135  26.017  1.00  0.00     0.060 A 
BRANCH  84  85
ATOM     85  S   UNL A   1      45.414  23.443  25.387  1.00  0.00     0.124 S 
ATOM     86  O   UNL A   1      46.306  23.577  24.238  1.00  0.00    -0.237 OA
ATOM     87  O   UNL A   1      45.952  22.699  26.520  1.00  0.00    -0.237 OA
ATOM     88  O   UNL A   1      44.016  23.172  25.066  1.00  0.00    -0.744 OA
ENDBRANCH  84  85
ENDBRANCH  63  77
BRANCH  64  89
ATOM     89  C   UNL A   1      44.455  37.123  30.443  1.00  0.00     0.058 A 
ATOM     90  C   UNL A   1      43.832  38.089  29.640  1.00  0.00     0.135 A 
ATOM     91  C   UNL A   1      44.879  37.509  31.724  1.00  0.00     0.135 A 
ATOM     92  F   UNL A   1      43.414  37.769  28.406  1.00  0.00    -0.206 F 
ATOM     93  C   UNL A   1      43.635  39.390  30.089  1.00  0.00     0.059 A 
ATOM     94  C   UNL A   1      44.668  38.797  32.206  1.00  0.00     0.059 A 
ATOM     95  F   UNL A   1      45.465  36.616  32.537  1.00  0.00    -0.206 F 
ATOM     96  C   UNL A   1      44.047  39.731  31.379  1.00  0.00     0.060 A 
BRANCH  96  97
ATOM     97  S   UNL A   1      43.719  41.405  31.972  1.00  0.00     0.124 S 
ATOM     98  O   UNL A   1      44.395  42.214  30.964  1.00  0.00    -0.237 OA
ATOM     99  O   UNL A   1      42.260  41.452  31.955  1.00  0.00    -0.237 OA
ATOM    100  O   UNL A   1      44.324  41.417  33.300  1.00  0.00    -0.744 OA
ENDBRANCH  96  97
ENDBRANCH  64  89
BRANCH  76 101
ATOM    101  C   UNL A   1      49.441  33.647  26.992  1.00  0.00     0.058 A 
ATOM    102  C   UNL A   1      50.610  33.341  27.707  1.00  0.00     0.135 A 
ATOM    103  C   UNL A   1      49.583  34.275  25.744  1.00  0.00     0.135 A 
ATOM    104  F   UNL A   1      50.532  32.749  28.909  1.00  0.00    -0.206 F 
ATOM    105  C   UNL A   1      51.870  33.660  27.211  1.00  0.00     0.059 A 
ATOM    106  C   UNL A   1      50.834  34.575  25.214  1.00  0.00     0.059 A 
ATOM    107  F   UNL A   1      48.499  34.581  25.014  1.00  0.00    -0.206 F 
ATOM    108  C   UNL A   1      51.972  34.271  25.959  1.00  0.00     0.060 A 
BRANCH 108 109
ATOM    109  S   UNL A   1      53.617  34.634  25.311  1.00  0.00     0.124 S 
ATOM    110  O   UNL A   1      53.444  35.992  24.805  1.00  0.00    -0.237 OA
ATOM    111  O   UNL A   1      54.454  34.504  26.501  1.00  0.00    -0.237 OA
ATOM    112  O   UNL A   1      53.819  33.606  24.294  1.00  0.00    -0.744 OA
ENDBRANCH 108 109
ENDBRANCH  76 101
ENDBRANCH  50  51
ENDBRANCH  43  45
ENDBRANCH  42  43
ENDBRANCH  41  42
ENDBRANCH  40  41
ENDBRANCH  39  40
ENDBRANCH   1  39
TORSDOF 22
ENDMDL
