MODEL 1
REMARK VINA RESULT:     -11.0      0.000      0.000
REMARK SMILES COc1ccc(C(F)(F)F)cc1-c1cccnc1C(=O)OCCOCCOC(=O)c1ccc(-c2c3nc(c(-c4c(F)cc(S(=O)(=O)[O-])cc4F)c4ccc([nH]4)c(-c4c(F)cc(S(=O)(=O)[O-])cc4F)c4nc(c(-c5c(F)cc(S(=O)(=O)[O-])cc5F)c5ccc2[nH]5)C=C4)C=C3)cc1
REMARK SMILES IDX 25 1 24 2 23 3 22 4 21 5 19 6 20 7 18 8 13 9 14 10 15 11
REMARK SMILES IDX 17 12 16 13 12 14 3 15 4 16 5 17 11 18 6 19 2 20 1 21 7 22
REMARK SMILES IDX 8 23 9 24 10 25 26 26 27 27 28 28 29 29 30 30 31 31 95 32
REMARK SMILES IDX 32 33 94 34 33 35 34 36 35 37 88 38 36 39 93 40 87 41 89 42
REMARK SMILES IDX 37 43 92 44 86 45 85 46 38 48 72 49 51 50 71 51 52 52 55 53
REMARK SMILES IDX 70 54 90 55 53 56 54 57 69 59 91 60 56 61 39 62 40 63 49 64
REMARK SMILES IDX 41 65 42 66 48 67 50 68 43 69 44 70 45 71 46 72 47 73 73 74
REMARK SMILES IDX 74 75 83 76 75 77 76 78 82 79 84 80 77 81 78 82 79 83 80 84
REMARK SMILES IDX 81 85 57 86 58 87 67 88 59 89 60 90 66 91 68 92 61 93 62 94
REMARK SMILES IDX 63 95 64 96 65 97
REMARK H PARENT 89 47 55 58
REMARK Flexibility Score: inf
ROOT
ATOM      1  C   UNL A   1      33.930  31.879  27.785  1.00  0.00     0.202 C 
ENDROOT
BRANCH   1   2
ATOM      2  O   UNL A   1      33.132  30.708  27.610  1.00  0.00    -0.374 OA
BRANCH   2   3
ATOM      3  C   UNL A   1      33.001  30.202  26.281  1.00  0.00     0.202 C 
BRANCH   3   4
ATOM      4  C   UNL A   1      33.737  28.890  26.008  1.00  0.00     0.261 C 
BRANCH   4   5
ATOM      5  O   UNL A   1      33.299  27.880  26.932  1.00  0.00    -0.458 OA
BRANCH   5   6
ATOM      6  C   UNL A   1      32.000  27.505  26.829  1.00  0.00     0.357 C 
ATOM      7  O   UNL A   1      31.145  27.659  27.691  1.00  0.00    -0.244 OA
BRANCH   6   8
ATOM      8  C   UNL A   1      31.700  26.941  25.469  1.00  0.00     0.156 A 
ATOM      9  C   UNL A   1      32.028  25.637  25.052  1.00  0.00     0.019 A 
ATOM     10  C   UNL A   1      31.546  25.273  23.779  1.00  0.00     0.013 A 
ATOM     11  C   UNL A   1      30.863  26.179  22.971  1.00  0.00     0.021 A 
ATOM     12  N   UNL A   1      31.031  27.843  24.683  1.00  0.00    -0.249 NA
ATOM     13  C   UNL A   1      30.645  27.449  23.458  1.00  0.00     0.112 A 
BRANCH   9  14
ATOM     14  C   UNL A   1      32.858  24.676  25.819  1.00  0.00     0.027 A 
ATOM     15  C   UNL A   1      32.304  23.785  26.766  1.00  0.00     0.126 A 
ATOM     16  C   UNL A   1      33.091  22.836  27.428  1.00  0.00     0.048 A 
ATOM     17  C   UNL A   1      34.444  22.717  27.122  1.00  0.00     0.017 A 
ATOM     18  C   UNL A   1      34.246  24.581  25.594  1.00  0.00     0.025 A 
ATOM     19  C   UNL A   1      35.034  23.582  26.193  1.00  0.00     0.056 A 
BRANCH  15  20
ATOM     20  O   UNL A   1      30.992  23.873  27.168  1.00  0.00    -0.496 OA
ATOM     21  C   UNL A   1      30.264  22.691  26.844  1.00  0.00     0.278 C 
ENDBRANCH  15  20
BRANCH  19  22
ATOM     22  C   UNL A   1      36.483  23.406  25.803  1.00  0.00     0.416 C 
ATOM     23  F   UNL A   1      37.347  23.926  26.710  1.00  0.00    -0.166 F 
ATOM     24  F   UNL A   1      36.813  22.090  25.667  1.00  0.00    -0.166 F 
ATOM     25  F   UNL A   1      36.788  23.979  24.605  1.00  0.00    -0.166 F 
ENDBRANCH  19  22
ENDBRANCH   9  14
ENDBRANCH   6   8
ENDBRANCH   5   6
ENDBRANCH   4   5
ENDBRANCH   3   4
ENDBRANCH   2   3
ENDBRANCH   1   2
BRANCH   1  26
ATOM     26  C   UNL A   1      34.987  31.811  28.894  1.00  0.00     0.261 C 
BRANCH  26  27
ATOM     27  O   UNL A   1      35.718  30.571  28.899  1.00  0.00    -0.460 OA
BRANCH  27  28
ATOM     28  C   UNL A   1      36.398  30.317  30.043  1.00  0.00     0.338 C 
ATOM     29  O   UNL A   1      35.921  30.132  31.159  1.00  0.00    -0.246 OA
BRANCH  28  30
ATOM     30  C   UNL A   1      37.833  30.142  29.765  1.00  0.00     0.060 A 
ATOM     31  C   UNL A   1      38.228  29.989  28.430  1.00  0.00     0.016 A 
ATOM     32  C   UNL A   1      38.769  30.026  30.796  1.00  0.00     0.016 A 
ATOM     33  C   UNL A   1      39.554  29.687  28.122  1.00  0.00     0.010 A 
ATOM     34  C   UNL A   1      40.097  29.717  30.484  1.00  0.00     0.010 A 
ATOM     35  C   UNL A   1      40.492  29.518  29.149  1.00  0.00    -0.014 A 
BRANCH  35  36
ATOM     36  C   UNL A   1      41.867  29.049  28.835  1.00  0.00     0.031 A 
ATOM     37  C   UNL A   1      43.005  30.030  28.834  1.00  0.00     0.074 A 
ATOM     38  C   UNL A   1      42.095  27.753  28.553  1.00  0.00     0.049 A 
ATOM     39  N   UNL A   1      44.261  29.839  28.523  1.00  0.00    -0.248 NA
ATOM     40  C   UNL A   1      42.687  31.408  29.240  1.00  0.00     0.031 C 
ATOM     41  C   UNL A   1      41.086  26.698  28.576  1.00  0.00     0.029 A 
ATOM     42  N   UNL A   1      43.245  27.109  28.174  1.00  0.00    -0.354 N 
ATOM     43  C   UNL A   1      44.887  31.068  28.695  1.00  0.00     0.074 A 
ATOM     44  C   UNL A   1      43.864  32.006  29.109  1.00  0.00     0.031 C 
ATOM     45  C   UNL A   1      41.650  25.542  28.188  1.00  0.00     0.029 A 
ATOM     46  C   UNL A   1      43.058  25.780  27.875  1.00  0.00     0.049 A 
ATOM     47  H   UNL A   1      44.121  27.554  28.121  1.00  0.00     0.167 HD
ATOM     48  C   UNL A   1      46.195  31.381  28.535  1.00  0.00     0.037 A 
ATOM     49  C   UNL A   1      43.917  24.865  27.384  1.00  0.00     0.037 A 
ATOM     50  C   UNL A   1      47.208  30.443  28.125  1.00  0.00     0.049 A 
ATOM     51  C   UNL A   1      45.348  25.256  27.130  1.00  0.00     0.074 A 
ATOM     52  C   UNL A   1      48.566  30.658  27.967  1.00  0.00     0.029 A 
ATOM     53  N   UNL A   1      46.974  29.116  27.795  1.00  0.00    -0.354 N 
ATOM     54  N   UNL A   1      45.932  26.414  27.327  1.00  0.00    -0.248 NA
ATOM     55  C   UNL A   1      46.238  24.218  26.590  1.00  0.00     0.031 C 
ATOM     56  C   UNL A   1      49.144  29.475  27.495  1.00  0.00     0.029 A 
ATOM     57  C   UNL A   1      48.156  28.509  27.403  1.00  0.00     0.049 A 
ATOM     58  H   UNL A   1      46.097  28.670  27.836  1.00  0.00     0.167 HD
ATOM     59  C   UNL A   1      47.262  26.238  26.959  1.00  0.00     0.074 A 
ATOM     60  C   UNL A   1      47.398  24.860  26.534  1.00  0.00     0.031 C 
ATOM     61  C   UNL A   1      48.278  27.136  26.977  1.00  0.00     0.037 A 
BRANCH  48  62
ATOM     62  C   UNL A   1      46.604  32.806  28.782  1.00  0.00     0.058 A 
ATOM     63  C   UNL A   1      46.604  33.763  27.756  1.00  0.00     0.135 A 
ATOM     64  C   UNL A   1      46.969  33.228  30.071  1.00  0.00     0.135 A 
ATOM     65  F   UNL A   1      46.278  33.410  26.502  1.00  0.00    -0.206 F 
ATOM     66  C   UNL A   1      46.977  35.082  27.991  1.00  0.00     0.059 A 
ATOM     67  C   UNL A   1      47.322  34.547  30.335  1.00  0.00     0.059 A 
ATOM     68  F   UNL A   1      46.985  32.353  31.089  1.00  0.00    -0.206 F 
ATOM     69  C   UNL A   1      47.338  35.465  29.285  1.00  0.00     0.060 A 
BRANCH  69  70
ATOM     70  S   UNL A   1      47.826  37.179  29.577  1.00  0.00     0.124 S 
ATOM     71  O   UNL A   1      49.003  37.294  28.722  1.00  0.00    -0.237 OA
ATOM     72  O   UNL A   1      46.647  37.919  29.136  1.00  0.00    -0.237 OA
ATOM     73  O   UNL A   1      48.087  37.218  31.013  1.00  0.00    -0.744 OA
ENDBRANCH  69  70
ENDBRANCH  48  62
BRANCH  49  74
ATOM     74  C   UNL A   1      43.437  23.490  27.085  1.00  0.00     0.058 A 
ATOM     75  C   UNL A   1      43.130  23.096  25.776  1.00  0.00     0.135 A 
ATOM     76  C   UNL A   1      43.290  22.539  28.107  1.00  0.00     0.135 A 
ATOM     77  F   UNL A   1      43.244  23.975  24.768  1.00  0.00    -0.206 F 
ATOM     78  C   UNL A   1      42.684  21.810  25.488  1.00  0.00     0.059 A 
ATOM     79  C   UNL A   1      42.868  21.240  27.842  1.00  0.00     0.059 A 
ATOM     80  F   UNL A   1      43.581  22.864  29.376  1.00  0.00    -0.206 F 
ATOM     81  C   UNL A   1      42.559  20.888  26.529  1.00  0.00     0.060 A 
BRANCH  81  82
ATOM     82  S   UNL A   1      42.028  19.206  26.137  1.00  0.00     0.124 S 
ATOM     83  O   UNL A   1      42.859  18.899  24.978  1.00  0.00    -0.237 OA
ATOM     84  O   UNL A   1      42.353  18.488  27.365  1.00  0.00    -0.237 OA
ATOM     85  O   UNL A   1      40.602  19.360  25.867  1.00  0.00    -0.744 OA
ENDBRANCH  81  82
ENDBRANCH  49  74
BRANCH  61  86
ATOM     86  C   UNL A   1      49.635  26.659  26.538  1.00  0.00     0.058 A 
ATOM     87  C   UNL A   1      50.503  26.000  27.422  1.00  0.00     0.135 A 
ATOM     88  C   UNL A   1      50.047  26.808  25.203  1.00  0.00     0.135 A 
ATOM     89  F   UNL A   1      50.160  25.840  28.710  1.00  0.00    -0.206 F 
ATOM     90  C   UNL A   1      51.738  25.516  27.002  1.00  0.00     0.059 A 
ATOM     91  C   UNL A   1      51.268  26.311  24.756  1.00  0.00     0.059 A 
ATOM     92  F   UNL A   1      49.251  27.424  24.315  1.00  0.00    -0.206 F 
ATOM     93  C   UNL A   1      52.111  25.673  25.665  1.00  0.00     0.060 A 
BRANCH  93  94
ATOM     94  S   UNL A   1      53.695  24.999  25.123  1.00  0.00     0.124 S 
ATOM     95  O   UNL A   1      53.865  25.652  23.828  1.00  0.00    -0.237 OA
ATOM     96  O   UNL A   1      54.601  25.439  26.178  1.00  0.00    -0.237 OA
ATOM     97  O   UNL A   1      53.453  23.560  25.073  1.00  0.00    -0.744 OA
ENDBRANCH  93  94
ENDBRANCH  61  86
ENDBRANCH  35  36
ENDBRANCH  28  30
ENDBRANCH  27  28
ENDBRANCH  26  27
ENDBRANCH   1  26
TORSDOF 20
ENDMDL
MODEL 2
REMARK VINA RESULT:     -10.9      6.400     11.728
REMARK SMILES COc1ccc(C(F)(F)F)cc1-c1cccnc1C(=O)OCCOCCOC(=O)c1ccc(-c2c3nc(c(-c4c(F)cc(S(=O)(=O)[O-])cc4F)c4ccc([nH]4)c(-c4c(F)cc(S(=O)(=O)[O-])cc4F)c4nc(c(-c5c(F)cc(S(=O)(=O)[O-])cc5F)c5ccc2[nH]5)C=C4)C=C3)cc1
REMARK SMILES IDX 25 1 24 2 23 3 22 4 21 5 19 6 20 7 18 8 13 9 14 10 15 11
REMARK SMILES IDX 17 12 16 13 12 14 3 15 4 16 5 17 11 18 6 19 2 20 1 21 7 22
REMARK SMILES IDX 8 23 9 24 10 25 26 26 27 27 28 28 29 29 30 30 31 31 95 32
REMARK SMILES IDX 32 33 94 34 33 35 34 36 35 37 88 38 36 39 93 40 87 41 89 42
REMARK SMILES IDX 37 43 92 44 86 45 85 46 38 48 72 49 51 50 71 51 52 52 55 53
REMARK SMILES IDX 70 54 90 55 53 56 54 57 69 59 91 60 56 61 39 62 40 63 49 64
REMARK SMILES IDX 41 65 42 66 48 67 50 68 43 69 44 70 45 71 46 72 47 73 73 74
REMARK SMILES IDX 74 75 83 76 75 77 76 78 82 79 84 80 77 81 78 82 79 83 80 84
REMARK SMILES IDX 81 85 57 86 58 87 67 88 59 89 60 90 66 91 68 92 61 93 62 94
REMARK SMILES IDX 63 95 64 96 65 97
REMARK H PARENT 89 47 55 58
REMARK Flexibility Score: inf
ROOT
ATOM      1  C   UNL A   1      39.411  21.836  26.175  1.00  0.00     0.202 C 
ENDROOT
BRANCH   1   2
ATOM      2  O   UNL A   1      38.336  22.735  26.447  1.00  0.00    -0.374 OA
BRANCH   2   3
ATOM      3  C   UNL A   1      37.312  22.845  25.456  1.00  0.00     0.202 C 
BRANCH   3   4
ATOM      4  C   UNL A   1      35.921  23.180  25.992  1.00  0.00     0.261 C 
BRANCH   4   5
ATOM      5  O   UNL A   1      35.541  24.505  25.585  1.00  0.00    -0.458 OA
BRANCH   5   6
ATOM      6  C   UNL A   1      34.210  24.760  25.565  1.00  0.00     0.357 C 
ATOM      7  O   UNL A   1      33.433  24.556  26.489  1.00  0.00    -0.244 OA
BRANCH   6   8
ATOM      8  C   UNL A   1      33.799  25.417  24.278  1.00  0.00     0.156 A 
ATOM      9  C   UNL A   1      33.409  26.765  24.155  1.00  0.00     0.019 A 
ATOM     10  C   UNL A   1      33.181  27.207  22.837  1.00  0.00     0.013 A 
ATOM     11  C   UNL A   1      33.263  26.338  21.751  1.00  0.00     0.021 A 
ATOM     12  N   UNL A   1      33.881  24.551  23.219  1.00  0.00    -0.249 NA
ATOM     13  C   UNL A   1      33.600  25.024  21.993  1.00  0.00     0.112 A 
BRANCH   9  14
ATOM     14  C   UNL A   1      33.185  27.698  25.286  1.00  0.00     0.027 A 
ATOM     15  C   UNL A   1      31.919  27.858  25.895  1.00  0.00     0.126 A 
ATOM     16  C   UNL A   1      31.740  28.689  27.006  1.00  0.00     0.048 A 
ATOM     17  C   UNL A   1      32.832  29.342  27.571  1.00  0.00     0.017 A 
ATOM     18  C   UNL A   1      34.252  28.437  25.834  1.00  0.00     0.025 A 
ATOM     19  C   UNL A   1      34.103  29.214  26.997  1.00  0.00     0.056 A 
BRANCH  15  20
ATOM     20  O   UNL A   1      30.781  27.297  25.367  1.00  0.00    -0.496 OA
ATOM     21  C   UNL A   1      30.400  26.119  26.075  1.00  0.00     0.278 C 
ENDBRANCH  15  20
BRANCH  19  22
ATOM     22  C   UNL A   1      35.303  29.859  27.652  1.00  0.00     0.416 C 
ATOM     23  F   UNL A   1      35.079  31.143  28.028  1.00  0.00    -0.166 F 
ATOM     24  F   UNL A   1      35.685  29.188  28.775  1.00  0.00    -0.166 F 
ATOM     25  F   UNL A   1      36.404  29.878  26.850  1.00  0.00    -0.166 F 
ENDBRANCH  19  22
ENDBRANCH   9  14
ENDBRANCH   6   8
ENDBRANCH   5   6
ENDBRANCH   4   5
ENDBRANCH   3   4
ENDBRANCH   2   3
ENDBRANCH   1   2
BRANCH   1  26
ATOM     26  C   UNL A   1      40.823  22.410  26.337  1.00  0.00     0.261 C 
BRANCH  26  27
ATOM     27  O   UNL A   1      40.855  23.849  26.283  1.00  0.00    -0.460 OA
BRANCH  27  28
ATOM     28  C   UNL A   1      41.971  24.412  26.805  1.00  0.00     0.338 C 
ATOM     29  O   UNL A   1      43.135  24.142  26.526  1.00  0.00    -0.246 OA
BRANCH  28  30
ATOM     30  C   UNL A   1      41.618  25.537  27.690  1.00  0.00     0.060 A 
ATOM     31  C   UNL A   1      42.558  26.563  27.851  1.00  0.00     0.016 A 
ATOM     32  C   UNL A   1      40.434  25.541  28.430  1.00  0.00     0.016 A 
ATOM     33  C   UNL A   1      42.332  27.581  28.777  1.00  0.00     0.010 A 
ATOM     34  C   UNL A   1      40.213  26.560  29.363  1.00  0.00     0.010 A 
ATOM     35  C   UNL A   1      41.172  27.570  29.562  1.00  0.00    -0.014 A 
BRANCH  35  36
ATOM     36  C   UNL A   1      40.999  28.564  30.653  1.00  0.00     0.031 A 
ATOM     37  C   UNL A   1      41.851  28.468  31.887  1.00  0.00     0.074 A 
ATOM     38  C   UNL A   1      40.084  29.544  30.542  1.00  0.00     0.049 A 
ATOM     39  N   UNL A   1      41.812  29.190  32.976  1.00  0.00    -0.248 NA
ATOM     40  C   UNL A   1      42.887  27.424  31.892  1.00  0.00     0.031 C 
ATOM     41  C   UNL A   1      39.237  29.774  29.374  1.00  0.00     0.029 A 
ATOM     42  N   UNL A   1      39.703  30.518  31.429  1.00  0.00    -0.354 N 
ATOM     43  C   UNL A   1      42.816  28.692  33.799  1.00  0.00     0.074 A 
ATOM     44  C   UNL A   1      43.427  27.585  33.093  1.00  0.00     0.031 C 
ATOM     45  C   UNL A   1      38.405  30.798  29.629  1.00  0.00     0.029 A 
ATOM     46  C   UNL A   1      38.652  31.285  30.985  1.00  0.00     0.049 A 
ATOM     47  H   UNL A   1      40.139  30.654  32.301  1.00  0.00     0.167 HD
ATOM     48  C   UNL A   1      43.199  29.127  35.023  1.00  0.00     0.037 A 
ATOM     49  C   UNL A   1      37.953  32.255  31.608  1.00  0.00     0.037 A 
ATOM     50  C   UNL A   1      42.589  30.230  35.719  1.00  0.00     0.049 A 
ATOM     51  C   UNL A   1      38.341  32.665  33.004  1.00  0.00     0.074 A 
ATOM     52  C   UNL A   1      42.930  30.765  36.949  1.00  0.00     0.029 A 
ATOM     53  N   UNL A   1      41.505  30.959  35.255  1.00  0.00    -0.354 N 
ATOM     54  N   UNL A   1      39.313  32.206  33.757  1.00  0.00    -0.248 NA
ATOM     55  C   UNL A   1      37.542  33.725  33.635  1.00  0.00     0.031 C 
ATOM     56  C   UNL A   1      42.021  31.785  37.250  1.00  0.00     0.029 A 
ATOM     57  C   UNL A   1      41.142  31.917  36.187  1.00  0.00     0.049 A 
ATOM     58  H   UNL A   1      41.058  30.817  34.388  1.00  0.00     0.167 HD
ATOM     59  C   UNL A   1      39.256  32.936  34.939  1.00  0.00     0.074 A 
ATOM     60  C   UNL A   1      38.160  33.873  34.799  1.00  0.00     0.031 C 
ATOM     61  C   UNL A   1      40.045  32.841  36.038  1.00  0.00     0.037 A 
BRANCH  48  62
ATOM     62  C   UNL A   1      44.321  28.391  35.701  1.00  0.00     0.058 A 
ATOM     63  C   UNL A   1      45.654  28.815  35.594  1.00  0.00     0.135 A 
ATOM     64  C   UNL A   1      44.055  27.264  36.496  1.00  0.00     0.135 A 
ATOM     65  F   UNL A   1      45.967  29.878  34.834  1.00  0.00    -0.206 F 
ATOM     66  C   UNL A   1      46.688  28.135  36.229  1.00  0.00     0.059 A 
ATOM     67  C   UNL A   1      45.069  26.582  37.160  1.00  0.00     0.059 A 
ATOM     68  F   UNL A   1      42.797  26.816  36.632  1.00  0.00    -0.206 F 
ATOM     69  C   UNL A   1      46.386  27.016  37.008  1.00  0.00     0.060 A 
BRANCH  69  70
ATOM     70  S   UNL A   1      47.737  26.137  37.822  1.00  0.00     0.124 S 
ATOM     71  O   UNL A   1      48.526  25.695  36.678  1.00  0.00    -0.237 OA
ATOM     72  O   UNL A   1      48.341  27.183  38.642  1.00  0.00    -0.237 OA
ATOM     73  O   UNL A   1      47.057  25.079  38.563  1.00  0.00    -0.744 OA
ENDBRANCH  69  70
ENDBRANCH  48  62
BRANCH  49  74
ATOM     74  C   UNL A   1      36.804  32.895  30.916  1.00  0.00     0.058 A 
ATOM     75  C   UNL A   1      35.482  32.579  31.260  1.00  0.00     0.135 A 
ATOM     76  C   UNL A   1      37.008  33.847  29.905  1.00  0.00     0.135 A 
ATOM     77  F   UNL A   1      35.238  31.667  32.213  1.00  0.00    -0.206 F 
ATOM     78  C   UNL A   1      34.401  33.177  30.620  1.00  0.00     0.059 A 
ATOM     79  C   UNL A   1      35.944  34.474  29.266  1.00  0.00     0.059 A 
ATOM     80  F   UNL A   1      38.255  34.191  29.546  1.00  0.00    -0.206 F 
ATOM     81  C   UNL A   1      34.643  34.127  29.625  1.00  0.00     0.060 A 
BRANCH  81  82
ATOM     82  S   UNL A   1      33.232  34.933  28.836  1.00  0.00     0.124 S 
ATOM     83  O   UNL A   1      32.793  33.903  27.901  1.00  0.00    -0.237 OA
ATOM     84  O   UNL A   1      32.349  35.185  29.970  1.00  0.00    -0.237 OA
ATOM     85  O   UNL A   1      33.822  36.123  28.231  1.00  0.00    -0.744 OA
ENDBRANCH  81  82
ENDBRANCH  49  74
BRANCH  61  86
ATOM     86  C   UNL A   1      39.766  33.783  37.177  1.00  0.00     0.058 A 
ATOM     87  C   UNL A   1      38.910  33.429  38.231  1.00  0.00     0.135 A 
ATOM     88  C   UNL A   1      40.411  35.030  37.247  1.00  0.00     0.135 A 
ATOM     89  F   UNL A   1      38.262  32.253  38.207  1.00  0.00    -0.206 F 
ATOM     90  C   UNL A   1      38.691  34.282  39.308  1.00  0.00     0.059 A 
ATOM     91  C   UNL A   1      40.225  35.888  38.327  1.00  0.00     0.059 A 
ATOM     92  F   UNL A   1      41.247  35.414  36.270  1.00  0.00    -0.206 F 
ATOM     93  C   UNL A   1      39.356  35.509  39.349  1.00  0.00     0.060 A 
BRANCH  93  94
ATOM     94  S   UNL A   1      39.101  36.586  40.776  1.00  0.00     0.124 S 
ATOM     95  O   UNL A   1      38.216  35.772  41.604  1.00  0.00    -0.237 OA
ATOM     96  O   UNL A   1      40.458  36.761  41.282  1.00  0.00    -0.237 OA
ATOM     97  O   UNL A   1      38.496  37.780  40.196  1.00  0.00    -0.744 OA
ENDBRANCH  93  94
ENDBRANCH  61  86
ENDBRANCH  35  36
ENDBRANCH  28  30
ENDBRANCH  27  28
ENDBRANCH  26  27
ENDBRANCH   1  26
TORSDOF 20
ENDMDL
MODEL 3
REMARK VINA RESULT:     -10.8      6.550     11.885
REMARK SMILES COc1ccc(C(F)(F)F)cc1-c1cccnc1C(=O)OCCOCCOC(=O)c1ccc(-c2c3nc(c(-c4c(F)cc(S(=O)(=O)[O-])cc4F)c4ccc([nH]4)c(-c4c(F)cc(S(=O)(=O)[O-])cc4F)c4nc(c(-c5c(F)cc(S(=O)(=O)[O-])cc5F)c5ccc2[nH]5)C=C4)C=C3)cc1
REMARK SMILES IDX 25 1 24 2 23 3 22 4 21 5 19 6 20 7 18 8 13 9 14 10 15 11
REMARK SMILES IDX 17 12 16 13 12 14 3 15 4 16 5 17 11 18 6 19 2 20 1 21 7 22
REMARK SMILES IDX 8 23 9 24 10 25 26 26 27 27 28 28 29 29 30 30 31 31 95 32
REMARK SMILES IDX 32 33 94 34 33 35 34 36 35 37 88 38 36 39 93 40 87 41 89 42
REMARK SMILES IDX 37 43 92 44 86 45 85 46 38 48 72 49 51 50 71 51 52 52 55 53
REMARK SMILES IDX 70 54 90 55 53 56 54 57 69 59 91 60 56 61 39 62 40 63 49 64
REMARK SMILES IDX 41 65 42 66 48 67 50 68 43 69 44 70 45 71 46 72 47 73 73 74
REMARK SMILES IDX 74 75 83 76 75 77 76 78 82 79 84 80 77 81 78 82 79 83 80 84
REMARK SMILES IDX 81 85 57 86 58 87 67 88 59 89 60 90 66 91 68 92 61 93 62 94
REMARK SMILES IDX 63 95 64 96 65 97
REMARK H PARENT 89 47 55 58
REMARK Flexibility Score: inf
ROOT
ATOM      1  C   UNL A   1      40.215  21.433  26.156  1.00  0.00     0.202 C 
ENDROOT
BRANCH   1   2
ATOM      2  O   UNL A   1      38.944  22.034  26.406  1.00  0.00    -0.374 OA
BRANCH   2   3
ATOM      3  C   UNL A   1      38.029  22.102  25.310  1.00  0.00     0.202 C 
BRANCH   3   4
ATOM      4  C   UNL A   1      36.920  21.051  25.321  1.00  0.00     0.261 C 
BRANCH   4   5
ATOM      5  O   UNL A   1      35.686  21.632  24.869  1.00  0.00    -0.458 OA
BRANCH   5   6
ATOM      6  C   UNL A   1      34.567  21.230  25.520  1.00  0.00     0.357 C 
ATOM      7  O   UNL A   1      34.229  21.589  26.640  1.00  0.00    -0.244 OA
BRANCH   6   8
ATOM      8  C   UNL A   1      33.724  20.336  24.656  1.00  0.00     0.156 A 
ATOM      9  C   UNL A   1      32.695  20.782  23.805  1.00  0.00     0.019 A 
ATOM     10  C   UNL A   1      32.113  19.788  22.993  1.00  0.00     0.013 A 
ATOM     11  C   UNL A   1      32.488  18.450  23.095  1.00  0.00     0.021 A 
ATOM     12  N   UNL A   1      34.101  19.022  24.768  1.00  0.00    -0.249 NA
ATOM     13  C   UNL A   1      33.469  18.117  24.002  1.00  0.00     0.112 A 
BRANCH   9  14
ATOM     14  C   UNL A   1      32.172  22.169  23.747  1.00  0.00     0.027 A 
ATOM     15  C   UNL A   1      31.346  22.708  24.759  1.00  0.00     0.126 A 
ATOM     16  C   UNL A   1      30.920  24.040  24.725  1.00  0.00     0.048 A 
ATOM     17  C   UNL A   1      31.351  24.884  23.705  1.00  0.00     0.017 A 
ATOM     18  C   UNL A   1      32.523  23.028  22.688  1.00  0.00     0.025 A 
ATOM     19  C   UNL A   1      32.167  24.389  22.680  1.00  0.00     0.056 A 
BRANCH  15  20
ATOM     20  O   UNL A   1      30.829  21.931  25.769  1.00  0.00    -0.496 OA
ATOM     21  C   UNL A   1      30.206  22.726  26.775  1.00  0.00     0.278 C 
ENDBRANCH  15  20
BRANCH  19  22
ATOM     22  C   UNL A   1      32.699  25.319  21.614  1.00  0.00     0.416 C 
ATOM     23  F   UNL A   1      33.827  25.970  21.990  1.00  0.00    -0.166 F 
ATOM     24  F   UNL A   1      33.003  24.649  20.467  1.00  0.00    -0.166 F 
ATOM     25  F   UNL A   1      31.803  26.278  21.246  1.00  0.00    -0.166 F 
ENDBRANCH  19  22
ENDBRANCH   9  14
ENDBRANCH   6   8
ENDBRANCH   5   6
ENDBRANCH   4   5
ENDBRANCH   3   4
ENDBRANCH   2   3
ENDBRANCH   1   2
BRANCH   1  26
ATOM     26  C   UNL A   1      41.422  22.378  26.195  1.00  0.00     0.261 C 
BRANCH  26  27
ATOM     27  O   UNL A   1      41.060  23.742  26.483  1.00  0.00    -0.460 OA
BRANCH  27  28
ATOM     28  C   UNL A   1      42.107  24.574  26.695  1.00  0.00     0.338 C 
ATOM     29  O   UNL A   1      43.204  24.535  26.147  1.00  0.00    -0.246 OA
BRANCH  28  30
ATOM     30  C   UNL A   1      41.723  25.671  27.601  1.00  0.00     0.060 A 
ATOM     31  C   UNL A   1      42.606  26.749  27.737  1.00  0.00     0.016 A 
ATOM     32  C   UNL A   1      40.567  25.601  28.383  1.00  0.00     0.016 A 
ATOM     33  C   UNL A   1      42.355  27.746  28.679  1.00  0.00     0.010 A 
ATOM     34  C   UNL A   1      40.322  26.599  29.333  1.00  0.00     0.010 A 
ATOM     35  C   UNL A   1      41.227  27.663  29.505  1.00  0.00    -0.014 A 
BRANCH  35  36
ATOM     36  C   UNL A   1      41.036  28.638  30.609  1.00  0.00     0.031 A 
ATOM     37  C   UNL A   1      41.868  28.520  31.856  1.00  0.00     0.074 A 
ATOM     38  C   UNL A   1      40.123  29.620  30.500  1.00  0.00     0.049 A 
ATOM     39  N   UNL A   1      41.811  29.224  32.956  1.00  0.00    -0.248 NA
ATOM     40  C   UNL A   1      42.904  27.476  31.860  1.00  0.00     0.031 C 
ATOM     41  C   UNL A   1      39.296  29.871  29.322  1.00  0.00     0.029 A 
ATOM     42  N   UNL A   1      39.728  30.579  31.398  1.00  0.00    -0.354 N 
ATOM     43  C   UNL A   1      42.801  28.711  33.787  1.00  0.00     0.074 A 
ATOM     44  C   UNL A   1      43.423  27.616  33.073  1.00  0.00     0.031 C 
ATOM     45  C   UNL A   1      38.460  30.890  29.582  1.00  0.00     0.029 A 
ATOM     46  C   UNL A   1      38.685  31.354  30.950  1.00  0.00     0.049 A 
ATOM     47  H   UNL A   1      40.150  30.701  32.279  1.00  0.00     0.167 HD
ATOM     48  C   UNL A   1      43.165  29.125  35.025  1.00  0.00     0.037 A 
ATOM     49  C   UNL A   1      37.977  32.314  31.577  1.00  0.00     0.037 A 
ATOM     50  C   UNL A   1      42.543  30.216  35.730  1.00  0.00     0.049 A 
ATOM     51  C   UNL A   1      38.341  32.700  32.986  1.00  0.00     0.074 A 
ATOM     52  C   UNL A   1      42.864  30.730  36.973  1.00  0.00     0.029 A 
ATOM     53  N   UNL A   1      41.467  30.954  35.260  1.00  0.00    -0.354 N 
ATOM     54  N   UNL A   1      39.300  32.227  33.747  1.00  0.00    -0.248 NA
ATOM     55  C   UNL A   1      37.532  33.749  33.622  1.00  0.00     0.031 C 
ATOM     56  C   UNL A   1      41.950  31.746  37.277  1.00  0.00     0.029 A 
ATOM     57  C   UNL A   1      41.089  31.896  36.202  1.00  0.00     0.049 A 
ATOM     58  H   UNL A   1      41.035  30.827  34.384  1.00  0.00     0.167 HD
ATOM     59  C   UNL A   1      39.224  32.938  34.941  1.00  0.00     0.074 A 
ATOM     60  C   UNL A   1      38.131  33.877  34.799  1.00  0.00     0.031 C 
ATOM     61  C   UNL A   1      39.995  32.824  36.051  1.00  0.00     0.037 A 
BRANCH  48  62
ATOM     62  C   UNL A   1      44.275  28.376  35.709  1.00  0.00     0.058 A 
ATOM     63  C   UNL A   1      45.621  28.730  35.533  1.00  0.00     0.135 A 
ATOM     64  C   UNL A   1      43.985  27.312  36.577  1.00  0.00     0.135 A 
ATOM     65  F   UNL A   1      45.955  29.731  34.702  1.00  0.00    -0.206 F 
ATOM     66  C   UNL A   1      46.644  28.039  36.173  1.00  0.00     0.059 A 
ATOM     67  C   UNL A   1      44.990  26.621  37.248  1.00  0.00     0.059 A 
ATOM     68  F   UNL A   1      42.714  26.932  36.781  1.00  0.00    -0.206 F 
ATOM     69  C   UNL A   1      46.319  26.983  37.027  1.00  0.00     0.060 A 
BRANCH  69  70
ATOM     70  S   UNL A   1      47.657  26.089  37.848  1.00  0.00     0.124 S 
ATOM     71  O   UNL A   1      47.044  25.767  39.132  1.00  0.00    -0.237 OA
ATOM     72  O   UNL A   1      47.876  24.960  36.949  1.00  0.00    -0.237 OA
ATOM     73  O   UNL A   1      48.739  27.068  37.897  1.00  0.00    -0.744 OA
ENDBRANCH  69  70
ENDBRANCH  48  62
BRANCH  49  74
ATOM     74  C   UNL A   1      36.839  32.966  30.878  1.00  0.00     0.058 A 
ATOM     75  C   UNL A   1      37.052  33.984  29.938  1.00  0.00     0.135 A 
ATOM     76  C   UNL A   1      35.515  32.572  31.127  1.00  0.00     0.135 A 
ATOM     77  F   UNL A   1      38.299  34.403  29.674  1.00  0.00    -0.206 F 
ATOM     78  C   UNL A   1      35.992  34.597  29.276  1.00  0.00     0.059 A 
ATOM     79  C   UNL A   1      34.441  33.152  30.462  1.00  0.00     0.059 A 
ATOM     80  F   UNL A   1      35.260  31.594  32.011  1.00  0.00    -0.206 F 
ATOM     81  C   UNL A   1      34.689  34.171  29.543  1.00  0.00     0.060 A 
BRANCH  81  82
ATOM     82  S   UNL A   1      33.325  34.938  28.641  1.00  0.00     0.124 S 
ATOM     83  O   UNL A   1      32.802  33.806  27.883  1.00  0.00    -0.237 OA
ATOM     84  O   UNL A   1      32.479  35.427  29.724  1.00  0.00    -0.237 OA
ATOM     85  O   UNL A   1      33.985  35.973  27.853  1.00  0.00    -0.744 OA
ENDBRANCH  81  82
ENDBRANCH  49  74
BRANCH  61  86
ATOM     86  C   UNL A   1      39.698  33.746  37.201  1.00  0.00     0.058 A 
ATOM     87  C   UNL A   1      38.835  33.369  38.242  1.00  0.00     0.135 A 
ATOM     88  C   UNL A   1      40.330  34.997  37.295  1.00  0.00     0.135 A 
ATOM     89  F   UNL A   1      38.199  32.187  38.195  1.00  0.00    -0.206 F 
ATOM     90  C   UNL A   1      38.599  34.203  39.329  1.00  0.00     0.059 A 
ATOM     91  C   UNL A   1      40.127  35.837  38.385  1.00  0.00     0.059 A 
ATOM     92  F   UNL A   1      41.171  35.403  36.331  1.00  0.00    -0.206 F 
ATOM     93  C   UNL A   1      39.253  35.436  39.394  1.00  0.00     0.060 A 
BRANCH  93  94
ATOM     94  S   UNL A   1      38.976  36.489  40.834  1.00  0.00     0.124 S 
ATOM     95  O   UNL A   1      38.484  37.714  40.212  1.00  0.00    -0.237 OA
ATOM     96  O   UNL A   1      37.992  35.726  41.595  1.00  0.00    -0.237 OA
ATOM     97  O   UNL A   1      40.297  36.582  41.447  1.00  0.00    -0.744 OA
ENDBRANCH  93  94
ENDBRANCH  61  86
ENDBRANCH  35  36
ENDBRANCH  28  30
ENDBRANCH  27  28
ENDBRANCH  26  27
ENDBRANCH   1  26
TORSDOF 20
ENDMDL
