MODEL 1
REMARK VINA RESULT:     -11.3      0.000      0.000
REMARK SMILES O=C(OCCOCCOC(=O)[C@@H]1CCCC[C@@H]1NS(=O)(=O)c1ccc2ccccc2c1)c1ccc(-c2c3nc(c(-c4c(F)cc(S(=O)(=O)[O-])cc4F)c4ccc([nH]4)c(-c4c(F)cc(S(=O)(=O)[O-])cc4F)c4nc(c(-c5c(F)cc(S(=O)(=O)[O-])cc5F)c5ccc2[nH]5)C=C4)C=C3)cc1
REMARK SMILES IDX 6 1 5 2 4 3 3 4 2 5 1 6 32 7 33 8 97 9 34 10 96 11 35 12
REMARK SMILES IDX 36 13 37 14 90 15 38 16 95 17 89 18 91 19 39 20 94 21 88 22
REMARK SMILES IDX 87 23 40 25 74 26 53 27 73 28 54 29 57 30 72 31 92 32 55 33
REMARK SMILES IDX 56 34 71 36 93 37 58 38 41 39 42 40 51 41 43 42 44 43 50 44
REMARK SMILES IDX 52 45 45 46 46 47 47 48 48 49 49 50 75 51 76 52 85 53 77 54
REMARK SMILES IDX 78 55 84 56 86 57 79 58 80 59 81 60 82 61 83 62 59 63 60 64
REMARK SMILES IDX 69 65 61 66 62 67 68 68 70 69 63 70 64 71 65 72 66 73 67 74
REMARK SMILES IDX 7 75 8 76 9 77 10 78 11 79 12 80 13 81 17 82 14 83 16 84
REMARK SMILES IDX 15 85 18 86 19 88 20 89 21 90 22 91 23 92 31 93 24 94 30 95
REMARK SMILES IDX 25 96 29 97 26 98 28 99 27 100
REMARK H PARENT 91 24 57 35 18 87
REMARK Flexibility Score: inf
ROOT
ATOM      1  O   UNL A   1      31.797  26.438  26.848  1.00  0.00    -0.374 OA
ENDROOT
BRANCH   1   2
ATOM      2  C   UNL A   1      32.893  27.308  26.566  1.00  0.00     0.202 C 
BRANCH   2   3
ATOM      3  C   UNL A   1      32.805  28.654  27.295  1.00  0.00     0.261 C 
BRANCH   3   4
ATOM      4  O   UNL A   1      33.976  29.447  27.039  1.00  0.00    -0.460 OA
BRANCH   4   5
ATOM      5  C   UNL A   1      34.741  30.143  27.915  1.00  0.00     0.338 C 
ATOM      6  O   UNL A   1      34.233  31.121  28.466  1.00  0.00    -0.246 OA
BRANCH   5   7
ATOM      7  C   UNL A   1      36.160  29.808  28.259  1.00  0.00     0.060 A 
ATOM      8  C   UNL A   1      36.603  29.325  29.490  1.00  0.00     0.016 A 
ATOM      9  C   UNL A   1      37.110  29.917  27.223  1.00  0.00     0.016 A 
ATOM     10  C   UNL A   1      37.927  28.986  29.707  1.00  0.00     0.010 A 
ATOM     11  C   UNL A   1      38.450  29.565  27.426  1.00  0.00     0.010 A 
ATOM     12  C   UNL A   1      38.858  29.108  28.681  1.00  0.00    -0.014 A 
BRANCH  12  13
ATOM     13  C   UNL A   1      40.260  28.849  29.040  1.00  0.00     0.031 A 
ATOM     14  C   UNL A   1      40.837  27.512  28.693  1.00  0.00     0.074 A 
ATOM     15  C   UNL A   1      41.028  29.879  29.441  1.00  0.00     0.049 A 
ATOM     16  N   UNL A   1      42.065  27.089  28.811  1.00  0.00    -0.248 NA
ATOM     17  C   UNL A   1      39.913  26.528  28.102  1.00  0.00     0.031 C 
ATOM     18  C   UNL A   1      40.549  31.247  29.662  1.00  0.00     0.029 A 
ATOM     19  N   UNL A   1      42.373  29.956  29.673  1.00  0.00    -0.354 N 
ATOM     20  C   UNL A   1      42.062  25.795  28.308  1.00  0.00     0.074 A 
ATOM     21  C   UNL A   1      40.711  25.494  27.894  1.00  0.00     0.031 C 
ATOM     22  C   UNL A   1      41.593  32.033  29.971  1.00  0.00     0.029 A 
ATOM     23  C   UNL A   1      42.800  31.216  30.020  1.00  0.00     0.049 A 
ATOM     24  H   UNL A   1      42.979  29.183  29.599  1.00  0.00     0.167 HD
ATOM     25  C   UNL A   1      43.104  24.938  28.208  1.00  0.00     0.037 A 
ATOM     26  C   UNL A   1      44.030  31.646  30.360  1.00  0.00     0.037 A 
ATOM     27  C   UNL A   1      44.430  25.263  28.656  1.00  0.00     0.049 A 
ATOM     28  C   UNL A   1      45.152  30.642  30.336  1.00  0.00     0.074 A 
ATOM     29  C   UNL A   1      45.544  24.450  28.739  1.00  0.00     0.029 A 
ATOM     30  N   UNL A   1      44.817  26.524  29.097  1.00  0.00    -0.354 N 
ATOM     31  N   UNL A   1      45.120  29.383  29.960  1.00  0.00    -0.248 NA
ATOM     32  C   UNL A   1      46.467  31.102  30.794  1.00  0.00     0.031 C 
ATOM     33  C   UNL A   1      46.597  25.212  29.258  1.00  0.00     0.029 A 
ATOM     34  C   UNL A   1      46.151  26.510  29.459  1.00  0.00     0.049 A 
ATOM     35  H   UNL A   1      44.228  27.311  29.144  1.00  0.00     0.167 HD
ATOM     36  C   UNL A   1      46.408  28.898  30.139  1.00  0.00     0.074 A 
ATOM     37  C   UNL A   1      47.202  30.012  30.623  1.00  0.00     0.031 C 
ATOM     38  C   UNL A   1      46.895  27.648  29.941  1.00  0.00     0.037 A 
BRANCH  25  39
ATOM     39  C   UNL A   1      42.813  23.572  27.662  1.00  0.00     0.058 A 
ATOM     40  C   UNL A   1      42.444  22.505  28.496  1.00  0.00     0.135 A 
ATOM     41  C   UNL A   1      42.949  23.314  26.289  1.00  0.00     0.135 A 
ATOM     42  F   UNL A   1      42.337  22.689  29.822  1.00  0.00    -0.206 F 
ATOM     43  C   UNL A   1      42.244  21.223  27.991  1.00  0.00     0.059 A 
ATOM     44  C   UNL A   1      42.736  22.045  25.759  1.00  0.00     0.059 A 
ATOM     45  F   UNL A   1      43.319  24.295  25.451  1.00  0.00    -0.206 F 
ATOM     46  C   UNL A   1      42.400  21.002  26.621  1.00  0.00     0.060 A 
BRANCH  46  47
ATOM     47  S   UNL A   1      42.165  19.329  25.983  1.00  0.00     0.124 S 
ATOM     48  O   UNL A   1      40.726  19.309  25.744  1.00  0.00    -0.237 OA
ATOM     49  O   UNL A   1      43.005  19.327  24.790  1.00  0.00    -0.237 OA
ATOM     50  O   UNL A   1      42.632  18.481  27.076  1.00  0.00    -0.744 OA
ENDBRANCH  46  47
ENDBRANCH  25  39
BRANCH  26  51
ATOM     51  C   UNL A   1      44.243  33.046  30.816  1.00  0.00     0.058 A 
ATOM     52  C   UNL A   1      44.073  33.428  32.155  1.00  0.00     0.135 A 
ATOM     53  C   UNL A   1      44.607  34.049  29.899  1.00  0.00     0.135 A 
ATOM     54  F   UNL A   1      43.719  32.514  33.073  1.00  0.00    -0.206 F 
ATOM     55  C   UNL A   1      44.230  34.751  32.565  1.00  0.00     0.059 A 
ATOM     56  C   UNL A   1      44.798  35.370  30.288  1.00  0.00     0.059 A 
ATOM     57  F   UNL A   1      44.794  33.742  28.606  1.00  0.00    -0.206 F 
ATOM     58  C   UNL A   1      44.588  35.717  31.621  1.00  0.00     0.060 A 
BRANCH  58  59
ATOM     59  S   UNL A   1      44.800  37.431  32.151  1.00  0.00     0.124 S 
ATOM     60  O   UNL A   1      46.225  37.633  31.919  1.00  0.00    -0.237 OA
ATOM     61  O   UNL A   1      43.899  38.147  31.255  1.00  0.00    -0.237 OA
ATOM     62  O   UNL A   1      44.385  37.400  33.551  1.00  0.00    -0.744 OA
ENDBRANCH  58  59
ENDBRANCH  26  51
BRANCH  38  63
ATOM     63  C   UNL A   1      48.348  27.439  30.245  1.00  0.00     0.058 A 
ATOM     64  C   UNL A   1      48.773  27.032  31.519  1.00  0.00     0.135 A 
ATOM     65  C   UNL A   1      49.316  27.610  29.244  1.00  0.00     0.135 A 
ATOM     66  F   UNL A   1      47.881  26.861  32.507  1.00  0.00    -0.206 F 
ATOM     67  C   UNL A   1      50.119  26.827  31.799  1.00  0.00     0.059 A 
ATOM     68  C   UNL A   1      50.664  27.386  29.496  1.00  0.00     0.059 A 
ATOM     69  F   UNL A   1      48.953  27.987  28.008  1.00  0.00    -0.206 F 
ATOM     70  C   UNL A   1      51.056  27.009  30.780  1.00  0.00     0.060 A 
BRANCH  70  71
ATOM     71  S   UNL A   1      52.798  26.717  31.146  1.00  0.00     0.124 S 
ATOM     72  O   UNL A   1      52.731  25.475  31.910  1.00  0.00    -0.237 OA
ATOM     73  O   UNL A   1      53.388  26.612  29.816  1.00  0.00    -0.237 OA
ATOM     74  O   UNL A   1      53.188  27.902  31.904  1.00  0.00    -0.744 OA
ENDBRANCH  70  71
ENDBRANCH  38  63
ENDBRANCH  12  13
ENDBRANCH   5   7
ENDBRANCH   4   5
ENDBRANCH   3   4
ENDBRANCH   2   3
ENDBRANCH   1   2
BRANCH   1  75
ATOM     75  C   UNL A   1      32.012  25.055  26.541  1.00  0.00     0.202 C 
BRANCH  75  76
ATOM     76  C   UNL A   1      30.844  24.536  25.716  1.00  0.00     0.261 C 
BRANCH  76  77
ATOM     77  O   UNL A   1      29.997  25.660  25.434  1.00  0.00    -0.463 OA
BRANCH  77  78
ATOM     78  C   UNL A   1      29.844  25.933  24.108  1.00  0.00     0.310 C 
ATOM     79  O   UNL A   1      29.651  25.113  23.223  1.00  0.00    -0.252 OA
BRANCH  78  80
ATOM     80  C   UNL A   1      29.977  27.420  23.877  1.00  0.00     0.117 C 
ATOM     81  C   UNL A   1      28.742  27.938  23.126  1.00  0.00     0.017 C 
ATOM     82  C   UNL A   1      31.313  27.737  23.182  1.00  0.00     0.084 C 
ATOM     83  C   UNL A   1      28.862  29.423  22.830  1.00  0.00     0.001 C 
ATOM     84  C   UNL A   1      31.371  29.212  22.764  1.00  0.00     0.021 C 
ATOM     85  C   UNL A   1      30.126  29.703  22.029  1.00  0.00     0.002 C 
BRANCH  82  86
ATOM     86  N   UNL A   1      31.530  26.818  22.053  1.00  0.00    -0.207 NA
ATOM     87  H   UNL A   1      31.217  27.327  21.227  1.00  0.00     0.141 HD
BRANCH  86  88
ATOM     88  S   UNL A   1      32.994  26.136  21.626  1.00  0.00     0.240 S 
ATOM     89  O   UNL A   1      32.784  25.564  20.315  1.00  0.00    -0.207 OA
ATOM     90  O   UNL A   1      34.028  27.118  21.861  1.00  0.00    -0.207 OA
BRANCH  88  91
ATOM     91  C   UNL A   1      33.333  24.776  22.720  1.00  0.00     0.083 A 
ATOM     92  C   UNL A   1      34.321  24.809  23.696  1.00  0.00     0.022 A 
ATOM     93  C   UNL A   1      32.602  23.600  22.517  1.00  0.00     0.030 A 
ATOM     94  C   UNL A   1      34.654  23.653  24.405  1.00  0.00     0.010 A 
ATOM     95  C   UNL A   1      32.904  22.437  23.244  1.00  0.00    -0.017 A 
ATOM     96  C   UNL A   1      33.967  22.454  24.176  1.00  0.00    -0.018 A 
ATOM     97  C   UNL A   1      32.183  21.250  23.051  1.00  0.00     0.009 A 
ATOM     98  C   UNL A   1      34.311  21.274  24.853  1.00  0.00     0.009 A 
ATOM     99  C   UNL A   1      32.527  20.087  23.742  1.00  0.00     0.001 A 
ATOM    100  C   UNL A   1      33.598  20.095  24.632  1.00  0.00     0.001 A 
ENDBRANCH  88  91
ENDBRANCH  86  88
ENDBRANCH  82  86
ENDBRANCH  78  80
ENDBRANCH  77  78
ENDBRANCH  76  77
ENDBRANCH  75  76
ENDBRANCH   1  75
TORSDOF 20
ENDMDL
MODEL 2
REMARK VINA RESULT:     -11.2      0.657      8.112
REMARK SMILES O=C(OCCOCCOC(=O)[C@@H]1CCCC[C@@H]1NS(=O)(=O)c1ccc2ccccc2c1)c1ccc(-c2c3nc(c(-c4c(F)cc(S(=O)(=O)[O-])cc4F)c4ccc([nH]4)c(-c4c(F)cc(S(=O)(=O)[O-])cc4F)c4nc(c(-c5c(F)cc(S(=O)(=O)[O-])cc5F)c5ccc2[nH]5)C=C4)C=C3)cc1
REMARK SMILES IDX 6 1 5 2 4 3 3 4 2 5 1 6 32 7 33 8 97 9 34 10 96 11 35 12
REMARK SMILES IDX 36 13 37 14 90 15 38 16 95 17 89 18 91 19 39 20 94 21 88 22
REMARK SMILES IDX 87 23 40 25 74 26 53 27 73 28 54 29 57 30 72 31 92 32 55 33
REMARK SMILES IDX 56 34 71 36 93 37 58 38 41 39 42 40 51 41 43 42 44 43 50 44
REMARK SMILES IDX 52 45 45 46 46 47 47 48 48 49 49 50 75 51 76 52 85 53 77 54
REMARK SMILES IDX 78 55 84 56 86 57 79 58 80 59 81 60 82 61 83 62 59 63 60 64
REMARK SMILES IDX 69 65 61 66 62 67 68 68 70 69 63 70 64 71 65 72 66 73 67 74
REMARK SMILES IDX 7 75 8 76 9 77 10 78 11 79 12 80 13 81 17 82 14 83 16 84
REMARK SMILES IDX 15 85 18 86 19 88 20 89 21 90 22 91 23 92 31 93 24 94 30 95
REMARK SMILES IDX 25 96 29 97 26 98 28 99 27 100
REMARK H PARENT 91 24 57 35 18 87
REMARK Flexibility Score: inf
ROOT
ATOM      1  O   UNL A   1      31.115  27.108  27.258  1.00  0.00    -0.374 OA
ENDROOT
BRANCH   1   2
ATOM      2  C   UNL A   1      31.488  28.486  27.309  1.00  0.00     0.202 C 
BRANCH   2   3
ATOM      3  C   UNL A   1      32.854  28.770  26.676  1.00  0.00     0.261 C 
BRANCH   3   4
ATOM      4  O   UNL A   1      33.872  28.862  27.686  1.00  0.00    -0.460 OA
BRANCH   4   5
ATOM      5  C   UNL A   1      34.777  29.849  27.898  1.00  0.00     0.338 C 
ATOM      6  O   UNL A   1      34.360  31.008  27.934  1.00  0.00    -0.246 OA
BRANCH   5   7
ATOM      7  C   UNL A   1      36.247  29.631  28.089  1.00  0.00     0.060 A 
ATOM      8  C   UNL A   1      37.231  29.856  27.127  1.00  0.00     0.016 A 
ATOM      9  C   UNL A   1      36.671  29.243  29.375  1.00  0.00     0.016 A 
ATOM     10  C   UNL A   1      38.576  29.683  27.404  1.00  0.00     0.010 A 
ATOM     11  C   UNL A   1      38.030  29.077  29.672  1.00  0.00     0.010 A 
ATOM     12  C   UNL A   1      38.982  29.288  28.674  1.00  0.00    -0.014 A 
BRANCH  12  13
ATOM     13  C   UNL A   1      40.416  29.005  28.839  1.00  0.00     0.031 A 
ATOM     14  C   UNL A   1      41.245  29.997  29.595  1.00  0.00     0.074 A 
ATOM     15  C   UNL A   1      40.876  27.781  28.523  1.00  0.00     0.049 A 
ATOM     16  N   UNL A   1      42.494  29.920  29.959  1.00  0.00    -0.248 NA
ATOM     17  C   UNL A   1      40.563  31.230  30.030  1.00  0.00     0.031 C 
ATOM     18  C   UNL A   1      40.076  26.716  27.909  1.00  0.00     0.029 A 
ATOM     19  N   UNL A   1      42.099  27.203  28.725  1.00  0.00    -0.354 N 
ATOM     20  C   UNL A   1      42.749  31.088  30.664  1.00  0.00     0.074 A 
ATOM     21  C   UNL A   1      41.531  31.865  30.671  1.00  0.00     0.031 C 
ATOM     22  C   UNL A   1      40.824  25.606  27.812  1.00  0.00     0.029 A 
ATOM     23  C   UNL A   1      42.166  25.895  28.306  1.00  0.00     0.049 A 
ATOM     24  H   UNL A   1      42.860  27.679  29.132  1.00  0.00     0.167 HD
ATOM     25  C   UNL A   1      43.906  31.470  31.251  1.00  0.00     0.037 A 
ATOM     26  C   UNL A   1      43.208  25.043  28.306  1.00  0.00     0.037 A 
ATOM     27  C   UNL A   1      45.107  30.683  31.201  1.00  0.00     0.049 A 
ATOM     28  C   UNL A   1      44.512  25.535  28.875  1.00  0.00     0.074 A 
ATOM     29  C   UNL A   1      46.378  31.008  31.633  1.00  0.00     0.029 A 
ATOM     30  N   UNL A   1      45.173  29.395  30.682  1.00  0.00    -0.354 N 
ATOM     31  N   UNL A   1      44.776  26.688  29.447  1.00  0.00    -0.248 NA
ATOM     32  C   UNL A   1      45.661  24.627  28.787  1.00  0.00     0.031 C 
ATOM     33  C   UNL A   1      47.220  29.926  31.348  1.00  0.00     0.029 A 
ATOM     34  C   UNL A   1      46.465  28.912  30.777  1.00  0.00     0.049 A 
ATOM     35  H   UNL A   1      44.412  28.899  30.303  1.00  0.00     0.167 HD
ATOM     36  C   UNL A   1      46.122  26.647  29.785  1.00  0.00     0.074 A 
ATOM     37  C   UNL A   1      46.607  25.340  29.384  1.00  0.00     0.031 C 
ATOM     38  C   UNL A   1      46.897  27.602  30.358  1.00  0.00     0.037 A 
BRANCH  25  39
ATOM     39  C   UNL A   1      43.920  32.813  31.919  1.00  0.00     0.058 A 
ATOM     40  C   UNL A   1      43.631  32.964  33.285  1.00  0.00     0.135 A 
ATOM     41  C   UNL A   1      44.180  33.974  31.173  1.00  0.00     0.135 A 
ATOM     42  F   UNL A   1      43.337  31.890  34.036  1.00  0.00    -0.206 F 
ATOM     43  C   UNL A   1      43.576  34.220  33.882  1.00  0.00     0.059 A 
ATOM     44  C   UNL A   1      44.148  35.238  31.752  1.00  0.00     0.059 A 
ATOM     45  F   UNL A   1      44.442  33.886  29.859  1.00  0.00    -0.206 F 
ATOM     46  C   UNL A   1      43.830  35.352  33.104  1.00  0.00     0.060 A 
BRANCH  46  47
ATOM     47  S   UNL A   1      43.727  36.978  33.885  1.00  0.00     0.124 S 
ATOM     48  O   UNL A   1      43.814  37.862  32.726  1.00  0.00    -0.237 OA
ATOM     49  O   UNL A   1      42.428  36.928  34.546  1.00  0.00    -0.237 OA
ATOM     50  O   UNL A   1      44.882  36.999  34.778  1.00  0.00    -0.744 OA
ENDBRANCH  46  47
ENDBRANCH  25  39
BRANCH  26  51
ATOM     51  C   UNL A   1      43.082  23.693  27.691  1.00  0.00     0.058 A 
ATOM     52  C   UNL A   1      43.413  23.452  26.349  1.00  0.00     0.135 A 
ATOM     53  C   UNL A   1      42.600  22.608  28.443  1.00  0.00     0.135 A 
ATOM     54  F   UNL A   1      43.872  24.453  25.581  1.00  0.00    -0.206 F 
ATOM     55  C   UNL A   1      43.248  22.195  25.769  1.00  0.00     0.059 A 
ATOM     56  C   UNL A   1      42.454  21.338  27.896  1.00  0.00     0.059 A 
ATOM     57  F   UNL A   1      42.276  22.775  29.735  1.00  0.00    -0.206 F 
ATOM     58  C   UNL A   1      42.762  21.145  26.551  1.00  0.00     0.060 A 
BRANCH  58  59
ATOM     59  S   UNL A   1      42.555  19.513  25.804  1.00  0.00     0.124 S 
ATOM     60  O   UNL A   1      42.987  18.639  26.888  1.00  0.00    -0.237 OA
ATOM     61  O   UNL A   1      41.129  19.491  25.495  1.00  0.00    -0.237 OA
ATOM     62  O   UNL A   1      43.439  19.564  24.643  1.00  0.00    -0.744 OA
ENDBRANCH  58  59
ENDBRANCH  26  51
BRANCH  38  63
ATOM     63  C   UNL A   1      48.337  27.250  30.580  1.00  0.00     0.058 A 
ATOM     64  C   UNL A   1      49.304  27.482  29.591  1.00  0.00     0.135 A 
ATOM     65  C   UNL A   1      48.757  26.713  31.807  1.00  0.00     0.135 A 
ATOM     66  F   UNL A   1      48.946  27.990  28.401  1.00  0.00    -0.206 F 
ATOM     67  C   UNL A   1      50.641  27.167  29.801  1.00  0.00     0.059 A 
ATOM     68  C   UNL A   1      50.092  26.415  32.047  1.00  0.00     0.059 A 
ATOM     69  F   UNL A   1      47.867  26.487  32.786  1.00  0.00    -0.206 F 
ATOM     70  C   UNL A   1      51.024  26.631  31.032  1.00  0.00     0.060 A 
BRANCH  70  71
ATOM     71  S   UNL A   1      52.765  26.249  31.305  1.00  0.00     0.124 S 
ATOM     72  O   UNL A   1      53.155  27.307  32.232  1.00  0.00    -0.237 OA
ATOM     73  O   UNL A   1      52.710  24.903  31.866  1.00  0.00    -0.237 OA
ATOM     74  O   UNL A   1      53.344  26.339  29.968  1.00  0.00    -0.744 OA
ENDBRANCH  70  71
ENDBRANCH  38  63
ENDBRANCH  12  13
ENDBRANCH   5   7
ENDBRANCH   4   5
ENDBRANCH   3   4
ENDBRANCH   2   3
ENDBRANCH   1   2
BRANCH   1  75
ATOM     75  C   UNL A   1      32.029  26.247  26.567  1.00  0.00     0.202 C 
BRANCH  75  76
ATOM     76  C   UNL A   1      31.252  25.125  25.896  1.00  0.00     0.261 C 
BRANCH  76  77
ATOM     77  O   UNL A   1      29.994  25.677  25.479  1.00  0.00    -0.463 OA
BRANCH  77  78
ATOM     78  C   UNL A   1      29.893  25.905  24.139  1.00  0.00     0.310 C 
ATOM     79  O   UNL A   1      29.782  25.052  23.271  1.00  0.00    -0.252 OA
BRANCH  78  80
ATOM     80  C   UNL A   1      29.969  27.389  23.869  1.00  0.00     0.117 C 
ATOM     81  C   UNL A   1      28.720  27.837  23.096  1.00  0.00     0.017 C 
ATOM     82  C   UNL A   1      31.296  27.743  23.176  1.00  0.00     0.084 C 
ATOM     83  C   UNL A   1      28.781  29.318  22.762  1.00  0.00     0.001 C 
ATOM     84  C   UNL A   1      31.297  29.207  22.720  1.00  0.00     0.021 C 
ATOM     85  C   UNL A   1      30.040  29.628  21.964  1.00  0.00     0.002 C 
BRANCH  82  86
ATOM     86  N   UNL A   1      31.559  26.804  22.074  1.00  0.00    -0.207 NA
ATOM     87  H   UNL A   1      31.234  27.278  21.232  1.00  0.00     0.141 HD
BRANCH  86  88
ATOM     88  S   UNL A   1      33.052  26.169  21.677  1.00  0.00     0.240 S 
ATOM     89  O   UNL A   1      32.898  25.625  20.346  1.00  0.00    -0.207 OA
ATOM     90  O   UNL A   1      34.053  27.170  21.969  1.00  0.00    -0.207 OA
BRANCH  88  91
ATOM     91  C   UNL A   1      33.391  24.790  22.747  1.00  0.00     0.083 A 
ATOM     92  C   UNL A   1      34.373  24.809  23.730  1.00  0.00     0.022 A 
ATOM     93  C   UNL A   1      32.667  23.615  22.518  1.00  0.00     0.030 A 
ATOM     94  C   UNL A   1      34.707  23.641  24.420  1.00  0.00     0.010 A 
ATOM     95  C   UNL A   1      32.970  22.439  23.225  1.00  0.00    -0.017 A 
ATOM     96  C   UNL A   1      34.027  22.444  24.163  1.00  0.00    -0.018 A 
ATOM     97  C   UNL A   1      32.256  21.253  23.005  1.00  0.00     0.009 A 
ATOM     98  C   UNL A   1      34.373  21.253  24.821  1.00  0.00     0.009 A 
ATOM     99  C   UNL A   1      32.601  20.079  23.677  1.00  0.00     0.001 A 
ATOM    100  C   UNL A   1      33.667  20.075  24.573  1.00  0.00     0.001 A 
ENDBRANCH  88  91
ENDBRANCH  86  88
ENDBRANCH  82  86
ENDBRANCH  78  80
ENDBRANCH  77  78
ENDBRANCH  76  77
ENDBRANCH  75  76
ENDBRANCH   1  75
TORSDOF 20
ENDMDL
MODEL 3
REMARK VINA RESULT:     -11.0      5.050     10.022
REMARK SMILES O=C(OCCOCCOC(=O)[C@@H]1CCCC[C@@H]1NS(=O)(=O)c1ccc2ccccc2c1)c1ccc(-c2c3nc(c(-c4c(F)cc(S(=O)(=O)[O-])cc4F)c4ccc([nH]4)c(-c4c(F)cc(S(=O)(=O)[O-])cc4F)c4nc(c(-c5c(F)cc(S(=O)(=O)[O-])cc5F)c5ccc2[nH]5)C=C4)C=C3)cc1
REMARK SMILES IDX 6 1 5 2 4 3 3 4 2 5 1 6 32 7 33 8 97 9 34 10 96 11 35 12
REMARK SMILES IDX 36 13 37 14 90 15 38 16 95 17 89 18 91 19 39 20 94 21 88 22
REMARK SMILES IDX 87 23 40 25 74 26 53 27 73 28 54 29 57 30 72 31 92 32 55 33
REMARK SMILES IDX 56 34 71 36 93 37 58 38 41 39 42 40 51 41 43 42 44 43 50 44
REMARK SMILES IDX 52 45 45 46 46 47 47 48 48 49 49 50 75 51 76 52 85 53 77 54
REMARK SMILES IDX 78 55 84 56 86 57 79 58 80 59 81 60 82 61 83 62 59 63 60 64
REMARK SMILES IDX 69 65 61 66 62 67 68 68 70 69 63 70 64 71 65 72 66 73 67 74
REMARK SMILES IDX 7 75 8 76 9 77 10 78 11 79 12 80 13 81 17 82 14 83 16 84
REMARK SMILES IDX 15 85 18 86 19 88 20 89 21 90 22 91 23 92 31 93 24 94 30 95
REMARK SMILES IDX 25 96 29 97 26 98 28 99 27 100
REMARK H PARENT 91 24 57 35 18 87
REMARK Flexibility Score: inf
ROOT
ATOM      1  O   UNL A   1      39.751  21.506  26.737  1.00  0.00    -0.374 OA
ENDROOT
BRANCH   1   2
ATOM      2  C   UNL A   1      41.133  21.513  26.376  1.00  0.00     0.202 C 
BRANCH   2   3
ATOM      3  C   UNL A   1      41.762  22.910  26.408  1.00  0.00     0.261 C 
BRANCH   3   4
ATOM      4  O   UNL A   1      40.746  23.926  26.380  1.00  0.00    -0.460 OA
BRANCH   4   5
ATOM      5  C   UNL A   1      40.888  25.273  26.383  1.00  0.00     0.338 C 
ATOM      6  O   UNL A   1      41.184  25.820  25.319  1.00  0.00    -0.246 OA
BRANCH   5   7
ATOM      7  C   UNL A   1      40.711  26.146  27.588  1.00  0.00     0.060 A 
ATOM      8  C   UNL A   1      39.732  25.984  28.569  1.00  0.00     0.016 A 
ATOM      9  C   UNL A   1      41.664  27.164  27.784  1.00  0.00     0.016 A 
ATOM     10  C   UNL A   1      39.673  26.802  29.683  1.00  0.00     0.010 A 
ATOM     11  C   UNL A   1      41.624  27.990  28.914  1.00  0.00     0.010 A 
ATOM     12  C   UNL A   1      40.613  27.811  29.860  1.00  0.00    -0.014 A 
BRANCH  12  13
ATOM     13  C   UNL A   1      40.395  28.710  31.003  1.00  0.00     0.031 A 
ATOM     14  C   UNL A   1      41.371  28.652  32.138  1.00  0.00     0.074 A 
ATOM     15  C   UNL A   1      39.488  29.698  30.888  1.00  0.00     0.049 A 
ATOM     16  N   UNL A   1      41.450  29.410  33.195  1.00  0.00    -0.248 NA
ATOM     17  C   UNL A   1      42.421  27.622  32.051  1.00  0.00     0.031 C 
ATOM     18  C   UNL A   1      38.600  29.892  29.737  1.00  0.00     0.029 A 
ATOM     19  N   UNL A   1      39.204  30.754  31.709  1.00  0.00    -0.354 N 
ATOM     20  C   UNL A   1      42.556  28.952  33.899  1.00  0.00     0.074 A 
ATOM     21  C   UNL A   1      43.112  27.844  33.157  1.00  0.00     0.031 C 
ATOM     22  C   UNL A   1      37.890  31.017  29.917  1.00  0.00     0.029 A 
ATOM     23  C   UNL A   1      38.234  31.592  31.212  1.00  0.00     0.049 A 
ATOM     24  H   UNL A   1      39.652  30.900  32.575  1.00  0.00     0.167 HD
ATOM     25  C   UNL A   1      43.054  29.422  35.065  1.00  0.00     0.037 A 
ATOM     26  C   UNL A   1      37.678  32.687  31.762  1.00  0.00     0.037 A 
ATOM     27  C   UNL A   1      42.457  30.510  35.789  1.00  0.00     0.049 A 
ATOM     28  C   UNL A   1      38.186  33.126  33.110  1.00  0.00     0.074 A 
ATOM     29  C   UNL A   1      42.775  30.998  37.042  1.00  0.00     0.029 A 
ATOM     30  N   UNL A   1      41.409  31.285  35.307  1.00  0.00    -0.354 N 
ATOM     31  N   UNL A   1      39.166  32.619  33.824  1.00  0.00    -0.248 NA
ATOM     32  C   UNL A   1      37.509  34.268  33.737  1.00  0.00     0.031 C 
ATOM     33  C   UNL A   1      41.898  32.052  37.329  1.00  0.00     0.029 A 
ATOM     34  C   UNL A   1      41.062  32.245  36.239  1.00  0.00     0.049 A 
ATOM     35  H   UNL A   1      40.976  31.168  34.431  1.00  0.00     0.167 HD
ATOM     36  C   UNL A   1      39.223  33.377  34.985  1.00  0.00     0.074 A 
ATOM     37  C   UNL A   1      38.201  34.399  34.861  1.00  0.00     0.031 C 
ATOM     38  C   UNL A   1      40.031  33.238  36.067  1.00  0.00     0.037 A 
BRANCH  25  39
ATOM     39  C   UNL A   1      44.245  28.709  35.634  1.00  0.00     0.058 A 
ATOM     40  C   UNL A   1      44.106  27.614  36.501  1.00  0.00     0.135 A 
ATOM     41  C   UNL A   1      45.544  29.155  35.344  1.00  0.00     0.135 A 
ATOM     42  F   UNL A   1      42.885  27.171  36.842  1.00  0.00    -0.206 F 
ATOM     43  C   UNL A   1      45.213  27.001  37.081  1.00  0.00     0.059 A 
ATOM     44  C   UNL A   1      46.666  28.547  35.897  1.00  0.00     0.059 A 
ATOM     45  F   UNL A   1      45.730  30.210  34.535  1.00  0.00    -0.206 F 
ATOM     46  C   UNL A   1      46.490  27.480  36.778  1.00  0.00     0.060 A 
BRANCH  46  47
ATOM     47  S   UNL A   1      47.917  26.695  37.559  1.00  0.00     0.124 S 
ATOM     48  O   UNL A   1      49.011  27.196  36.733  1.00  0.00    -0.237 OA
ATOM     49  O   UNL A   1      47.858  27.220  38.919  1.00  0.00    -0.237 OA
ATOM     50  O   UNL A   1      47.633  25.269  37.427  1.00  0.00    -0.744 OA
ENDBRANCH  46  47
ENDBRANCH  25  39
BRANCH  26  51
ATOM     51  C   UNL A   1      36.549  33.383  31.087  1.00  0.00     0.058 A 
ATOM     52  C   UNL A   1      35.223  33.254  31.528  1.00  0.00     0.135 A 
ATOM     53  C   UNL A   1      36.778  34.187  29.956  1.00  0.00     0.135 A 
ATOM     54  F   UNL A   1      34.944  32.494  32.599  1.00  0.00    -0.206 F 
ATOM     55  C   UNL A   1      34.166  33.872  30.861  1.00  0.00     0.059 A 
ATOM     56  C   UNL A   1      35.745  34.838  29.292  1.00  0.00     0.059 A 
ATOM     57  F   UNL A   1      38.026  34.356  29.494  1.00  0.00    -0.206 F 
ATOM     58  C   UNL A   1      34.438  34.659  29.740  1.00  0.00     0.060 A 
BRANCH  58  59
ATOM     59  S   UNL A   1      33.071  35.468  28.879  1.00  0.00     0.124 S 
ATOM     60  O   UNL A   1      33.775  36.486  28.107  1.00  0.00    -0.237 OA
ATOM     61  O   UNL A   1      32.493  34.370  28.111  1.00  0.00    -0.237 OA
ATOM     62  O   UNL A   1      32.239  35.966  29.970  1.00  0.00    -0.744 OA
ENDBRANCH  58  59
ENDBRANCH  26  51
BRANCH  38  63
ATOM     63  C   UNL A   1      39.831  34.220  37.182  1.00  0.00     0.058 A 
ATOM     64  C   UNL A   1      39.056  33.898  38.306  1.00  0.00     0.135 A 
ATOM     65  C   UNL A   1      40.451  35.479  37.141  1.00  0.00     0.135 A 
ATOM     66  F   UNL A   1      38.441  32.707  38.384  1.00  0.00    -0.206 F 
ATOM     67  C   UNL A   1      38.880  34.803  39.345  1.00  0.00     0.059 A 
ATOM     68  C   UNL A   1      40.308  36.389  38.180  1.00  0.00     0.059 A 
ATOM     69  F   UNL A   1      41.211  35.824  36.090  1.00  0.00    -0.206 F 
ATOM     70  C   UNL A   1      39.509  36.048  39.270  1.00  0.00     0.060 A 
BRANCH  70  71
ATOM     71  S   UNL A   1      39.295  37.208  40.635  1.00  0.00     0.124 S 
ATOM     72  O   UNL A   1      40.644  37.748  40.773  1.00  0.00    -0.237 OA
ATOM     73  O   UNL A   1      38.293  38.130  40.113  1.00  0.00    -0.237 OA
ATOM     74  O   UNL A   1      38.843  36.358  41.733  1.00  0.00    -0.744 OA
ENDBRANCH  70  71
ENDBRANCH  38  63
ENDBRANCH  12  13
ENDBRANCH   5   7
ENDBRANCH   4   5
ENDBRANCH   3   4
ENDBRANCH   2   3
ENDBRANCH   1   2
BRANCH   1  75
ATOM     75  C   UNL A   1      38.852  21.034  25.726  1.00  0.00     0.202 C 
BRANCH  75  76
ATOM     76  C   UNL A   1      37.821  22.113  25.428  1.00  0.00     0.261 C 
BRANCH  76  77
ATOM     77  O   UNL A   1      36.600  21.441  25.080  1.00  0.00    -0.463 OA
BRANCH  77  78
ATOM     78  C   UNL A   1      35.522  21.806  25.828  1.00  0.00     0.310 C 
ATOM     79  O   UNL A   1      35.469  22.752  26.599  1.00  0.00    -0.252 OA
BRANCH  78  80
ATOM     80  C   UNL A   1      34.386  20.839  25.587  1.00  0.00     0.117 C 
ATOM     81  C   UNL A   1      34.913  19.597  24.855  1.00  0.00     0.017 C 
ATOM     82  C   UNL A   1      33.223  21.546  24.868  1.00  0.00     0.084 C 
ATOM     83  C   UNL A   1      33.789  18.621  24.549  1.00  0.00     0.001 C 
ATOM     84  C   UNL A   1      32.153  20.533  24.442  1.00  0.00     0.021 C 
ATOM     85  C   UNL A   1      32.705  19.303  23.726  1.00  0.00     0.002 C 
BRANCH  82  86
ATOM     86  N   UNL A   1      33.733  22.343  23.741  1.00  0.00    -0.207 NA
ATOM     87  H   UNL A   1      33.946  21.667  23.008  1.00  0.00     0.141 HD
BRANCH  86  88
ATOM     88  S   UNL A   1      32.908  23.579  22.978  1.00  0.00     0.240 S 
ATOM     89  O   UNL A   1      33.602  23.790  21.727  1.00  0.00    -0.207 OA
ATOM     90  O   UNL A   1      31.499  23.262  23.012  1.00  0.00    -0.207 OA
BRANCH  88  91
ATOM     91  C   UNL A   1      33.112  25.072  23.923  1.00  0.00     0.083 A 
ATOM     92  C   UNL A   1      34.026  25.199  24.962  1.00  0.00     0.022 A 
ATOM     93  C   UNL A   1      32.245  26.131  23.632  1.00  0.00     0.030 A 
ATOM     94  C   UNL A   1      34.018  26.335  25.776  1.00  0.00     0.010 A 
ATOM     95  C   UNL A   1      32.245  27.292  24.423  1.00  0.00    -0.017 A 
ATOM     96  C   UNL A   1      33.119  27.381  25.529  1.00  0.00    -0.018 A 
ATOM     97  C   UNL A   1      31.381  28.362  24.146  1.00  0.00     0.009 A 
ATOM     98  C   UNL A   1      33.073  28.513  26.358  1.00  0.00     0.009 A 
ATOM     99  C   UNL A   1      31.356  29.488  24.970  1.00  0.00     0.001 A 
ATOM    100  C   UNL A   1      32.190  29.558  26.082  1.00  0.00     0.001 A 
ENDBRANCH  88  91
ENDBRANCH  86  88
ENDBRANCH  82  86
ENDBRANCH  78  80
ENDBRANCH  77  78
ENDBRANCH  76  77
ENDBRANCH  75  76
ENDBRANCH   1  75
TORSDOF 20
ENDMDL
