MODEL 1
REMARK VINA RESULT:      -9.6      0.000      0.000
REMARK SMILES O=C(OCCOCCOC(=O)c1ccccc1C(=O)Nc1ccc(N2C(=O)[C@H]3[C@@H]4CC[C@@H](C4)[C@@H]3C2=O)cc1)c1ccc(-c2c3nc(c(-c4c(F)cc(S(=O)(=O)[O-])cc4F)c4ccc([nH]4)c(-c4c(F)cc(S(=O)(=O)[O-])cc4F)c4nc(c(-c5c(F)cc(S(=O)(=O)[O-])cc5F)c5ccc2[nH]5)C=C4)C=C3)cc1
REMARK SMILES IDX 6 1 5 2 4 3 3 4 2 5 1 6 39 7 40 8 104 9 41 10 103 11 42 12
REMARK SMILES IDX 43 13 44 14 97 15 45 16 102 17 96 18 98 19 46 20 101 21
REMARK SMILES IDX 95 22 94 23 47 25 81 26 60 27 80 28 61 29 64 30 79 31 99 32
REMARK SMILES IDX 62 33 63 34 78 36 100 37 65 38 48 39 49 40 58 41 50 42 51 43
REMARK SMILES IDX 57 44 59 45 52 46 53 47 54 48 55 49 56 50 82 51 83 52 92 53
REMARK SMILES IDX 84 54 85 55 91 56 93 57 86 58 87 59 88 60 89 61 90 62 66 63
REMARK SMILES IDX 67 64 76 65 68 66 69 67 75 68 77 69 70 70 71 71 72 72 73 73
REMARK SMILES IDX 74 74 7 75 8 76 9 77 10 78 11 79 12 80 13 81 17 82 14 83
REMARK SMILES IDX 16 84 15 85 18 86 19 87 20 88 21 90 22 91 38 92 23 93 37 94
REMARK SMILES IDX 24 95 25 96 26 97 35 98 27 99 28 100 34 101 36 102 29 103
REMARK SMILES IDX 32 104 30 105 33 106 31 107
REMARK H PARENT 98 24 64 35 20 89
REMARK Flexibility Score: inf
ROOT
ATOM      1  O   UNL A   1      45.123  23.360  26.226  1.00  0.00    -0.374 OA
ENDROOT
BRANCH   1   2
ATOM      2  C   UNL A   1      44.524  22.933  24.998  1.00  0.00     0.202 C 
BRANCH   2   3
ATOM      3  C   UNL A   1      43.162  22.291  25.235  1.00  0.00     0.261 C 
BRANCH   3   4
ATOM      4  O   UNL A   1      42.182  23.331  25.350  1.00  0.00    -0.460 OA
BRANCH   4   5
ATOM      5  C   UNL A   1      41.082  23.009  26.086  1.00  0.00     0.338 C 
ATOM      6  O   UNL A   1      40.500  21.953  26.142  1.00  0.00    -0.246 OA
BRANCH   5   7
ATOM      7  C   UNL A   1      40.675  24.269  26.738  1.00  0.00     0.060 A 
ATOM      8  C   UNL A   1      41.361  25.433  26.388  1.00  0.00     0.016 A 
ATOM      9  C   UNL A   1      39.736  24.282  27.765  1.00  0.00     0.016 A 
ATOM     10  C   UNL A   1      41.225  26.566  27.161  1.00  0.00     0.010 A 
ATOM     11  C   UNL A   1      39.579  25.449  28.526  1.00  0.00     0.010 A 
ATOM     12  C   UNL A   1      40.391  26.573  28.282  1.00  0.00    -0.014 A 
BRANCH  12  13
ATOM     13  C   UNL A   1      40.594  27.652  29.291  1.00  0.00     0.031 A 
ATOM     14  C   UNL A   1      41.907  27.710  30.039  1.00  0.00     0.074 A 
ATOM     15  C   UNL A   1      39.758  28.709  29.358  1.00  0.00     0.049 A 
ATOM     16  N   UNL A   1      42.285  28.531  30.984  1.00  0.00    -0.248 NA
ATOM     17  C   UNL A   1      42.949  26.750  29.635  1.00  0.00     0.031 C 
ATOM     18  C   UNL A   1      38.554  28.888  28.542  1.00  0.00     0.029 A 
ATOM     19  N   UNL A   1      39.829  29.866  30.094  1.00  0.00    -0.354 N 
ATOM     20  C   UNL A   1      43.592  28.176  31.298  1.00  0.00     0.074 A 
ATOM     21  C   UNL A   1      43.938  27.048  30.463  1.00  0.00     0.031 C 
ATOM     22  C   UNL A   1      38.050  30.111  28.763  1.00  0.00     0.029 A 
ATOM     23  C   UNL A   1      38.801  30.744  29.841  1.00  0.00     0.049 A 
ATOM     24  H   UNL A   1      40.548  30.050  30.741  1.00  0.00     0.167 HD
ATOM     25  C   UNL A   1      44.441  28.751  32.181  1.00  0.00     0.037 A 
ATOM     26  C   UNL A   1      38.453  31.893  30.455  1.00  0.00     0.037 A 
ATOM     27  C   UNL A   1      44.111  29.893  32.986  1.00  0.00     0.049 A 
ATOM     28  C   UNL A   1      39.280  32.361  31.622  1.00  0.00     0.074 A 
ATOM     29  C   UNL A   1      44.857  30.489  33.987  1.00  0.00     0.029 A 
ATOM     30  N   UNL A   1      42.938  30.622  32.869  1.00  0.00    -0.354 N 
ATOM     31  N   UNL A   1      40.439  31.911  32.043  1.00  0.00    -0.248 NA
ATOM     32  C   UNL A   1      38.726  33.452  32.434  1.00  0.00     0.031 C 
ATOM     33  C   UNL A   1      44.109  31.549  34.511  1.00  0.00     0.029 A 
ATOM     34  C   UNL A   1      42.919  31.640  33.806  1.00  0.00     0.049 A 
ATOM     35  H   UNL A   1      42.223  30.441  32.218  1.00  0.00     0.167 HD
ATOM     36  C   UNL A   1      40.751  32.663  33.169  1.00  0.00     0.074 A 
ATOM     37  C   UNL A   1      39.672  33.612  33.350  1.00  0.00     0.031 C 
ATOM     38  C   UNL A   1      41.831  32.569  33.984  1.00  0.00     0.037 A 
BRANCH  25  39
ATOM     39  C   UNL A   1      45.780  28.097  32.363  1.00  0.00     0.058 A 
ATOM     40  C   UNL A   1      46.876  28.407  31.544  1.00  0.00     0.135 A 
ATOM     41  C   UNL A   1      45.951  27.121  33.357  1.00  0.00     0.135 A 
ATOM     42  F   UNL A   1      46.752  29.309  30.558  1.00  0.00    -0.206 F 
ATOM     43  C   UNL A   1      48.093  27.747  31.689  1.00  0.00     0.059 A 
ATOM     44  C   UNL A   1      47.164  26.463  33.531  1.00  0.00     0.059 A 
ATOM     45  F   UNL A   1      44.927  26.784  34.156  1.00  0.00    -0.206 F 
ATOM     46  C   UNL A   1      48.224  26.771  32.680  1.00  0.00     0.060 A 
BRANCH  46  47
ATOM     47  S   UNL A   1      49.795  25.893  32.827  1.00  0.00     0.124 S 
ATOM     48  O   UNL A   1      49.697  24.938  31.727  1.00  0.00    -0.237 OA
ATOM     49  O   UNL A   1      50.768  26.966  32.649  1.00  0.00    -0.237 OA
ATOM     50  O   UNL A   1      49.739  25.315  34.165  1.00  0.00    -0.744 OA
ENDBRANCH  46  47
ENDBRANCH  25  39
BRANCH  26  51
ATOM     51  C   UNL A   1      37.196  32.599  30.073  1.00  0.00     0.058 A 
ATOM     52  C   UNL A   1      37.195  33.682  29.183  1.00  0.00     0.135 A 
ATOM     53  C   UNL A   1      35.959  32.206  30.614  1.00  0.00     0.135 A 
ATOM     54  F   UNL A   1      38.350  34.126  28.664  1.00  0.00    -0.206 F 
ATOM     55  C   UNL A   1      36.017  34.345  28.840  1.00  0.00     0.059 A 
ATOM     56  C   UNL A   1      34.767  32.826  30.260  1.00  0.00     0.059 A 
ATOM     57  F   UNL A   1      35.897  31.185  31.485  1.00  0.00    -0.206 F 
ATOM     58  C   UNL A   1      34.807  33.905  29.380  1.00  0.00     0.060 A 
BRANCH  58  59
ATOM     59  S   UNL A   1      33.273  34.732  28.905  1.00  0.00     0.124 S 
ATOM     60  O   UNL A   1      32.738  33.808  27.913  1.00  0.00    -0.237 OA
ATOM     61  O   UNL A   1      32.550  34.799  30.171  1.00  0.00    -0.237 OA
ATOM     62  O   UNL A   1      33.734  36.017  28.388  1.00  0.00    -0.744 OA
ENDBRANCH  58  59
ENDBRANCH  26  51
BRANCH  38  63
ATOM     63  C   UNL A   1      41.902  33.513  35.150  1.00  0.00     0.058 A 
ATOM     64  C   UNL A   1      42.418  34.810  35.007  1.00  0.00     0.135 A 
ATOM     65  C   UNL A   1      41.393  33.141  36.404  1.00  0.00     0.135 A 
ATOM     66  F   UNL A   1      42.924  35.210  33.830  1.00  0.00    -0.206 F 
ATOM     67  C   UNL A   1      42.438  35.703  36.073  1.00  0.00     0.059 A 
ATOM     68  C   UNL A   1      41.379  34.027  37.476  1.00  0.00     0.059 A 
ATOM     69  F   UNL A   1      40.878  31.914  36.589  1.00  0.00    -0.206 F 
ATOM     70  C   UNL A   1      41.913  35.303  37.303  1.00  0.00     0.060 A 
BRANCH  70  71
ATOM     71  S   UNL A   1      41.900  36.488  38.665  1.00  0.00     0.124 S 
ATOM     72  O   UNL A   1      40.604  37.134  38.479  1.00  0.00    -0.237 OA
ATOM     73  O   UNL A   1      42.015  35.623  39.835  1.00  0.00    -0.237 OA
ATOM     74  O   UNL A   1      43.064  37.326  38.395  1.00  0.00    -0.744 OA
ENDBRANCH  70  71
ENDBRANCH  38  63
ENDBRANCH  12  13
ENDBRANCH   5   7
ENDBRANCH   4   5
ENDBRANCH   3   4
ENDBRANCH   2   3
ENDBRANCH   1   2
BRANCH   1  75
ATOM     75  C   UNL A   1      45.140  24.758  26.457  1.00  0.00     0.202 C 
BRANCH  75  76
ATOM     76  C   UNL A   1      45.080  25.524  25.134  1.00  0.00     0.261 C 
BRANCH  76  77
ATOM     77  O   UNL A   1      46.248  26.324  24.867  1.00  0.00    -0.460 OA
BRANCH  77  78
ATOM     78  C   UNL A   1      47.329  25.637  24.446  1.00  0.00     0.339 C 
ATOM     79  O   UNL A   1      47.383  24.513  23.990  1.00  0.00    -0.246 OA
BRANCH  78  80
ATOM     80  C   UNL A   1      48.524  26.453  24.574  1.00  0.00     0.072 A 
ATOM     81  C   UNL A   1      49.191  26.805  23.392  1.00  0.00     0.016 A 
ATOM     82  C   UNL A   1      49.017  26.825  25.827  1.00  0.00     0.054 A 
ATOM     83  C   UNL A   1      50.323  27.611  23.458  1.00  0.00     0.001 A 
ATOM     84  C   UNL A   1      50.128  27.676  25.877  1.00  0.00     0.015 A 
ATOM     85  C   UNL A   1      50.779  28.064  24.697  1.00  0.00     0.001 A 
BRANCH  82  86
ATOM     86  C   UNL A   1      48.356  26.456  27.104  1.00  0.00     0.256 C 
ATOM     87  O   UNL A   1      48.685  25.382  27.615  1.00  0.00    -0.269 OA
ATOM     88  N   UNL A   1      47.478  27.287  27.771  1.00  0.00    -0.322 N 
ATOM     89  H   UNL A   1      47.297  27.021  28.703  1.00  0.00     0.170 HD
BRANCH  88  90
ATOM     90  C   UNL A   1      46.793  28.448  27.358  1.00  0.00     0.041 A 
ATOM     91  C   UNL A   1      45.392  28.443  27.453  1.00  0.00     0.028 A 
ATOM     92  C   UNL A   1      47.440  29.617  26.956  1.00  0.00     0.028 A 
ATOM     93  C   UNL A   1      44.666  29.637  27.318  1.00  0.00     0.029 A 
ATOM     94  C   UNL A   1      46.717  30.809  26.818  1.00  0.00     0.029 A 
ATOM     95  C   UNL A   1      45.339  30.832  27.049  1.00  0.00     0.052 A 
BRANCH  95  96
ATOM     96  N   UNL A   1      44.667  32.060  27.158  1.00  0.00    -0.250 N 
ATOM     97  C   UNL A   1      44.334  32.876  26.062  1.00  0.00     0.237 C 
ATOM     98  C   UNL A   1      44.543  32.769  28.363  1.00  0.00     0.237 C 
ATOM     99  O   UNL A   1      44.321  32.610  24.875  1.00  0.00    -0.274 OA
ATOM    100  C   UNL A   1      44.250  34.248  26.692  1.00  0.00     0.095 C 
ATOM    101  C   UNL A   1      43.567  33.830  27.987  1.00  0.00     0.095 C 
ATOM    102  O   UNL A   1      45.095  32.635  29.437  1.00  0.00    -0.274 OA
ATOM    103  C   UNL A   1      43.585  35.595  26.408  1.00  0.00     0.002 C 
ATOM    104  C   UNL A   1      43.084  35.140  28.568  1.00  0.00     0.002 C 
ATOM    105  C   UNL A   1      44.423  36.631  27.211  1.00  0.00     0.005 C 
ATOM    106  C   UNL A   1      42.334  35.621  27.301  1.00  0.00     0.009 C 
ATOM    107  C   UNL A   1      44.188  36.200  28.681  1.00  0.00     0.005 C 
ENDBRANCH  95  96
ENDBRANCH  88  90
ENDBRANCH  82  86
ENDBRANCH  78  80
ENDBRANCH  77  78
ENDBRANCH  76  77
ENDBRANCH  75  76
ENDBRANCH   1  75
TORSDOF 20
ENDMDL
MODEL 2
REMARK VINA RESULT:      -9.4      3.590     11.783
REMARK SMILES O=C(OCCOCCOC(=O)c1ccccc1C(=O)Nc1ccc(N2C(=O)[C@H]3[C@@H]4CC[C@@H](C4)[C@@H]3C2=O)cc1)c1ccc(-c2c3nc(c(-c4c(F)cc(S(=O)(=O)[O-])cc4F)c4ccc([nH]4)c(-c4c(F)cc(S(=O)(=O)[O-])cc4F)c4nc(c(-c5c(F)cc(S(=O)(=O)[O-])cc5F)c5ccc2[nH]5)C=C4)C=C3)cc1
REMARK SMILES IDX 6 1 5 2 4 3 3 4 2 5 1 6 39 7 40 8 104 9 41 10 103 11 42 12
REMARK SMILES IDX 43 13 44 14 97 15 45 16 102 17 96 18 98 19 46 20 101 21
REMARK SMILES IDX 95 22 94 23 47 25 81 26 60 27 80 28 61 29 64 30 79 31 99 32
REMARK SMILES IDX 62 33 63 34 78 36 100 37 65 38 48 39 49 40 58 41 50 42 51 43
REMARK SMILES IDX 57 44 59 45 52 46 53 47 54 48 55 49 56 50 82 51 83 52 92 53
REMARK SMILES IDX 84 54 85 55 91 56 93 57 86 58 87 59 88 60 89 61 90 62 66 63
REMARK SMILES IDX 67 64 76 65 68 66 69 67 75 68 77 69 70 70 71 71 72 72 73 73
REMARK SMILES IDX 74 74 7 75 8 76 9 77 10 78 11 79 12 80 13 81 17 82 14 83
REMARK SMILES IDX 16 84 15 85 18 86 19 87 20 88 21 90 22 91 38 92 23 93 37 94
REMARK SMILES IDX 24 95 25 96 26 97 35 98 27 99 28 100 34 101 36 102 29 103
REMARK SMILES IDX 32 104 30 105 33 106 31 107
REMARK H PARENT 98 24 64 35 20 89
REMARK Flexibility Score: inf
ROOT
ATOM      1  O   UNL A   1      35.811  33.509  34.189  1.00  0.00    -0.374 OA
ENDROOT
BRANCH   1   2
ATOM      2  C   UNL A   1      36.018  32.492  33.204  1.00  0.00     0.202 C 
BRANCH   2   3
ATOM      3  C   UNL A   1      35.033  32.624  32.049  1.00  0.00     0.261 C 
BRANCH   3   4
ATOM      4  O   UNL A   1      35.074  31.418  31.276  1.00  0.00    -0.460 OA
BRANCH   4   5
ATOM      5  C   UNL A   1      35.216  31.598  29.933  1.00  0.00     0.338 C 
ATOM      6  O   UNL A   1      34.538  32.267  29.191  1.00  0.00    -0.246 OA
BRANCH   5   7
ATOM      7  C   UNL A   1      36.328  30.709  29.542  1.00  0.00     0.060 A 
ATOM      8  C   UNL A   1      36.945  29.961  30.545  1.00  0.00     0.016 A 
ATOM      9  C   UNL A   1      36.838  30.716  28.247  1.00  0.00     0.016 A 
ATOM     10  C   UNL A   1      38.154  29.347  30.295  1.00  0.00     0.010 A 
ATOM     11  C   UNL A   1      38.052  30.060  27.992  1.00  0.00     0.010 A 
ATOM     12  C   UNL A   1      38.762  29.446  29.041  1.00  0.00    -0.014 A 
BRANCH  12  13
ATOM     13  C   UNL A   1      40.216  29.129  28.949  1.00  0.00     0.031 A 
ATOM     14  C   UNL A   1      41.214  30.129  29.488  1.00  0.00     0.074 A 
ATOM     15  C   UNL A   1      40.640  27.884  28.646  1.00  0.00     0.049 A 
ATOM     16  N   UNL A   1      42.521  30.083  29.476  1.00  0.00    -0.248 NA
ATOM     17  C   UNL A   1      40.669  31.313  30.175  1.00  0.00     0.031 C 
ATOM     18  C   UNL A   1      39.770  26.755  28.305  1.00  0.00     0.029 A 
ATOM     19  N   UNL A   1      41.900  27.339  28.644  1.00  0.00    -0.354 N 
ATOM     20  C   UNL A   1      42.949  31.231  30.132  1.00  0.00     0.074 A 
ATOM     21  C   UNL A   1      41.768  31.972  30.508  1.00  0.00     0.031 C 
ATOM     22  C   UNL A   1      40.512  25.642  28.208  1.00  0.00     0.029 A 
ATOM     23  C   UNL A   1      41.921  26.000  28.330  1.00  0.00     0.049 A 
ATOM     24  H   UNL A   1      42.712  27.857  28.849  1.00  0.00     0.167 HD
ATOM     25  C   UNL A   1      44.212  31.624  30.421  1.00  0.00     0.037 A 
ATOM     26  C   UNL A   1      42.955  25.167  28.090  1.00  0.00     0.037 A 
ATOM     27  C   UNL A   1      45.386  30.872  30.080  1.00  0.00     0.049 A 
ATOM     28  C   UNL A   1      44.351  25.721  28.160  1.00  0.00     0.074 A 
ATOM     29  C   UNL A   1      46.714  31.229  30.231  1.00  0.00     0.029 A 
ATOM     30  N   UNL A   1      45.370  29.600  29.529  1.00  0.00    -0.354 N 
ATOM     31  N   UNL A   1      44.754  26.886  28.612  1.00  0.00    -0.248 NA
ATOM     32  C   UNL A   1      45.429  24.875  27.632  1.00  0.00     0.031 C 
ATOM     33  C   UNL A   1      47.501  30.189  29.721  1.00  0.00     0.029 A 
ATOM     34  C   UNL A   1      46.665  29.170  29.297  1.00  0.00     0.049 A 
ATOM     35  H   UNL A   1      44.558  29.081  29.332  1.00  0.00     0.167 HD
ATOM     36  C   UNL A   1      46.130  26.911  28.422  1.00  0.00     0.074 A 
ATOM     37  C   UNL A   1      46.495  25.637  27.836  1.00  0.00     0.031 C 
ATOM     38  C   UNL A   1      47.011  27.904  28.700  1.00  0.00     0.037 A 
BRANCH  25  39
ATOM     39  C   UNL A   1      44.373  32.963  31.080  1.00  0.00     0.058 A 
ATOM     40  C   UNL A   1      44.516  34.146  30.339  1.00  0.00     0.135 A 
ATOM     41  C   UNL A   1      44.417  33.051  32.481  1.00  0.00     0.135 A 
ATOM     42  F   UNL A   1      44.515  34.108  28.997  1.00  0.00    -0.206 F 
ATOM     43  C   UNL A   1      44.725  35.370  30.967  1.00  0.00     0.059 A 
ATOM     44  C   UNL A   1      44.606  34.267  33.129  1.00  0.00     0.059 A 
ATOM     45  F   UNL A   1      44.296  31.945  33.231  1.00  0.00    -0.206 F 
ATOM     46  C   UNL A   1      44.776  35.419  32.362  1.00  0.00     0.060 A 
BRANCH  46  47
ATOM     47  S   UNL A   1      45.091  37.007  33.162  1.00  0.00     0.124 S 
ATOM     48  O   UNL A   1      46.486  37.240  32.801  1.00  0.00    -0.237 OA
ATOM     49  O   UNL A   1      44.115  37.878  32.516  1.00  0.00    -0.237 OA
ATOM     50  O   UNL A   1      44.848  36.733  34.574  1.00  0.00    -0.744 OA
ENDBRANCH  46  47
ENDBRANCH  25  39
BRANCH  26  51
ATOM     51  C   UNL A   1      42.704  23.772  27.627  1.00  0.00     0.058 A 
ATOM     52  C   UNL A   1      42.556  22.708  28.528  1.00  0.00     0.135 A 
ATOM     53  C   UNL A   1      42.625  23.474  26.255  1.00  0.00     0.135 A 
ATOM     54  F   UNL A   1      42.658  22.926  29.848  1.00  0.00    -0.206 F 
ATOM     55  C   UNL A   1      42.333  21.404  28.088  1.00  0.00     0.059 A 
ATOM     56  C   UNL A   1      42.368  22.189  25.793  1.00  0.00     0.059 A 
ATOM     57  F   UNL A   1      42.775  24.447  25.344  1.00  0.00    -0.206 F 
ATOM     58  C   UNL A   1      42.235  21.156  26.717  1.00  0.00     0.060 A 
BRANCH  58  59
ATOM     59  S   UNL A   1      41.905  19.475  26.144  1.00  0.00     0.124 S 
ATOM     60  O   UNL A   1      42.315  18.686  27.299  1.00  0.00    -0.237 OA
ATOM     61  O   UNL A   1      40.471  19.514  25.873  1.00  0.00    -0.237 OA
ATOM     62  O   UNL A   1      42.753  19.354  24.962  1.00  0.00    -0.744 OA
ENDBRANCH  58  59
ENDBRANCH  26  51
BRANCH  38  63
ATOM     63  C   UNL A   1      48.456  27.659  28.373  1.00  0.00     0.058 A 
ATOM     64  C   UNL A   1      49.307  27.005  29.277  1.00  0.00     0.135 A 
ATOM     65  C   UNL A   1      48.979  28.023  27.122  1.00  0.00     0.135 A 
ATOM     66  F   UNL A   1      48.857  26.644  30.489  1.00  0.00    -0.206 F 
ATOM     67  C   UNL A   1      50.633  26.732  28.956  1.00  0.00     0.059 A 
ATOM     68  C   UNL A   1      50.293  27.737  26.770  1.00  0.00     0.059 A 
ATOM     69  F   UNL A   1      48.202  28.641  26.218  1.00  0.00    -0.206 F 
ATOM     70  C   UNL A   1      51.116  27.098  27.698  1.00  0.00     0.060 A 
BRANCH  70  71
ATOM     71  S   UNL A   1      52.824  26.694  27.275  1.00  0.00     0.124 S 
ATOM     72  O   UNL A   1      53.160  27.772  26.351  1.00  0.00    -0.237 OA
ATOM     73  O   UNL A   1      53.488  26.742  28.574  1.00  0.00    -0.237 OA
ATOM     74  O   UNL A   1      52.719  25.364  26.681  1.00  0.00    -0.744 OA
ENDBRANCH  70  71
ENDBRANCH  38  63
ENDBRANCH  12  13
ENDBRANCH   5   7
ENDBRANCH   4   5
ENDBRANCH   3   4
ENDBRANCH   2   3
ENDBRANCH   1   2
BRANCH   1  75
ATOM     75  C   UNL A   1      36.973  33.994  34.838  1.00  0.00     0.202 C 
BRANCH  75  76
ATOM     76  C   UNL A   1      37.043  33.477  36.277  1.00  0.00     0.261 C 
BRANCH  76  77
ATOM     77  O   UNL A   1      38.308  33.714  36.923  1.00  0.00    -0.460 OA
BRANCH  77  78
ATOM     78  C   UNL A   1      39.135  32.650  36.970  1.00  0.00     0.339 C 
ATOM     79  O   UNL A   1      38.873  31.477  36.798  1.00  0.00    -0.246 OA
BRANCH  78  80
ATOM     80  C   UNL A   1      40.495  33.083  37.241  1.00  0.00     0.072 A 
ATOM     81  C   UNL A   1      40.902  33.126  38.582  1.00  0.00     0.016 A 
ATOM     82  C   UNL A   1      41.345  33.490  36.210  1.00  0.00     0.054 A 
ATOM     83  C   UNL A   1      42.204  33.504  38.893  1.00  0.00     0.001 A 
ATOM     84  C   UNL A   1      42.668  33.821  36.531  1.00  0.00     0.015 A 
ATOM     85  C   UNL A   1      43.092  33.830  37.868  1.00  0.00     0.001 A 
BRANCH  82  86
ATOM     86  C   UNL A   1      40.951  33.482  34.778  1.00  0.00     0.256 C 
ATOM     87  O   UNL A   1      40.588  34.556  34.292  1.00  0.00    -0.269 OA
ATOM     88  N   UNL A   1      41.058  32.369  33.969  1.00  0.00    -0.322 N 
ATOM     89  H   UNL A   1      40.983  32.561  33.005  1.00  0.00     0.170 HD
BRANCH  88  90
ATOM     90  C   UNL A   1      41.256  31.006  34.274  1.00  0.00     0.041 A 
ATOM     91  C   UNL A   1      40.523  30.063  33.535  1.00  0.00     0.028 A 
ATOM     92  C   UNL A   1      42.201  30.557  35.197  1.00  0.00     0.028 A 
ATOM     93  C   UNL A   1      40.857  28.701  33.591  1.00  0.00     0.029 A 
ATOM     94  C   UNL A   1      42.533  29.197  35.257  1.00  0.00     0.029 A 
ATOM     95  C   UNL A   1      41.900  28.276  34.419  1.00  0.00     0.052 A 
BRANCH  95  96
ATOM     96  N   UNL A   1      42.406  26.972  34.302  1.00  0.00    -0.250 N 
ATOM     97  C   UNL A   1      41.883  25.858  34.984  1.00  0.00     0.237 C 
ATOM     98  C   UNL A   1      43.670  26.678  33.766  1.00  0.00     0.237 C 
ATOM     99  O   UNL A   1      40.822  25.737  35.567  1.00  0.00    -0.274 OA
ATOM    100  C   UNL A   1      43.072  24.927  35.048  1.00  0.00     0.095 C 
ATOM    101  C   UNL A   1      43.608  25.194  33.647  1.00  0.00     0.095 C 
ATOM    102  O   UNL A   1      44.617  27.391  33.500  1.00  0.00    -0.274 OA
ATOM    103  C   UNL A   1      43.342  23.430  35.205  1.00  0.00     0.002 C 
ATOM    104  C   UNL A   1      44.588  24.064  33.425  1.00  0.00     0.002 C 
ATOM    105  C   UNL A   1      44.807  23.342  35.724  1.00  0.00     0.005 C 
ATOM    106  C   UNL A   1      43.607  22.918  33.781  1.00  0.00     0.009 C 
ATOM    107  C   UNL A   1      45.626  23.927  34.546  1.00  0.00     0.005 C 
ENDBRANCH  95  96
ENDBRANCH  88  90
ENDBRANCH  82  86
ENDBRANCH  78  80
ENDBRANCH  77  78
ENDBRANCH  76  77
ENDBRANCH  75  76
ENDBRANCH   1  75
TORSDOF 20
ENDMDL
MODEL 3
REMARK VINA RESULT:      -9.4      5.159     12.227
REMARK SMILES O=C(OCCOCCOC(=O)c1ccccc1C(=O)Nc1ccc(N2C(=O)[C@H]3[C@@H]4CC[C@@H](C4)[C@@H]3C2=O)cc1)c1ccc(-c2c3nc(c(-c4c(F)cc(S(=O)(=O)[O-])cc4F)c4ccc([nH]4)c(-c4c(F)cc(S(=O)(=O)[O-])cc4F)c4nc(c(-c5c(F)cc(S(=O)(=O)[O-])cc5F)c5ccc2[nH]5)C=C4)C=C3)cc1
REMARK SMILES IDX 6 1 5 2 4 3 3 4 2 5 1 6 39 7 40 8 104 9 41 10 103 11 42 12
REMARK SMILES IDX 43 13 44 14 97 15 45 16 102 17 96 18 98 19 46 20 101 21
REMARK SMILES IDX 95 22 94 23 47 25 81 26 60 27 80 28 61 29 64 30 79 31 99 32
REMARK SMILES IDX 62 33 63 34 78 36 100 37 65 38 48 39 49 40 58 41 50 42 51 43
REMARK SMILES IDX 57 44 59 45 52 46 53 47 54 48 55 49 56 50 82 51 83 52 92 53
REMARK SMILES IDX 84 54 85 55 91 56 93 57 86 58 87 59 88 60 89 61 90 62 66 63
REMARK SMILES IDX 67 64 76 65 68 66 69 67 75 68 77 69 70 70 71 71 72 72 73 73
REMARK SMILES IDX 74 74 7 75 8 76 9 77 10 78 11 79 12 80 13 81 17 82 14 83
REMARK SMILES IDX 16 84 15 85 18 86 19 87 20 88 21 90 22 91 38 92 23 93 37 94
REMARK SMILES IDX 24 95 25 96 26 97 35 98 27 99 28 100 34 101 36 102 29 103
REMARK SMILES IDX 32 104 30 105 33 106 31 107
REMARK H PARENT 98 24 64 35 20 89
REMARK Flexibility Score: inf
ROOT
ATOM      1  O   UNL A   1      32.762  31.778  26.592  1.00  0.00    -0.374 OA
ENDROOT
BRANCH   1   2
ATOM      2  C   UNL A   1      33.575  31.188  27.611  1.00  0.00     0.202 C 
BRANCH   2   3
ATOM      3  C   UNL A   1      34.881  31.951  27.795  1.00  0.00     0.261 C 
BRANCH   3   4
ATOM      4  O   UNL A   1      34.618  33.351  27.626  1.00  0.00    -0.460 OA
BRANCH   4   5
ATOM      5  C   UNL A   1      33.930  33.936  28.645  1.00  0.00     0.338 C 
ATOM      6  O   UNL A   1      32.876  34.523  28.597  1.00  0.00    -0.246 OA
BRANCH   5   7
ATOM      7  C   UNL A   1      34.802  33.796  29.827  1.00  0.00     0.060 A 
ATOM      8  C   UNL A   1      36.094  34.317  29.748  1.00  0.00     0.016 A 
ATOM      9  C   UNL A   1      34.406  33.051  30.934  1.00  0.00     0.016 A 
ATOM     10  C   UNL A   1      37.033  33.967  30.694  1.00  0.00     0.010 A 
ATOM     11  C   UNL A   1      35.359  32.726  31.910  1.00  0.00     0.010 A 
ATOM     12  C   UNL A   1      36.703  33.110  31.747  1.00  0.00    -0.014 A 
BRANCH  12  13
ATOM     13  C   UNL A   1      37.822  32.450  32.480  1.00  0.00     0.031 A 
ATOM     14  C   UNL A   1      38.556  31.309  31.812  1.00  0.00     0.074 A 
ATOM     15  C   UNL A   1      38.355  33.008  33.587  1.00  0.00     0.049 A 
ATOM     16  N   UNL A   1      39.526  30.565  32.276  1.00  0.00    -0.248 NA
ATOM     17  C   UNL A   1      38.181  30.996  30.422  1.00  0.00     0.031 C 
ATOM     18  C   UNL A   1      37.875  34.235  34.229  1.00  0.00     0.029 A 
ATOM     19  N   UNL A   1      39.457  32.661  34.327  1.00  0.00    -0.354 N 
ATOM     20  C   UNL A   1      39.862  29.692  31.247  1.00  0.00     0.074 A 
ATOM     21  C   UNL A   1      38.976  29.975  30.142  1.00  0.00     0.031 C 
ATOM     22  C   UNL A   1      38.723  34.578  35.210  1.00  0.00     0.029 A 
ATOM     23  C   UNL A   1      39.718  33.523  35.367  1.00  0.00     0.049 A 
ATOM     24  H   UNL A   1      40.010  31.870  34.132  1.00  0.00     0.167 HD
ATOM     25  C   UNL A   1      40.837  28.754  31.213  1.00  0.00     0.037 A 
ATOM     26  C   UNL A   1      40.605  33.440  36.379  1.00  0.00     0.037 A 
ATOM     27  C   UNL A   1      41.742  28.494  32.297  1.00  0.00     0.049 A 
ATOM     28  C   UNL A   1      41.497  32.231  36.452  1.00  0.00     0.074 A 
ATOM     29  C   UNL A   1      42.695  27.498  32.407  1.00  0.00     0.029 A 
ATOM     30  N   UNL A   1      41.812  29.249  33.457  1.00  0.00    -0.354 N 
ATOM     31  N   UNL A   1      41.687  31.292  35.555  1.00  0.00    -0.248 NA
ATOM     32  C   UNL A   1      42.250  32.035  37.698  1.00  0.00     0.031 C 
ATOM     33  C   UNL A   1      43.307  27.621  33.660  1.00  0.00     0.029 A 
ATOM     34  C   UNL A   1      42.766  28.720  34.308  1.00  0.00     0.049 A 
ATOM     35  H   UNL A   1      41.264  30.044  33.648  1.00  0.00     0.167 HD
ATOM     36  C   UNL A   1      42.580  30.395  36.128  1.00  0.00     0.074 A 
ATOM     37  C   UNL A   1      42.910  30.914  37.440  1.00  0.00     0.031 C 
ATOM     38  C   UNL A   1      43.075  29.240  35.617  1.00  0.00     0.037 A 
BRANCH  25  39
ATOM     39  C   UNL A   1      40.917  27.900  29.981  1.00  0.00     0.058 A 
ATOM     40  C   UNL A   1      39.949  26.929  29.683  1.00  0.00     0.135 A 
ATOM     41  C   UNL A   1      42.003  28.041  29.103  1.00  0.00     0.135 A 
ATOM     42  F   UNL A   1      38.909  26.735  30.510  1.00  0.00    -0.206 F 
ATOM     43  C   UNL A   1      40.071  26.106  28.568  1.00  0.00     0.059 A 
ATOM     44  C   UNL A   1      42.135  27.242  27.972  1.00  0.00     0.059 A 
ATOM     45  F   UNL A   1      42.959  28.949  29.352  1.00  0.00    -0.206 F 
ATOM     46  C   UNL A   1      41.172  26.265  27.723  1.00  0.00     0.060 A 
BRANCH  46  47
ATOM     47  S   UNL A   1      41.340  25.162  26.304  1.00  0.00     0.124 S 
ATOM     48  O   UNL A   1      41.153  26.089  25.192  1.00  0.00    -0.237 OA
ATOM     49  O   UNL A   1      42.693  24.641  26.474  1.00  0.00    -0.237 OA
ATOM     50  O   UNL A   1      40.267  24.192  26.497  1.00  0.00    -0.744 OA
ENDBRANCH  46  47
ENDBRANCH  25  39
BRANCH  26  51
ATOM     51  C   UNL A   1      40.594  34.454  37.473  1.00  0.00     0.058 A 
ATOM     52  C   UNL A   1      41.435  35.576  37.451  1.00  0.00     0.135 A 
ATOM     53  C   UNL A   1      39.743  34.305  38.582  1.00  0.00     0.135 A 
ATOM     54  F   UNL A   1      42.295  35.751  36.436  1.00  0.00    -0.206 F 
ATOM     55  C   UNL A   1      41.429  36.514  38.483  1.00  0.00     0.059 A 
ATOM     56  C   UNL A   1      39.692  35.244  39.605  1.00  0.00     0.059 A 
ATOM     57  F   UNL A   1      38.927  33.243  38.668  1.00  0.00    -0.206 F 
ATOM     58  C   UNL A   1      40.548  36.341  39.553  1.00  0.00     0.060 A 
BRANCH  58  59
ATOM     59  S   UNL A   1      40.506  37.576  40.871  1.00  0.00     0.124 S 
ATOM     60  O   UNL A   1      41.070  38.740  40.199  1.00  0.00    -0.237 OA
ATOM     61  O   UNL A   1      39.082  37.647  41.186  1.00  0.00    -0.237 OA
ATOM     62  O   UNL A   1      41.339  36.981  41.912  1.00  0.00    -0.744 OA
ENDBRANCH  58  59
ENDBRANCH  26  51
BRANCH  38  63
ATOM     63  C   UNL A   1      44.023  28.454  36.475  1.00  0.00     0.058 A 
ATOM     64  C   UNL A   1      43.597  27.318  37.180  1.00  0.00     0.135 A 
ATOM     65  C   UNL A   1      45.383  28.799  36.542  1.00  0.00     0.135 A 
ATOM     66  F   UNL A   1      42.306  26.951  37.155  1.00  0.00    -0.206 F 
ATOM     67  C   UNL A   1      44.485  26.558  37.935  1.00  0.00     0.059 A 
ATOM     68  C   UNL A   1      46.292  28.039  37.269  1.00  0.00     0.059 A 
ATOM     69  F   UNL A   1      45.842  29.871  35.876  1.00  0.00    -0.206 F 
ATOM     70  C   UNL A   1      45.832  26.925  37.970  1.00  0.00     0.060 A 
BRANCH  70  71
ATOM     71  S   UNL A   1      46.982  25.901  38.912  1.00  0.00     0.124 S 
ATOM     72  O   UNL A   1      47.415  26.829  39.953  1.00  0.00    -0.237 OA
ATOM     73  O   UNL A   1      46.132  24.802  39.357  1.00  0.00    -0.237 OA
ATOM     74  O   UNL A   1      47.999  25.541  37.928  1.00  0.00    -0.744 OA
ENDBRANCH  70  71
ENDBRANCH  38  63
ENDBRANCH  12  13
ENDBRANCH   5   7
ENDBRANCH   4   5
ENDBRANCH   3   4
ENDBRANCH   2   3
ENDBRANCH   1   2
BRANCH   1  75
ATOM     75  C   UNL A   1      31.434  31.295  26.496  1.00  0.00     0.202 C 
BRANCH  75  76
ATOM     76  C   UNL A   1      31.403  29.938  25.789  1.00  0.00     0.261 C 
BRANCH  76  77
ATOM     77  O   UNL A   1      31.800  28.833  26.623  1.00  0.00    -0.460 OA
BRANCH  77  78
ATOM     78  C   UNL A   1      31.344  27.626  26.230  1.00  0.00     0.339 C 
ATOM     79  O   UNL A   1      30.994  26.687  26.916  1.00  0.00    -0.246 OA
BRANCH  78  80
ATOM     80  C   UNL A   1      31.276  27.562  24.780  1.00  0.00     0.072 A 
ATOM     81  C   UNL A   1      30.003  27.574  24.195  1.00  0.00     0.016 A 
ATOM     82  C   UNL A   1      32.433  27.440  24.006  1.00  0.00     0.054 A 
ATOM     83  C   UNL A   1      29.884  27.545  22.809  1.00  0.00     0.001 A 
ATOM     84  C   UNL A   1      32.302  27.462  22.611  1.00  0.00     0.015 A 
ATOM     85  C   UNL A   1      31.033  27.511  22.017  1.00  0.00     0.001 A 
BRANCH  82  86
ATOM     86  C   UNL A   1      33.800  27.402  24.584  1.00  0.00     0.256 C 
ATOM     87  O   UNL A   1      34.422  28.466  24.618  1.00  0.00    -0.269 OA
ATOM     88  N   UNL A   1      34.351  26.270  25.152  1.00  0.00    -0.322 N 
ATOM     89  H   UNL A   1      35.156  26.441  25.694  1.00  0.00     0.170 HD
BRANCH  88  90
ATOM     90  C   UNL A   1      33.969  24.914  25.095  1.00  0.00     0.041 A 
ATOM     91  C   UNL A   1      34.284  24.200  23.928  1.00  0.00     0.028 A 
ATOM     92  C   UNL A   1      33.385  24.237  26.167  1.00  0.00     0.028 A 
ATOM     93  C   UNL A   1      34.180  22.800  23.902  1.00  0.00     0.029 A 
ATOM     94  C   UNL A   1      33.277  22.841  26.141  1.00  0.00     0.029 A 
ATOM     95  C   UNL A   1      33.722  22.117  25.032  1.00  0.00     0.052 A 
BRANCH  95  96
ATOM     96  N   UNL A   1      33.846  20.720  25.110  1.00  0.00    -0.250 N 
ATOM     97  C   UNL A   1      35.067  20.030  25.000  1.00  0.00     0.237 C 
ATOM     98  C   UNL A   1      32.762  19.839  24.976  1.00  0.00     0.237 C 
ATOM     99  O   UNL A   1      36.205  20.455  25.067  1.00  0.00    -0.274 OA
ATOM    100  C   UNL A   1      34.628  18.667  24.514  1.00  0.00     0.095 C 
ATOM    101  C   UNL A   1      33.378  18.543  25.376  1.00  0.00     0.095 C 
ATOM    102  O   UNL A   1      31.623  20.016  24.592  1.00  0.00    -0.274 OA
ATOM    103  C   UNL A   1      35.152  17.231  24.515  1.00  0.00     0.002 C 
ATOM    104  C   UNL A   1      33.025  17.076  25.272  1.00  0.00     0.002 C 
ATOM    105  C   UNL A   1      34.393  16.528  23.352  1.00  0.00     0.005 C 
ATOM    106  C   UNL A   1      34.421  16.537  25.675  1.00  0.00     0.009 C 
ATOM    107  C   UNL A   1      32.918  16.575  23.826  1.00  0.00     0.005 C 
ENDBRANCH  95  96
ENDBRANCH  88  90
ENDBRANCH  82  86
ENDBRANCH  78  80
ENDBRANCH  77  78
ENDBRANCH  76  77
ENDBRANCH  75  76
ENDBRANCH   1  75
TORSDOF 20
ENDMDL
