MODEL 1
REMARK VINA RESULT:     -11.2      0.000      0.000
REMARK SMILES CC[C@H](NC(=O)Cc1c(C)c2cc(Cl)c(OC)cc2oc1=O)C(=O)OCCOCCOC(=O)c1ccc(-c2c3nc(c(-c4c(F)cc(S(=O)(=O)[O-])cc4F)c4ccc([nH]4)c(-c4c(F)cc(S(=O)(=O)[O-])cc4F)c4nc(c(-c5c(F)cc(S(=O)(=O)[O-])cc5F)c5ccc2[nH]5)C=C4)C=C3)cc1
REMARK SMILES IDX 27 1 26 2 25 3 23 4 24 5 3 6 2 7 1 8 4 9 5 10 6 12 7 13 8 14
REMARK SMILES IDX 9 15 21 16 10 17 11 18 20 19 22 20 12 21 19 22 13 23 18 24
REMARK SMILES IDX 14 25 15 26 16 27 17 28 28 29 29 30 30 31 31 32 32 33 33 34
REMARK SMILES IDX 34 35 35 36 99 37 36 38 98 39 37 40 38 41 39 42 92 43 40 44
REMARK SMILES IDX 97 45 91 46 93 47 41 48 96 49 90 50 89 51 42 53 76 54 55 55
REMARK SMILES IDX 75 56 56 57 59 58 74 59 94 60 57 61 58 62 73 64 95 65 60 66
REMARK SMILES IDX 43 67 44 68 53 69 45 70 46 71 52 72 54 73 47 74 48 75 49 76
REMARK SMILES IDX 50 77 51 78 77 79 78 80 87 81 79 82 80 83 86 84 88 85 81 86
REMARK SMILES IDX 82 87 83 88 84 89 85 90 61 91 62 92 71 93 63 94 64 95 70 96
REMARK SMILES IDX 72 97 65 98 66 99 67 100 68 101 69 102
REMARK H PARENT 4 11 93 52 59 63
REMARK Flexibility Score: inf
ROOT
ATOM      1  C   UNL A   1      37.644  21.208  24.959  1.00  0.00     0.202 C 
ENDROOT
BRANCH   1   2
ATOM      2  C   UNL A   1      36.424  21.757  25.702  1.00  0.00     0.261 C 
BRANCH   2   3
ATOM      3  O   UNL A   1      35.239  20.937  25.539  1.00  0.00    -0.462 OA
BRANCH   3   4
ATOM      4  C   UNL A   1      34.152  21.351  26.250  1.00  0.00     0.328 C 
ATOM      5  O   UNL A   1      34.134  21.449  27.475  1.00  0.00    -0.250 OA
BRANCH   4   6
ATOM      6  C   UNL A   1      32.866  21.514  25.402  1.00  0.00     0.192 C 
BRANCH   6   7
ATOM      7  C   UNL A   1      33.353  21.641  23.939  1.00  0.00     0.033 C 
ATOM      8  C   UNL A   1      32.289  22.006  22.914  1.00  0.00     0.007 C 
ENDBRANCH   6   7
BRANCH   6   9
ATOM      9  N   UNL A   1      31.842  22.513  25.763  1.00  0.00    -0.342 N 
ATOM     10  C   UNL A   1      32.094  23.645  26.510  1.00  0.00     0.225 C 
ATOM     11  H   UNL A   1      30.920  22.363  25.451  1.00  0.00     0.164 HD
ATOM     12  O   UNL A   1      31.391  23.900  27.487  1.00  0.00    -0.275 OA
BRANCH  10  13
ATOM     13  C   UNL A   1      33.099  24.648  25.976  1.00  0.00     0.143 C 
BRANCH  13  14
ATOM     14  C   UNL A   1      32.665  25.837  25.162  1.00  0.00     0.051 A 
ATOM     15  C   UNL A   1      32.075  26.974  25.600  1.00  0.00    -0.029 A 
ATOM     16  C   UNL A   1      32.803  25.726  23.690  1.00  0.00     0.340 A 
ATOM     17  C   UNL A   1      31.947  27.389  27.040  1.00  0.00     0.046 C 
ATOM     18  C   UNL A   1      31.416  27.828  24.579  1.00  0.00     0.023 A 
ATOM     19  O   UNL A   1      31.642  25.988  23.005  1.00  0.00    -0.422 OA
ATOM     20  O   UNL A   1      33.832  25.376  23.139  1.00  0.00    -0.246 OA
ATOM     21  C   UNL A   1      30.932  29.118  24.805  1.00  0.00     0.036 A 
ATOM     22  C   UNL A   1      31.180  27.266  23.319  1.00  0.00     0.142 A 
ATOM     23  C   UNL A   1      30.258  29.814  23.785  1.00  0.00     0.083 A 
ATOM     24  C   UNL A   1      30.491  27.935  22.304  1.00  0.00     0.095 A 
ATOM     25  Cl  UNL A   1      29.709  31.417  24.137  1.00  0.00    -0.080 Cl
ATOM     26  C   UNL A   1      30.039  29.233  22.523  1.00  0.00     0.141 A 
BRANCH  26  27
ATOM     27  O   UNL A   1      29.383  29.988  21.587  1.00  0.00    -0.495 OA
ATOM     28  C   UNL A   1      27.963  29.901  21.558  1.00  0.00     0.278 C 
ENDBRANCH  26  27
ENDBRANCH  13  14
ENDBRANCH  10  13
ENDBRANCH   6   9
ENDBRANCH   4   6
ENDBRANCH   3   4
ENDBRANCH   2   3
ENDBRANCH   1   2
BRANCH   1  29
ATOM     29  O   UNL A   1      38.855  21.106  25.709  1.00  0.00    -0.374 OA
BRANCH  29  30
ATOM     30  C   UNL A   1      39.229  22.248  26.471  1.00  0.00     0.202 C 
BRANCH  30  31
ATOM     31  C   UNL A   1      40.741  22.538  26.519  1.00  0.00     0.261 C 
BRANCH  31  32
ATOM     32  O   UNL A   1      41.034  23.923  26.249  1.00  0.00    -0.460 OA
BRANCH  32  33
ATOM     33  C   UNL A   1      42.121  24.403  26.907  1.00  0.00     0.338 C 
ATOM     34  O   UNL A   1      43.291  24.132  26.686  1.00  0.00    -0.246 OA
BRANCH  33  35
ATOM     35  C   UNL A   1      41.718  25.513  27.795  1.00  0.00     0.060 A 
ATOM     36  C   UNL A   1      40.498  25.531  28.473  1.00  0.00     0.016 A 
ATOM     37  C   UNL A   1      42.638  26.558  27.959  1.00  0.00     0.016 A 
ATOM     38  C   UNL A   1      40.226  26.582  29.363  1.00  0.00     0.010 A 
ATOM     39  C   UNL A   1      42.361  27.604  28.836  1.00  0.00     0.010 A 
ATOM     40  C   UNL A   1      41.170  27.607  29.573  1.00  0.00    -0.014 A 
BRANCH  40  41
ATOM     41  C   UNL A   1      41.023  28.588  30.681  1.00  0.00     0.031 A 
ATOM     42  C   UNL A   1      41.836  28.487  31.939  1.00  0.00     0.074 A 
ATOM     43  C   UNL A   1      40.046  29.511  30.582  1.00  0.00     0.049 A 
ATOM     44  N   UNL A   1      41.771  29.220  33.021  1.00  0.00    -0.248 NA
ATOM     45  C   UNL A   1      42.843  27.417  31.997  1.00  0.00     0.031 C 
ATOM     46  C   UNL A   1      39.150  29.663  29.432  1.00  0.00     0.029 A 
ATOM     47  N   UNL A   1      39.624  30.477  31.460  1.00  0.00    -0.354 N 
ATOM     48  C   UNL A   1      42.734  28.714  33.886  1.00  0.00     0.074 A 
ATOM     49  C   UNL A   1      43.336  27.578  33.220  1.00  0.00     0.031 C 
ATOM     50  C   UNL A   1      38.299  30.672  29.668  1.00  0.00     0.029 A 
ATOM     51  C   UNL A   1      38.560  31.215  30.997  1.00  0.00     0.049 A 
ATOM     52  H   UNL A   1      40.044  30.629  32.337  1.00  0.00     0.167 HD
ATOM     53  C   UNL A   1      43.091  29.170  35.112  1.00  0.00     0.037 A 
ATOM     54  C   UNL A   1      37.863  32.211  31.578  1.00  0.00     0.037 A 
ATOM     55  C   UNL A   1      42.467  30.291  35.775  1.00  0.00     0.049 A 
ATOM     56  C   UNL A   1      38.252  32.670  32.956  1.00  0.00     0.074 A 
ATOM     57  C   UNL A   1      42.785  30.851  37.001  1.00  0.00     0.029 A 
ATOM     58  N   UNL A   1      41.393  31.014  35.277  1.00  0.00    -0.354 N 
ATOM     59  N   UNL A   1      39.215  32.228  33.730  1.00  0.00    -0.248 NA
ATOM     60  C   UNL A   1      37.464  33.764  33.540  1.00  0.00     0.031 C 
ATOM     61  C   UNL A   1      41.873  31.877  37.266  1.00  0.00     0.029 A 
ATOM     62  C   UNL A   1      41.020  31.997  36.181  1.00  0.00     0.049 A 
ATOM     63  H   UNL A   1      40.959  30.853  34.407  1.00  0.00     0.167 HD
ATOM     64  C   UNL A   1      39.164  33.006  34.881  1.00  0.00     0.074 A 
ATOM     65  C   UNL A   1      38.085  33.955  34.696  1.00  0.00     0.031 C 
ATOM     66  C   UNL A   1      39.942  32.937  35.989  1.00  0.00     0.037 A 
BRANCH  53  67
ATOM     67  C   UNL A   1      44.220  28.472  35.823  1.00  0.00     0.058 A 
ATOM     68  C   UNL A   1      43.979  27.392  36.688  1.00  0.00     0.135 A 
ATOM     69  C   UNL A   1      45.558  28.829  35.585  1.00  0.00     0.135 A 
ATOM     70  F   UNL A   1      42.721  27.012  36.960  1.00  0.00    -0.206 F 
ATOM     71  C   UNL A   1      45.020  26.706  37.306  1.00  0.00     0.059 A 
ATOM     72  C   UNL A   1      46.616  28.139  36.171  1.00  0.00     0.059 A 
ATOM     73  F   UNL A   1      45.849  29.851  34.764  1.00  0.00    -0.206 F 
ATOM     74  C   UNL A   1      46.335  27.085  37.039  1.00  0.00     0.060 A 
BRANCH  74  75
ATOM     75  S   UNL A   1      47.669  26.174  37.847  1.00  0.00     0.124 S 
ATOM     76  O   UNL A   1      47.719  24.957  37.041  1.00  0.00    -0.237 OA
ATOM     77  O   UNL A   1      48.801  27.082  37.693  1.00  0.00    -0.237 OA
ATOM     78  O   UNL A   1      47.187  26.001  39.213  1.00  0.00    -0.744 OA
ENDBRANCH  74  75
ENDBRANCH  53  67
BRANCH  54  79
ATOM     79  C   UNL A   1      36.755  32.866  30.834  1.00  0.00     0.058 A 
ATOM     80  C   UNL A   1      37.026  33.847  29.869  1.00  0.00     0.135 A 
ATOM     81  C   UNL A   1      35.415  32.501  31.039  1.00  0.00     0.135 A 
ATOM     82  F   UNL A   1      38.290  34.233  29.642  1.00  0.00    -0.206 F 
ATOM     83  C   UNL A   1      36.008  34.451  29.139  1.00  0.00     0.059 A 
ATOM     84  C   UNL A   1      34.382  33.071  30.301  1.00  0.00     0.059 A 
ATOM     85  F   UNL A   1      35.105  31.555  31.937  1.00  0.00    -0.206 F 
ATOM     86  C   UNL A   1      34.689  34.050  29.357  1.00  0.00     0.060 A 
BRANCH  86  87
ATOM     87  S   UNL A   1      33.387  34.802  28.357  1.00  0.00     0.124 S 
ATOM     88  O   UNL A   1      32.804  35.750  29.299  1.00  0.00    -0.237 OA
ATOM     89  O   UNL A   1      34.148  35.381  27.255  1.00  0.00    -0.237 OA
ATOM     90  O   UNL A   1      32.541  33.668  27.998  1.00  0.00    -0.744 OA
ENDBRANCH  86  87
ENDBRANCH  54  79
BRANCH  66  91
ATOM     91  C   UNL A   1      39.673  33.926  37.092  1.00  0.00     0.058 A 
ATOM     92  C   UNL A   1      38.919  33.579  38.224  1.00  0.00     0.135 A 
ATOM     93  C   UNL A   1      40.233  35.213  37.049  1.00  0.00     0.135 A 
ATOM     94  F   UNL A   1      38.353  32.365  38.313  1.00  0.00    -0.206 F 
ATOM     95  C   UNL A   1      38.718  34.477  39.268  1.00  0.00     0.059 A 
ATOM     96  C   UNL A   1      40.069  36.117  38.094  1.00  0.00     0.059 A 
ATOM     97  F   UNL A   1      40.969  35.595  35.993  1.00  0.00    -0.206 F 
ATOM     98  C   UNL A   1      39.305  35.742  39.197  1.00  0.00     0.060 A 
BRANCH  98  99
ATOM     99  S   UNL A   1      39.074  36.876  40.582  1.00  0.00     0.124 S 
ATOM    100  O   UNL A   1      38.318  37.957  39.957  1.00  0.00    -0.237 OA
ATOM    101  O   UNL A   1      38.336  36.054  41.536  1.00  0.00    -0.237 OA
ATOM    102  O   UNL A   1      40.438  37.213  40.978  1.00  0.00    -0.744 OA
ENDBRANCH  98  99
ENDBRANCH  66  91
ENDBRANCH  40  41
ENDBRANCH  33  35
ENDBRANCH  32  33
ENDBRANCH  31  32
ENDBRANCH  30  31
ENDBRANCH  29  30
ENDBRANCH   1  29
TORSDOF 22
ENDMDL
MODEL 2
REMARK VINA RESULT:     -11.0      1.454      8.165
REMARK SMILES CC[C@H](NC(=O)Cc1c(C)c2cc(Cl)c(OC)cc2oc1=O)C(=O)OCCOCCOC(=O)c1ccc(-c2c3nc(c(-c4c(F)cc(S(=O)(=O)[O-])cc4F)c4ccc([nH]4)c(-c4c(F)cc(S(=O)(=O)[O-])cc4F)c4nc(c(-c5c(F)cc(S(=O)(=O)[O-])cc5F)c5ccc2[nH]5)C=C4)C=C3)cc1
REMARK SMILES IDX 27 1 26 2 25 3 23 4 24 5 3 6 2 7 1 8 4 9 5 10 6 12 7 13 8 14
REMARK SMILES IDX 9 15 21 16 10 17 11 18 20 19 22 20 12 21 19 22 13 23 18 24
REMARK SMILES IDX 14 25 15 26 16 27 17 28 28 29 29 30 30 31 31 32 32 33 33 34
REMARK SMILES IDX 34 35 35 36 99 37 36 38 98 39 37 40 38 41 39 42 92 43 40 44
REMARK SMILES IDX 97 45 91 46 93 47 41 48 96 49 90 50 89 51 42 53 76 54 55 55
REMARK SMILES IDX 75 56 56 57 59 58 74 59 94 60 57 61 58 62 73 64 95 65 60 66
REMARK SMILES IDX 43 67 44 68 53 69 45 70 46 71 52 72 54 73 47 74 48 75 49 76
REMARK SMILES IDX 50 77 51 78 77 79 78 80 87 81 79 82 80 83 86 84 88 85 81 86
REMARK SMILES IDX 82 87 83 88 84 89 85 90 61 91 62 92 71 93 63 94 64 95 70 96
REMARK SMILES IDX 72 97 65 98 66 99 67 100 68 101 69 102
REMARK H PARENT 4 11 93 52 59 63
REMARK Flexibility Score: inf
ROOT
ATOM      1  C   UNL A   1      37.704  21.753  24.775  1.00  0.00     0.202 C 
ENDROOT
BRANCH   1   2
ATOM      2  C   UNL A   1      36.547  22.204  25.669  1.00  0.00     0.261 C 
BRANCH   2   3
ATOM      3  O   UNL A   1      35.729  21.105  26.143  1.00  0.00    -0.462 OA
BRANCH   3   4
ATOM      4  C   UNL A   1      34.402  21.392  26.277  1.00  0.00     0.328 C 
ATOM      5  O   UNL A   1      33.833  21.491  27.361  1.00  0.00    -0.250 OA
BRANCH   4   6
ATOM      6  C   UNL A   1      33.618  21.402  24.942  1.00  0.00     0.192 C 
BRANCH   6   7
ATOM      7  C   UNL A   1      33.660  19.943  24.430  1.00  0.00     0.033 C 
ATOM      8  C   UNL A   1      32.768  18.954  25.167  1.00  0.00     0.007 C 
ENDBRANCH   6   7
BRANCH   6   9
ATOM      9  N   UNL A   1      33.920  22.395  23.894  1.00  0.00    -0.342 N 
ATOM     10  C   UNL A   1      32.960  23.068  23.166  1.00  0.00     0.225 C 
ATOM     11  H   UNL A   1      34.866  22.591  23.700  1.00  0.00     0.164 HD
ATOM     12  O   UNL A   1      33.027  23.086  21.938  1.00  0.00    -0.275 OA
BRANCH  10  13
ATOM     13  C   UNL A   1      31.970  23.939  23.917  1.00  0.00     0.143 C 
BRANCH  13  14
ATOM     14  C   UNL A   1      32.287  25.368  24.265  1.00  0.00     0.051 A 
ATOM     15  C   UNL A   1      33.180  25.822  25.177  1.00  0.00    -0.029 A 
ATOM     16  C   UNL A   1      31.465  26.414  23.614  1.00  0.00     0.340 A 
ATOM     17  C   UNL A   1      34.221  24.986  25.867  1.00  0.00     0.046 C 
ATOM     18  C   UNL A   1      33.050  27.240  25.598  1.00  0.00     0.023 A 
ATOM     19  O   UNL A   1      30.882  27.289  24.497  1.00  0.00    -0.422 OA
ATOM     20  O   UNL A   1      31.272  26.461  22.411  1.00  0.00    -0.246 OA
ATOM     21  C   UNL A   1      33.983  27.936  26.368  1.00  0.00     0.036 A 
ATOM     22  C   UNL A   1      31.861  27.906  25.275  1.00  0.00     0.142 A 
ATOM     23  C   UNL A   1      33.728  29.259  26.772  1.00  0.00     0.083 A 
ATOM     24  C   UNL A   1      31.582  29.210  25.690  1.00  0.00     0.095 A 
ATOM     25  Cl  UNL A   1      34.945  30.061  27.706  1.00  0.00    -0.080 Cl
ATOM     26  C   UNL A   1      32.530  29.912  26.430  1.00  0.00     0.141 A 
BRANCH  26  27
ATOM     27  O   UNL A   1      32.371  31.204  26.857  1.00  0.00    -0.495 OA
ATOM     28  C   UNL A   1      31.270  31.934  26.327  1.00  0.00     0.278 C 
ENDBRANCH  26  27
ENDBRANCH  13  14
ENDBRANCH  10  13
ENDBRANCH   6   9
ENDBRANCH   4   6
ENDBRANCH   3   4
ENDBRANCH   2   3
ENDBRANCH   1   2
BRANCH   1  29
ATOM     29  O   UNL A   1      38.862  21.244  25.438  1.00  0.00    -0.374 OA
BRANCH  29  30
ATOM     30  C   UNL A   1      39.322  21.977  26.568  1.00  0.00     0.202 C 
BRANCH  30  31
ATOM     31  C   UNL A   1      40.287  23.133  26.251  1.00  0.00     0.261 C 
BRANCH  31  32
ATOM     32  O   UNL A   1      39.690  24.420  26.506  1.00  0.00    -0.460 OA
BRANCH  32  33
ATOM     33  C   UNL A   1      40.539  25.470  26.357  1.00  0.00     0.338 C 
ATOM     34  O   UNL A   1      41.012  25.887  25.311  1.00  0.00    -0.246 OA
BRANCH  33  35
ATOM     35  C   UNL A   1      40.636  26.219  27.626  1.00  0.00     0.060 A 
ATOM     36  C   UNL A   1      41.712  27.054  27.930  1.00  0.00     0.016 A 
ATOM     37  C   UNL A   1      39.569  26.080  28.525  1.00  0.00     0.016 A 
ATOM     38  C   UNL A   1      41.689  27.795  29.121  1.00  0.00     0.010 A 
ATOM     39  C   UNL A   1      39.553  26.811  29.711  1.00  0.00     0.010 A 
ATOM     40  C   UNL A   1      40.593  27.701  30.003  1.00  0.00    -0.014 A 
BRANCH  40  41
ATOM     41  C   UNL A   1      40.420  28.648  31.137  1.00  0.00     0.031 A 
ATOM     42  C   UNL A   1      39.453  29.795  31.067  1.00  0.00     0.074 A 
ATOM     43  C   UNL A   1      41.247  28.526  32.194  1.00  0.00     0.049 A 
ATOM     44  N   UNL A   1      39.243  30.746  31.941  1.00  0.00    -0.248 NA
ATOM     45  C   UNL A   1      38.627  29.897  29.856  1.00  0.00     0.031 C 
ATOM     46  C   UNL A   1      42.270  27.487  32.342  1.00  0.00     0.029 A 
ATOM     47  N   UNL A   1      41.379  29.284  33.329  1.00  0.00    -0.354 N 
ATOM     48  C   UNL A   1      38.251  31.554  31.398  1.00  0.00     0.074 A 
ATOM     49  C   UNL A   1      37.937  31.007  30.094  1.00  0.00     0.031 C 
ATOM     50  C   UNL A   1      42.912  27.664  33.506  1.00  0.00     0.029 A 
ATOM     51  C   UNL A   1      42.374  28.846  34.171  1.00  0.00     0.049 A 
ATOM     52  H   UNL A   1      40.815  30.067  33.523  1.00  0.00     0.167 HD
ATOM     53  C   UNL A   1      37.649  32.638  31.947  1.00  0.00     0.037 A 
ATOM     54  C   UNL A   1      42.814  29.343  35.344  1.00  0.00     0.037 A 
ATOM     55  C   UNL A   1      37.987  33.186  33.239  1.00  0.00     0.049 A 
ATOM     56  C   UNL A   1      42.159  30.572  35.911  1.00  0.00     0.074 A 
ATOM     57  C   UNL A   1      37.407  34.258  33.897  1.00  0.00     0.029 A 
ATOM     58  N   UNL A   1      38.999  32.716  34.064  1.00  0.00    -0.354 N 
ATOM     59  N   UNL A   1      41.170  31.279  35.417  1.00  0.00    -0.248 NA
ATOM     60  C   UNL A   1      42.673  31.067  37.195  1.00  0.00     0.031 C 
ATOM     61  C   UNL A   1      38.101  34.468  35.093  1.00  0.00     0.029 A 
ATOM     62  C   UNL A   1      39.077  33.492  35.211  1.00  0.00     0.049 A 
ATOM     63  H   UNL A   1      39.578  31.945  33.864  1.00  0.00     0.167 HD
ATOM     64  C   UNL A   1      40.929  32.290  36.341  1.00  0.00     0.074 A 
ATOM     65  C   UNL A   1      41.864  32.092  37.430  1.00  0.00     0.031 C 
ATOM     66  C   UNL A   1      40.014  33.289  36.290  1.00  0.00     0.037 A 
BRANCH  53  67
ATOM     67  C   UNL A   1      36.547  33.304  31.166  1.00  0.00     0.058 A 
ATOM     68  C   UNL A   1      35.205  33.195  31.565  1.00  0.00     0.135 A 
ATOM     69  C   UNL A   1      36.834  34.121  30.059  1.00  0.00     0.135 A 
ATOM     70  F   UNL A   1      34.870  32.422  32.610  1.00  0.00    -0.206 F 
ATOM     71  C   UNL A   1      34.186  33.852  30.882  1.00  0.00     0.059 A 
ATOM     72  C   UNL A   1      35.833  34.809  29.378  1.00  0.00     0.059 A 
ATOM     73  F   UNL A   1      38.099  34.266  29.636  1.00  0.00    -0.206 F 
ATOM     74  C   UNL A   1      34.510  34.660  29.792  1.00  0.00     0.060 A 
BRANCH  74  75
ATOM     75  S   UNL A   1      33.171  35.509  28.927  1.00  0.00     0.124 S 
ATOM     76  O   UNL A   1      32.559  34.408  28.188  1.00  0.00    -0.237 OA
ATOM     77  O   UNL A   1      32.382  36.046  30.031  1.00  0.00    -0.237 OA
ATOM     78  O   UNL A   1      33.864  36.501  28.113  1.00  0.00    -0.744 OA
ENDBRANCH  74  75
ENDBRANCH  53  67
BRANCH  54  79
ATOM     79  C   UNL A   1      43.907  28.649  36.075  1.00  0.00     0.058 A 
ATOM     80  C   UNL A   1      45.235  29.085  35.955  1.00  0.00     0.135 A 
ATOM     81  C   UNL A   1      43.648  27.569  36.934  1.00  0.00     0.135 A 
ATOM     82  F   UNL A   1      45.533  30.110  35.142  1.00  0.00    -0.206 F 
ATOM     83  C   UNL A   1      46.268  28.472  36.653  1.00  0.00     0.059 A 
ATOM     84  C   UNL A   1      44.662  26.957  37.664  1.00  0.00     0.059 A 
ATOM     85  F   UNL A   1      42.392  27.126  37.097  1.00  0.00    -0.206 F 
ATOM     86  C   UNL A   1      45.970  27.412  37.512  1.00  0.00     0.060 A 
BRANCH  86  87
ATOM     87  S   UNL A   1      47.317  26.666  38.455  1.00  0.00     0.124 S 
ATOM     88  O   UNL A   1      47.033  27.145  39.803  1.00  0.00    -0.237 OA
ATOM     89  O   UNL A   1      47.097  25.243  38.223  1.00  0.00    -0.237 OA
ATOM     90  O   UNL A   1      48.514  27.220  37.828  1.00  0.00    -0.744 OA
ENDBRANCH  86  87
ENDBRANCH  54  79
BRANCH  66  91
ATOM     91  C   UNL A   1      39.960  34.245  37.451  1.00  0.00     0.058 A 
ATOM     92  C   UNL A   1      40.623  35.481  37.418  1.00  0.00     0.135 A 
ATOM     93  C   UNL A   1      39.179  33.952  38.582  1.00  0.00     0.135 A 
ATOM     94  F   UNL A   1      41.391  35.809  36.366  1.00  0.00    -0.206 F 
ATOM     95  C   UNL A   1      40.527  36.387  38.470  1.00  0.00     0.059 A 
ATOM     96  C   UNL A   1      39.045  34.855  39.632  1.00  0.00     0.059 A 
ATOM     97  F   UNL A   1      38.517  32.787  38.662  1.00  0.00    -0.206 F 
ATOM     98  C   UNL A   1      39.728  36.068  39.570  1.00  0.00     0.060 A 
BRANCH  98  99
ATOM     99  S   UNL A   1      39.575  37.276  40.903  1.00  0.00     0.124 S 
ATOM    100  O   UNL A   1      38.992  36.468  41.969  1.00  0.00    -0.237 OA
ATOM    101  O   UNL A   1      40.960  37.690  41.106  1.00  0.00    -0.237 OA
ATOM    102  O   UNL A   1      38.698  38.297  40.339  1.00  0.00    -0.744 OA
ENDBRANCH  98  99
ENDBRANCH  66  91
ENDBRANCH  40  41
ENDBRANCH  33  35
ENDBRANCH  32  33
ENDBRANCH  31  32
ENDBRANCH  30  31
ENDBRANCH  29  30
ENDBRANCH   1  29
TORSDOF 22
ENDMDL
MODEL 3
REMARK VINA RESULT:     -10.8      6.125      8.329
REMARK SMILES CC[C@H](NC(=O)Cc1c(C)c2cc(Cl)c(OC)cc2oc1=O)C(=O)OCCOCCOC(=O)c1ccc(-c2c3nc(c(-c4c(F)cc(S(=O)(=O)[O-])cc4F)c4ccc([nH]4)c(-c4c(F)cc(S(=O)(=O)[O-])cc4F)c4nc(c(-c5c(F)cc(S(=O)(=O)[O-])cc5F)c5ccc2[nH]5)C=C4)C=C3)cc1
REMARK SMILES IDX 27 1 26 2 25 3 23 4 24 5 3 6 2 7 1 8 4 9 5 10 6 12 7 13 8 14
REMARK SMILES IDX 9 15 21 16 10 17 11 18 20 19 22 20 12 21 19 22 13 23 18 24
REMARK SMILES IDX 14 25 15 26 16 27 17 28 28 29 29 30 30 31 31 32 32 33 33 34
REMARK SMILES IDX 34 35 35 36 99 37 36 38 98 39 37 40 38 41 39 42 92 43 40 44
REMARK SMILES IDX 97 45 91 46 93 47 41 48 96 49 90 50 89 51 42 53 76 54 55 55
REMARK SMILES IDX 75 56 56 57 59 58 74 59 94 60 57 61 58 62 73 64 95 65 60 66
REMARK SMILES IDX 43 67 44 68 53 69 45 70 46 71 52 72 54 73 47 74 48 75 49 76
REMARK SMILES IDX 50 77 51 78 77 79 78 80 87 81 79 82 80 83 86 84 88 85 81 86
REMARK SMILES IDX 82 87 83 88 84 89 85 90 61 91 62 92 71 93 63 94 64 95 70 96
REMARK SMILES IDX 72 97 65 98 66 99 67 100 68 101 69 102
REMARK H PARENT 4 11 93 52 59 63
REMARK Flexibility Score: inf
ROOT
ATOM      1  C   UNL A   1      37.224  21.792  24.257  1.00  0.00     0.202 C 
ENDROOT
BRANCH   1   2
ATOM      2  C   UNL A   1      36.919  23.277  24.053  1.00  0.00     0.261 C 
BRANCH   2   3
ATOM      3  O   UNL A   1      36.265  23.888  25.194  1.00  0.00    -0.462 OA
BRANCH   3   4
ATOM      4  C   UNL A   1      34.945  24.178  25.012  1.00  0.00     0.328 C 
ATOM      5  O   UNL A   1      34.536  25.250  24.573  1.00  0.00    -0.250 OA
BRANCH   4   6
ATOM      6  C   UNL A   1      33.979  23.110  25.582  1.00  0.00     0.192 C 
BRANCH   6   7
ATOM      7  C   UNL A   1      34.618  22.646  26.912  1.00  0.00     0.033 C 
ATOM      8  C   UNL A   1      33.647  22.186  27.991  1.00  0.00     0.007 C 
ENDBRANCH   6   7
BRANCH   6   9
ATOM      9  N   UNL A   1      33.505  21.992  24.743  1.00  0.00    -0.342 N 
ATOM     10  C   UNL A   1      32.479  21.141  25.097  1.00  0.00     0.225 C 
ATOM     11  H   UNL A   1      33.948  21.845  23.876  1.00  0.00     0.164 HD
ATOM     12  O   UNL A   1      32.651  19.923  25.040  1.00  0.00    -0.275 OA
BRANCH  10  13
ATOM     13  C   UNL A   1      31.106  21.735  25.345  1.00  0.00     0.143 C 
BRANCH  13  14
ATOM     14  C   UNL A   1      30.885  23.223  25.361  1.00  0.00     0.051 A 
ATOM     15  C   UNL A   1      30.927  24.081  24.315  1.00  0.00    -0.029 A 
ATOM     16  C   UNL A   1      30.696  23.856  26.688  1.00  0.00     0.340 A 
ATOM     17  C   UNL A   1      30.967  23.685  22.866  1.00  0.00     0.046 C 
ATOM     18  C   UNL A   1      31.042  25.527  24.634  1.00  0.00     0.023 A 
ATOM     19  O   UNL A   1      31.551  24.903  26.928  1.00  0.00    -0.422 OA
ATOM     20  O   UNL A   1      29.898  23.451  27.515  1.00  0.00    -0.246 OA
ATOM     21  C   UNL A   1      30.904  26.565  23.710  1.00  0.00     0.036 A 
ATOM     22  C   UNL A   1      31.406  25.876  25.940  1.00  0.00     0.142 A 
ATOM     23  C   UNL A   1      31.103  27.900  24.105  1.00  0.00     0.083 A 
ATOM     24  C   UNL A   1      31.632  27.195  26.341  1.00  0.00     0.095 A 
ATOM     25  Cl  UNL A   1      30.890  29.131  22.906  1.00  0.00    -0.080 Cl
ATOM     26  C   UNL A   1      31.460  28.229  25.425  1.00  0.00     0.141 A 
BRANCH  26  27
ATOM     27  O   UNL A   1      31.624  29.556  25.722  1.00  0.00    -0.495 OA
ATOM     28  C   UNL A   1      31.903  29.890  27.078  1.00  0.00     0.278 C 
ENDBRANCH  26  27
ENDBRANCH  13  14
ENDBRANCH  10  13
ENDBRANCH   6   9
ENDBRANCH   4   6
ENDBRANCH   3   4
ENDBRANCH   2   3
ENDBRANCH   1   2
BRANCH   1  29
ATOM     29  O   UNL A   1      37.671  21.405  25.557  1.00  0.00    -0.374 OA
BRANCH  29  30
ATOM     30  C   UNL A   1      39.080  21.351  25.755  1.00  0.00     0.202 C 
BRANCH  30  31
ATOM     31  C   UNL A   1      39.635  19.968  26.143  1.00  0.00     0.261 C 
BRANCH  31  32
ATOM     32  O   UNL A   1      40.820  19.632  25.396  1.00  0.00    -0.460 OA
BRANCH  32  33
ATOM     33  C   UNL A   1      41.930  19.449  26.159  1.00  0.00     0.338 C 
ATOM     34  O   UNL A   1      42.395  18.384  26.532  1.00  0.00    -0.246 OA
BRANCH  33  35
ATOM     35  C   UNL A   1      42.664  20.724  26.288  1.00  0.00     0.060 A 
ATOM     36  C   UNL A   1      43.308  21.336  25.211  1.00  0.00     0.016 A 
ATOM     37  C   UNL A   1      42.667  21.327  27.553  1.00  0.00     0.016 A 
ATOM     38  C   UNL A   1      43.912  22.588  25.398  1.00  0.00     0.010 A 
ATOM     39  C   UNL A   1      43.275  22.567  27.737  1.00  0.00     0.010 A 
ATOM     40  C   UNL A   1      43.872  23.226  26.654  1.00  0.00    -0.014 A 
BRANCH  40  41
ATOM     41  C   UNL A   1      44.277  24.646  26.823  1.00  0.00     0.031 A 
ATOM     42  C   UNL A   1      45.710  25.078  26.702  1.00  0.00     0.074 A 
ATOM     43  C   UNL A   1      43.337  25.529  27.213  1.00  0.00     0.049 A 
ATOM     44  N   UNL A   1      46.230  26.264  26.894  1.00  0.00    -0.248 NA
ATOM     45  C   UNL A   1      46.688  24.045  26.332  1.00  0.00     0.031 C 
ATOM     46  C   UNL A   1      41.923  25.209  27.424  1.00  0.00     0.029 A 
ATOM     47  N   UNL A   1      43.424  26.863  27.521  1.00  0.00    -0.354 N 
ATOM     48  C   UNL A   1      47.592  26.129  26.656  1.00  0.00     0.074 A 
ATOM     49  C   UNL A   1      47.825  24.732  26.352  1.00  0.00     0.031 C 
ATOM     50  C   UNL A   1      41.274  26.317  27.811  1.00  0.00     0.029 A 
ATOM     51  C   UNL A   1      42.227  27.417  27.910  1.00  0.00     0.049 A 
ATOM     52  H   UNL A   1      44.263  27.376  27.468  1.00  0.00     0.167 HD
ATOM     53  C   UNL A   1      48.551  27.087  26.671  1.00  0.00     0.037 A 
ATOM     54  C   UNL A   1      41.928  28.668  28.313  1.00  0.00     0.037 A 
ATOM     55  C   UNL A   1      48.309  28.473  26.996  1.00  0.00     0.049 A 
ATOM     56  C   UNL A   1      43.018  29.702  28.363  1.00  0.00     0.074 A 
ATOM     57  C   UNL A   1      49.210  29.525  27.001  1.00  0.00     0.029 A 
ATOM     58  N   UNL A   1      47.085  28.998  27.386  1.00  0.00    -0.354 N 
ATOM     59  N   UNL A   1      44.289  29.573  28.061  1.00  0.00    -0.248 NA
ATOM     60  C   UNL A   1      42.636  31.051  28.802  1.00  0.00     0.031 C 
ATOM     61  C   UNL A   1      48.543  30.673  27.442  1.00  0.00     0.029 A 
ATOM     62  C   UNL A   1      47.213  30.352  27.658  1.00  0.00     0.049 A 
ATOM     63  H   UNL A   1      46.248  28.484  27.458  1.00  0.00     0.167 HD
ATOM     64  C   UNL A   1      44.852  30.830  28.252  1.00  0.00     0.074 A 
ATOM     65  C   UNL A   1      43.782  31.707  28.680  1.00  0.00     0.031 C 
ATOM     66  C   UNL A   1      46.141  31.218  28.086  1.00  0.00     0.037 A 
BRANCH  53  67
ATOM     67  C   UNL A   1      49.957  26.685  26.311  1.00  0.00     0.058 A 
ATOM     68  C   UNL A   1      50.802  26.074  27.253  1.00  0.00     0.135 A 
ATOM     69  C   UNL A   1      50.443  26.835  25.001  1.00  0.00     0.135 A 
ATOM     70  F   UNL A   1      50.396  25.912  28.522  1.00  0.00    -0.206 F 
ATOM     71  C   UNL A   1      52.083  25.649  26.915  1.00  0.00     0.059 A 
ATOM     72  C   UNL A   1      51.711  26.392  24.634  1.00  0.00     0.059 A 
ATOM     73  F   UNL A   1      49.677  27.407  24.059  1.00  0.00    -0.206 F 
ATOM     74  C   UNL A   1      52.527  25.809  25.602  1.00  0.00     0.060 A 
BRANCH  74  75
ATOM     75  S   UNL A   1      54.190  25.241  25.186  1.00  0.00     0.124 S 
ATOM     76  O   UNL A   1      54.931  25.604  26.391  1.00  0.00    -0.237 OA
ATOM     77  O   UNL A   1      53.986  23.811  24.976  1.00  0.00    -0.237 OA
ATOM     78  O   UNL A   1      54.525  26.007  23.990  1.00  0.00    -0.744 OA
ENDBRANCH  74  75
ENDBRANCH  53  67
BRANCH  54  79
ATOM     79  C   UNL A   1      40.524  29.014  28.660  1.00  0.00     0.058 A 
ATOM     80  C   UNL A   1      40.112  29.067  29.999  1.00  0.00     0.135 A 
ATOM     81  C   UNL A   1      39.581  29.339  27.672  1.00  0.00     0.135 A 
ATOM     82  F   UNL A   1      40.976  28.760  30.978  1.00  0.00    -0.206 F 
ATOM     83  C   UNL A   1      38.813  29.419  30.349  1.00  0.00     0.059 A 
ATOM     84  C   UNL A   1      38.284  29.721  27.998  1.00  0.00     0.059 A 
ATOM     85  F   UNL A   1      39.930  29.322  26.377  1.00  0.00    -0.206 F 
ATOM     86  C   UNL A   1      37.908  29.752  29.340  1.00  0.00     0.060 A 
BRANCH  86  87
ATOM     87  S   UNL A   1      36.243  30.264  29.816  1.00  0.00     0.124 S 
ATOM     88  O   UNL A   1      36.085  29.595  31.102  1.00  0.00    -0.237 OA
ATOM     89  O   UNL A   1      36.375  31.717  29.864  1.00  0.00    -0.237 OA
ATOM     90  O   UNL A   1      35.411  29.753  28.732  1.00  0.00    -0.744 OA
ENDBRANCH  86  87
ENDBRANCH  54  79
BRANCH  66  91
ATOM     91  C   UNL A   1      46.472  32.662  28.351  1.00  0.00     0.058 A 
ATOM     92  C   UNL A   1      46.311  33.647  27.364  1.00  0.00     0.135 A 
ATOM     93  C   UNL A   1      46.890  33.077  29.626  1.00  0.00     0.135 A 
ATOM     94  F   UNL A   1      45.923  33.305  26.125  1.00  0.00    -0.206 F 
ATOM     95  C   UNL A   1      46.566  34.990  27.627  1.00  0.00     0.059 A 
ATOM     96  C   UNL A   1      47.121  34.417  29.920  1.00  0.00     0.059 A 
ATOM     97  F   UNL A   1      47.052  32.178  30.610  1.00  0.00    -0.206 F 
ATOM     98  C   UNL A   1      46.963  35.366  28.912  1.00  0.00     0.060 A 
BRANCH  98  99
ATOM     99  S   UNL A   1      47.241  37.118  29.248  1.00  0.00     0.124 S 
ATOM    100  O   UNL A   1      47.792  37.076  30.598  1.00  0.00    -0.237 OA
ATOM    101  O   UNL A   1      48.177  37.492  28.192  1.00  0.00    -0.237 OA
ATOM    102  O   UNL A   1      45.908  37.703  29.133  1.00  0.00    -0.744 OA
ENDBRANCH  98  99
ENDBRANCH  66  91
ENDBRANCH  40  41
ENDBRANCH  33  35
ENDBRANCH  32  33
ENDBRANCH  31  32
ENDBRANCH  30  31
ENDBRANCH  29  30
ENDBRANCH   1  29
TORSDOF 22
ENDMDL
