MODEL 1
REMARK VINA RESULT:     -11.3      0.000      0.000
REMARK SMILES Cc1nsc(N(C)C(=O)Nc2cccc(Cl)c2)c1C(=O)OCCOCCOC(=O)c1ccc(-c2c3nc(c(-c4c(F)cc(S(=O)(=O)[O-])cc4F)c4ccc([nH]4)c(-c4c(F)cc(S(=O)(=O)[O-])cc4F)c4nc(c(-c5c(F)cc(S(=O)(=O)[O-])cc5F)c5ccc2[nH]5)C=C4)C=C3)cc1
REMARK SMILES IDX 24 1 23 2 22 3 21 4 19 5 20 6 18 7 1 8 2 9 3 10 4 11 5 12
REMARK SMILES IDX 6 13 7 14 8 15 9 16 10 17 11 19 12 20 17 21 13 22 15 23
REMARK SMILES IDX 14 24 16 25 25 26 26 27 27 28 28 29 29 30 30 31 31 32 95 33
REMARK SMILES IDX 32 34 94 35 33 36 34 37 35 38 88 39 36 40 93 41 87 42 89 43
REMARK SMILES IDX 37 44 92 45 86 46 85 47 38 49 72 50 51 51 71 52 52 53 55 54
REMARK SMILES IDX 70 55 90 56 53 57 54 58 69 60 91 61 56 62 39 63 40 64 49 65
REMARK SMILES IDX 41 66 42 67 48 68 50 69 43 70 44 71 45 72 46 73 47 74 73 75
REMARK SMILES IDX 74 76 83 77 75 78 76 79 82 80 84 81 77 82 78 83 79 84 80 85
REMARK SMILES IDX 81 86 57 87 58 88 67 89 59 90 60 91 66 92 68 93 61 94 62 95
REMARK SMILES IDX 63 96 64 97 65 98
REMARK H PARENT 10 18 89 48 55 59
REMARK Flexibility Score: inf
ROOT
ATOM      1  O   UNL A   1      35.912  21.659  25.545  1.00  0.00    -0.374 OA
ENDROOT
BRANCH   1   2
ATOM      2  C   UNL A   1      35.102  22.629  26.222  1.00  0.00     0.202 C 
BRANCH   2   3
ATOM      3  C   UNL A   1      35.251  24.103  25.835  1.00  0.00     0.261 C 
BRANCH   3   4
ATOM      4  O   UNL A   1      34.028  24.809  26.062  1.00  0.00    -0.460 OA
BRANCH   4   5
ATOM      5  C   UNL A   1      33.013  24.481  25.211  1.00  0.00     0.343 C 
ATOM      6  O   UNL A   1      32.144  23.653  25.439  1.00  0.00    -0.246 OA
BRANCH   5   7
ATOM      7  C   UNL A   1      33.158  25.151  23.934  1.00  0.00     0.118 A 
ATOM      8  C   UNL A   1      34.167  23.043  22.710  1.00  0.00     0.069 C 
ATOM      9  C   UNL A   1      33.639  24.438  22.764  1.00  0.00     0.068 A 
ATOM     10  N   UNL A   1      33.599  25.106  21.616  1.00  0.00    -0.195 NA
ATOM     11  S   UNL A   1      33.033  26.612  21.905  1.00  0.00    -0.017 S 
ATOM     12  C   UNL A   1      32.994  26.512  23.637  1.00  0.00     0.134 A 
BRANCH  12  13
ATOM     13  N   UNL A   1      32.848  27.752  24.351  1.00  0.00    -0.286 N 
ATOM     14  C   UNL A   1      33.685  28.911  23.977  1.00  0.00     0.156 C 
BRANCH  13  15
ATOM     15  C   UNL A   1      32.032  27.792  25.498  1.00  0.00     0.326 C 
ATOM     16  O   UNL A   1      30.860  27.424  25.537  1.00  0.00    -0.248 OA
ATOM     17  N   UNL A   1      32.603  28.051  26.723  1.00  0.00    -0.307 N 
ATOM     18  H   UNL A   1      32.384  27.393  27.423  1.00  0.00     0.171 HD
BRANCH  17  19
ATOM     19  C   UNL A   1      33.441  29.091  27.144  1.00  0.00     0.044 A 
ATOM     20  C   UNL A   1      32.962  30.392  27.308  1.00  0.00     0.026 A 
ATOM     21  C   UNL A   1      34.792  28.809  27.371  1.00  0.00     0.046 A 
ATOM     22  C   UNL A   1      33.845  31.431  27.591  1.00  0.00     0.004 A 
ATOM     23  C   UNL A   1      35.673  29.858  27.638  1.00  0.00     0.043 A 
ATOM     24  C   UNL A   1      35.207  31.168  27.732  1.00  0.00     0.020 A 
ATOM     25  Cl  UNL A   1      37.357  29.542  27.805  1.00  0.00    -0.084 Cl
ENDBRANCH  17  19
ENDBRANCH  13  15
ENDBRANCH  12  13
ENDBRANCH   5   7
ENDBRANCH   4   5
ENDBRANCH   3   4
ENDBRANCH   2   3
ENDBRANCH   1   2
BRANCH   1  26
ATOM     26  C   UNL A   1      37.156  22.052  24.975  1.00  0.00     0.202 C 
BRANCH  26  27
ATOM     27  C   UNL A   1      38.440  21.830  25.746  1.00  0.00     0.261 C 
BRANCH  27  28
ATOM     28  O   UNL A   1      38.706  22.917  26.605  1.00  0.00    -0.460 OA
BRANCH  28  29
ATOM     29  C   UNL A   1      39.920  22.841  27.193  1.00  0.00     0.338 C 
ATOM     30  O   UNL A   1      40.389  21.901  27.803  1.00  0.00    -0.246 OA
BRANCH  29  31
ATOM     31  C   UNL A   1      40.528  24.172  27.129  1.00  0.00     0.060 A 
ATOM     32  C   UNL A   1      41.673  24.330  27.907  1.00  0.00     0.016 A 
ATOM     33  C   UNL A   1      39.756  25.255  26.677  1.00  0.00     0.016 A 
ATOM     34  C   UNL A   1      41.870  25.555  28.490  1.00  0.00     0.010 A 
ATOM     35  C   UNL A   1      39.953  26.474  27.265  1.00  0.00     0.010 A 
ATOM     36  C   UNL A   1      40.934  26.567  28.244  1.00  0.00    -0.014 A 
BRANCH  36  37
ATOM     37  C   UNL A   1      41.065  27.791  28.992  1.00  0.00     0.031 A 
ATOM     38  C   UNL A   1      42.163  28.625  28.466  1.00  0.00     0.074 A 
ATOM     39  C   UNL A   1      40.219  28.122  29.984  1.00  0.00     0.049 A 
ATOM     40  N   UNL A   1      43.326  28.811  28.993  1.00  0.00    -0.248 NA
ATOM     41  C   UNL A   1      42.051  29.086  27.072  1.00  0.00     0.031 C 
ATOM     42  C   UNL A   1      38.963  27.483  30.383  1.00  0.00     0.029 A 
ATOM     43  N   UNL A   1      40.285  29.198  30.807  1.00  0.00    -0.354 N 
ATOM     44  C   UNL A   1      44.002  29.628  28.098  1.00  0.00     0.074 A 
ATOM     45  C   UNL A   1      43.279  29.559  26.858  1.00  0.00     0.031 C 
ATOM     46  C   UNL A   1      38.278  28.317  31.203  1.00  0.00     0.029 A 
ATOM     47  C   UNL A   1      39.108  29.472  31.497  1.00  0.00     0.049 A 
ATOM     48  H   UNL A   1      41.099  29.741  30.910  1.00  0.00     0.167 HD
ATOM     49  C   UNL A   1      44.938  30.513  28.531  1.00  0.00     0.037 A 
ATOM     50  C   UNL A   1      38.852  30.628  32.164  1.00  0.00     0.037 A 
ATOM     51  C   UNL A   1      45.382  30.188  29.863  1.00  0.00     0.049 A 
ATOM     52  C   UNL A   1      40.179  31.255  32.443  1.00  0.00     0.074 A 
ATOM     53  C   UNL A   1      46.022  29.100  30.423  1.00  0.00     0.029 A 
ATOM     54  N   UNL A   1      44.802  30.868  30.909  1.00  0.00    -0.354 N 
ATOM     55  N   UNL A   1      41.077  30.719  33.230  1.00  0.00    -0.248 NA
ATOM     56  C   UNL A   1      40.700  32.189  31.453  1.00  0.00     0.031 C 
ATOM     57  C   UNL A   1      45.403  28.921  31.694  1.00  0.00     0.029 A 
ATOM     58  C   UNL A   1      44.477  29.951  31.875  1.00  0.00     0.049 A 
ATOM     59  H   UNL A   1      44.649  31.840  30.955  1.00  0.00     0.167 HD
ATOM     60  C   UNL A   1      42.292  30.924  32.585  1.00  0.00     0.074 A 
ATOM     61  C   UNL A   1      41.998  31.878  31.517  1.00  0.00     0.031 C 
ATOM     62  C   UNL A   1      43.354  30.088  32.782  1.00  0.00     0.037 A 
BRANCH  49  63
ATOM     63  C   UNL A   1      45.152  31.867  27.906  1.00  0.00     0.058 A 
ATOM     64  C   UNL A   1      46.397  32.158  27.315  1.00  0.00     0.135 A 
ATOM     65  C   UNL A   1      44.293  32.973  28.099  1.00  0.00     0.135 A 
ATOM     66  F   UNL A   1      47.293  31.183  27.095  1.00  0.00    -0.206 F 
ATOM     67  C   UNL A   1      46.785  33.460  27.005  1.00  0.00     0.059 A 
ATOM     68  C   UNL A   1      44.636  34.269  27.743  1.00  0.00     0.059 A 
ATOM     69  F   UNL A   1      43.120  32.876  28.733  1.00  0.00    -0.206 F 
ATOM     70  C   UNL A   1      45.900  34.510  27.236  1.00  0.00     0.060 A 
BRANCH  70  71
ATOM     71  S   UNL A   1      46.432  36.201  26.931  1.00  0.00     0.124 S 
ATOM     72  O   UNL A   1      47.127  36.514  28.175  1.00  0.00    -0.237 OA
ATOM     73  O   UNL A   1      47.271  36.043  25.749  1.00  0.00    -0.237 OA
ATOM     74  O   UNL A   1      45.177  36.914  26.713  1.00  0.00    -0.744 OA
ENDBRANCH  70  71
ENDBRANCH  49  63
BRANCH  50  75
ATOM     75  C   UNL A   1      37.581  31.407  32.154  1.00  0.00     0.058 A 
ATOM     76  C   UNL A   1      36.937  31.780  33.349  1.00  0.00     0.135 A 
ATOM     77  C   UNL A   1      37.121  32.044  30.982  1.00  0.00     0.135 A 
ATOM     78  F   UNL A   1      37.327  31.246  34.516  1.00  0.00    -0.206 F 
ATOM     79  C   UNL A   1      35.929  32.752  33.385  1.00  0.00     0.059 A 
ATOM     80  C   UNL A   1      36.115  33.011  30.992  1.00  0.00     0.059 A 
ATOM     81  F   UNL A   1      37.702  31.813  29.796  1.00  0.00    -0.206 F 
ATOM     82  C   UNL A   1      35.537  33.378  32.201  1.00  0.00     0.060 A 
BRANCH  82  83
ATOM     83  S   UNL A   1      34.355  34.748  32.257  1.00  0.00     0.124 S 
ATOM     84  O   UNL A   1      34.300  35.156  30.858  1.00  0.00    -0.237 OA
ATOM     85  O   UNL A   1      33.157  34.101  32.779  1.00  0.00    -0.237 OA
ATOM     86  O   UNL A   1      34.986  35.704  33.161  1.00  0.00    -0.744 OA
ENDBRANCH  82  83
ENDBRANCH  50  75
BRANCH  62  87
ATOM     87  C   UNL A   1      43.286  29.082  33.904  1.00  0.00     0.058 A 
ATOM     88  C   UNL A   1      43.554  29.374  35.255  1.00  0.00     0.135 A 
ATOM     89  C   UNL A   1      42.723  27.830  33.621  1.00  0.00     0.135 A 
ATOM     90  F   UNL A   1      44.008  30.581  35.620  1.00  0.00    -0.206 F 
ATOM     91  C   UNL A   1      43.284  28.453  36.273  1.00  0.00     0.059 A 
ATOM     92  C   UNL A   1      42.419  26.911  34.619  1.00  0.00     0.059 A 
ATOM     93  F   UNL A   1      42.390  27.515  32.358  1.00  0.00    -0.206 F 
ATOM     94  C   UNL A   1      42.707  27.226  35.945  1.00  0.00     0.060 A 
BRANCH  94  95
ATOM     95  S   UNL A   1      42.256  26.075  37.264  1.00  0.00     0.124 S 
ATOM     96  O   UNL A   1      43.101  26.523  38.365  1.00  0.00    -0.237 OA
ATOM     97  O   UNL A   1      40.825  26.320  37.423  1.00  0.00    -0.237 OA
ATOM     98  O   UNL A   1      42.597  24.767  36.708  1.00  0.00    -0.744 OA
ENDBRANCH  94  95
ENDBRANCH  62  87
ENDBRANCH  36  37
ENDBRANCH  29  31
ENDBRANCH  28  29
ENDBRANCH  27  28
ENDBRANCH  26  27
ENDBRANCH   1  26
TORSDOF 20
ENDMDL
MODEL 2
REMARK VINA RESULT:     -11.1      2.250      3.815
REMARK SMILES Cc1nsc(N(C)C(=O)Nc2cccc(Cl)c2)c1C(=O)OCCOCCOC(=O)c1ccc(-c2c3nc(c(-c4c(F)cc(S(=O)(=O)[O-])cc4F)c4ccc([nH]4)c(-c4c(F)cc(S(=O)(=O)[O-])cc4F)c4nc(c(-c5c(F)cc(S(=O)(=O)[O-])cc5F)c5ccc2[nH]5)C=C4)C=C3)cc1
REMARK SMILES IDX 24 1 23 2 22 3 21 4 19 5 20 6 18 7 1 8 2 9 3 10 4 11 5 12
REMARK SMILES IDX 6 13 7 14 8 15 9 16 10 17 11 19 12 20 17 21 13 22 15 23
REMARK SMILES IDX 14 24 16 25 25 26 26 27 27 28 28 29 29 30 30 31 31 32 95 33
REMARK SMILES IDX 32 34 94 35 33 36 34 37 35 38 88 39 36 40 93 41 87 42 89 43
REMARK SMILES IDX 37 44 92 45 86 46 85 47 38 49 72 50 51 51 71 52 52 53 55 54
REMARK SMILES IDX 70 55 90 56 53 57 54 58 69 60 91 61 56 62 39 63 40 64 49 65
REMARK SMILES IDX 41 66 42 67 48 68 50 69 43 70 44 71 45 72 46 73 47 74 73 75
REMARK SMILES IDX 74 76 83 77 75 78 76 79 82 80 84 81 77 82 78 83 79 84 80 85
REMARK SMILES IDX 81 86 57 87 58 88 67 89 59 90 60 91 66 92 68 93 61 94 62 95
REMARK SMILES IDX 63 96 64 97 65 98
REMARK H PARENT 10 18 89 48 55 59
REMARK Flexibility Score: inf
ROOT
ATOM      1  O   UNL A   1      36.608  22.103  25.328  1.00  0.00    -0.374 OA
ENDROOT
BRANCH   1   2
ATOM      2  C   UNL A   1      36.537  23.438  24.811  1.00  0.00     0.202 C 
BRANCH   2   3
ATOM      3  C   UNL A   1      35.764  23.678  23.511  1.00  0.00     0.261 C 
BRANCH   3   4
ATOM      4  O   UNL A   1      34.567  22.896  23.484  1.00  0.00    -0.460 OA
BRANCH   4   5
ATOM      5  C   UNL A   1      33.534  23.458  22.793  1.00  0.00     0.343 C 
ATOM      6  O   UNL A   1      33.351  23.349  21.589  1.00  0.00    -0.246 OA
BRANCH   5   7
ATOM      7  C   UNL A   1      32.733  24.315  23.644  1.00  0.00     0.118 A 
ATOM      8  C   UNL A   1      33.631  26.556  22.581  1.00  0.00     0.069 C 
ATOM      9  C   UNL A   1      32.747  25.758  23.481  1.00  0.00     0.068 A 
ATOM     10  N   UNL A   1      31.873  26.437  24.215  1.00  0.00    -0.195 NA
ATOM     11  S   UNL A   1      31.043  25.384  25.151  1.00  0.00    -0.017 S 
ATOM     12  C   UNL A   1      31.958  23.962  24.758  1.00  0.00     0.134 A 
BRANCH  12  13
ATOM     13  N   UNL A   1      31.771  22.820  25.613  1.00  0.00    -0.286 N 
ATOM     14  C   UNL A   1      30.406  22.434  26.026  1.00  0.00     0.156 C 
BRANCH  13  15
ATOM     15  C   UNL A   1      32.900  22.192  26.175  1.00  0.00     0.326 C 
ATOM     16  O   UNL A   1      33.730  22.750  26.888  1.00  0.00    -0.248 OA
ATOM     17  N   UNL A   1      33.002  20.820  26.125  1.00  0.00    -0.307 N 
ATOM     18  H   UNL A   1      33.177  20.391  26.995  1.00  0.00     0.171 HD
BRANCH  17  19
ATOM     19  C   UNL A   1      32.901  19.931  25.048  1.00  0.00     0.044 A 
ATOM     20  C   UNL A   1      32.421  20.345  23.805  1.00  0.00     0.026 A 
ATOM     21  C   UNL A   1      33.266  18.596  25.249  1.00  0.00     0.046 A 
ATOM     22  C   UNL A   1      32.201  19.411  22.795  1.00  0.00     0.004 A 
ATOM     23  C   UNL A   1      33.027  17.664  24.239  1.00  0.00     0.043 A 
ATOM     24  C   UNL A   1      32.481  18.063  23.020  1.00  0.00     0.020 A 
ATOM     25  Cl  UNL A   1      33.362  15.997  24.513  1.00  0.00    -0.084 Cl
ENDBRANCH  17  19
ENDBRANCH  13  15
ENDBRANCH  12  13
ENDBRANCH   5   7
ENDBRANCH   4   5
ENDBRANCH   3   4
ENDBRANCH   2   3
ENDBRANCH   1   2
BRANCH   1  26
ATOM     26  C   UNL A   1      37.734  21.287  25.023  1.00  0.00     0.202 C 
BRANCH  26  27
ATOM     27  C   UNL A   1      38.971  21.356  25.893  1.00  0.00     0.261 C 
BRANCH  27  28
ATOM     28  O   UNL A   1      39.077  22.616  26.519  1.00  0.00    -0.460 OA
BRANCH  28  29
ATOM     29  C   UNL A   1      40.205  22.750  27.250  1.00  0.00     0.338 C 
ATOM     30  O   UNL A   1      40.704  21.931  27.997  1.00  0.00    -0.246 OA
BRANCH  29  31
ATOM     31  C   UNL A   1      40.647  24.141  27.133  1.00  0.00     0.060 A 
ATOM     32  C   UNL A   1      41.852  24.428  27.771  1.00  0.00     0.016 A 
ATOM     33  C   UNL A   1      39.709  25.129  26.793  1.00  0.00     0.016 A 
ATOM     34  C   UNL A   1      41.978  25.667  28.344  1.00  0.00     0.010 A 
ATOM     35  C   UNL A   1      39.837  26.363  27.370  1.00  0.00     0.010 A 
ATOM     36  C   UNL A   1      40.912  26.566  28.226  1.00  0.00    -0.014 A 
BRANCH  36  37
ATOM     37  C   UNL A   1      40.993  27.797  28.971  1.00  0.00     0.031 A 
ATOM     38  C   UNL A   1      42.077  28.659  28.462  1.00  0.00     0.074 A 
ATOM     39  C   UNL A   1      40.118  28.107  29.945  1.00  0.00     0.049 A 
ATOM     40  N   UNL A   1      43.223  28.881  29.011  1.00  0.00    -0.248 NA
ATOM     41  C   UNL A   1      41.978  29.111  27.064  1.00  0.00     0.031 C 
ATOM     42  C   UNL A   1      38.874  27.433  30.322  1.00  0.00     0.029 A 
ATOM     43  N   UNL A   1      40.137  29.188  30.764  1.00  0.00    -0.354 N 
ATOM     44  C   UNL A   1      43.893  29.714  28.125  1.00  0.00     0.074 A 
ATOM     45  C   UNL A   1      43.196  29.619  26.871  1.00  0.00     0.031 C 
ATOM     46  C   UNL A   1      38.150  28.250  31.125  1.00  0.00     0.029 A 
ATOM     47  C   UNL A   1      38.940  29.431  31.429  1.00  0.00     0.049 A 
ATOM     48  H   UNL A   1      40.933  29.754  30.880  1.00  0.00     0.167 HD
ATOM     49  C   UNL A   1      44.794  30.627  28.572  1.00  0.00     0.037 A 
ATOM     50  C   UNL A   1      38.638  30.581  32.086  1.00  0.00     0.037 A 
ATOM     51  C   UNL A   1      45.221  30.320  29.913  1.00  0.00     0.049 A 
ATOM     52  C   UNL A   1      39.941  31.247  32.387  1.00  0.00     0.074 A 
ATOM     53  C   UNL A   1      45.881  29.253  30.491  1.00  0.00     0.029 A 
ATOM     54  N   UNL A   1      44.602  30.988  30.945  1.00  0.00    -0.354 N 
ATOM     55  N   UNL A   1      40.839  30.741  33.194  1.00  0.00    -0.248 NA
ATOM     56  C   UNL A   1      40.453  32.192  31.404  1.00  0.00     0.031 C 
ATOM     57  C   UNL A   1      45.243  29.062  31.751  1.00  0.00     0.029 A 
ATOM     58  C   UNL A   1      44.284  30.065  31.909  1.00  0.00     0.049 A 
ATOM     59  H   UNL A   1      44.420  31.955  30.983  1.00  0.00     0.167 HD
ATOM     60  C   UNL A   1      42.059  30.977  32.572  1.00  0.00     0.074 A 
ATOM     61  C   UNL A   1      41.759  31.919  31.494  1.00  0.00     0.031 C 
ATOM     62  C   UNL A   1      43.141  30.173  32.793  1.00  0.00     0.037 A 
BRANCH  49  63
ATOM     63  C   UNL A   1      44.982  31.984  27.945  1.00  0.00     0.058 A 
ATOM     64  C   UNL A   1      46.234  32.314  27.393  1.00  0.00     0.135 A 
ATOM     65  C   UNL A   1      44.078  33.060  28.102  1.00  0.00     0.135 A 
ATOM     66  F   UNL A   1      47.171  31.371  27.209  1.00  0.00    -0.206 F 
ATOM     67  C   UNL A   1      46.586  33.628  27.087  1.00  0.00     0.059 A 
ATOM     68  C   UNL A   1      44.388  34.365  27.748  1.00  0.00     0.059 A 
ATOM     69  F   UNL A   1      42.889  32.925  28.698  1.00  0.00    -0.206 F 
ATOM     70  C   UNL A   1      45.658  34.648  27.281  1.00  0.00     0.060 A 
BRANCH  70  71
ATOM     71  S   UNL A   1      46.140  36.354  26.982  1.00  0.00     0.124 S 
ATOM     72  O   UNL A   1      46.901  36.656  28.190  1.00  0.00    -0.237 OA
ATOM     73  O   UNL A   1      46.912  36.237  25.750  1.00  0.00    -0.237 OA
ATOM     74  O   UNL A   1      44.862  37.047  26.852  1.00  0.00    -0.744 OA
ENDBRANCH  70  71
ENDBRANCH  49  63
BRANCH  50  75
ATOM     75  C   UNL A   1      37.346  31.323  32.048  1.00  0.00     0.058 A 
ATOM     76  C   UNL A   1      36.739  31.804  33.223  1.00  0.00     0.135 A 
ATOM     77  C   UNL A   1      36.822  31.821  30.837  1.00  0.00     0.135 A 
ATOM     78  F   UNL A   1      37.189  31.406  34.422  1.00  0.00    -0.206 F 
ATOM     79  C   UNL A   1      35.705  32.750  33.200  1.00  0.00     0.059 A 
ATOM     80  C   UNL A   1      35.789  32.758  30.788  1.00  0.00     0.059 A 
ATOM     81  F   UNL A   1      37.362  31.480  29.658  1.00  0.00    -0.206 F 
ATOM     82  C   UNL A   1      35.249  33.237  31.974  1.00  0.00     0.060 A 
BRANCH  82  83
ATOM     83  S   UNL A   1      34.031  34.575  31.937  1.00  0.00     0.124 S 
ATOM     84  O   UNL A   1      34.824  35.718  32.377  1.00  0.00    -0.237 OA
ATOM     85  O   UNL A   1      33.623  34.584  30.536  1.00  0.00    -0.237 OA
ATOM     86  O   UNL A   1      33.007  34.129  32.877  1.00  0.00    -0.744 OA
ENDBRANCH  82  83
ENDBRANCH  50  75
BRANCH  62  87
ATOM     87  C   UNL A   1      43.080  29.170  33.919  1.00  0.00     0.058 A 
ATOM     88  C   UNL A   1      43.284  29.482  35.276  1.00  0.00     0.135 A 
ATOM     89  C   UNL A   1      42.588  27.892  33.623  1.00  0.00     0.135 A 
ATOM     90  F   UNL A   1      43.667  30.710  35.650  1.00  0.00    -0.206 F 
ATOM     91  C   UNL A   1      43.022  28.553  36.290  1.00  0.00     0.059 A 
ATOM     92  C   UNL A   1      42.292  26.964  34.616  1.00  0.00     0.059 A 
ATOM     93  F   UNL A   1      42.317  27.556  32.351  1.00  0.00    -0.206 F 
ATOM     94  C   UNL A   1      42.516  27.299  35.949  1.00  0.00     0.060 A 
BRANCH  94  95
ATOM     95  S   UNL A   1      42.072  26.133  37.258  1.00  0.00     0.124 S 
ATOM     96  O   UNL A   1      43.101  26.391  38.260  1.00  0.00    -0.237 OA
ATOM     97  O   UNL A   1      40.721  26.555  37.614  1.00  0.00    -0.237 OA
ATOM     98  O   UNL A   1      42.156  24.831  36.600  1.00  0.00    -0.744 OA
ENDBRANCH  94  95
ENDBRANCH  62  87
ENDBRANCH  36  37
ENDBRANCH  29  31
ENDBRANCH  28  29
ENDBRANCH  27  28
ENDBRANCH  26  27
ENDBRANCH   1  26
TORSDOF 20
ENDMDL
MODEL 3
REMARK VINA RESULT:     -10.9      2.035      2.931
REMARK SMILES Cc1nsc(N(C)C(=O)Nc2cccc(Cl)c2)c1C(=O)OCCOCCOC(=O)c1ccc(-c2c3nc(c(-c4c(F)cc(S(=O)(=O)[O-])cc4F)c4ccc([nH]4)c(-c4c(F)cc(S(=O)(=O)[O-])cc4F)c4nc(c(-c5c(F)cc(S(=O)(=O)[O-])cc5F)c5ccc2[nH]5)C=C4)C=C3)cc1
REMARK SMILES IDX 24 1 23 2 22 3 21 4 19 5 20 6 18 7 1 8 2 9 3 10 4 11 5 12
REMARK SMILES IDX 6 13 7 14 8 15 9 16 10 17 11 19 12 20 17 21 13 22 15 23
REMARK SMILES IDX 14 24 16 25 25 26 26 27 27 28 28 29 29 30 30 31 31 32 95 33
REMARK SMILES IDX 32 34 94 35 33 36 34 37 35 38 88 39 36 40 93 41 87 42 89 43
REMARK SMILES IDX 37 44 92 45 86 46 85 47 38 49 72 50 51 51 71 52 52 53 55 54
REMARK SMILES IDX 70 55 90 56 53 57 54 58 69 60 91 61 56 62 39 63 40 64 49 65
REMARK SMILES IDX 41 66 42 67 48 68 50 69 43 70 44 71 45 72 46 73 47 74 73 75
REMARK SMILES IDX 74 76 83 77 75 78 76 79 82 80 84 81 77 82 78 83 79 84 80 85
REMARK SMILES IDX 81 86 57 87 58 88 67 89 59 90 60 91 66 92 68 93 61 94 62 95
REMARK SMILES IDX 63 96 64 97 65 98
REMARK H PARENT 10 18 89 48 55 59
REMARK Flexibility Score: inf
ROOT
ATOM      1  O   UNL A   1      36.021  21.444  24.781  1.00  0.00    -0.374 OA
ENDROOT
BRANCH   1   2
ATOM      2  C   UNL A   1      35.446  21.567  26.088  1.00  0.00     0.202 C 
BRANCH   2   3
ATOM      3  C   UNL A   1      35.146  22.970  26.626  1.00  0.00     0.261 C 
BRANCH   3   4
ATOM      4  O   UNL A   1      33.871  23.424  26.165  1.00  0.00    -0.460 OA
BRANCH   4   5
ATOM      5  C   UNL A   1      33.915  24.240  25.073  1.00  0.00     0.343 C 
ATOM      6  O   UNL A   1      34.883  24.904  24.730  1.00  0.00    -0.246 OA
BRANCH   5   7
ATOM      7  C   UNL A   1      32.622  24.326  24.425  1.00  0.00     0.118 A 
ATOM      8  C   UNL A   1      32.846  21.996  23.210  1.00  0.00     0.069 C 
ATOM      9  C   UNL A   1      32.117  23.235  23.611  1.00  0.00     0.068 A 
ATOM     10  N   UNL A   1      30.866  23.359  23.180  1.00  0.00    -0.195 NA
ATOM     11  S   UNL A   1      30.274  24.793  23.692  1.00  0.00    -0.017 S 
ATOM     12  C   UNL A   1      31.747  25.421  24.363  1.00  0.00     0.134 A 
BRANCH  12  13
ATOM     13  N   UNL A   1      31.771  26.828  24.660  1.00  0.00    -0.286 N 
ATOM     14  C   UNL A   1      31.238  27.311  25.950  1.00  0.00     0.156 C 
BRANCH  13  15
ATOM     15  C   UNL A   1      32.150  27.735  23.651  1.00  0.00     0.326 C 
ATOM     16  O   UNL A   1      33.310  28.026  23.369  1.00  0.00    -0.248 OA
ATOM     17  N   UNL A   1      31.204  28.183  22.757  1.00  0.00    -0.307 N 
ATOM     18  H   UNL A   1      31.454  28.079  21.810  1.00  0.00     0.171 HD
BRANCH  17  19
ATOM     19  C   UNL A   1      29.947  28.764  22.966  1.00  0.00     0.044 A 
ATOM     20  C   UNL A   1      28.798  27.984  23.106  1.00  0.00     0.026 A 
ATOM     21  C   UNL A   1      29.854  30.159  23.003  1.00  0.00     0.046 A 
ATOM     22  C   UNL A   1      27.546  28.590  23.173  1.00  0.00     0.004 A 
ATOM     23  C   UNL A   1      28.596  30.759  23.053  1.00  0.00     0.043 A 
ATOM     24  C   UNL A   1      27.441  29.980  23.122  1.00  0.00     0.020 A 
ATOM     25  Cl  UNL A   1      28.459  32.474  22.982  1.00  0.00    -0.084 Cl
ENDBRANCH  17  19
ENDBRANCH  13  15
ENDBRANCH  12  13
ENDBRANCH   5   7
ENDBRANCH   4   5
ENDBRANCH   3   4
ENDBRANCH   2   3
ENDBRANCH   1   2
BRANCH   1  26
ATOM     26  C   UNL A   1      37.398  21.746  24.585  1.00  0.00     0.202 C 
BRANCH  26  27
ATOM     27  C   UNL A   1      38.399  21.444  25.680  1.00  0.00     0.261 C 
BRANCH  27  28
ATOM     28  O   UNL A   1      38.849  22.633  26.294  1.00  0.00    -0.460 OA
BRANCH  28  29
ATOM     29  C   UNL A   1      40.012  22.474  26.963  1.00  0.00     0.338 C 
ATOM     30  O   UNL A   1      40.378  21.499  27.587  1.00  0.00    -0.246 OA
BRANCH  29  31
ATOM     31  C   UNL A   1      40.701  23.766  26.966  1.00  0.00     0.060 A 
ATOM     32  C   UNL A   1      41.620  23.936  27.999  1.00  0.00     0.016 A 
ATOM     33  C   UNL A   1      40.141  24.841  26.257  1.00  0.00     0.016 A 
ATOM     34  C   UNL A   1      41.743  25.196  28.527  1.00  0.00     0.010 A 
ATOM     35  C   UNL A   1      40.262  26.095  26.790  1.00  0.00     0.010 A 
ATOM     36  C   UNL A   1      40.968  26.225  27.980  1.00  0.00    -0.014 A 
BRANCH  36  37
ATOM     37  C   UNL A   1      40.985  27.500  28.650  1.00  0.00     0.031 A 
ATOM     38  C   UNL A   1      42.213  28.254  28.335  1.00  0.00     0.074 A 
ATOM     39  C   UNL A   1      39.952  27.935  29.394  1.00  0.00     0.049 A 
ATOM     40  N   UNL A   1      43.233  28.444  29.101  1.00  0.00    -0.248 NA
ATOM     41  C   UNL A   1      42.444  28.605  26.923  1.00  0.00     0.031 C 
ATOM     42  C   UNL A   1      38.608  27.370  29.536  1.00  0.00     0.029 A 
ATOM     43  N   UNL A   1      39.881  29.071  30.133  1.00  0.00    -0.354 N 
ATOM     44  C   UNL A   1      44.135  29.166  28.331  1.00  0.00     0.074 A 
ATOM     45  C   UNL A   1      43.710  29.021  26.965  1.00  0.00     0.031 C 
ATOM     46  C   UNL A   1      37.797  28.287  30.115  1.00  0.00     0.029 A 
ATOM     47  C   UNL A   1      38.593  29.436  30.511  1.00  0.00     0.049 A 
ATOM     48  H   UNL A   1      40.677  29.594  30.382  1.00  0.00     0.167 HD
ATOM     49  C   UNL A   1      44.990  30.052  28.905  1.00  0.00     0.037 A 
ATOM     50  C   UNL A   1      38.249  30.649  31.018  1.00  0.00     0.037 A 
ATOM     51  C   UNL A   1      45.102  29.820  30.323  1.00  0.00     0.049 A 
ATOM     52  C   UNL A   1      39.508  31.254  31.551  1.00  0.00     0.074 A 
ATOM     53  C   UNL A   1      45.543  28.761  31.091  1.00  0.00     0.029 A 
ATOM     54  N   UNL A   1      44.334  30.600  31.157  1.00  0.00    -0.354 N 
ATOM     55  N   UNL A   1      40.175  30.754  32.560  1.00  0.00    -0.248 NA
ATOM     56  C   UNL A   1      40.285  32.089  30.645  1.00  0.00     0.031 C 
ATOM     57  C   UNL A   1      44.643  28.703  32.194  1.00  0.00     0.029 A 
ATOM     58  C   UNL A   1      43.752  29.773  32.084  1.00  0.00     0.049 A 
ATOM     59  H   UNL A   1      44.222  31.576  31.098  1.00  0.00     0.167 HD
ATOM     60  C   UNL A   1      41.513  30.868  32.200  1.00  0.00     0.074 A 
ATOM     61  C   UNL A   1      41.518  31.743  31.029  1.00  0.00     0.031 C 
ATOM     62  C   UNL A   1      42.461  30.017  32.695  1.00  0.00     0.037 A 
BRANCH  49  63
ATOM     63  C   UNL A   1      45.407  31.345  28.253  1.00  0.00     0.058 A 
ATOM     64  C   UNL A   1      44.439  32.343  28.034  1.00  0.00     0.135 A 
ATOM     65  C   UNL A   1      46.644  31.536  27.595  1.00  0.00     0.135 A 
ATOM     66  F   UNL A   1      43.227  32.257  28.603  1.00  0.00    -0.206 F 
ATOM     67  C   UNL A   1      44.661  33.415  27.170  1.00  0.00     0.059 A 
ATOM     68  C   UNL A   1      46.905  32.626  26.777  1.00  0.00     0.059 A 
ATOM     69  F   UNL A   1      47.627  30.630  27.625  1.00  0.00    -0.206 F 
ATOM     70  C   UNL A   1      45.894  33.538  26.536  1.00  0.00     0.060 A 
BRANCH  70  71
ATOM     71  S   UNL A   1      46.151  34.860  25.345  1.00  0.00     0.124 S 
ATOM     72  O   UNL A   1      47.587  34.762  25.108  1.00  0.00    -0.237 OA
ATOM     73  O   UNL A   1      45.289  34.444  24.245  1.00  0.00    -0.237 OA
ATOM     74  O   UNL A   1      45.710  36.051  26.065  1.00  0.00    -0.744 OA
ENDBRANCH  70  71
ENDBRANCH  49  63
BRANCH  50  75
ATOM     75  C   UNL A   1      37.054  31.464  30.661  1.00  0.00     0.058 A 
ATOM     76  C   UNL A   1      36.221  32.021  31.649  1.00  0.00     0.135 A 
ATOM     77  C   UNL A   1      36.863  31.950  29.350  1.00  0.00     0.135 A 
ATOM     78  F   UNL A   1      36.350  31.639  32.928  1.00  0.00    -0.206 F 
ATOM     79  C   UNL A   1      35.286  33.025  31.362  1.00  0.00     0.059 A 
ATOM     80  C   UNL A   1      35.935  32.944  29.039  1.00  0.00     0.059 A 
ATOM     81  F   UNL A   1      37.642  31.536  28.340  1.00  0.00    -0.206 F 
ATOM     82  C   UNL A   1      35.164  33.495  30.055  1.00  0.00     0.060 A 
BRANCH  82  83
ATOM     83  S   UNL A   1      34.080  34.901  29.703  1.00  0.00     0.124 S 
ATOM     84  O   UNL A   1      32.855  34.237  29.269  1.00  0.00    -0.237 OA
ATOM     85  O   UNL A   1      34.015  35.573  30.996  1.00  0.00    -0.237 OA
ATOM     86  O   UNL A   1      34.796  35.631  28.661  1.00  0.00    -0.744 OA
ENDBRANCH  82  83
ENDBRANCH  50  75
BRANCH  62  87
ATOM     87  C   UNL A   1      42.089  29.106  33.839  1.00  0.00     0.058 A 
ATOM     88  C   UNL A   1      41.388  27.894  33.699  1.00  0.00     0.135 A 
ATOM     89  C   UNL A   1      42.655  29.377  35.093  1.00  0.00     0.135 A 
ATOM     90  F   UNL A   1      40.895  27.518  32.511  1.00  0.00    -0.206 F 
ATOM     91  C   UNL A   1      41.246  27.000  34.766  1.00  0.00     0.059 A 
ATOM     92  C   UNL A   1      42.551  28.489  36.159  1.00  0.00     0.059 A 
ATOM     93  F   UNL A   1      43.385  30.490  35.273  1.00  0.00    -0.206 F 
ATOM     94  C   UNL A   1      41.841  27.303  35.991  1.00  0.00     0.060 A 
BRANCH  94  95
ATOM     95  S   UNL A   1      41.755  26.105  37.342  1.00  0.00     0.124 S 
ATOM     96  O   UNL A   1      42.893  26.492  38.168  1.00  0.00    -0.237 OA
ATOM     97  O   UNL A   1      40.438  26.367  37.915  1.00  0.00    -0.237 OA
ATOM     98  O   UNL A   1      41.885  24.816  36.666  1.00  0.00    -0.744 OA
ENDBRANCH  94  95
ENDBRANCH  62  87
ENDBRANCH  36  37
ENDBRANCH  29  31
ENDBRANCH  28  29
ENDBRANCH  27  28
ENDBRANCH  26  27
ENDBRANCH   1  26
TORSDOF 20
ENDMDL
