MODEL 1
REMARK VINA RESULT:     -12.3      0.000      0.000
REMARK SMILES O=C(OCCOCCOC(=O)c1ccc(-c2c3nc(c(-c4c(F)cc(S(=O)(=O)[O-])cc4F)c4ccc([nH]4)c(-c4c(F)cc(S(=O)(=O)[O-])cc4F)c4nc(c(-c5c(F)cc(S(=O)(=O)[O-])cc5F)c5ccc2[nH]5)C=C4)C=C3)cc1)C1=Cc2cc(Cl)cc(Cl)c2O[C@@H]1C(F)(F)F
REMARK SMILES IDX 7 1 6 2 5 3 4 4 3 5 2 6 1 7 78 8 79 9 89 10 80 11 88 12
REMARK SMILES IDX 81 13 87 14 82 15 85 16 83 17 84 18 86 19 90 20 91 21 92 22
REMARK SMILES IDX 93 23 8 24 9 25 10 26 11 27 12 28 13 29 77 30 14 31 76 32
REMARK SMILES IDX 15 33 16 34 17 35 70 36 18 37 75 38 69 39 71 40 19 41 74 42
REMARK SMILES IDX 68 43 67 44 20 46 54 47 33 48 53 49 34 50 37 51 52 52 72 53
REMARK SMILES IDX 35 54 36 55 51 57 73 58 38 59 21 60 22 61 31 62 23 63 24 64
REMARK SMILES IDX 30 65 32 66 25 67 26 68 27 69 28 70 29 71 55 72 56 73 65 74
REMARK SMILES IDX 57 75 58 76 64 77 66 78 59 79 60 80 61 81 62 82 63 83 39 84
REMARK SMILES IDX 40 85 49 86 41 87 42 88 48 89 50 90 43 91 44 92 45 93 46 94
REMARK SMILES IDX 47 95
REMARK H PARENT 71 45 37 56
REMARK Flexibility Score: inf
ROOT
ATOM      1  C   UNL A   1      33.833  31.874  27.665  1.00  0.00     0.202 C 
ENDROOT
BRANCH   1   2
ATOM      2  O   UNL A   1      33.435  30.501  27.549  1.00  0.00    -0.374 OA
BRANCH   2   3
ATOM      3  C   UNL A   1      32.171  29.763  26.970  1.00  0.00     0.202 C 
BRANCH   3   4
ATOM      4  C   UNL A   1      31.780  27.680  26.453  1.00  0.00     0.261 C 
BRANCH   4   5
ATOM      5  O   UNL A   1      32.633  26.454  26.842  1.00  0.00    -0.460 OA
BRANCH   5   6
ATOM      6  C   UNL A   1      32.068  25.294  26.501  1.00  0.00     0.338 C 
ATOM      7  O   UNL A   1      31.474  24.492  27.174  1.00  0.00    -0.246 OA
BRANCH   6   8
ATOM      8  C   UNL A   1      32.706  25.205  25.209  1.00  0.00     0.087 C 
ATOM      9  C   UNL A   1      34.192  25.098  25.363  1.00  0.00     0.027 C 
ATOM     10  C   UNL A   1      31.570  23.805  24.496  1.00  0.00     0.316 C 
ATOM     11  C   UNL A   1      35.121  23.559  25.048  1.00  0.00     0.020 A 
ATOM     12  O   UNL A   1      32.534  22.163  24.219  1.00  0.00    -0.474 OA
ATOM     13  C   UNL A   1      36.438  23.489  25.419  1.00  0.00     0.032 A 
ATOM     14  C   UNL A   1      34.312  22.084  24.613  1.00  0.00     0.146 A 
ATOM     15  C   UNL A   1      36.978  22.188  25.461  1.00  0.00     0.043 A 
ATOM     16  C   UNL A   1      34.885  20.867  24.844  1.00  0.00     0.085 A 
ATOM     17  Cl  UNL A   1      38.650  22.057  25.909  1.00  0.00    -0.084 Cl
ATOM     18  C   UNL A   1      36.241  20.953  25.237  1.00  0.00     0.045 A 
ATOM     19  Cl  UNL A   1      33.989  19.429  24.991  1.00  0.00    -0.080 Cl
BRANCH  10  20
ATOM     20  C   UNL A   1      30.662  24.644  23.514  1.00  0.00     0.430 C 
ATOM     21  F   UNL A   1      31.318  25.410  22.625  1.00  0.00    -0.167 F 
ATOM     22  F   UNL A   1      29.963  23.745  22.753  1.00  0.00    -0.167 F 
ATOM     23  F   UNL A   1      29.701  25.380  24.119  1.00  0.00    -0.167 F 
ENDBRANCH  10  20
ENDBRANCH   6   8
ENDBRANCH   5   6
ENDBRANCH   4   5
ENDBRANCH   3   4
ENDBRANCH   2   3
ENDBRANCH   1   2
BRANCH   1  24
ATOM     24  C   UNL A   1      34.660  32.386  28.828  1.00  0.00     0.261 C 
BRANCH  24  25
ATOM     25  O   UNL A   1      35.986  31.905  28.813  1.00  0.00    -0.460 OA
BRANCH  25  26
ATOM     26  C   UNL A   1      36.395  31.352  29.974  1.00  0.00     0.338 C 
ATOM     27  O   UNL A   1      35.791  31.292  31.028  1.00  0.00    -0.246 OA
BRANCH  26  28
ATOM     28  C   UNL A   1      37.723  30.778  29.720  1.00  0.00     0.060 A 
ATOM     29  C   UNL A   1      38.571  30.552  30.808  1.00  0.00     0.016 A 
ATOM     30  C   UNL A   1      38.088  30.392  28.422  1.00  0.00     0.016 A 
ATOM     31  C   UNL A   1      39.772  29.880  30.606  1.00  0.00     0.010 A 
ATOM     32  C   UNL A   1      39.283  29.721  28.222  1.00  0.00     0.010 A 
ATOM     33  C   UNL A   1      40.126  29.467  29.315  1.00  0.00    -0.014 A 
BRANCH  33  34
ATOM     34  C   UNL A   1      41.488  28.992  29.024  1.00  0.00     0.031 A 
ATOM     35  C   UNL A   1      42.557  30.036  28.963  1.00  0.00     0.074 A 
ATOM     36  C   UNL A   1      41.735  27.707  28.727  1.00  0.00     0.049 A 
ATOM     37  N   UNL A   1      43.803  29.925  28.601  1.00  0.00    -0.248 NA
ATOM     38  C   UNL A   1      42.149  31.402  29.341  1.00  0.00     0.031 C 
ATOM     39  C   UNL A   1      40.753  26.626  28.757  1.00  0.00     0.029 A 
ATOM     40  N   UNL A   1      42.890  27.104  28.302  1.00  0.00    -0.354 N 
ATOM     41  C   UNL A   1      44.328  31.205  28.697  1.00  0.00     0.074 A 
ATOM     42  C   UNL A   1      43.257  32.084  29.110  1.00  0.00     0.031 C 
ATOM     43  C   UNL A   1      41.340  25.493  28.334  1.00  0.00     0.029 A 
ATOM     44  C   UNL A   1      42.727  25.781  27.970  1.00  0.00     0.049 A 
ATOM     45  H   UNL A   1      43.753  27.573  28.241  1.00  0.00     0.167 HD
ATOM     46  C   UNL A   1      45.595  31.609  28.460  1.00  0.00     0.037 A 
ATOM     47  C   UNL A   1      43.593  24.918  27.403  1.00  0.00     0.037 A 
ATOM     48  C   UNL A   1      46.626  30.722  28.000  1.00  0.00     0.049 A 
ATOM     49  C   UNL A   1      44.988  25.395  27.088  1.00  0.00     0.074 A 
ATOM     50  C   UNL A   1      47.953  31.008  27.742  1.00  0.00     0.029 A 
ATOM     51  N   UNL A   1      46.435  29.380  27.695  1.00  0.00    -0.354 N 
ATOM     52  N   UNL A   1      45.502  26.593  27.244  1.00  0.00    -0.248 NA
ATOM     53  C   UNL A   1      45.923  24.409  26.531  1.00  0.00     0.031 C 
ATOM     54  C   UNL A   1      48.544  29.860  27.209  1.00  0.00     0.029 A 
ATOM     55  C   UNL A   1      47.611  28.833  27.217  1.00  0.00     0.049 A 
ATOM     56  H   UNL A   1      45.586  28.892  27.803  1.00  0.00     0.167 HD
ATOM     57  C   UNL A   1      46.830  26.498  26.837  1.00  0.00     0.074 A 
ATOM     58  C   UNL A   1      47.036  25.123  26.424  1.00  0.00     0.031 C 
ATOM     59  C   UNL A   1      47.792  27.454  26.820  1.00  0.00     0.037 A 
BRANCH  46  60
ATOM     60  C   UNL A   1      45.885  33.071  28.634  1.00  0.00     0.058 A 
ATOM     61  C   UNL A   1      45.770  33.986  27.573  1.00  0.00     0.135 A 
ATOM     62  C   UNL A   1      46.344  33.558  29.868  1.00  0.00     0.135 A 
ATOM     63  F   UNL A   1      45.362  33.572  26.362  1.00  0.00    -0.206 F 
ATOM     64  C   UNL A   1      46.153  35.315  27.714  1.00  0.00     0.059 A 
ATOM     65  C   UNL A   1      46.694  34.891  30.044  1.00  0.00     0.059 A 
ATOM     66  F   UNL A   1      46.482  32.727  30.914  1.00  0.00    -0.206 F 
ATOM     67  C   UNL A   1      46.621  35.756  28.953  1.00  0.00     0.060 A 
BRANCH  67  68
ATOM     68  S   UNL A   1      47.153  37.472  29.109  1.00  0.00     0.124 S 
ATOM     69  O   UNL A   1      46.752  37.776  30.479  1.00  0.00    -0.237 OA
ATOM     70  O   UNL A   1      48.590  37.373  28.878  1.00  0.00    -0.237 OA
ATOM     71  O   UNL A   1      46.398  38.159  28.066  1.00  0.00    -0.744 OA
ENDBRANCH  67  68
ENDBRANCH  46  60
BRANCH  47  72
ATOM     72  C   UNL A   1      43.153  23.530  27.096  1.00  0.00     0.058 A 
ATOM     73  C   UNL A   1      42.933  23.110  25.776  1.00  0.00     0.135 A 
ATOM     74  C   UNL A   1      42.996  22.578  28.117  1.00  0.00     0.135 A 
ATOM     75  F   UNL A   1      43.056  23.983  24.766  1.00  0.00    -0.206 F 
ATOM     76  C   UNL A   1      42.585  21.796  25.477  1.00  0.00     0.059 A 
ATOM     77  C   UNL A   1      42.674  21.253  27.842  1.00  0.00     0.059 A 
ATOM     78  F   UNL A   1      43.201  22.926  29.397  1.00  0.00    -0.206 F 
ATOM     79  C   UNL A   1      42.473  20.870  26.517  1.00  0.00     0.060 A 
BRANCH  79  80
ATOM     80  S   UNL A   1      42.123  19.146  26.105  1.00  0.00     0.124 S 
ATOM     81  O   UNL A   1      42.446  18.470  27.356  1.00  0.00    -0.237 OA
ATOM     82  O   UNL A   1      40.707  19.201  25.756  1.00  0.00    -0.237 OA
ATOM     83  O   UNL A   1      43.025  18.876  24.990  1.00  0.00    -0.744 OA
ENDBRANCH  79  80
ENDBRANCH  47  72
BRANCH  59  84
ATOM     84  C   UNL A   1      49.179  27.055  26.396  1.00  0.00     0.058 A 
ATOM     85  C   UNL A   1      50.080  26.431  27.273  1.00  0.00     0.135 A 
ATOM     86  C   UNL A   1      49.563  27.194  25.050  1.00  0.00     0.135 A 
ATOM     87  F   UNL A   1      49.767  26.279  28.569  1.00  0.00    -0.206 F 
ATOM     88  C   UNL A   1      51.314  25.963  26.831  1.00  0.00     0.059 A 
ATOM     89  C   UNL A   1      50.775  26.704  24.581  1.00  0.00     0.059 A 
ATOM     90  F   UNL A   1      48.734  27.774  24.168  1.00  0.00    -0.206 F 
ATOM     91  C   UNL A   1      51.646  26.092  25.480  1.00  0.00     0.060 A 
BRANCH  91  92
ATOM     92  S   UNL A   1      53.216  25.410  24.906  1.00  0.00     0.124 S 
ATOM     93  O   UNL A   1      54.177  26.266  25.593  1.00  0.00    -0.237 OA
ATOM     94  O   UNL A   1      53.145  24.030  25.376  1.00  0.00    -0.237 OA
ATOM     95  O   UNL A   1      53.152  25.577  23.458  1.00  0.00    -0.744 OA
ENDBRANCH  91  92
ENDBRANCH  59  84
ENDBRANCH  33  34
ENDBRANCH  26  28
ENDBRANCH  25  26
ENDBRANCH  24  25
ENDBRANCH   1  24
TORSDOF 18
ENDMDL
MODEL 2
REMARK VINA RESULT:     -12.1      6.495     11.525
REMARK SMILES O=C(OCCOCCOC(=O)c1ccc(-c2c3nc(c(-c4c(F)cc(S(=O)(=O)[O-])cc4F)c4ccc([nH]4)c(-c4c(F)cc(S(=O)(=O)[O-])cc4F)c4nc(c(-c5c(F)cc(S(=O)(=O)[O-])cc5F)c5ccc2[nH]5)C=C4)C=C3)cc1)C1=Cc2cc(Cl)cc(Cl)c2O[C@@H]1C(F)(F)F
REMARK SMILES IDX 7 1 6 2 5 3 4 4 3 5 2 6 1 7 78 8 79 9 89 10 80 11 88 12
REMARK SMILES IDX 81 13 87 14 82 15 85 16 83 17 84 18 86 19 90 20 91 21 92 22
REMARK SMILES IDX 93 23 8 24 9 25 10 26 11 27 12 28 13 29 77 30 14 31 76 32
REMARK SMILES IDX 15 33 16 34 17 35 70 36 18 37 75 38 69 39 71 40 19 41 74 42
REMARK SMILES IDX 68 43 67 44 20 46 54 47 33 48 53 49 34 50 37 51 52 52 72 53
REMARK SMILES IDX 35 54 36 55 51 57 73 58 38 59 21 60 22 61 31 62 23 63 24 64
REMARK SMILES IDX 30 65 32 66 25 67 26 68 27 69 28 70 29 71 55 72 56 73 65 74
REMARK SMILES IDX 57 75 58 76 64 77 66 78 59 79 60 80 61 81 62 82 63 83 39 84
REMARK SMILES IDX 40 85 49 86 41 87 42 88 48 89 50 90 43 91 44 92 45 93 46 94
REMARK SMILES IDX 47 95
REMARK H PARENT 71 45 37 56
REMARK Flexibility Score: inf
ROOT
ATOM      1  C   UNL A   1      41.943  22.109  26.734  1.00  0.00     0.202 C 
ENDROOT
BRANCH   1   2
ATOM      2  O   UNL A   1      41.112  21.084  26.172  1.00  0.00    -0.374 OA
BRANCH   2   3
ATOM      3  C   UNL A   1      39.561  20.815  26.138  1.00  0.00     0.202 C 
BRANCH   3   4
ATOM      4  C   UNL A   1      37.869  21.994  25.428  1.00  0.00     0.261 C 
BRANCH   4   5
ATOM      5  O   UNL A   1      36.479  21.464  25.017  1.00  0.00    -0.460 OA
BRANCH   5   6
ATOM      6  C   UNL A   1      35.850  22.261  24.151  1.00  0.00     0.338 C 
ATOM      7  O   UNL A   1      36.263  22.821  23.169  1.00  0.00    -0.246 OA
BRANCH   6   8
ATOM      8  C   UNL A   1      34.685  22.470  24.979  1.00  0.00     0.087 C 
ATOM      9  C   UNL A   1      34.764  23.795  25.672  1.00  0.00     0.027 C 
ATOM     10  C   UNL A   1      33.369  22.009  23.632  1.00  0.00     0.316 C 
ATOM     11  C   UNL A   1      33.722  25.224  25.219  1.00  0.00     0.020 A 
ATOM     12  O   UNL A   1      32.309  23.527  23.108  1.00  0.00    -0.474 OA
ATOM     13  C   UNL A   1      34.007  26.452  25.754  1.00  0.00     0.032 A 
ATOM     14  C   UNL A   1      32.609  25.148  23.887  1.00  0.00     0.146 A 
ATOM     15  C   UNL A   1      33.393  27.542  25.106  1.00  0.00     0.043 A 
ATOM     16  C   UNL A   1      32.200  26.278  23.239  1.00  0.00     0.085 A 
ATOM     17  Cl  UNL A   1      33.714  29.116  25.765  1.00  0.00    -0.084 Cl
ATOM     18  C   UNL A   1      32.583  27.470  23.899  1.00  0.00     0.045 A 
ATOM     19  Cl  UNL A   1      31.611  26.275  21.643  1.00  0.00    -0.080 Cl
BRANCH  10  20
ATOM     20  C   UNL A   1      32.938  20.574  24.130  1.00  0.00     0.430 C 
ATOM     21  F   UNL A   1      32.205  20.545  25.256  1.00  0.00    -0.167 F 
ATOM     22  F   UNL A   1      32.121  20.048  23.166  1.00  0.00    -0.167 F 
ATOM     23  F   UNL A   1      33.949  19.680  24.228  1.00  0.00    -0.167 F 
ENDBRANCH  10  20
ENDBRANCH   6   8
ENDBRANCH   5   6
ENDBRANCH   4   5
ENDBRANCH   3   4
ENDBRANCH   2   3
ENDBRANCH   1   2
BRANCH   1  24
ATOM     24  C   UNL A   1      42.218  23.416  26.018  1.00  0.00     0.261 C 
BRANCH  24  25
ATOM     25  O   UNL A   1      41.230  24.394  26.261  1.00  0.00    -0.460 OA
BRANCH  25  26
ATOM     26  C   UNL A   1      41.621  25.661  26.013  1.00  0.00     0.338 C 
ATOM     27  O   UNL A   1      42.064  26.118  24.977  1.00  0.00    -0.246 OA
BRANCH  26  28
ATOM     28  C   UNL A   1      41.371  26.426  27.242  1.00  0.00     0.060 A 
ATOM     29  C   UNL A   1      42.055  27.631  27.428  1.00  0.00     0.016 A 
ATOM     30  C   UNL A   1      40.405  25.989  28.160  1.00  0.00     0.016 A 
ATOM     31  C   UNL A   1      41.727  28.438  28.513  1.00  0.00     0.010 A 
ATOM     32  C   UNL A   1      40.078  26.794  29.239  1.00  0.00     0.010 A 
ATOM     33  C   UNL A   1      40.741  28.018  29.416  1.00  0.00    -0.014 A 
BRANCH  33  34
ATOM     34  C   UNL A   1      40.554  28.710  30.700  1.00  0.00     0.031 A 
ATOM     35  C   UNL A   1      39.517  29.787  30.731  1.00  0.00     0.074 A 
ATOM     36  C   UNL A   1      41.346  28.459  31.756  1.00  0.00     0.049 A 
ATOM     37  N   UNL A   1      39.236  30.639  31.675  1.00  0.00    -0.248 NA
ATOM     38  C   UNL A   1      38.702  29.934  29.511  1.00  0.00     0.031 C 
ATOM     39  C   UNL A   1      42.384  27.432  31.811  1.00  0.00     0.029 A 
ATOM     40  N   UNL A   1      41.421  29.083  32.973  1.00  0.00    -0.354 N 
ATOM     41  C   UNL A   1      38.219  31.430  31.162  1.00  0.00     0.074 A 
ATOM     42  C   UNL A   1      37.962  30.986  29.811  1.00  0.00     0.031 C 
ATOM     43  C   UNL A   1      43.017  27.517  32.993  1.00  0.00     0.029 A 
ATOM     44  C   UNL A   1      42.451  28.627  33.759  1.00  0.00     0.049 A 
ATOM     45  H   UNL A   1      40.795  29.788  33.258  1.00  0.00     0.167 HD
ATOM     46  C   UNL A   1      37.560  32.441  31.770  1.00  0.00     0.037 A 
ATOM     47  C   UNL A   1      42.904  29.085  34.944  1.00  0.00     0.037 A 
ATOM     48  C   UNL A   1      37.872  32.895  33.095  1.00  0.00     0.049 A 
ATOM     49  C   UNL A   1      42.197  30.251  35.586  1.00  0.00     0.074 A 
ATOM     50  C   UNL A   1      37.263  33.897  33.826  1.00  0.00     0.029 A 
ATOM     51  N   UNL A   1      38.909  32.398  33.876  1.00  0.00    -0.354 N 
ATOM     52  N   UNL A   1      41.189  30.957  35.127  1.00  0.00    -0.248 NA
ATOM     53  C   UNL A   1      42.677  30.681  36.906  1.00  0.00     0.031 C 
ATOM     54  C   UNL A   1      37.980  34.057  35.015  1.00  0.00     0.029 A 
ATOM     55  C   UNL A   1      38.980  33.096  35.067  1.00  0.00     0.049 A 
ATOM     56  H   UNL A   1      39.505  31.658  33.618  1.00  0.00     0.167 HD
ATOM     57  C   UNL A   1      40.891  31.891  36.115  1.00  0.00     0.074 A 
ATOM     58  C   UNL A   1      41.831  31.661  37.195  1.00  0.00     0.031 C 
ATOM     59  C   UNL A   1      39.922  32.840  36.133  1.00  0.00     0.037 A 
BRANCH  46  60
ATOM     60  C   UNL A   1      36.501  33.140  30.968  1.00  0.00     0.058 A 
ATOM     61  C   UNL A   1      36.818  34.075  29.967  1.00  0.00     0.135 A 
ATOM     62  C   UNL A   1      35.143  32.915  31.243  1.00  0.00     0.135 A 
ATOM     63  F   UNL A   1      38.101  34.351  29.679  1.00  0.00    -0.206 F 
ATOM     64  C   UNL A   1      35.831  34.802  29.312  1.00  0.00     0.059 A 
ATOM     65  C   UNL A   1      34.138  33.600  30.572  1.00  0.00     0.059 A 
ATOM     66  F   UNL A   1      34.782  32.040  32.195  1.00  0.00    -0.206 F 
ATOM     67  C   UNL A   1      34.492  34.562  29.627  1.00  0.00     0.060 A 
BRANCH  67  68
ATOM     68  S   UNL A   1      33.225  35.542  28.799  1.00  0.00     0.124 S 
ATOM     69  O   UNL A   1      34.039  36.493  28.048  1.00  0.00    -0.237 OA
ATOM     70  O   UNL A   1      32.528  34.538  28.003  1.00  0.00    -0.237 OA
ATOM     71  O   UNL A   1      32.457  36.108  29.904  1.00  0.00    -0.744 OA
ENDBRANCH  67  68
ENDBRANCH  46  60
BRANCH  47  72
ATOM     72  C   UNL A   1      44.084  28.439  35.578  1.00  0.00     0.058 A 
ATOM     73  C   UNL A   1      45.386  28.897  35.329  1.00  0.00     0.135 A 
ATOM     74  C   UNL A   1      43.929  27.384  36.492  1.00  0.00     0.135 A 
ATOM     75  F   UNL A   1      45.592  29.893  34.455  1.00  0.00    -0.206 F 
ATOM     76  C   UNL A   1      46.490  28.341  35.970  1.00  0.00     0.059 A 
ATOM     77  C   UNL A   1      45.013  26.829  37.164  1.00  0.00     0.059 A 
ATOM     78  F   UNL A   1      42.703  26.914  36.771  1.00  0.00    -0.206 F 
ATOM     79  C   UNL A   1      46.291  27.316  36.899  1.00  0.00     0.060 A 
BRANCH  79  80
ATOM     80  S   UNL A   1      47.721  26.675  37.798  1.00  0.00     0.124 S 
ATOM     81  O   UNL A   1      47.530  27.266  39.118  1.00  0.00    -0.237 OA
ATOM     82  O   UNL A   1      47.513  25.234  37.707  1.00  0.00    -0.237 OA
ATOM     83  O   UNL A   1      48.856  27.187  37.036  1.00  0.00    -0.744 OA
ENDBRANCH  79  80
ENDBRANCH  47  72
BRANCH  59  84
ATOM     84  C   UNL A   1      39.774  33.676  37.375  1.00  0.00     0.058 A 
ATOM     85  C   UNL A   1      40.455  34.891  37.545  1.00  0.00     0.135 A 
ATOM     86  C   UNL A   1      38.838  33.305  38.357  1.00  0.00     0.135 A 
ATOM     87  F   UNL A   1      41.364  35.289  36.641  1.00  0.00    -0.206 F 
ATOM     88  C   UNL A   1      40.215  35.708  38.647  1.00  0.00     0.059 A 
ATOM     89  C   UNL A   1      38.558  34.121  39.446  1.00  0.00     0.059 A 
ATOM     90  F   UNL A   1      38.151  32.158  38.237  1.00  0.00    -0.206 F 
ATOM     91  C   UNL A   1      39.255  35.320  39.584  1.00  0.00     0.060 A 
BRANCH  91  92
ATOM     92  S   UNL A   1      38.899  36.426  40.966  1.00  0.00     0.124 S 
ATOM     93  O   UNL A   1      37.778  35.746  41.606  1.00  0.00    -0.237 OA
ATOM     94  O   UNL A   1      40.156  36.411  41.707  1.00  0.00    -0.237 OA
ATOM     95  O   UNL A   1      38.576  37.692  40.316  1.00  0.00    -0.744 OA
ENDBRANCH  91  92
ENDBRANCH  59  84
ENDBRANCH  33  34
ENDBRANCH  26  28
ENDBRANCH  25  26
ENDBRANCH  24  25
ENDBRANCH   1  24
TORSDOF 18
ENDMDL
MODEL 3
REMARK VINA RESULT:     -12.1      6.506     11.940
REMARK SMILES O=C(OCCOCCOC(=O)c1ccc(-c2c3nc(c(-c4c(F)cc(S(=O)(=O)[O-])cc4F)c4ccc([nH]4)c(-c4c(F)cc(S(=O)(=O)[O-])cc4F)c4nc(c(-c5c(F)cc(S(=O)(=O)[O-])cc5F)c5ccc2[nH]5)C=C4)C=C3)cc1)C1=Cc2cc(Cl)cc(Cl)c2O[C@@H]1C(F)(F)F
REMARK SMILES IDX 7 1 6 2 5 3 4 4 3 5 2 6 1 7 78 8 79 9 89 10 80 11 88 12
REMARK SMILES IDX 81 13 87 14 82 15 85 16 83 17 84 18 86 19 90 20 91 21 92 22
REMARK SMILES IDX 93 23 8 24 9 25 10 26 11 27 12 28 13 29 77 30 14 31 76 32
REMARK SMILES IDX 15 33 16 34 17 35 70 36 18 37 75 38 69 39 71 40 19 41 74 42
REMARK SMILES IDX 68 43 67 44 20 46 54 47 33 48 53 49 34 50 37 51 52 52 72 53
REMARK SMILES IDX 35 54 36 55 51 57 73 58 38 59 21 60 22 61 31 62 23 63 24 64
REMARK SMILES IDX 30 65 32 66 25 67 26 68 27 69 28 70 29 71 55 72 56 73 65 74
REMARK SMILES IDX 57 75 58 76 64 77 66 78 59 79 60 80 61 81 62 82 63 83 39 84
REMARK SMILES IDX 40 85 49 86 41 87 42 88 48 89 50 90 43 91 44 92 45 93 46 94
REMARK SMILES IDX 47 95
REMARK H PARENT 71 45 37 56
REMARK Flexibility Score: inf
ROOT
ATOM      1  C   UNL A   1      42.423  21.971  25.774  1.00  0.00     0.202 C 
ENDROOT
BRANCH   1   2
ATOM      2  O   UNL A   1      41.337  21.566  26.620  1.00  0.00    -0.374 OA
BRANCH   2   3
ATOM      3  C   UNL A   1      39.798  21.894  26.675  1.00  0.00     0.202 C 
BRANCH   3   4
ATOM      4  C   UNL A   1      38.151  21.506  25.298  1.00  0.00     0.261 C 
BRANCH   4   5
ATOM      5  O   UNL A   1      36.651  21.764  25.552  1.00  0.00    -0.460 OA
BRANCH   5   6
ATOM      6  C   UNL A   1      36.048  22.387  24.538  1.00  0.00     0.338 C 
ATOM      7  O   UNL A   1      36.509  22.856  23.530  1.00  0.00    -0.246 OA
BRANCH   6   8
ATOM      8  C   UNL A   1      34.795  22.590  25.227  1.00  0.00     0.087 C 
ATOM      9  C   UNL A   1      34.738  23.965  25.819  1.00  0.00     0.027 C 
ATOM     10  C   UNL A   1      33.650  21.960  23.796  1.00  0.00     0.316 C 
ATOM     11  C   UNL A   1      33.682  25.296  25.156  1.00  0.00     0.020 A 
ATOM     12  O   UNL A   1      32.577  23.375  23.053  1.00  0.00    -0.474 OA
ATOM     13  C   UNL A   1      33.850  26.574  25.620  1.00  0.00     0.032 A 
ATOM     14  C   UNL A   1      32.717  25.062  23.729  1.00  0.00     0.146 A 
ATOM     15  C   UNL A   1      33.255  27.579  24.831  1.00  0.00     0.043 A 
ATOM     16  C   UNL A   1      32.323  26.118  22.959  1.00  0.00     0.085 A 
ATOM     17  Cl  UNL A   1      33.429  29.211  25.394  1.00  0.00    -0.084 Cl
ATOM     18  C   UNL A   1      32.578  27.373  23.558  1.00  0.00     0.045 A 
ATOM     19  Cl  UNL A   1      31.903  25.967  21.317  1.00  0.00    -0.080 Cl
BRANCH  10  20
ATOM     20  C   UNL A   1      33.239  20.544  24.358  1.00  0.00     0.430 C 
ATOM     21  F   UNL A   1      32.503  20.555  25.483  1.00  0.00    -0.167 F 
ATOM     22  F   UNL A   1      32.433  19.961  23.418  1.00  0.00    -0.167 F 
ATOM     23  F   UNL A   1      34.264  19.670  24.500  1.00  0.00    -0.167 F 
ENDBRANCH  10  20
ENDBRANCH   6   8
ENDBRANCH   5   6
ENDBRANCH   4   5
ENDBRANCH   3   4
ENDBRANCH   2   3
ENDBRANCH   1   2
BRANCH   1  24
ATOM     24  C   UNL A   1      43.082  23.330  25.890  1.00  0.00     0.261 C 
BRANCH  24  25
ATOM     25  O   UNL A   1      42.393  24.202  26.760  1.00  0.00    -0.460 OA
BRANCH  25  26
ATOM     26  C   UNL A   1      42.016  25.370  26.201  1.00  0.00     0.338 C 
ATOM     27  O   UNL A   1      41.834  25.611  25.023  1.00  0.00    -0.246 OA
BRANCH  26  28
ATOM     28  C   UNL A   1      41.817  26.319  27.305  1.00  0.00     0.060 A 
ATOM     29  C   UNL A   1      40.777  26.082  28.208  1.00  0.00     0.016 A 
ATOM     30  C   UNL A   1      42.708  27.387  27.486  1.00  0.00     0.016 A 
ATOM     31  C   UNL A   1      40.662  26.885  29.338  1.00  0.00     0.010 A 
ATOM     32  C   UNL A   1      42.594  28.185  28.612  1.00  0.00     0.010 A 
ATOM     33  C   UNL A   1      41.568  27.935  29.537  1.00  0.00    -0.014 A 
BRANCH  33  34
ATOM     34  C   UNL A   1      41.323  28.954  30.569  1.00  0.00     0.031 A 
ATOM     35  C   UNL A   1      42.126  28.835  31.826  1.00  0.00     0.074 A 
ATOM     36  C   UNL A   1      40.357  29.876  30.430  1.00  0.00     0.049 A 
ATOM     37  N   UNL A   1      42.024  29.504  32.938  1.00  0.00    -0.248 NA
ATOM     38  C   UNL A   1      43.171  27.796  31.828  1.00  0.00     0.031 C 
ATOM     39  C   UNL A   1      39.526  30.060  29.243  1.00  0.00     0.029 A 
ATOM     40  N   UNL A   1      39.889  30.808  31.319  1.00  0.00    -0.354 N 
ATOM     41  C   UNL A   1      42.985  28.961  33.779  1.00  0.00     0.074 A 
ATOM     42  C   UNL A   1      43.628  27.882  33.065  1.00  0.00     0.031 C 
ATOM     43  C   UNL A   1      38.623  31.025  29.489  1.00  0.00     0.029 A 
ATOM     44  C   UNL A   1      38.793  31.498  30.862  1.00  0.00     0.049 A 
ATOM     45  H   UNL A   1      40.300  30.967  32.200  1.00  0.00     0.167 HD
ATOM     46  C   UNL A   1      43.299  29.334  35.039  1.00  0.00     0.037 A 
ATOM     47  C   UNL A   1      38.001  32.383  31.500  1.00  0.00     0.037 A 
ATOM     48  C   UNL A   1      42.607  30.376  35.743  1.00  0.00     0.049 A 
ATOM     49  C   UNL A   1      38.325  32.749  32.926  1.00  0.00     0.074 A 
ATOM     50  C   UNL A   1      42.845  30.858  37.016  1.00  0.00     0.029 A 
ATOM     51  N   UNL A   1      41.514  31.075  35.244  1.00  0.00    -0.354 N 
ATOM     52  N   UNL A   1      39.279  32.281  33.698  1.00  0.00    -0.248 NA
ATOM     53  C   UNL A   1      37.479  33.763  33.566  1.00  0.00     0.031 C 
ATOM     54  C   UNL A   1      41.849  31.792  37.314  1.00  0.00     0.029 A 
ATOM     55  C   UNL A   1      41.044  31.958  36.197  1.00  0.00     0.049 A 
ATOM     56  H   UNL A   1      41.131  30.956  34.345  1.00  0.00     0.167 HD
ATOM     57  C   UNL A   1      39.170  32.969  34.904  1.00  0.00     0.074 A 
ATOM     58  C   UNL A   1      38.052  33.882  34.757  1.00  0.00     0.031 C 
ATOM     59  C   UNL A   1      39.932  32.866  36.022  1.00  0.00     0.037 A 
BRANCH  46  60
ATOM     60  C   UNL A   1      44.385  28.558  35.726  1.00  0.00     0.058 A 
ATOM     61  C   UNL A   1      44.104  27.465  36.566  1.00  0.00     0.135 A 
ATOM     62  C   UNL A   1      45.726  28.948  35.589  1.00  0.00     0.135 A 
ATOM     63  F   UNL A   1      42.835  27.065  36.756  1.00  0.00    -0.206 F 
ATOM     64  C   UNL A   1      45.105  26.828  37.288  1.00  0.00     0.059 A 
ATOM     65  C   UNL A   1      46.749  28.299  36.271  1.00  0.00     0.059 A 
ATOM     66  F   UNL A   1      46.051  29.990  34.808  1.00  0.00    -0.206 F 
ATOM     67  C   UNL A   1      46.425  27.257  37.139  1.00  0.00     0.060 A 
BRANCH  67  68
ATOM     68  S   UNL A   1      47.708  26.447  38.114  1.00  0.00     0.124 S 
ATOM     69  O   UNL A   1      47.493  27.045  39.429  1.00  0.00    -0.237 OA
ATOM     70  O   UNL A   1      47.347  25.039  37.992  1.00  0.00    -0.237 OA
ATOM     71  O   UNL A   1      48.943  26.837  37.442  1.00  0.00    -0.744 OA
ENDBRANCH  67  68
ENDBRANCH  46  60
BRANCH  47  72
ATOM     72  C   UNL A   1      36.830  32.965  30.790  1.00  0.00     0.058 A 
ATOM     73  C   UNL A   1      35.523  32.544  31.074  1.00  0.00     0.135 A 
ATOM     74  C   UNL A   1      36.992  33.997  29.851  1.00  0.00     0.135 A 
ATOM     75  F   UNL A   1      35.313  31.552  31.952  1.00  0.00    -0.206 F 
ATOM     76  C   UNL A   1      34.418  33.130  30.461  1.00  0.00     0.059 A 
ATOM     77  C   UNL A   1      35.904  34.616  29.245  1.00  0.00     0.059 A 
ATOM     78  F   UNL A   1      38.222  34.442  29.548  1.00  0.00    -0.206 F 
ATOM     79  C   UNL A   1      34.618  34.177  29.559  1.00  0.00     0.060 A 
BRANCH  79  80
ATOM     80  S   UNL A   1      33.172  34.996  28.851  1.00  0.00     0.124 S 
ATOM     81  O   UNL A   1      32.693  33.991  27.908  1.00  0.00    -0.237 OA
ATOM     82  O   UNL A   1      32.341  35.214  30.030  1.00  0.00    -0.237 OA
ATOM     83  O   UNL A   1      33.730  36.206  28.254  1.00  0.00    -0.744 OA
ENDBRANCH  79  80
ENDBRANCH  47  72
BRANCH  59  84
ATOM     84  C   UNL A   1      39.635  33.794  37.168  1.00  0.00     0.058 A 
ATOM     85  C   UNL A   1      38.805  33.423  38.236  1.00  0.00     0.135 A 
ATOM     86  C   UNL A   1      40.295  35.033  37.249  1.00  0.00     0.135 A 
ATOM     87  F   UNL A   1      38.146  32.253  38.206  1.00  0.00    -0.206 F 
ATOM     88  C   UNL A   1      38.637  34.249  39.344  1.00  0.00     0.059 A 
ATOM     89  C   UNL A   1      40.169  35.857  38.360  1.00  0.00     0.059 A 
ATOM     90  F   UNL A   1      41.109  35.431  36.259  1.00  0.00    -0.206 F 
ATOM     91  C   UNL A   1      39.334  35.458  39.402  1.00  0.00     0.060 A 
BRANCH  91  92
ATOM     92  S   UNL A   1      39.168  36.482  40.879  1.00  0.00     0.124 S 
ATOM     93  O   UNL A   1      38.250  35.686  41.687  1.00  0.00    -0.237 OA
ATOM     94  O   UNL A   1      40.542  36.553  41.364  1.00  0.00    -0.237 OA
ATOM     95  O   UNL A   1      38.625  37.736  40.366  1.00  0.00    -0.744 OA
ENDBRANCH  91  92
ENDBRANCH  59  84
ENDBRANCH  33  34
ENDBRANCH  26  28
ENDBRANCH  25  26
ENDBRANCH  24  25
ENDBRANCH   1  24
TORSDOF 18
ENDMDL
