MODEL 1
REMARK VINA RESULT:     -10.4      0.000      0.000
REMARK SMILES CC(=O)N[C@H](CSCC(=O)Nc1ccc2c(c1)N1CC[NH+]=C1S2)C(=O)OCCOCCOC(=O)c1ccc(-c2c3nc(c(-c4c(F)cc(S(=O)(=O)[O-])cc4F)c4ccc([nH]4)c(-c4c(F)cc(S(=O)(=O)[O-])cc4F)c4nc(c(-c5c(F)cc(S(=O)(=O)[O-])cc5F)c5ccc2[nH]5)C=C4)C=C3)cc1
REMARK SMILES IDX 28 1 27 2 26 3 24 4 25 5 5 6 4 7 1 8 2 9 3 10 6 12 7 13 8 14
REMARK SMILES IDX 9 15 10 16 11 17 12 19 13 20 17 21 14 22 16 23 15 24 18 25
REMARK SMILES IDX 23 26 19 27 22 28 20 29 21 30 29 32 30 33 31 34 32 35 33 36
REMARK SMILES IDX 34 37 35 38 36 39 100 40 37 41 99 42 38 43 39 44 40 45 93 46
REMARK SMILES IDX 41 47 98 48 92 49 94 50 42 51 97 52 91 53 90 54 43 56 77 57
REMARK SMILES IDX 56 58 76 59 57 60 60 61 75 62 95 63 58 64 59 65 74 67 96 68
REMARK SMILES IDX 61 69 44 70 45 71 54 72 46 73 47 74 53 75 55 76 48 77 49 78
REMARK SMILES IDX 50 79 51 80 52 81 78 82 79 83 88 84 80 85 81 86 87 87 89 88
REMARK SMILES IDX 82 89 83 90 84 91 85 92 86 93 62 94 63 95 72 96 64 97 65 98
REMARK SMILES IDX 71 99 73 100 66 101 67 102 68 103 69 104 70 105
REMARK H PARENT 4 11 11 18 21 31 94 55 60 66
REMARK Flexibility Score: inf
ROOT
ATOM      1  C   UNL A   1      34.351  30.448  26.987  1.00  0.00     0.202 C 
ENDROOT
BRANCH   1   2
ATOM      2  C   UNL A   1      32.838  30.378  27.215  1.00  0.00     0.261 C 
BRANCH   2   3
ATOM      3  O   UNL A   1      32.145  29.768  26.109  1.00  0.00    -0.462 OA
BRANCH   3   4
ATOM      4  C   UNL A   1      31.955  28.431  26.182  1.00  0.00     0.329 C 
ATOM      5  O   UNL A   1      31.908  27.786  27.224  1.00  0.00    -0.250 OA
BRANCH   4   6
ATOM      6  C   UNL A   1      31.899  27.764  24.802  1.00  0.00     0.202 C 
BRANCH   6   7
ATOM      7  N   UNL A   1      32.784  28.411  23.836  1.00  0.00    -0.342 N 
ATOM      8  C   UNL A   1      33.663  26.351  22.805  1.00  0.00     0.114 C 
ATOM      9  C   UNL A   1      33.562  27.849  22.873  1.00  0.00     0.217 C 
ATOM     10  O   UNL A   1      34.175  28.570  22.090  1.00  0.00    -0.275 OA
ATOM     11  H   UNL A   1      32.823  29.394  23.891  1.00  0.00     0.164 HD
ENDBRANCH   6   7
BRANCH   6  12
ATOM     12  C   UNL A   1      30.478  27.499  24.266  1.00  0.00     0.107 C 
BRANCH  12  13
ATOM     13  S   UNL A   1      29.955  25.743  24.119  1.00  0.00    -0.149 SA
BRANCH  13  14
ATOM     14  C   UNL A   1      31.396  24.799  24.719  1.00  0.00     0.169 C 
BRANCH  14  15
ATOM     15  C   UNL A   1      31.352  24.435  26.181  1.00  0.00     0.234 C 
ATOM     16  O   UNL A   1      30.396  24.794  26.876  1.00  0.00    -0.274 OA
ATOM     17  N   UNL A   1      32.294  23.673  26.805  1.00  0.00    -0.325 N 
ATOM     18  H   UNL A   1      32.281  23.700  27.789  1.00  0.00     0.169 HD
BRANCH  17  19
ATOM     19  C   UNL A   1      33.275  22.858  26.236  1.00  0.00     0.045 A 
ATOM     20  C   UNL A   1      33.042  21.537  25.835  1.00  0.00     0.027 A 
ATOM     21  C   UNL A   1      34.547  23.425  26.105  1.00  0.00     0.079 A 
ATOM     22  C   UNL A   1      34.093  20.743  25.366  1.00  0.00     0.022 A 
ATOM     23  C   UNL A   1      35.606  22.621  25.745  1.00  0.00     0.144 A 
ATOM     24  C   UNL A   1      35.365  21.288  25.354  1.00  0.00     0.067 A 
ATOM     25  N   UNL A   1      36.936  22.931  25.805  1.00  0.00    -0.216 N 
ATOM     26  S   UNL A   1      36.924  20.464  24.995  1.00  0.00     0.002 SA
ATOM     27  C   UNL A   1      37.683  24.048  26.300  1.00  0.00     0.289 C 
ATOM     28  C   UNL A   1      37.773  21.884  25.572  1.00  0.00     0.316 C 
ATOM     29  C   UNL A   1      39.067  23.379  26.500  1.00  0.00     0.280 C 
ATOM     30  N   UNL A   1      39.037  22.016  25.840  1.00  0.00    -0.264 N 
ATOM     31  H   UNL A   1      39.779  21.394  25.662  1.00  0.00     0.305 HD
ENDBRANCH  17  19
ENDBRANCH  14  15
ENDBRANCH  13  14
ENDBRANCH  12  13
ENDBRANCH   6  12
ENDBRANCH   4   6
ENDBRANCH   3   4
ENDBRANCH   2   3
ENDBRANCH   1   2
BRANCH   1  32
ATOM     32  O   UNL A   1      34.963  31.636  27.497  1.00  0.00    -0.374 OA
BRANCH  32  33
ATOM     33  C   UNL A   1      34.354  32.170  28.673  1.00  0.00     0.202 C 
BRANCH  33  34
ATOM     34  C   UNL A   1      35.147  31.925  29.963  1.00  0.00     0.261 C 
BRANCH  34  35
ATOM     35  O   UNL A   1      35.837  30.661  29.922  1.00  0.00    -0.460 OA
BRANCH  35  36
ATOM     36  C   UNL A   1      36.646  30.390  30.983  1.00  0.00     0.338 C 
ATOM     37  O   UNL A   1      36.327  30.305  32.147  1.00  0.00    -0.246 OA
BRANCH  36  38
ATOM     38  C   UNL A   1      37.985  30.026  30.456  1.00  0.00     0.060 A 
ATOM     39  C   UNL A   1      39.002  29.606  31.308  1.00  0.00     0.016 A 
ATOM     40  C   UNL A   1      38.232  30.158  29.085  1.00  0.00     0.016 A 
ATOM     41  C   UNL A   1      40.283  29.392  30.800  1.00  0.00     0.010 A 
ATOM     42  C   UNL A   1      39.506  29.884  28.569  1.00  0.00     0.010 A 
ATOM     43  C   UNL A   1      40.548  29.500  29.423  1.00  0.00    -0.014 A 
BRANCH  43  44
ATOM     44  C   UNL A   1      41.881  29.090  28.899  1.00  0.00     0.031 A 
ATOM     45  C   UNL A   1      42.154  27.695  28.403  1.00  0.00     0.074 A 
ATOM     46  C   UNL A   1      42.864  30.014  28.853  1.00  0.00     0.049 A 
ATOM     47  N   UNL A   1      43.277  27.192  27.954  1.00  0.00    -0.248 NA
ATOM     48  C   UNL A   1      41.032  26.745  28.408  1.00  0.00     0.031 C 
ATOM     49  C   UNL A   1      42.733  31.403  29.302  1.00  0.00     0.029 A 
ATOM     50  N   UNL A   1      44.154  29.937  28.397  1.00  0.00    -0.354 N 
ATOM     51  C   UNL A   1      43.008  25.865  27.639  1.00  0.00     0.074 A 
ATOM     52  C   UNL A   1      41.614  25.637  27.961  1.00  0.00     0.031 C 
ATOM     53  C   UNL A   1      43.874  32.058  29.050  1.00  0.00     0.029 A 
ATOM     54  C   UNL A   1      44.846  31.121  28.500  1.00  0.00     0.049 A 
ATOM     55  H   UNL A   1      44.548  29.113  28.030  1.00  0.00     0.167 HD
ATOM     56  C   UNL A   1      43.845  24.928  27.128  1.00  0.00     0.037 A 
ATOM     57  C   UNL A   1      46.128  31.423  28.218  1.00  0.00     0.037 A 
ATOM     58  C   UNL A   1      45.232  25.157  26.798  1.00  0.00     0.049 A 
ATOM     59  C   UNL A   1      47.045  30.354  27.706  1.00  0.00     0.074 A 
ATOM     60  C   UNL A   1      46.146  24.265  26.260  1.00  0.00     0.029 A 
ATOM     61  N   UNL A   1      45.909  26.355  26.975  1.00  0.00    -0.354 N 
ATOM     62  N   UNL A   1      46.772  29.102  27.431  1.00  0.00    -0.248 NA
ATOM     63  C   UNL A   1      48.448  30.732  27.485  1.00  0.00     0.031 C 
ATOM     64  C   UNL A   1      47.383  24.909  26.150  1.00  0.00     0.029 A 
ATOM     65  C   UNL A   1      47.230  26.217  26.576  1.00  0.00     0.049 A 
ATOM     66  H   UNL A   1      45.510  27.181  27.330  1.00  0.00     0.167 HD
ATOM     67  C   UNL A   1      47.969  28.542  27.000  1.00  0.00     0.074 A 
ATOM     68  C   UNL A   1      48.961  29.597  27.030  1.00  0.00     0.031 C 
ATOM     69  C   UNL A   1      48.220  27.265  26.622  1.00  0.00     0.037 A 
BRANCH  56  70
ATOM     70  C   UNL A   1      43.299  23.545  26.893  1.00  0.00     0.058 A 
ATOM     71  C   UNL A   1      42.973  23.091  25.607  1.00  0.00     0.135 A 
ATOM     72  C   UNL A   1      43.189  22.632  27.957  1.00  0.00     0.135 A 
ATOM     73  F   UNL A   1      43.049  23.925  24.558  1.00  0.00    -0.206 F 
ATOM     74  C   UNL A   1      42.547  21.785  25.383  1.00  0.00     0.059 A 
ATOM     75  C   UNL A   1      42.786  21.316  27.754  1.00  0.00     0.059 A 
ATOM     76  F   UNL A   1      43.492  23.015  29.208  1.00  0.00    -0.206 F 
ATOM     77  C   UNL A   1      42.460  20.904  26.462  1.00  0.00     0.060 A 
BRANCH  77  78
ATOM     78  S   UNL A   1      41.926  19.207  26.150  1.00  0.00     0.124 S 
ATOM     79  O   UNL A   1      42.829  18.813  25.074  1.00  0.00    -0.237 OA
ATOM     80  O   UNL A   1      42.158  18.567  27.441  1.00  0.00    -0.237 OA
ATOM     81  O   UNL A   1      40.525  19.355  25.770  1.00  0.00    -0.744 OA
ENDBRANCH  77  78
ENDBRANCH  56  70
BRANCH  57  82
ATOM     82  C   UNL A   1      46.613  32.809  28.434  1.00  0.00     0.058 A 
ATOM     83  C   UNL A   1      47.170  33.188  29.663  1.00  0.00     0.135 A 
ATOM     84  C   UNL A   1      46.581  33.762  27.404  1.00  0.00     0.135 A 
ATOM     85  F   UNL A   1      47.219  32.309  30.676  1.00  0.00    -0.206 F 
ATOM     86  C   UNL A   1      47.685  34.463  29.864  1.00  0.00     0.059 A 
ATOM     87  C   UNL A   1      47.114  35.034  27.570  1.00  0.00     0.059 A 
ATOM     88  F   UNL A   1      46.074  33.437  26.204  1.00  0.00    -0.206 F 
ATOM     89  C   UNL A   1      47.662  35.375  28.807  1.00  0.00     0.060 A 
BRANCH  89  90
ATOM     90  S   UNL A   1      48.422  36.995  29.046  1.00  0.00     0.124 S 
ATOM     91  O   UNL A   1      48.674  36.990  30.483  1.00  0.00    -0.237 OA
ATOM     92  O   UNL A   1      49.600  36.908  28.188  1.00  0.00    -0.237 OA
ATOM     93  O   UNL A   1      47.390  37.919  28.586  1.00  0.00    -0.744 OA
ENDBRANCH  89  90
ENDBRANCH  57  82
BRANCH  69  94
ATOM     94  C   UNL A   1      49.625  26.934  26.202  1.00  0.00     0.058 A 
ATOM     95  C   UNL A   1      50.577  26.481  27.128  1.00  0.00     0.135 A 
ATOM     96  C   UNL A   1      50.014  27.037  24.857  1.00  0.00     0.135 A 
ATOM     97  F   UNL A   1      50.259  26.377  28.429  1.00  0.00    -0.206 F 
ATOM     98  C   UNL A   1      51.873  26.157  26.739  1.00  0.00     0.059 A 
ATOM     99  C   UNL A   1      51.299  26.695  24.441  1.00  0.00     0.059 A 
ATOM    100  F   UNL A   1      49.140  27.460  23.931  1.00  0.00    -0.206 F 
ATOM    101  C   UNL A   1      52.224  26.266  25.393  1.00  0.00     0.060 A 
BRANCH 101 102
ATOM    102  S   UNL A   1      53.901  25.816  24.897  1.00  0.00     0.124 S 
ATOM    103  O   UNL A   1      53.681  24.522  24.258  1.00  0.00    -0.237 OA
ATOM    104  O   UNL A   1      54.267  26.910  24.003  1.00  0.00    -0.237 OA
ATOM    105  O   UNL A   1      54.631  25.775  26.161  1.00  0.00    -0.744 OA
ENDBRANCH 101 102
ENDBRANCH  69  94
ENDBRANCH  43  44
ENDBRANCH  36  38
ENDBRANCH  35  36
ENDBRANCH  34  35
ENDBRANCH  33  34
ENDBRANCH  32  33
ENDBRANCH   1  32
TORSDOF 23
ENDMDL
MODEL 2
REMARK VINA RESULT:     -10.0      4.307      8.928
REMARK SMILES CC(=O)N[C@H](CSCC(=O)Nc1ccc2c(c1)N1CC[NH+]=C1S2)C(=O)OCCOCCOC(=O)c1ccc(-c2c3nc(c(-c4c(F)cc(S(=O)(=O)[O-])cc4F)c4ccc([nH]4)c(-c4c(F)cc(S(=O)(=O)[O-])cc4F)c4nc(c(-c5c(F)cc(S(=O)(=O)[O-])cc5F)c5ccc2[nH]5)C=C4)C=C3)cc1
REMARK SMILES IDX 28 1 27 2 26 3 24 4 25 5 5 6 4 7 1 8 2 9 3 10 6 12 7 13 8 14
REMARK SMILES IDX 9 15 10 16 11 17 12 19 13 20 17 21 14 22 16 23 15 24 18 25
REMARK SMILES IDX 23 26 19 27 22 28 20 29 21 30 29 32 30 33 31 34 32 35 33 36
REMARK SMILES IDX 34 37 35 38 36 39 100 40 37 41 99 42 38 43 39 44 40 45 93 46
REMARK SMILES IDX 41 47 98 48 92 49 94 50 42 51 97 52 91 53 90 54 43 56 77 57
REMARK SMILES IDX 56 58 76 59 57 60 60 61 75 62 95 63 58 64 59 65 74 67 96 68
REMARK SMILES IDX 61 69 44 70 45 71 54 72 46 73 47 74 53 75 55 76 48 77 49 78
REMARK SMILES IDX 50 79 51 80 52 81 78 82 79 83 88 84 80 85 81 86 87 87 89 88
REMARK SMILES IDX 82 89 83 90 84 91 85 92 86 93 62 94 63 95 72 96 64 97 65 98
REMARK SMILES IDX 71 99 73 100 66 101 67 102 68 103 69 104 70 105
REMARK H PARENT 4 11 11 18 21 31 94 55 60 66
REMARK Flexibility Score: inf
ROOT
ATOM      1  C   UNL A   1      31.086  26.700  24.818  1.00  0.00     0.202 C 
ENDROOT
BRANCH   1   2
ATOM      2  C   UNL A   1      30.699  25.823  26.012  1.00  0.00     0.261 C 
BRANCH   2   3
ATOM      3  O   UNL A   1      30.253  24.513  25.609  1.00  0.00    -0.462 OA
BRANCH   3   4
ATOM      4  C   UNL A   1      30.519  23.498  26.462  1.00  0.00     0.329 C 
ATOM      5  O   UNL A   1      29.813  23.180  27.414  1.00  0.00    -0.250 OA
BRANCH   4   6
ATOM      6  C   UNL A   1      31.868  22.825  26.181  1.00  0.00     0.202 C 
BRANCH   6   7
ATOM      7  N   UNL A   1      31.730  21.394  25.918  1.00  0.00    -0.342 N 
ATOM      8  C   UNL A   1      32.690  21.411  23.647  1.00  0.00     0.114 C 
ATOM      9  C   UNL A   1      32.125  20.678  24.831  1.00  0.00     0.217 C 
ATOM     10  O   UNL A   1      32.002  19.456  24.832  1.00  0.00    -0.275 OA
ATOM     11  H   UNL A   1      31.287  20.874  26.628  1.00  0.00     0.164 HD
ENDBRANCH   6   7
BRANCH   6  12
ATOM     12  C   UNL A   1      32.987  23.169  27.184  1.00  0.00     0.107 C 
BRANCH  12  13
ATOM     13  S   UNL A   1      34.715  22.837  26.652  1.00  0.00    -0.149 SA
BRANCH  13  14
ATOM     14  C   UNL A   1      35.006  24.038  25.310  1.00  0.00     0.169 C 
BRANCH  14  15
ATOM     15  C   UNL A   1      35.789  23.503  24.138  1.00  0.00     0.234 C 
ATOM     16  O   UNL A   1      35.336  23.614  22.995  1.00  0.00    -0.274 OA
ATOM     17  N   UNL A   1      37.022  22.932  24.243  1.00  0.00    -0.325 N 
ATOM     18  H   UNL A   1      37.323  22.422  23.457  1.00  0.00     0.169 HD
BRANCH  17  19
ATOM     19  C   UNL A   1      37.916  22.976  25.315  1.00  0.00     0.045 A 
ATOM     20  C   UNL A   1      38.203  24.144  26.032  1.00  0.00     0.027 A 
ATOM     21  C   UNL A   1      38.555  21.773  25.633  1.00  0.00     0.079 A 
ATOM     22  C   UNL A   1      39.184  24.140  27.028  1.00  0.00     0.022 A 
ATOM     23  C   UNL A   1      39.594  21.784  26.537  1.00  0.00     0.144 A 
ATOM     24  C   UNL A   1      39.884  22.967  27.247  1.00  0.00     0.067 A 
ATOM     25  N   UNL A   1      40.484  20.776  26.785  1.00  0.00    -0.216 N 
ATOM     26  S   UNL A   1      41.314  22.707  28.309  1.00  0.00     0.002 SA
ATOM     27  C   UNL A   1      40.727  19.489  26.206  1.00  0.00     0.289 C 
ATOM     28  C   UNL A   1      41.526  21.124  27.588  1.00  0.00     0.316 C 
ATOM     29  C   UNL A   1      42.190  19.261  26.663  1.00  0.00     0.280 C 
ATOM     30  N   UNL A   1      42.541  20.320  27.687  1.00  0.00    -0.264 N 
ATOM     31  H   UNL A   1      43.329  20.383  28.273  1.00  0.00     0.305 HD
ENDBRANCH  17  19
ENDBRANCH  14  15
ENDBRANCH  13  14
ENDBRANCH  12  13
ENDBRANCH   6  12
ENDBRANCH   4   6
ENDBRANCH   3   4
ENDBRANCH   2   3
ENDBRANCH   1   2
BRANCH   1  32
ATOM     32  O   UNL A   1      32.290  27.449  25.011  1.00  0.00    -0.374 OA
BRANCH  32  33
ATOM     33  C   UNL A   1      32.237  28.414  26.062  1.00  0.00     0.202 C 
BRANCH  33  34
ATOM     34  C   UNL A   1      33.252  28.180  27.188  1.00  0.00     0.261 C 
BRANCH  34  35
ATOM     35  O   UNL A   1      34.522  28.787  26.881  1.00  0.00    -0.460 OA
BRANCH  35  36
ATOM     36  C   UNL A   1      34.799  29.947  27.537  1.00  0.00     0.338 C 
ATOM     37  O   UNL A   1      34.043  30.865  27.759  1.00  0.00    -0.246 OA
BRANCH  36  38
ATOM     38  C   UNL A   1      36.163  29.832  28.113  1.00  0.00     0.060 A 
ATOM     39  C   UNL A   1      37.291  30.112  27.347  1.00  0.00     0.016 A 
ATOM     40  C   UNL A   1      36.306  29.388  29.431  1.00  0.00     0.016 A 
ATOM     41  C   UNL A   1      38.560  29.873  27.876  1.00  0.00     0.010 A 
ATOM     42  C   UNL A   1      37.583  29.207  29.980  1.00  0.00     0.010 A 
ATOM     43  C   UNL A   1      38.726  29.445  29.205  1.00  0.00    -0.014 A 
BRANCH  43  44
ATOM     44  C   UNL A   1      40.096  29.376  29.786  1.00  0.00     0.031 A 
ATOM     45  C   UNL A   1      40.518  30.229  30.952  1.00  0.00     0.074 A 
ATOM     46  C   UNL A   1      40.974  28.499  29.255  1.00  0.00     0.049 A 
ATOM     47  N   UNL A   1      41.689  30.298  31.535  1.00  0.00    -0.248 NA
ATOM     48  C   UNL A   1      39.505  31.117  31.541  1.00  0.00     0.031 C 
ATOM     49  C   UNL A   1      40.694  27.611  28.123  1.00  0.00     0.029 A 
ATOM     50  N   UNL A   1      42.266  28.196  29.598  1.00  0.00    -0.354 N 
ATOM     51  C   UNL A   1      41.565  31.243  32.545  1.00  0.00     0.074 A 
ATOM     52  C   UNL A   1      40.202  31.734  32.488  1.00  0.00     0.031 C 
ATOM     53  C   UNL A   1      41.759  26.828  27.901  1.00  0.00     0.029 A 
ATOM     54  C   UNL A   1      42.827  27.213  28.816  1.00  0.00     0.049 A 
ATOM     55  H   UNL A   1      42.747  28.639  30.334  1.00  0.00     0.167 HD
ATOM     56  C   UNL A   1      42.498  31.660  33.437  1.00  0.00     0.037 A 
ATOM     57  C   UNL A   1      44.069  26.693  28.807  1.00  0.00     0.037 A 
ATOM     58  C   UNL A   1      43.853  31.165  33.500  1.00  0.00     0.049 A 
ATOM     59  C   UNL A   1      45.096  27.211  29.766  1.00  0.00     0.074 A 
ATOM     60  C   UNL A   1      44.858  31.524  34.384  1.00  0.00     0.029 A 
ATOM     61  N   UNL A   1      44.397  30.213  32.651  1.00  0.00    -0.354 N 
ATOM     62  N   UNL A   1      44.960  28.118  30.703  1.00  0.00    -0.248 NA
ATOM     63  C   UNL A   1      46.451  26.652  29.656  1.00  0.00     0.031 C 
ATOM     64  C   UNL A   1      46.019  30.820  34.045  1.00  0.00     0.029 A 
ATOM     65  C   UNL A   1      45.727  29.989  32.978  1.00  0.00     0.049 A 
ATOM     66  H   UNL A   1      43.912  29.762  31.923  1.00  0.00     0.167 HD
ATOM     67  C   UNL A   1      46.211  28.237  31.297  1.00  0.00     0.074 A 
ATOM     68  C   UNL A   1      47.084  27.293  30.630  1.00  0.00     0.031 C 
ATOM     69  C   UNL A   1      46.598  29.060  32.301  1.00  0.00     0.037 A 
BRANCH  56  70
ATOM     70  C   UNL A   1      42.104  32.722  34.428  1.00  0.00     0.058 A 
ATOM     71  C   UNL A   1      42.285  34.087  34.157  1.00  0.00     0.135 A 
ATOM     72  C   UNL A   1      41.452  32.374  35.624  1.00  0.00     0.135 A 
ATOM     73  F   UNL A   1      42.911  34.474  33.034  1.00  0.00    -0.206 F 
ATOM     74  C   UNL A   1      41.843  35.068  35.038  1.00  0.00     0.059 A 
ATOM     75  C   UNL A   1      40.984  33.338  36.510  1.00  0.00     0.059 A 
ATOM     76  F   UNL A   1      41.251  31.082  35.931  1.00  0.00    -0.206 F 
ATOM     77  C   UNL A   1      41.191  34.685  36.212  1.00  0.00     0.060 A 
BRANCH  77  78
ATOM     78  S   UNL A   1      40.606  35.973  37.334  1.00  0.00     0.124 S 
ATOM     79  O   UNL A   1      39.760  36.765  36.449  1.00  0.00    -0.237 OA
ATOM     80  O   UNL A   1      39.908  35.199  38.356  1.00  0.00    -0.237 OA
ATOM     81  O   UNL A   1      41.835  36.624  37.776  1.00  0.00    -0.744 OA
ENDBRANCH  77  78
ENDBRANCH  56  70
BRANCH  57  82
ATOM     82  C   UNL A   1      44.403  25.624  27.832  1.00  0.00     0.058 A 
ATOM     83  C   UNL A   1      44.488  24.286  28.239  1.00  0.00     0.135 A 
ATOM     84  C   UNL A   1      44.586  25.911  26.470  1.00  0.00     0.135 A 
ATOM     85  F   UNL A   1      44.322  23.967  29.532  1.00  0.00    -0.206 F 
ATOM     86  C   UNL A   1      44.739  23.265  27.330  1.00  0.00     0.059 A 
ATOM     87  C   UNL A   1      44.810  24.907  25.537  1.00  0.00     0.059 A 
ATOM     88  F   UNL A   1      44.494  27.176  26.032  1.00  0.00    -0.206 F 
ATOM     89  C   UNL A   1      44.888  23.586  25.979  1.00  0.00     0.060 A 
BRANCH  89  90
ATOM     90  S   UNL A   1      45.115  22.244  24.792  1.00  0.00     0.124 S 
ATOM     91  O   UNL A   1      45.328  22.983  23.553  1.00  0.00    -0.237 OA
ATOM     92  O   UNL A   1      46.279  21.552  25.335  1.00  0.00    -0.237 OA
ATOM     93  O   UNL A   1      43.859  21.505  24.882  1.00  0.00    -0.744 OA
ENDBRANCH  89  90
ENDBRANCH  57  82
BRANCH  69  94
ATOM     94  C   UNL A   1      48.031  28.977  32.748  1.00  0.00     0.058 A 
ATOM     95  C   UNL A   1      48.437  28.068  33.738  1.00  0.00     0.135 A 
ATOM     96  C   UNL A   1      49.014  29.786  32.157  1.00  0.00     0.135 A 
ATOM     97  F   UNL A   1      47.533  27.280  34.343  1.00  0.00    -0.206 F 
ATOM     98  C   UNL A   1      49.766  27.978  34.140  1.00  0.00     0.059 A 
ATOM     99  C   UNL A   1      50.353  29.695  32.527  1.00  0.00     0.059 A 
ATOM    100  F   UNL A   1      48.680  30.667  31.202  1.00  0.00    -0.206 F 
ATOM    101  C   UNL A   1      50.717  28.794  33.527  1.00  0.00     0.060 A 
BRANCH 101 102
ATOM    102  S   UNL A   1      52.442  28.644  34.040  1.00  0.00     0.124 S 
ATOM    103  O   UNL A   1      53.127  28.576  32.752  1.00  0.00    -0.237 OA
ATOM    104  O   UNL A   1      52.649  29.872  34.802  1.00  0.00    -0.237 OA
ATOM    105  O   UNL A   1      52.460  27.415  34.826  1.00  0.00    -0.744 OA
ENDBRANCH 101 102
ENDBRANCH  69  94
ENDBRANCH  43  44
ENDBRANCH  36  38
ENDBRANCH  35  36
ENDBRANCH  34  35
ENDBRANCH  33  34
ENDBRANCH  32  33
ENDBRANCH   1  32
TORSDOF 23
ENDMDL
MODEL 3
REMARK VINA RESULT:      -9.5      4.521      6.463
REMARK SMILES CC(=O)N[C@H](CSCC(=O)Nc1ccc2c(c1)N1CC[NH+]=C1S2)C(=O)OCCOCCOC(=O)c1ccc(-c2c3nc(c(-c4c(F)cc(S(=O)(=O)[O-])cc4F)c4ccc([nH]4)c(-c4c(F)cc(S(=O)(=O)[O-])cc4F)c4nc(c(-c5c(F)cc(S(=O)(=O)[O-])cc5F)c5ccc2[nH]5)C=C4)C=C3)cc1
REMARK SMILES IDX 28 1 27 2 26 3 24 4 25 5 5 6 4 7 1 8 2 9 3 10 6 12 7 13 8 14
REMARK SMILES IDX 9 15 10 16 11 17 12 19 13 20 17 21 14 22 16 23 15 24 18 25
REMARK SMILES IDX 23 26 19 27 22 28 20 29 21 30 29 32 30 33 31 34 32 35 33 36
REMARK SMILES IDX 34 37 35 38 36 39 100 40 37 41 99 42 38 43 39 44 40 45 93 46
REMARK SMILES IDX 41 47 98 48 92 49 94 50 42 51 97 52 91 53 90 54 43 56 77 57
REMARK SMILES IDX 56 58 76 59 57 60 60 61 75 62 95 63 58 64 59 65 74 67 96 68
REMARK SMILES IDX 61 69 44 70 45 71 54 72 46 73 47 74 53 75 55 76 48 77 49 78
REMARK SMILES IDX 50 79 51 80 52 81 78 82 79 83 88 84 80 85 81 86 87 87 89 88
REMARK SMILES IDX 82 89 83 90 84 91 85 92 86 93 62 94 63 95 72 96 64 97 65 98
REMARK SMILES IDX 71 99 73 100 66 101 67 102 68 103 69 104 70 105
REMARK H PARENT 4 11 11 18 21 31 94 55 60 66
REMARK Flexibility Score: inf
ROOT
ATOM      1  C   UNL A   1      31.108  26.506  24.887  1.00  0.00     0.202 C 
ENDROOT
BRANCH   1   2
ATOM      2  C   UNL A   1      31.138  25.500  26.042  1.00  0.00     0.261 C 
BRANCH   2   3
ATOM      3  O   UNL A   1      30.857  24.156  25.606  1.00  0.00    -0.462 OA
BRANCH   3   4
ATOM      4  C   UNL A   1      31.015  23.180  26.528  1.00  0.00     0.329 C 
ATOM      5  O   UNL A   1      30.288  23.011  27.502  1.00  0.00    -0.250 OA
BRANCH   4   6
ATOM      6  C   UNL A   1      32.277  22.340  26.293  1.00  0.00     0.202 C 
BRANCH   6   7
ATOM      7  N   UNL A   1      31.967  20.984  25.846  1.00  0.00    -0.342 N 
ATOM      8  C   UNL A   1      32.887  21.199  23.569  1.00  0.00     0.114 C 
ATOM      9  C   UNL A   1      32.257  20.382  24.662  1.00  0.00     0.217 C 
ATOM     10  O   UNL A   1      31.990  19.193  24.504  1.00  0.00    -0.275 OA
ATOM     11  H   UNL A   1      31.476  20.427  26.495  1.00  0.00     0.164 HD
ENDBRANCH   6   7
BRANCH   6  12
ATOM     12  C   UNL A   1      33.317  22.400  27.429  1.00  0.00     0.107 C 
BRANCH  12  13
ATOM     13  S   UNL A   1      35.046  22.811  26.957  1.00  0.00    -0.149 SA
BRANCH  13  14
ATOM     14  C   UNL A   1      34.861  23.999  25.585  1.00  0.00     0.169 C 
BRANCH  14  15
ATOM     15  C   UNL A   1      35.646  23.662  24.344  1.00  0.00     0.234 C 
ATOM     16  O   UNL A   1      35.153  23.864  23.230  1.00  0.00    -0.274 OA
ATOM     17  N   UNL A   1      36.922  23.182  24.356  1.00  0.00    -0.325 N 
ATOM     18  H   UNL A   1      37.237  22.787  23.511  1.00  0.00     0.169 HD
BRANCH  17  19
ATOM     19  C   UNL A   1      37.842  23.175  25.407  1.00  0.00     0.045 A 
ATOM     20  C   UNL A   1      38.179  24.317  26.144  1.00  0.00     0.027 A 
ATOM     21  C   UNL A   1      38.454  21.948  25.681  1.00  0.00     0.079 A 
ATOM     22  C   UNL A   1      39.182  24.262  27.115  1.00  0.00     0.022 A 
ATOM     23  C   UNL A   1      39.514  21.909  26.560  1.00  0.00     0.144 A 
ATOM     24  C   UNL A   1      39.855  23.066  27.290  1.00  0.00     0.067 A 
ATOM     25  N   UNL A   1      40.381  20.871  26.763  1.00  0.00    -0.216 N 
ATOM     26  S   UNL A   1      41.302  22.742  28.310  1.00  0.00     0.002 SA
ATOM     27  C   UNL A   1      40.574  19.592  26.149  1.00  0.00     0.289 C 
ATOM     28  C   UNL A   1      41.451  21.171  27.548  1.00  0.00     0.316 C 
ATOM     29  C   UNL A   1      42.040  19.313  26.564  1.00  0.00     0.280 C 
ATOM     30  N   UNL A   1      42.445  20.337  27.604  1.00  0.00    -0.264 N 
ATOM     31  H   UNL A   1      43.248  20.365  28.172  1.00  0.00     0.305 HD
ENDBRANCH  17  19
ENDBRANCH  14  15
ENDBRANCH  13  14
ENDBRANCH  12  13
ENDBRANCH   6  12
ENDBRANCH   4   6
ENDBRANCH   3   4
ENDBRANCH   2   3
ENDBRANCH   1   2
BRANCH   1  32
ATOM     32  O   UNL A   1      32.201  27.428  24.888  1.00  0.00    -0.374 OA
BRANCH  32  33
ATOM     33  C   UNL A   1      32.450  28.064  26.142  1.00  0.00     0.202 C 
BRANCH  33  34
ATOM     34  C   UNL A   1      33.878  27.878  26.673  1.00  0.00     0.261 C 
BRANCH  34  35
ATOM     35  O   UNL A   1      34.676  29.057  26.449  1.00  0.00    -0.460 OA
BRANCH  35  36
ATOM     36  C   UNL A   1      34.766  29.921  27.497  1.00  0.00     0.338 C 
ATOM     37  O   UNL A   1      33.876  30.578  27.986  1.00  0.00    -0.246 OA
BRANCH  36  38
ATOM     38  C   UNL A   1      36.125  29.792  28.080  1.00  0.00     0.060 A 
ATOM     39  C   UNL A   1      37.260  30.082  27.327  1.00  0.00     0.016 A 
ATOM     40  C   UNL A   1      36.258  29.323  29.392  1.00  0.00     0.016 A 
ATOM     41  C   UNL A   1      38.524  29.831  27.861  1.00  0.00     0.010 A 
ATOM     42  C   UNL A   1      37.531  29.130  29.946  1.00  0.00     0.010 A 
ATOM     43  C   UNL A   1      38.680  29.379  29.183  1.00  0.00    -0.014 A 
BRANCH  43  44
ATOM     44  C   UNL A   1      40.046  29.295  29.773  1.00  0.00     0.031 A 
ATOM     45  C   UNL A   1      41.092  28.349  29.247  1.00  0.00     0.074 A 
ATOM     46  C   UNL A   1      40.351  30.116  30.800  1.00  0.00     0.049 A 
ATOM     47  N   UNL A   1      42.308  28.147  29.688  1.00  0.00    -0.248 NA
ATOM     48  C   UNL A   1      40.733  27.527  28.082  1.00  0.00     0.031 C 
ATOM     49  C   UNL A   1      39.431  31.082  31.406  1.00  0.00     0.029 A 
ATOM     50  N   UNL A   1      41.515  30.284  31.505  1.00  0.00    -0.354 N 
ATOM     51  C   UNL A   1      42.858  27.165  28.872  1.00  0.00     0.074 A 
ATOM     52  C   UNL A   1      41.834  26.803  27.913  1.00  0.00     0.031 C 
ATOM     53  C   UNL A   1      40.079  31.777  32.351  1.00  0.00     0.029 A 
ATOM     54  C   UNL A   1      41.433  31.252  32.479  1.00  0.00     0.049 A 
ATOM     55  H   UNL A   1      42.331  29.763  31.331  1.00  0.00     0.167 HD
ATOM     56  C   UNL A   1      44.100  26.621  28.917  1.00  0.00     0.037 A 
ATOM     57  C   UNL A   1      42.329  31.659  33.398  1.00  0.00     0.037 A 
ATOM     58  C   UNL A   1      45.123  26.989  29.867  1.00  0.00     0.049 A 
ATOM     59  C   UNL A   1      43.675  31.002  33.461  1.00  0.00     0.074 A 
ATOM     60  C   UNL A   1      46.415  26.498  29.971  1.00  0.00     0.029 A 
ATOM     61  N   UNL A   1      44.979  27.931  30.874  1.00  0.00    -0.354 N 
ATOM     62  N   UNL A   1      44.166  30.064  32.689  1.00  0.00    -0.248 NA
ATOM     63  C   UNL A   1      44.580  31.442  34.532  1.00  0.00     0.031 C 
ATOM     64  C   UNL A   1      47.036  27.111  31.065  1.00  0.00     0.029 A 
ATOM     65  C   UNL A   1      46.148  28.018  31.615  1.00  0.00     0.049 A 
ATOM     66  H   UNL A   1      44.165  28.460  31.040  1.00  0.00     0.167 HD
ATOM     67  C   UNL A   1      45.442  29.804  33.178  1.00  0.00     0.074 A 
ATOM     68  C   UNL A   1      45.652  30.698  34.298  1.00  0.00     0.031 C 
ATOM     69  C   UNL A   1      46.350  28.899  32.740  1.00  0.00     0.037 A 
BRANCH  56  70
ATOM     70  C   UNL A   1      44.439  25.550  27.916  1.00  0.00     0.058 A 
ATOM     71  C   UNL A   1      44.452  24.192  28.267  1.00  0.00     0.135 A 
ATOM     72  C   UNL A   1      44.662  25.880  26.568  1.00  0.00     0.135 A 
ATOM     73  F   UNL A   1      44.256  23.823  29.543  1.00  0.00    -0.206 F 
ATOM     74  C   UNL A   1      44.684  23.198  27.321  1.00  0.00     0.059 A 
ATOM     75  C   UNL A   1      44.876  24.902  25.601  1.00  0.00     0.059 A 
ATOM     76  F   UNL A   1      44.658  27.164  26.178  1.00  0.00    -0.206 F 
ATOM     77  C   UNL A   1      44.892  23.563  25.989  1.00  0.00     0.060 A 
BRANCH  77  78
ATOM     78  S   UNL A   1      45.171  22.259  24.771  1.00  0.00     0.124 S 
ATOM     79  O   UNL A   1      43.974  21.443  24.942  1.00  0.00    -0.237 OA
ATOM     80  O   UNL A   1      45.253  23.013  23.524  1.00  0.00    -0.237 OA
ATOM     81  O   UNL A   1      46.419  21.643  25.211  1.00  0.00    -0.744 OA
ENDBRANCH  77  78
ENDBRANCH  56  70
BRANCH  57  82
ATOM     82  C   UNL A   1      41.961  32.742  34.344  1.00  0.00     0.058 A 
ATOM     83  C   UNL A   1      41.323  32.446  35.556  1.00  0.00     0.135 A 
ATOM     84  C   UNL A   1      42.288  34.081  34.081  1.00  0.00     0.135 A 
ATOM     85  F   UNL A   1      40.991  31.179  35.847  1.00  0.00    -0.206 F 
ATOM     86  C   UNL A   1      41.026  33.440  36.481  1.00  0.00     0.059 A 
ATOM     87  C   UNL A   1      42.027  35.089  35.001  1.00  0.00     0.059 A 
ATOM     88  F   UNL A   1      42.917  34.408  32.941  1.00  0.00    -0.206 F 
ATOM     89  C   UNL A   1      41.392  34.758  36.198  1.00  0.00     0.060 A 
BRANCH  89  90
ATOM     90  S   UNL A   1      41.091  36.026  37.447  1.00  0.00     0.124 S 
ATOM     91  O   UNL A   1      39.837  36.604  36.980  1.00  0.00    -0.237 OA
ATOM     92  O   UNL A   1      41.017  35.234  38.671  1.00  0.00    -0.237 OA
ATOM     93  O   UNL A   1      42.266  36.886  37.338  1.00  0.00    -0.744 OA
ENDBRANCH  89  90
ENDBRANCH  57  82
BRANCH  69  94
ATOM     94  C   UNL A   1      47.663  28.831  33.469  1.00  0.00     0.058 A 
ATOM     95  C   UNL A   1      47.858  27.947  34.542  1.00  0.00     0.135 A 
ATOM     96  C   UNL A   1      48.746  29.629  33.070  1.00  0.00     0.135 A 
ATOM     97  F   UNL A   1      46.850  27.171  34.970  1.00  0.00    -0.206 F 
ATOM     98  C   UNL A   1      49.078  27.870  35.206  1.00  0.00     0.059 A 
ATOM     99  C   UNL A   1      49.983  29.551  33.705  1.00  0.00     0.059 A 
ATOM    100  F   UNL A   1      48.613  30.486  32.046  1.00  0.00    -0.206 F 
ATOM    101  C   UNL A   1      50.135  28.675  34.780  1.00  0.00     0.060 A 
BRANCH 101 102
ATOM    102  S   UNL A   1      51.721  28.544  35.634  1.00  0.00     0.124 S 
ATOM    103  O   UNL A   1      52.616  28.183  34.539  1.00  0.00    -0.237 OA
ATOM    104  O   UNL A   1      51.894  29.888  36.177  1.00  0.00    -0.237 OA
ATOM    105  O   UNL A   1      51.488  27.498  36.626  1.00  0.00    -0.744 OA
ENDBRANCH 101 102
ENDBRANCH  69  94
ENDBRANCH  43  44
ENDBRANCH  36  38
ENDBRANCH  35  36
ENDBRANCH  34  35
ENDBRANCH  33  34
ENDBRANCH  32  33
ENDBRANCH   1  32
TORSDOF 23
ENDMDL
