MODEL 1
REMARK VINA RESULT:     -11.4      0.000      0.000
REMARK SMILES O=C(OCCOCCOC(=O)c1csc(CNc2ccc(-n3cccn3)nc2)c1)c1ccc(-c2c3nc(c(-c4c(F)cc(S(=O)(=O)[O-])cc4F)c4ccc([nH]4)c(-c4c(F)cc(S(=O)(=O)[O-])cc4F)c4nc(c(-c5c(F)cc(S(=O)(=O)[O-])cc5F)c5ccc2[nH]5)C=C4)C=C3)cc1
REMARK SMILES IDX 7 1 6 2 5 3 4 4 3 5 2 6 1 7 30 8 31 9 95 10 32 11 94 12
REMARK SMILES IDX 33 13 34 14 35 15 88 16 36 17 93 18 87 19 89 20 37 21 92 22
REMARK SMILES IDX 86 23 85 24 38 26 72 27 51 28 71 29 52 30 55 31 70 32 90 33
REMARK SMILES IDX 53 34 54 35 69 37 91 38 56 39 39 40 40 41 49 42 41 43 42 44
REMARK SMILES IDX 48 45 50 46 43 47 44 48 45 49 46 50 47 51 73 52 74 53 83 54
REMARK SMILES IDX 75 55 76 56 82 57 84 58 77 59 78 60 79 61 80 62 81 63 57 64
REMARK SMILES IDX 58 65 67 66 59 67 60 68 66 69 68 70 61 71 62 72 63 73 64 74
REMARK SMILES IDX 65 75 8 76 9 77 10 78 11 79 12 80 13 81 29 82 14 83 15 84
REMARK SMILES IDX 16 85 17 86 18 88 19 89 28 90 20 91 27 92 21 93 22 94 23 95
REMARK SMILES IDX 26 96 24 97 25 98
REMARK H PARENT 89 25 55 36 17 87
REMARK Flexibility Score: inf
ROOT
ATOM      1  C   UNL A   1      40.578  20.044  26.204  1.00  0.00     0.202 C 
ENDROOT
BRANCH   1   2
ATOM      2  O   UNL A   1      41.612  19.460  25.397  1.00  0.00    -0.374 OA
BRANCH   2   3
ATOM      3  C   UNL A   1      42.896  19.383  26.011  1.00  0.00     0.202 C 
BRANCH   3   4
ATOM      4  C   UNL A   1      44.017  20.160  25.321  1.00  0.00     0.261 C 
BRANCH   4   5
ATOM      5  O   UNL A   1      44.154  21.509  25.807  1.00  0.00    -0.460 OA
BRANCH   5   6
ATOM      6  C   UNL A   1      43.660  22.591  25.158  1.00  0.00     0.338 C 
ATOM      7  O   UNL A   1      43.422  22.553  23.955  1.00  0.00    -0.246 OA
BRANCH   6   8
ATOM      8  C   UNL A   1      43.109  23.687  25.991  1.00  0.00     0.060 A 
ATOM      9  C   UNL A   1      42.392  24.774  25.493  1.00  0.00     0.016 A 
ATOM     10  C   UNL A   1      43.393  23.625  27.363  1.00  0.00     0.016 A 
ATOM     11  C   UNL A   1      42.183  25.887  26.287  1.00  0.00     0.010 A 
ATOM     12  C   UNL A   1      43.105  24.704  28.184  1.00  0.00     0.010 A 
ATOM     13  C   UNL A   1      42.590  25.870  27.620  1.00  0.00    -0.014 A 
BRANCH  13  14
ATOM     14  C   UNL A   1      42.406  27.099  28.385  1.00  0.00     0.031 A 
ATOM     15  C   UNL A   1      43.530  28.080  28.336  1.00  0.00     0.074 A 
ATOM     16  C   UNL A   1      41.255  27.392  29.021  1.00  0.00     0.049 A 
ATOM     17  N   UNL A   1      44.198  28.605  29.313  1.00  0.00    -0.248 NA
ATOM     18  C   UNL A   1      44.020  28.458  27.001  1.00  0.00     0.031 C 
ATOM     19  C   UNL A   1      39.976  26.682  28.944  1.00  0.00     0.029 A 
ATOM     20  N   UNL A   1      40.962  28.480  29.785  1.00  0.00    -0.354 N 
ATOM     21  C   UNL A   1      45.070  29.521  28.728  1.00  0.00     0.074 A 
ATOM     22  C   UNL A   1      45.003  29.304  27.305  1.00  0.00     0.031 C 
ATOM     23  C   UNL A   1      38.999  27.483  29.422  1.00  0.00     0.029 A 
ATOM     24  C   UNL A   1      39.603  28.691  29.956  1.00  0.00     0.049 A 
ATOM     25  H   UNL A   1      41.650  29.062  30.179  1.00  0.00     0.167 HD
ATOM     26  C   UNL A   1      45.664  30.532  29.423  1.00  0.00     0.037 A 
ATOM     27  C   UNL A   1      39.013  29.822  30.409  1.00  0.00     0.037 A 
ATOM     28  C   UNL A   1      45.686  30.290  30.837  1.00  0.00     0.049 A 
ATOM     29  C   UNL A   1      40.035  30.596  31.159  1.00  0.00     0.074 A 
ATOM     30  C   UNL A   1      46.236  29.313  31.645  1.00  0.00     0.029 A 
ATOM     31  N   UNL A   1      44.799  30.969  31.636  1.00  0.00    -0.354 N 
ATOM     32  N   UNL A   1      40.566  30.218  32.289  1.00  0.00    -0.248 NA
ATOM     33  C   UNL A   1      40.766  31.634  30.448  1.00  0.00     0.031 C 
ATOM     34  C   UNL A   1      45.311  29.148  32.716  1.00  0.00     0.029 A 
ATOM     35  C   UNL A   1      44.266  30.049  32.506  1.00  0.00     0.049 A 
ATOM     36  H   UNL A   1      44.585  31.929  31.593  1.00  0.00     0.167 HD
ATOM     37  C   UNL A   1      41.878  30.665  32.240  1.00  0.00     0.074 A 
ATOM     38  C   UNL A   1      41.908  31.623  31.141  1.00  0.00     0.031 C 
ATOM     39  C   UNL A   1      42.877  30.024  32.914  1.00  0.00     0.037 A 
BRANCH  26  40
ATOM     40  C   UNL A   1      45.971  31.873  28.811  1.00  0.00     0.058 A 
ATOM     41  C   UNL A   1      44.983  32.590  28.112  1.00  0.00     0.135 A 
ATOM     42  C   UNL A   1      47.291  32.363  28.684  1.00  0.00     0.135 A 
ATOM     43  F   UNL A   1      43.702  32.188  28.137  1.00  0.00    -0.206 F 
ATOM     44  C   UNL A   1      45.289  33.699  27.319  1.00  0.00     0.059 A 
ATOM     45  C   UNL A   1      47.611  33.495  27.945  1.00  0.00     0.059 A 
ATOM     46  F   UNL A   1      48.340  31.707  29.200  1.00  0.00    -0.206 F 
ATOM     47  C   UNL A   1      46.609  34.135  27.233  1.00  0.00     0.060 A 
BRANCH  47  48
ATOM     48  S   UNL A   1      47.030  35.501  26.135  1.00  0.00     0.124 S 
ATOM     49  O   UNL A   1      47.909  36.295  26.987  1.00  0.00    -0.237 OA
ATOM     50  O   UNL A   1      47.672  34.813  25.020  1.00  0.00    -0.237 OA
ATOM     51  O   UNL A   1      45.732  36.097  25.831  1.00  0.00    -0.744 OA
ENDBRANCH  47  48
ENDBRANCH  26  40
BRANCH  27  52
ATOM     52  C   UNL A   1      37.739  30.409  29.926  1.00  0.00     0.058 A 
ATOM     53  C   UNL A   1      36.888  31.112  30.792  1.00  0.00     0.135 A 
ATOM     54  C   UNL A   1      37.450  30.512  28.547  1.00  0.00     0.135 A 
ATOM     55  F   UNL A   1      37.110  31.099  32.114  1.00  0.00    -0.206 F 
ATOM     56  C   UNL A   1      35.832  31.898  30.319  1.00  0.00     0.059 A 
ATOM     57  C   UNL A   1      36.393  31.271  28.055  1.00  0.00     0.059 A 
ATOM     58  F   UNL A   1      38.246  29.951  27.625  1.00  0.00    -0.206 F 
ATOM     59  C   UNL A   1      35.602  31.982  28.945  1.00  0.00     0.060 A 
BRANCH  59  60
ATOM     60  S   UNL A   1      34.346  33.121  28.321  1.00  0.00     0.124 S 
ATOM     61  O   UNL A   1      33.764  33.634  29.556  1.00  0.00    -0.237 OA
ATOM     62  O   UNL A   1      35.145  34.067  27.550  1.00  0.00    -0.237 OA
ATOM     63  O   UNL A   1      33.471  32.259  27.529  1.00  0.00    -0.744 OA
ENDBRANCH  59  60
ENDBRANCH  27  52
BRANCH  39  64
ATOM     64  C   UNL A   1      42.495  29.003  33.956  1.00  0.00     0.058 A 
ATOM     65  C   UNL A   1      42.171  27.668  33.660  1.00  0.00     0.135 A 
ATOM     66  C   UNL A   1      42.616  29.343  35.313  1.00  0.00     0.135 A 
ATOM     67  F   UNL A   1      42.147  27.230  32.394  1.00  0.00    -0.206 F 
ATOM     68  C   UNL A   1      41.934  26.726  34.662  1.00  0.00     0.059 A 
ATOM     69  C   UNL A   1      42.416  28.412  36.331  1.00  0.00     0.059 A 
ATOM     70  F   UNL A   1      42.991  30.585  35.664  1.00  0.00    -0.206 F 
ATOM     71  C   UNL A   1      42.062  27.106  35.996  1.00  0.00     0.060 A 
BRANCH  71  72
ATOM     72  S   UNL A   1      41.855  25.858  37.288  1.00  0.00     0.124 S 
ATOM     73  O   UNL A   1      42.201  24.628  36.584  1.00  0.00    -0.237 OA
ATOM     74  O   UNL A   1      42.804  26.294  38.308  1.00  0.00    -0.237 OA
ATOM     75  O   UNL A   1      40.449  25.988  37.665  1.00  0.00    -0.744 OA
ENDBRANCH  71  72
ENDBRANCH  39  64
ENDBRANCH  13  14
ENDBRANCH   6   8
ENDBRANCH   5   6
ENDBRANCH   4   5
ENDBRANCH   3   4
ENDBRANCH   2   3
ENDBRANCH   1   2
BRANCH   1  76
ATOM     76  C   UNL A   1      40.200  21.501  25.892  1.00  0.00     0.261 C 
BRANCH  76  77
ATOM     77  O   UNL A   1      38.779  21.639  25.687  1.00  0.00    -0.460 OA
BRANCH  77  78
ATOM     78  C   UNL A   1      38.242  22.849  26.043  1.00  0.00     0.339 C 
ATOM     79  O   UNL A   1      38.781  23.673  26.742  1.00  0.00    -0.246 OA
BRANCH  78  80
ATOM     80  C   UNL A   1      37.024  23.130  25.278  1.00  0.00     0.071 A 
ATOM     81  C   UNL A   1      36.704  22.591  24.050  1.00  0.00     0.080 A 
ATOM     82  C   UNL A   1      36.038  24.095  25.687  1.00  0.00     0.033 A 
ATOM     83  S   UNL A   1      35.241  23.218  23.424  1.00  0.00    -0.146 S 
ATOM     84  C   UNL A   1      35.061  24.309  24.736  1.00  0.00     0.025 A 
BRANCH  84  85
ATOM     85  C   UNL A   1      33.946  25.324  24.765  1.00  0.00     0.159 C 
BRANCH  85  86
ATOM     86  N   UNL A   1      33.699  25.969  23.485  1.00  0.00    -0.379 N 
ATOM     87  H   UNL A   1      34.251  25.722  22.708  1.00  0.00     0.160 HD
BRANCH  86  88
ATOM     88  C   UNL A   1      32.707  26.918  23.334  1.00  0.00     0.053 A 
ATOM     89  C   UNL A   1      32.468  27.917  24.274  1.00  0.00     0.031 A 
ATOM     90  C   UNL A   1      31.831  26.876  22.249  1.00  0.00     0.139 A 
ATOM     91  C   UNL A   1      31.443  28.846  24.077  1.00  0.00     0.051 A 
ATOM     92  N   UNL A   1      30.795  27.724  22.050  1.00  0.00    -0.235 NA
ATOM     93  C   UNL A   1      30.628  28.724  22.952  1.00  0.00     0.153 A 
BRANCH  93  94
ATOM     94  N   UNL A   1      29.591  29.682  22.721  1.00  0.00    -0.223 N 
ATOM     95  C   UNL A   1      29.137  30.658  23.592  1.00  0.00     0.117 A 
ATOM     96  N   UNL A   1      28.918  29.739  21.537  1.00  0.00    -0.175 NA
ATOM     97  C   UNL A   1      28.139  31.349  22.945  1.00  0.00     0.042 A 
ATOM     98  C   UNL A   1      28.033  30.724  21.695  1.00  0.00     0.135 A 
ENDBRANCH  93  94
ENDBRANCH  86  88
ENDBRANCH  85  86
ENDBRANCH  84  85
ENDBRANCH  78  80
ENDBRANCH  77  78
ENDBRANCH  76  77
ENDBRANCH   1  76
TORSDOF 21
ENDMDL
MODEL 2
REMARK VINA RESULT:     -11.4      1.429      2.009
REMARK SMILES O=C(OCCOCCOC(=O)c1csc(CNc2ccc(-n3cccn3)nc2)c1)c1ccc(-c2c3nc(c(-c4c(F)cc(S(=O)(=O)[O-])cc4F)c4ccc([nH]4)c(-c4c(F)cc(S(=O)(=O)[O-])cc4F)c4nc(c(-c5c(F)cc(S(=O)(=O)[O-])cc5F)c5ccc2[nH]5)C=C4)C=C3)cc1
REMARK SMILES IDX 7 1 6 2 5 3 4 4 3 5 2 6 1 7 30 8 31 9 95 10 32 11 94 12
REMARK SMILES IDX 33 13 34 14 35 15 88 16 36 17 93 18 87 19 89 20 37 21 92 22
REMARK SMILES IDX 86 23 85 24 38 26 72 27 51 28 71 29 52 30 55 31 70 32 90 33
REMARK SMILES IDX 53 34 54 35 69 37 91 38 56 39 39 40 40 41 49 42 41 43 42 44
REMARK SMILES IDX 48 45 50 46 43 47 44 48 45 49 46 50 47 51 73 52 74 53 83 54
REMARK SMILES IDX 75 55 76 56 82 57 84 58 77 59 78 60 79 61 80 62 81 63 57 64
REMARK SMILES IDX 58 65 67 66 59 67 60 68 66 69 68 70 61 71 62 72 63 73 64 74
REMARK SMILES IDX 65 75 8 76 9 77 10 78 11 79 12 80 13 81 29 82 14 83 15 84
REMARK SMILES IDX 16 85 17 86 18 88 19 89 28 90 20 91 27 92 21 93 22 94 23 95
REMARK SMILES IDX 26 96 24 97 25 98
REMARK H PARENT 89 25 55 36 17 87
REMARK Flexibility Score: inf
ROOT
ATOM      1  C   UNL A   1      40.916  20.079  26.547  1.00  0.00     0.202 C 
ENDROOT
BRANCH   1   2
ATOM      2  O   UNL A   1      41.661  19.369  25.544  1.00  0.00    -0.374 OA
BRANCH   2   3
ATOM      3  C   UNL A   1      42.861  18.749  26.000  1.00  0.00     0.202 C 
BRANCH   3   4
ATOM      4  C   UNL A   1      44.053  18.813  25.045  1.00  0.00     0.261 C 
BRANCH   4   5
ATOM      5  O   UNL A   1      44.836  20.012  25.195  1.00  0.00    -0.460 OA
BRANCH   5   6
ATOM      6  C   UNL A   1      44.593  21.156  24.510  1.00  0.00     0.338 C 
ATOM      7  O   UNL A   1      44.554  21.160  23.283  1.00  0.00    -0.246 OA
BRANCH   6   8
ATOM      8  C   UNL A   1      44.052  22.303  25.276  1.00  0.00     0.060 A 
ATOM      9  C   UNL A   1      43.397  23.394  24.707  1.00  0.00     0.016 A 
ATOM     10  C   UNL A   1      44.280  22.287  26.659  1.00  0.00     0.016 A 
ATOM     11  C   UNL A   1      43.199  24.546  25.448  1.00  0.00     0.010 A 
ATOM     12  C   UNL A   1      44.001  23.408  27.425  1.00  0.00     0.010 A 
ATOM     13  C   UNL A   1      43.552  24.568  26.796  1.00  0.00    -0.014 A 
BRANCH  13  14
ATOM     14  C   UNL A   1      43.385  25.833  27.504  1.00  0.00     0.031 A 
ATOM     15  C   UNL A   1      44.467  26.843  27.312  1.00  0.00     0.074 A 
ATOM     16  C   UNL A   1      42.277  26.127  28.211  1.00  0.00     0.049 A 
ATOM     17  N   UNL A   1      45.189  27.444  28.203  1.00  0.00    -0.248 NA
ATOM     18  C   UNL A   1      44.840  27.158  25.924  1.00  0.00     0.031 C 
ATOM     19  C   UNL A   1      41.021  25.375  28.274  1.00  0.00     0.029 A 
ATOM     20  N   UNL A   1      42.005  27.248  28.935  1.00  0.00    -0.354 N 
ATOM     21  C   UNL A   1      45.982  28.351  27.502  1.00  0.00     0.074 A 
ATOM     22  C   UNL A   1      45.813  28.050  26.102  1.00  0.00     0.031 C 
ATOM     23  C   UNL A   1      40.057  26.172  28.782  1.00  0.00     0.029 A 
ATOM     24  C   UNL A   1      40.657  27.427  29.199  1.00  0.00     0.049 A 
ATOM     25  H   UNL A   1      42.701  27.873  29.241  1.00  0.00     0.167 HD
ATOM     26  C   UNL A   1      46.591  29.417  28.091  1.00  0.00     0.037 A 
ATOM     27  C   UNL A   1      40.065  28.563  29.635  1.00  0.00     0.037 A 
ATOM     28  C   UNL A   1      46.730  29.258  29.510  1.00  0.00     0.049 A 
ATOM     29  C   UNL A   1      41.113  29.411  30.258  1.00  0.00     0.074 A 
ATOM     30  C   UNL A   1      47.374  28.347  30.325  1.00  0.00     0.029 A 
ATOM     31  N   UNL A   1      45.884  29.955  30.338  1.00  0.00    -0.354 N 
ATOM     32  N   UNL A   1      41.742  29.115  31.362  1.00  0.00    -0.248 NA
ATOM     33  C   UNL A   1      41.751  30.428  29.436  1.00  0.00     0.031 C 
ATOM     34  C   UNL A   1      46.541  28.216  31.473  1.00  0.00     0.029 A 
ATOM     35  C   UNL A   1      45.452  29.071  31.296  1.00  0.00     0.049 A 
ATOM     36  H   UNL A   1      45.634  30.904  30.258  1.00  0.00     0.167 HD
ATOM     37  C   UNL A   1      43.031  29.598  31.185  1.00  0.00     0.074 A 
ATOM     38  C   UNL A   1      42.943  30.492  30.036  1.00  0.00     0.031 C 
ATOM     39  C   UNL A   1      44.101  29.027  31.813  1.00  0.00     0.037 A 
BRANCH  26  40
ATOM     40  C   UNL A   1      46.804  30.730  27.384  1.00  0.00     0.058 A 
ATOM     41  C   UNL A   1      48.085  31.308  27.307  1.00  0.00     0.135 A 
ATOM     42  C   UNL A   1      45.731  31.561  26.989  1.00  0.00     0.135 A 
ATOM     43  F   UNL A   1      49.169  30.617  27.693  1.00  0.00    -0.206 F 
ATOM     44  C   UNL A   1      48.282  32.629  26.896  1.00  0.00     0.059 A 
ATOM     45  C   UNL A   1      45.908  32.858  26.526  1.00  0.00     0.059 A 
ATOM     46  F   UNL A   1      44.454  31.176  27.126  1.00  0.00    -0.206 F 
ATOM     47  C   UNL A   1      47.184  33.398  26.519  1.00  0.00     0.060 A 
BRANCH  47  48
ATOM     48  S   UNL A   1      47.415  35.132  26.083  1.00  0.00     0.124 S 
ATOM     49  O   UNL A   1      46.040  35.550  25.828  1.00  0.00    -0.237 OA
ATOM     50  O   UNL A   1      48.035  35.673  27.288  1.00  0.00    -0.237 OA
ATOM     51  O   UNL A   1      48.286  35.069  24.913  1.00  0.00    -0.744 OA
ENDBRANCH  47  48
ENDBRANCH  26  40
BRANCH  27  52
ATOM     52  C   UNL A   1      38.738  29.083  29.222  1.00  0.00     0.058 A 
ATOM     53  C   UNL A   1      37.755  29.404  30.170  1.00  0.00     0.135 A 
ATOM     54  C   UNL A   1      38.494  29.516  27.900  1.00  0.00     0.135 A 
ATOM     55  F   UNL A   1      37.922  29.062  31.456  1.00  0.00    -0.206 F 
ATOM     56  C   UNL A   1      36.613  30.139  29.836  1.00  0.00     0.059 A 
ATOM     57  C   UNL A   1      37.356  30.231  27.540  1.00  0.00     0.059 A 
ATOM     58  F   UNL A   1      39.404  29.339  26.930  1.00  0.00    -0.206 F 
ATOM     59  C   UNL A   1      36.430  30.561  28.519  1.00  0.00     0.060 A 
BRANCH  59  60
ATOM     60  S   UNL A   1      35.044  31.647  28.116  1.00  0.00     0.124 S 
ATOM     61  O   UNL A   1      35.722  32.797  27.530  1.00  0.00    -0.237 OA
ATOM     62  O   UNL A   1      34.268  30.825  27.194  1.00  0.00    -0.237 OA
ATOM     63  O   UNL A   1      34.413  31.887  29.412  1.00  0.00    -0.744 OA
ENDBRANCH  59  60
ENDBRANCH  27  52
BRANCH  39  64
ATOM     64  C   UNL A   1      43.835  28.058  32.937  1.00  0.00     0.058 A 
ATOM     65  C   UNL A   1      43.712  26.669  32.758  1.00  0.00     0.135 A 
ATOM     66  C   UNL A   1      43.866  28.529  34.259  1.00  0.00     0.135 A 
ATOM     67  F   UNL A   1      43.788  26.123  31.536  1.00  0.00    -0.206 F 
ATOM     68  C   UNL A   1      43.580  25.794  33.837  1.00  0.00     0.059 A 
ATOM     69  C   UNL A   1      43.769  27.671  35.353  1.00  0.00     0.059 A 
ATOM     70  F   UNL A   1      44.051  29.837  34.502  1.00  0.00    -0.206 F 
ATOM     71  C   UNL A   1      43.613  26.303  35.133  1.00  0.00     0.060 A 
BRANCH  71  72
ATOM     72  S   UNL A   1      43.546  25.156  36.529  1.00  0.00     0.124 S 
ATOM     73  O   UNL A   1      42.114  24.909  36.655  1.00  0.00    -0.237 OA
ATOM     74  O   UNL A   1      44.344  24.029  36.053  1.00  0.00    -0.237 OA
ATOM     75  O   UNL A   1      44.149  25.914  37.622  1.00  0.00    -0.744 OA
ENDBRANCH  71  72
ENDBRANCH  39  64
ENDBRANCH  13  14
ENDBRANCH   6   8
ENDBRANCH   5   6
ENDBRANCH   4   5
ENDBRANCH   3   4
ENDBRANCH   2   3
ENDBRANCH   1   2
BRANCH   1  76
ATOM     76  C   UNL A   1      40.465  21.505  26.189  1.00  0.00     0.261 C 
BRANCH  76  77
ATOM     77  O   UNL A   1      39.095  21.521  25.739  1.00  0.00    -0.460 OA
BRANCH  77  78
ATOM     78  C   UNL A   1      38.379  22.646  26.054  1.00  0.00     0.339 C 
ATOM     79  O   UNL A   1      38.839  23.653  26.537  1.00  0.00    -0.246 OA
BRANCH  78  80
ATOM     80  C   UNL A   1      37.019  22.573  25.515  1.00  0.00     0.071 A 
ATOM     81  C   UNL A   1      36.296  21.416  25.313  1.00  0.00     0.080 A 
ATOM     82  C   UNL A   1      36.294  23.720  25.037  1.00  0.00     0.033 A 
ATOM     83  S   UNL A   1      34.775  21.715  24.588  1.00  0.00    -0.146 S 
ATOM     84  C   UNL A   1      35.100  23.392  24.428  1.00  0.00     0.025 A 
BRANCH  84  85
ATOM     85  C   UNL A   1      34.142  24.312  23.711  1.00  0.00     0.159 C 
BRANCH  85  86
ATOM     86  N   UNL A   1      33.291  25.088  24.599  1.00  0.00    -0.379 N 
ATOM     87  H   UNL A   1      33.273  24.872  25.560  1.00  0.00     0.160 HD
BRANCH  86  88
ATOM     88  C   UNL A   1      32.508  26.123  24.126  1.00  0.00     0.053 A 
ATOM     89  C   UNL A   1      32.603  26.608  22.824  1.00  0.00     0.031 A 
ATOM     90  C   UNL A   1      31.619  26.794  24.965  1.00  0.00     0.139 A 
ATOM     91  C   UNL A   1      31.795  27.666  22.400  1.00  0.00     0.051 A 
ATOM     92  N   UNL A   1      30.857  27.855  24.608  1.00  0.00    -0.235 NA
ATOM     93  C   UNL A   1      30.929  28.263  23.315  1.00  0.00     0.153 A 
BRANCH  93  94
ATOM     94  N   UNL A   1      30.074  29.329  22.891  1.00  0.00    -0.223 N 
ATOM     95  C   UNL A   1      29.600  30.383  23.653  1.00  0.00     0.117 A 
ATOM     96  N   UNL A   1      29.627  29.422  21.606  1.00  0.00    -0.175 NA
ATOM     97  C   UNL A   1      28.823  31.164  22.830  1.00  0.00     0.042 A 
ATOM     98  C   UNL A   1      28.858  30.510  21.591  1.00  0.00     0.135 A 
ENDBRANCH  93  94
ENDBRANCH  86  88
ENDBRANCH  85  86
ENDBRANCH  84  85
ENDBRANCH  78  80
ENDBRANCH  77  78
ENDBRANCH  76  77
ENDBRANCH   1  76
TORSDOF 21
ENDMDL
MODEL 3
REMARK VINA RESULT:     -10.8      2.820      9.828
REMARK SMILES O=C(OCCOCCOC(=O)c1csc(CNc2ccc(-n3cccn3)nc2)c1)c1ccc(-c2c3nc(c(-c4c(F)cc(S(=O)(=O)[O-])cc4F)c4ccc([nH]4)c(-c4c(F)cc(S(=O)(=O)[O-])cc4F)c4nc(c(-c5c(F)cc(S(=O)(=O)[O-])cc5F)c5ccc2[nH]5)C=C4)C=C3)cc1
REMARK SMILES IDX 7 1 6 2 5 3 4 4 3 5 2 6 1 7 30 8 31 9 95 10 32 11 94 12
REMARK SMILES IDX 33 13 34 14 35 15 88 16 36 17 93 18 87 19 89 20 37 21 92 22
REMARK SMILES IDX 86 23 85 24 38 26 72 27 51 28 71 29 52 30 55 31 70 32 90 33
REMARK SMILES IDX 53 34 54 35 69 37 91 38 56 39 39 40 40 41 49 42 41 43 42 44
REMARK SMILES IDX 48 45 50 46 43 47 44 48 45 49 46 50 47 51 73 52 74 53 83 54
REMARK SMILES IDX 75 55 76 56 82 57 84 58 77 59 78 60 79 61 80 62 81 63 57 64
REMARK SMILES IDX 58 65 67 66 59 67 60 68 66 69 68 70 61 71 62 72 63 73 64 74
REMARK SMILES IDX 65 75 8 76 9 77 10 78 11 79 12 80 13 81 29 82 14 83 15 84
REMARK SMILES IDX 16 85 17 86 18 88 19 89 28 90 20 91 27 92 21 93 22 94 23 95
REMARK SMILES IDX 26 96 24 97 25 98
REMARK H PARENT 89 25 55 36 17 87
REMARK Flexibility Score: inf
ROOT
ATOM      1  C   UNL A   1      34.898  29.873  27.615  1.00  0.00     0.202 C 
ENDROOT
BRANCH   1   2
ATOM      2  O   UNL A   1      35.086  31.063  28.397  1.00  0.00    -0.374 OA
BRANCH   2   3
ATOM      3  C   UNL A   1      34.664  32.274  27.777  1.00  0.00     0.202 C 
BRANCH   3   4
ATOM      4  C   UNL A   1      33.590  33.069  28.521  1.00  0.00     0.261 C 
BRANCH   4   5
ATOM      5  O   UNL A   1      34.133  34.097  29.371  1.00  0.00    -0.460 OA
BRANCH   5   6
ATOM      6  C   UNL A   1      34.445  33.901  30.676  1.00  0.00     0.338 C 
ATOM      7  O   UNL A   1      33.592  34.007  31.552  1.00  0.00    -0.246 OA
BRANCH   6   8
ATOM      8  C   UNL A   1      35.736  33.237  30.971  1.00  0.00     0.060 A 
ATOM      9  C   UNL A   1      36.987  33.826  30.789  1.00  0.00     0.016 A 
ATOM     10  C   UNL A   1      35.662  31.907  31.409  1.00  0.00     0.016 A 
ATOM     11  C   UNL A   1      38.127  33.043  30.799  1.00  0.00     0.010 A 
ATOM     12  C   UNL A   1      36.813  31.140  31.506  1.00  0.00     0.010 A 
ATOM     13  C   UNL A   1      38.032  31.687  31.105  1.00  0.00    -0.014 A 
BRANCH  13  14
ATOM     14  C   UNL A   1      39.260  30.902  31.029  1.00  0.00     0.031 A 
ATOM     15  C   UNL A   1      40.009  30.726  32.307  1.00  0.00     0.074 A 
ATOM     16  C   UNL A   1      39.655  30.282  29.899  1.00  0.00     0.049 A 
ATOM     17  N   UNL A   1      41.243  31.012  32.576  1.00  0.00    -0.248 NA
ATOM     18  C   UNL A   1      39.240  30.235  33.462  1.00  0.00     0.031 C 
ATOM     19  C   UNL A   1      38.908  30.123  28.649  1.00  0.00     0.029 A 
ATOM     20  N   UNL A   1      40.781  29.548  29.685  1.00  0.00    -0.354 N 
ATOM     21  C   UNL A   1      41.461  30.566  33.879  1.00  0.00     0.074 A 
ATOM     22  C   UNL A   1      40.172  30.208  34.414  1.00  0.00     0.031 C 
ATOM     23  C   UNL A   1      39.485  29.149  27.914  1.00  0.00     0.029 A 
ATOM     24  C   UNL A   1      40.703  28.720  28.577  1.00  0.00     0.049 A 
ATOM     25  H   UNL A   1      41.575  29.600  30.264  1.00  0.00     0.167 HD
ATOM     26  C   UNL A   1      42.703  30.341  34.389  1.00  0.00     0.037 A 
ATOM     27  C   UNL A   1      41.528  27.688  28.283  1.00  0.00     0.037 A 
ATOM     28  C   UNL A   1      43.732  31.026  33.660  1.00  0.00     0.049 A 
ATOM     29  C   UNL A   1      42.794  27.891  29.032  1.00  0.00     0.074 A 
ATOM     30  C   UNL A   1      44.006  32.352  33.387  1.00  0.00     0.029 A 
ATOM     31  N   UNL A   1      44.527  30.304  32.805  1.00  0.00    -0.354 N 
ATOM     32  N   UNL A   1      43.642  28.855  28.802  1.00  0.00    -0.248 NA
ATOM     33  C   UNL A   1      42.941  27.233  30.322  1.00  0.00     0.031 C 
ATOM     34  C   UNL A   1      44.568  32.357  32.077  1.00  0.00     0.029 A 
ATOM     35  C   UNL A   1      44.621  31.031  31.644  1.00  0.00     0.049 A 
ATOM     36  H   UNL A   1      44.948  29.433  32.988  1.00  0.00     0.167 HD
ATOM     37  C   UNL A   1      44.155  29.192  30.047  1.00  0.00     0.074 A 
ATOM     38  C   UNL A   1      43.774  28.088  30.921  1.00  0.00     0.031 C 
ATOM     39  C   UNL A   1      44.606  30.452  30.317  1.00  0.00     0.037 A 
BRANCH  26  40
ATOM     40  C   UNL A   1      42.989  29.256  35.395  1.00  0.00     0.058 A 
ATOM     41  C   UNL A   1      43.611  29.556  36.621  1.00  0.00     0.135 A 
ATOM     42  C   UNL A   1      42.888  27.883  35.077  1.00  0.00     0.135 A 
ATOM     43  F   UNL A   1      43.789  30.832  37.001  1.00  0.00    -0.206 F 
ATOM     44  C   UNL A   1      44.123  28.562  37.459  1.00  0.00     0.059 A 
ATOM     45  C   UNL A   1      43.341  26.875  35.919  1.00  0.00     0.059 A 
ATOM     46  F   UNL A   1      42.427  27.466  33.890  1.00  0.00    -0.206 F 
ATOM     47  C   UNL A   1      43.992  27.225  37.091  1.00  0.00     0.060 A 
BRANCH  47  48
ATOM     48  S   UNL A   1      44.737  25.940  38.114  1.00  0.00     0.124 S 
ATOM     49  O   UNL A   1      46.154  26.128  37.825  1.00  0.00    -0.237 OA
ATOM     50  O   UNL A   1      44.302  26.323  39.454  1.00  0.00    -0.237 OA
ATOM     51  O   UNL A   1      44.140  24.713  37.596  1.00  0.00    -0.744 OA
ENDBRANCH  47  48
ENDBRANCH  26  40
BRANCH  27  52
ATOM     52  C   UNL A   1      41.138  26.389  27.681  1.00  0.00     0.058 A 
ATOM     53  C   UNL A   1      41.951  25.756  26.728  1.00  0.00     0.135 A 
ATOM     54  C   UNL A   1      40.084  25.615  28.215  1.00  0.00     0.135 A 
ATOM     55  F   UNL A   1      42.997  26.404  26.196  1.00  0.00    -0.206 F 
ATOM     56  C   UNL A   1      41.751  24.424  26.349  1.00  0.00     0.059 A 
ATOM     57  C   UNL A   1      39.853  24.296  27.838  1.00  0.00     0.059 A 
ATOM     58  F   UNL A   1      39.298  26.090  29.192  1.00  0.00    -0.206 F 
ATOM     59  C   UNL A   1      40.707  23.698  26.922  1.00  0.00     0.060 A 
BRANCH  59  60
ATOM     60  S   UNL A   1      40.545  21.935  26.560  1.00  0.00     0.124 S 
ATOM     61  O   UNL A   1      41.686  21.702  25.683  1.00  0.00    -0.237 OA
ATOM     62  O   UNL A   1      40.627  21.340  27.889  1.00  0.00    -0.237 OA
ATOM     63  O   UNL A   1      39.235  21.840  25.919  1.00  0.00    -0.744 OA
ENDBRANCH  59  60
ENDBRANCH  27  52
BRANCH  39  64
ATOM     64  C   UNL A   1      44.822  31.396  29.162  1.00  0.00     0.058 A 
ATOM     65  C   UNL A   1      45.975  31.396  28.357  1.00  0.00     0.135 A 
ATOM     66  C   UNL A   1      43.762  32.220  28.754  1.00  0.00     0.135 A 
ATOM     67  F   UNL A   1      46.989  30.556  28.608  1.00  0.00    -0.206 F 
ATOM     68  C   UNL A   1      46.088  32.208  27.228  1.00  0.00     0.059 A 
ATOM     69  C   UNL A   1      43.839  33.016  27.611  1.00  0.00     0.059 A 
ATOM     70  F   UNL A   1      42.606  32.217  29.439  1.00  0.00    -0.206 F 
ATOM     71  C   UNL A   1      45.013  33.013  26.860  1.00  0.00     0.060 A 
BRANCH  71  72
ATOM     72  S   UNL A   1      45.125  33.985  25.340  1.00  0.00     0.124 S 
ATOM     73  O   UNL A   1      46.560  34.217  25.229  1.00  0.00    -0.237 OA
ATOM     74  O   UNL A   1      44.549  33.085  24.343  1.00  0.00    -0.237 OA
ATOM     75  O   UNL A   1      44.320  35.168  25.632  1.00  0.00    -0.744 OA
ENDBRANCH  71  72
ENDBRANCH  39  64
ENDBRANCH  13  14
ENDBRANCH   6   8
ENDBRANCH   5   6
ENDBRANCH   4   5
ENDBRANCH   3   4
ENDBRANCH   2   3
ENDBRANCH   1   2
BRANCH   1  76
ATOM     76  C   UNL A   1      33.732  29.884  26.613  1.00  0.00     0.261 C 
BRANCH  76  77
ATOM     77  O   UNL A   1      32.471  29.662  27.277  1.00  0.00    -0.460 OA
BRANCH  77  78
ATOM     78  C   UNL A   1      31.991  28.380  27.226  1.00  0.00     0.339 C 
ATOM     79  O   UNL A   1      31.323  27.850  28.082  1.00  0.00    -0.246 OA
BRANCH  78  80
ATOM     80  C   UNL A   1      32.184  27.797  25.895  1.00  0.00     0.071 A 
ATOM     81  C   UNL A   1      31.368  28.000  24.803  1.00  0.00     0.080 A 
ATOM     82  C   UNL A   1      33.224  26.851  25.590  1.00  0.00     0.033 A 
ATOM     83  S   UNL A   1      31.861  27.089  23.442  1.00  0.00    -0.146 S 
ATOM     84  C   UNL A   1      33.116  26.317  24.321  1.00  0.00     0.025 A 
BRANCH  84  85
ATOM     85  C   UNL A   1      33.946  25.220  23.704  1.00  0.00     0.159 C 
BRANCH  85  86
ATOM     86  N   UNL A   1      34.483  24.271  24.668  1.00  0.00    -0.379 N 
ATOM     87  H   UNL A   1      35.104  24.589  25.362  1.00  0.00     0.160 HD
BRANCH  86  88
ATOM     88  C   UNL A   1      34.139  22.933  24.632  1.00  0.00     0.053 A 
ATOM     89  C   UNL A   1      33.136  22.433  23.806  1.00  0.00     0.031 A 
ATOM     90  C   UNL A   1      34.740  22.014  25.491  1.00  0.00     0.139 A 
ATOM     91  C   UNL A   1      32.820  21.072  23.818  1.00  0.00     0.051 A 
ATOM     92  N   UNL A   1      34.426  20.699  25.570  1.00  0.00    -0.235 NA
ATOM     93  C   UNL A   1      33.488  20.232  24.708  1.00  0.00     0.153 A 
BRANCH  93  94
ATOM     94  N   UNL A   1      33.196  18.831  24.714  1.00  0.00    -0.223 N 
ATOM     95  C   UNL A   1      32.774  18.063  25.786  1.00  0.00     0.117 A 
ATOM     96  N   UNL A   1      33.300  18.072  23.587  1.00  0.00    -0.175 NA
ATOM     97  C   UNL A   1      32.612  16.777  25.328  1.00  0.00     0.042 A 
ATOM     98  C   UNL A   1      32.973  16.839  23.975  1.00  0.00     0.135 A 
ENDBRANCH  93  94
ENDBRANCH  86  88
ENDBRANCH  85  86
ENDBRANCH  84  85
ENDBRANCH  78  80
ENDBRANCH  77  78
ENDBRANCH  76  77
ENDBRANCH   1  76
TORSDOF 21
ENDMDL
