MODEL 1
REMARK VINA RESULT:     -10.5      0.000      0.000
REMARK SMILES Cc1nc(C[N@@H+]2CCC[C@H]2C(=O)OCCOCCOC(=O)c2ccc(-c3c4nc(c(-c5c(F)cc(S(=O)(=O)[O-])cc5F)c5ccc([nH]5)c(-c5c(F)cc(S(=O)(=O)[O-])cc5F)c5nc(c(-c6c(F)cc(S(=O)(=O)[O-])cc6F)c6ccc3[nH]6)C=C5)C=C4)cc2)cs1
REMARK SMILES IDX 17 1 16 2 15 3 14 4 13 5 11 6 12 7 10 8 6 9 7 10 8 12 9 13
REMARK SMILES IDX 5 14 4 15 1 16 2 17 3 18 89 19 88 20 18 21 19 22 20 23 21 24
REMARK SMILES IDX 22 25 23 26 87 27 24 28 86 29 25 30 26 31 27 32 80 33 28 34
REMARK SMILES IDX 85 35 79 36 81 37 29 38 84 39 78 40 77 41 30 43 64 44 43 45
REMARK SMILES IDX 63 46 44 47 47 48 62 49 82 50 45 51 46 52 61 54 83 55 48 56
REMARK SMILES IDX 31 57 32 58 41 59 33 60 34 61 40 62 42 63 35 64 36 65 37 66
REMARK SMILES IDX 38 67 39 68 65 69 66 70 75 71 67 72 68 73 74 74 76 75 69 76
REMARK SMILES IDX 70 77 71 78 72 79 73 80 49 81 50 82 59 83 51 84 52 85 58 86
REMARK SMILES IDX 60 87 53 88 54 89 55 90 56 91 57 92
REMARK H PARENT 6 11 81 42 47 53
REMARK Flexibility Score: inf
ROOT
ATOM      1  C   UNL A   1      40.298  21.666  26.458  1.00  0.00     0.202 C 
ENDROOT
BRANCH   1   2
ATOM      2  O   UNL A   1      39.082  21.999  25.794  1.00  0.00    -0.374 OA
BRANCH   2   3
ATOM      3  C   UNL A   1      38.173  20.935  25.499  1.00  0.00     0.202 C 
BRANCH   3   4
ATOM      4  C   UNL A   1      36.740  21.324  25.123  1.00  0.00     0.261 C 
BRANCH   4   5
ATOM      5  O   UNL A   1      36.143  22.135  26.147  1.00  0.00    -0.459 OA
BRANCH   5   6
ATOM      6  C   UNL A   1      34.793  21.997  26.302  1.00  0.00     0.365 C 
ATOM      7  O   UNL A   1      34.186  22.214  27.345  1.00  0.00    -0.245 OA
BRANCH   6   8
ATOM      8  C   UNL A   1      34.124  21.635  24.959  1.00  0.00     0.295 C 
ATOM      9  N   UNL A   1      32.909  20.835  25.194  1.00  0.00    -0.318 N 
ATOM     10  C   UNL A   1      31.822  21.787  25.396  1.00  0.00     0.263 C 
ATOM     11  H   UNL A   1      33.009  20.261  26.031  1.00  0.00     0.349 HD
ATOM     12  C   UNL A   1      32.198  23.061  24.649  1.00  0.00     0.068 C 
ATOM     13  C   UNL A   1      33.652  22.893  24.236  1.00  0.00     0.083 C 
BRANCH   9  14
ATOM     14  C   UNL A   1      32.669  19.783  24.196  1.00  0.00     0.321 C 
BRANCH  14  15
ATOM     15  C   UNL A   1      33.157  18.407  24.563  1.00  0.00     0.106 A 
ATOM     16  C   UNL A   1      32.184  15.097  25.789  1.00  0.00     0.079 C 
ATOM     17  C   UNL A   1      32.859  16.324  25.284  1.00  0.00     0.090 A 
ATOM     18  N   UNL A   1      32.254  17.474  25.069  1.00  0.00    -0.241 NA
ATOM     19  S   UNL A   1      34.543  16.302  24.948  1.00  0.00    -0.127 S 
ATOM     20  C   UNL A   1      34.445  17.924  24.414  1.00  0.00     0.096 A 
ENDBRANCH  14  15
ENDBRANCH   9  14
ENDBRANCH   6   8
ENDBRANCH   5   6
ENDBRANCH   4   5
ENDBRANCH   3   4
ENDBRANCH   2   3
ENDBRANCH   1   2
BRANCH   1  21
ATOM     21  C   UNL A   1      41.552  22.491  26.138  1.00  0.00     0.261 C 
BRANCH  21  22
ATOM     22  O   UNL A   1      41.821  23.530  27.092  1.00  0.00    -0.460 OA
BRANCH  22  23
ATOM     23  C   UNL A   1      41.943  24.763  26.545  1.00  0.00     0.338 C 
ATOM     24  O   UNL A   1      42.301  25.029  25.404  1.00  0.00    -0.246 OA
BRANCH  23  25
ATOM     25  C   UNL A   1      41.418  25.792  27.459  1.00  0.00     0.060 A 
ATOM     26  C   UNL A   1      42.150  26.981  27.562  1.00  0.00     0.016 A 
ATOM     27  C   UNL A   1      40.293  25.579  28.260  1.00  0.00     0.016 A 
ATOM     28  C   UNL A   1      41.794  27.938  28.507  1.00  0.00     0.010 A 
ATOM     29  C   UNL A   1      39.941  26.541  29.217  1.00  0.00     0.010 A 
ATOM     30  C   UNL A   1      40.713  27.707  29.370  1.00  0.00    -0.014 A 
BRANCH  30  31
ATOM     31  C   UNL A   1      40.506  28.635  30.510  1.00  0.00     0.031 A 
ATOM     32  C   UNL A   1      41.424  28.550  31.701  1.00  0.00     0.074 A 
ATOM     33  C   UNL A   1      39.576  29.606  30.438  1.00  0.00     0.049 A 
ATOM     34  N   UNL A   1      41.476  29.313  32.763  1.00  0.00    -0.248 NA
ATOM     35  C   UNL A   1      42.421  27.466  31.691  1.00  0.00     0.031 C 
ATOM     36  C   UNL A   1      38.652  29.807  29.322  1.00  0.00     0.029 A 
ATOM     37  N   UNL A   1      39.269  30.614  31.314  1.00  0.00    -0.354 N 
ATOM     38  C   UNL A   1      42.519  28.816  33.537  1.00  0.00     0.074 A 
ATOM     39  C   UNL A   1      43.044  27.658  32.846  1.00  0.00     0.031 C 
ATOM     40  C   UNL A   1      37.884  30.880  29.579  1.00  0.00     0.029 A 
ATOM     41  C   UNL A   1      38.250  31.431  30.882  1.00  0.00     0.049 A 
ATOM     42  H   UNL A   1      39.733  30.743  32.172  1.00  0.00     0.167 HD
ATOM     43  C   UNL A   1      43.011  29.295  34.705  1.00  0.00     0.037 A 
ATOM     44  C   UNL A   1      37.680  32.498  31.474  1.00  0.00     0.037 A 
ATOM     45  C   UNL A   1      42.484  30.445  35.394  1.00  0.00     0.049 A 
ATOM     46  C   UNL A   1      38.204  32.970  32.806  1.00  0.00     0.074 A 
ATOM     47  C   UNL A   1      42.903  31.000  36.590  1.00  0.00     0.029 A 
ATOM     48  N   UNL A   1      41.425  31.220  34.945  1.00  0.00    -0.354 N 
ATOM     49  N   UNL A   1      39.200  32.496  33.518  1.00  0.00    -0.248 NA
ATOM     50  C   UNL A   1      37.532  34.128  33.412  1.00  0.00     0.031 C 
ATOM     51  C   UNL A   1      42.075  32.089  36.883  1.00  0.00     0.029 A 
ATOM     52  C   UNL A   1      41.168  32.239  35.847  1.00  0.00     0.049 A 
ATOM     53  H   UNL A   1      40.928  31.068  34.109  1.00  0.00     0.167 HD
ATOM     54  C   UNL A   1      39.290  33.316  34.638  1.00  0.00     0.074 A 
ATOM     55  C   UNL A   1      38.262  34.325  34.501  1.00  0.00     0.031 C 
ATOM     56  C   UNL A   1      40.144  33.241  35.690  1.00  0.00     0.037 A 
BRANCH  43  57
ATOM     57  C   UNL A   1      44.181  28.578  35.318  1.00  0.00     0.058 A 
ATOM     58  C   UNL A   1      43.998  27.530  36.234  1.00  0.00     0.135 A 
ATOM     59  C   UNL A   1      45.496  28.895  34.940  1.00  0.00     0.135 A 
ATOM     60  F   UNL A   1      42.763  27.200  36.645  1.00  0.00    -0.206 F 
ATOM     61  C   UNL A   1      45.076  26.828  36.761  1.00  0.00     0.059 A 
ATOM     62  C   UNL A   1      46.589  28.190  35.437  1.00  0.00     0.059 A 
ATOM     63  F   UNL A   1      45.728  29.891  34.070  1.00  0.00    -0.206 F 
ATOM     64  C   UNL A   1      46.369  27.162  36.353  1.00  0.00     0.060 A 
BRANCH  64  65
ATOM     65  S   UNL A   1      47.756  26.216  37.017  1.00  0.00     0.124 S 
ATOM     66  O   UNL A   1      48.574  27.273  37.604  1.00  0.00    -0.237 OA
ATOM     67  O   UNL A   1      47.099  25.323  37.967  1.00  0.00    -0.237 OA
ATOM     68  O   UNL A   1      48.321  25.566  35.839  1.00  0.00    -0.744 OA
ENDBRANCH  64  65
ENDBRANCH  43  57
BRANCH  44  69
ATOM     69  C   UNL A   1      36.537  33.200  30.826  1.00  0.00     0.058 A 
ATOM     70  C   UNL A   1      36.727  34.024  29.708  1.00  0.00     0.135 A 
ATOM     71  C   UNL A   1      35.239  33.097  31.349  1.00  0.00     0.135 A 
ATOM     72  F   UNL A   1      37.952  34.161  29.175  1.00  0.00    -0.206 F 
ATOM     73  C   UNL A   1      35.679  34.753  29.152  1.00  0.00     0.059 A 
ATOM     74  C   UNL A   1      34.170  33.794  30.795  1.00  0.00     0.059 A 
ATOM     75  F   UNL A   1      35.000  32.312  32.411  1.00  0.00    -0.206 F 
ATOM     76  C   UNL A   1      34.405  34.636  29.708  1.00  0.00     0.060 A 
BRANCH  76  77
ATOM     77  S   UNL A   1      33.048  35.582  28.986  1.00  0.00     0.124 S 
ATOM     78  O   UNL A   1      32.259  35.912  30.167  1.00  0.00    -0.237 OA
ATOM     79  O   UNL A   1      33.749  36.697  28.354  1.00  0.00    -0.237 OA
ATOM     80  O   UNL A   1      32.435  34.635  28.060  1.00  0.00    -0.744 OA
ENDBRANCH  76  77
ENDBRANCH  44  69
BRANCH  56  81
ATOM     81  C   UNL A   1      40.020  34.298  36.752  1.00  0.00     0.058 A 
ATOM     82  C   UNL A   1      39.181  34.133  37.864  1.00  0.00     0.135 A 
ATOM     83  C   UNL A   1      40.758  35.489  36.660  1.00  0.00     0.135 A 
ATOM     84  F   UNL A   1      38.451  33.013  37.999  1.00  0.00    -0.206 F 
ATOM     85  C   UNL A   1      39.044  35.127  38.827  1.00  0.00     0.059 A 
ATOM     86  C   UNL A   1      40.659  36.487  37.626  1.00  0.00     0.059 A 
ATOM     87  F   UNL A   1      41.588  35.693  35.624  1.00  0.00    -0.206 F 
ATOM     88  C   UNL A   1      39.783  36.304  38.694  1.00  0.00     0.060 A 
BRANCH  88  89
ATOM     89  S   UNL A   1      39.594  37.593  39.945  1.00  0.00     0.124 S 
ATOM     90  O   UNL A   1      40.807  38.377  39.743  1.00  0.00    -0.237 OA
ATOM     91  O   UNL A   1      38.347  38.240  39.544  1.00  0.00    -0.237 OA
ATOM     92  O   UNL A   1      39.528  36.844  41.196  1.00  0.00    -0.744 OA
ENDBRANCH  88  89
ENDBRANCH  56  81
ENDBRANCH  30  31
ENDBRANCH  23  25
ENDBRANCH  22  23
ENDBRANCH  21  22
ENDBRANCH   1  21
TORSDOF 19
ENDMDL
MODEL 2
REMARK VINA RESULT:     -10.4      6.935     12.384
REMARK SMILES Cc1nc(C[N@@H+]2CCC[C@H]2C(=O)OCCOCCOC(=O)c2ccc(-c3c4nc(c(-c5c(F)cc(S(=O)(=O)[O-])cc5F)c5ccc([nH]5)c(-c5c(F)cc(S(=O)(=O)[O-])cc5F)c5nc(c(-c6c(F)cc(S(=O)(=O)[O-])cc6F)c6ccc3[nH]6)C=C5)C=C4)cc2)cs1
REMARK SMILES IDX 17 1 16 2 15 3 14 4 13 5 11 6 12 7 10 8 6 9 7 10 8 12 9 13
REMARK SMILES IDX 5 14 4 15 1 16 2 17 3 18 89 19 88 20 18 21 19 22 20 23 21 24
REMARK SMILES IDX 22 25 23 26 87 27 24 28 86 29 25 30 26 31 27 32 80 33 28 34
REMARK SMILES IDX 85 35 79 36 81 37 29 38 84 39 78 40 77 41 30 43 64 44 43 45
REMARK SMILES IDX 63 46 44 47 47 48 62 49 82 50 45 51 46 52 61 54 83 55 48 56
REMARK SMILES IDX 31 57 32 58 41 59 33 60 34 61 40 62 42 63 35 64 36 65 37 66
REMARK SMILES IDX 38 67 39 68 65 69 66 70 75 71 67 72 68 73 74 74 76 75 69 76
REMARK SMILES IDX 70 77 71 78 72 79 73 80 49 81 50 82 59 83 51 84 52 85 58 86
REMARK SMILES IDX 60 87 53 88 54 89 55 90 56 91 57 92
REMARK H PARENT 6 11 81 42 47 53
REMARK Flexibility Score: inf
ROOT
ATOM      1  C   UNL A   1      34.693  31.361  28.139  1.00  0.00     0.202 C 
ENDROOT
BRANCH   1   2
ATOM      2  O   UNL A   1      33.343  31.317  27.684  1.00  0.00    -0.374 OA
BRANCH   2   3
ATOM      3  C   UNL A   1      33.020  30.380  26.653  1.00  0.00     0.202 C 
BRANCH   3   4
ATOM      4  C   UNL A   1      32.265  29.114  27.070  1.00  0.00     0.261 C 
BRANCH   4   5
ATOM      5  O   UNL A   1      31.407  28.657  26.012  1.00  0.00    -0.459 OA
BRANCH   5   6
ATOM      6  C   UNL A   1      31.268  27.302  25.905  1.00  0.00     0.365 C 
ATOM      7  O   UNL A   1      31.391  26.514  26.836  1.00  0.00    -0.245 OA
BRANCH   6   8
ATOM      8  C   UNL A   1      30.830  26.910  24.478  1.00  0.00     0.295 C 
ATOM      9  N   UNL A   1      31.362  27.875  23.499  1.00  0.00    -0.318 N 
ATOM     10  C   UNL A   1      32.695  27.405  23.140  1.00  0.00     0.263 C 
ATOM     11  H   UNL A   1      31.435  28.805  23.910  1.00  0.00     0.349 HD
ATOM     12  C   UNL A   1      32.709  25.895  23.346  1.00  0.00     0.068 C 
ATOM     13  C   UNL A   1      31.421  25.560  24.084  1.00  0.00     0.083 C 
BRANCH   9  14
ATOM     14  C   UNL A   1      30.457  28.168  22.378  1.00  0.00     0.321 C 
BRANCH  14  15
ATOM     15  C   UNL A   1      29.752  29.497  22.434  1.00  0.00     0.106 A 
ATOM     16  C   UNL A   1      28.026  32.074  20.488  1.00  0.00     0.079 C 
ATOM     17  C   UNL A   1      28.670  31.208  21.514  1.00  0.00     0.090 A 
ATOM     18  N   UNL A   1      29.297  30.080  21.254  1.00  0.00    -0.241 NA
ATOM     19  S   UNL A   1      28.630  31.665  23.169  1.00  0.00    -0.127 S 
ATOM     20  C   UNL A   1      29.451  30.220  23.575  1.00  0.00     0.096 A 
ENDBRANCH  14  15
ENDBRANCH   9  14
ENDBRANCH   6   8
ENDBRANCH   5   6
ENDBRANCH   4   5
ENDBRANCH   3   4
ENDBRANCH   2   3
ENDBRANCH   1   2
BRANCH   1  21
ATOM     21  C   UNL A   1      35.012  32.189  29.392  1.00  0.00     0.261 C 
BRANCH  21  22
ATOM     22  O   UNL A   1      36.400  32.174  29.756  1.00  0.00    -0.460 OA
BRANCH  22  23
ATOM     23  C   UNL A   1      36.743  31.157  30.583  1.00  0.00     0.338 C 
ATOM     24  O   UNL A   1      36.097  30.731  31.532  1.00  0.00    -0.246 OA
BRANCH  23  25
ATOM     25  C   UNL A   1      37.957  30.479  30.097  1.00  0.00     0.060 A 
ATOM     26  C   UNL A   1      38.901  30.102  31.060  1.00  0.00     0.016 A 
ATOM     27  C   UNL A   1      38.215  30.287  28.737  1.00  0.00     0.016 A 
ATOM     28  C   UNL A   1      40.131  29.585  30.664  1.00  0.00     0.010 A 
ATOM     29  C   UNL A   1      39.457  29.773  28.341  1.00  0.00     0.010 A 
ATOM     30  C   UNL A   1      40.435  29.457  29.301  1.00  0.00    -0.014 A 
BRANCH  30  31
ATOM     31  C   UNL A   1      41.829  29.124  28.915  1.00  0.00     0.031 A 
ATOM     32  C   UNL A   1      42.154  27.721  28.475  1.00  0.00     0.074 A 
ATOM     33  C   UNL A   1      42.768  30.087  28.860  1.00  0.00     0.049 A 
ATOM     34  N   UNL A   1      43.280  27.236  28.017  1.00  0.00    -0.248 NA
ATOM     35  C   UNL A   1      41.063  26.734  28.554  1.00  0.00     0.031 C 
ATOM     36  C   UNL A   1      42.563  31.488  29.231  1.00  0.00     0.029 A 
ATOM     37  N   UNL A   1      44.077  30.036  28.456  1.00  0.00    -0.354 N 
ATOM     38  C   UNL A   1      43.030  25.897  27.736  1.00  0.00     0.074 A 
ATOM     39  C   UNL A   1      41.660  25.634  28.117  1.00  0.00     0.031 C 
ATOM     40  C   UNL A   1      43.707  32.165  29.029  1.00  0.00     0.029 A 
ATOM     41  C   UNL A   1      44.727  31.245  28.532  1.00  0.00     0.049 A 
ATOM     42  H   UNL A   1      44.512  29.210  28.141  1.00  0.00     0.167 HD
ATOM     43  C   UNL A   1      43.860  24.977  27.188  1.00  0.00     0.037 A 
ATOM     44  C   UNL A   1      46.002  31.568  28.236  1.00  0.00     0.037 A 
ATOM     45  C   UNL A   1      45.226  25.240  26.814  1.00  0.00     0.049 A 
ATOM     46  C   UNL A   1      46.923  30.507  27.689  1.00  0.00     0.074 A 
ATOM     47  C   UNL A   1      46.152  24.370  26.266  1.00  0.00     0.029 A 
ATOM     48  N   UNL A   1      45.860  26.466  26.946  1.00  0.00    -0.354 N 
ATOM     49  N   UNL A   1      46.666  29.249  27.417  1.00  0.00    -0.248 NA
ATOM     50  C   UNL A   1      48.306  30.913  27.400  1.00  0.00     0.031 C 
ATOM     51  C   UNL A   1      47.357  25.061  26.099  1.00  0.00     0.029 A 
ATOM     52  C   UNL A   1      47.169  26.372  26.501  1.00  0.00     0.049 A 
ATOM     53  H   UNL A   1      45.442  27.283  27.303  1.00  0.00     0.167 HD
ATOM     54  C   UNL A   1      47.846  28.724  26.899  1.00  0.00     0.074 A 
ATOM     55  C   UNL A   1      48.810  29.804  26.878  1.00  0.00     0.031 C 
ATOM     56  C   UNL A   1      48.112  27.461  26.481  1.00  0.00     0.037 A 
BRANCH  43  57
ATOM     57  C   UNL A   1      43.316  23.594  26.958  1.00  0.00     0.058 A 
ATOM     58  C   UNL A   1      42.967  23.152  25.672  1.00  0.00     0.135 A 
ATOM     59  C   UNL A   1      43.203  22.682  28.019  1.00  0.00     0.135 A 
ATOM     60  F   UNL A   1      43.036  23.990  24.626  1.00  0.00    -0.206 F 
ATOM     61  C   UNL A   1      42.516  21.856  25.447  1.00  0.00     0.059 A 
ATOM     62  C   UNL A   1      42.776  21.372  27.813  1.00  0.00     0.059 A 
ATOM     63  F   UNL A   1      43.520  23.055  29.268  1.00  0.00    -0.206 F 
ATOM     64  C   UNL A   1      42.429  20.971  26.524  1.00  0.00     0.060 A 
BRANCH  64  65
ATOM     65  S   UNL A   1      41.878  19.280  26.209  1.00  0.00     0.124 S 
ATOM     66  O   UNL A   1      40.441  19.471  26.035  1.00  0.00    -0.237 OA
ATOM     67  O   UNL A   1      42.620  18.929  25.003  1.00  0.00    -0.237 OA
ATOM     68  O   UNL A   1      42.274  18.562  27.416  1.00  0.00    -0.744 OA
ENDBRANCH  64  65
ENDBRANCH  43  57
BRANCH  44  69
ATOM     69  C   UNL A   1      46.499  32.954  28.454  1.00  0.00     0.058 A 
ATOM     70  C   UNL A   1      46.468  33.910  27.429  1.00  0.00     0.135 A 
ATOM     71  C   UNL A   1      47.064  33.331  29.682  1.00  0.00     0.135 A 
ATOM     72  F   UNL A   1      45.945  33.595  26.234  1.00  0.00    -0.206 F 
ATOM     73  C   UNL A   1      47.013  35.180  27.599  1.00  0.00     0.059 A 
ATOM     74  C   UNL A   1      47.590  34.602  29.886  1.00  0.00     0.059 A 
ATOM     75  F   UNL A   1      47.108  32.458  30.701  1.00  0.00    -0.206 F 
ATOM     76  C   UNL A   1      47.578  35.514  28.830  1.00  0.00     0.060 A 
BRANCH  76  77
ATOM     77  S   UNL A   1      48.285  37.161  29.048  1.00  0.00     0.124 S 
ATOM     78  O   UNL A   1      49.224  36.936  30.140  1.00  0.00    -0.237 OA
ATOM     79  O   UNL A   1      48.877  37.419  27.738  1.00  0.00    -0.237 OA
ATOM     80  O   UNL A   1      47.122  37.983  29.372  1.00  0.00    -0.744 OA
ENDBRANCH  76  77
ENDBRANCH  44  69
BRANCH  56  81
ATOM     81  C   UNL A   1      49.488  27.194  25.935  1.00  0.00     0.058 A 
ATOM     82  C   UNL A   1      50.560  26.845  26.773  1.00  0.00     0.135 A 
ATOM     83  C   UNL A   1      49.736  27.280  24.556  1.00  0.00     0.135 A 
ATOM     84  F   UNL A   1      50.377  26.753  28.100  1.00  0.00    -0.206 F 
ATOM     85  C   UNL A   1      51.837  26.632  26.268  1.00  0.00     0.059 A 
ATOM     86  C   UNL A   1      51.001  27.043  24.026  1.00  0.00     0.059 A 
ATOM     87  F   UNL A   1      48.744  27.595  23.708  1.00  0.00    -0.206 F 
ATOM     88  C   UNL A   1      52.050  26.740  24.893  1.00  0.00     0.060 A 
BRANCH  88  89
ATOM     89  S   UNL A   1      53.714  26.468  24.247  1.00  0.00     0.124 S 
ATOM     90  O   UNL A   1      54.502  27.371  25.079  1.00  0.00    -0.237 OA
ATOM     91  O   UNL A   1      53.917  25.043  24.490  1.00  0.00    -0.237 OA
ATOM     92  O   UNL A   1      53.598  26.847  22.842  1.00  0.00    -0.744 OA
ENDBRANCH  88  89
ENDBRANCH  56  81
ENDBRANCH  30  31
ENDBRANCH  23  25
ENDBRANCH  22  23
ENDBRANCH  21  22
ENDBRANCH   1  21
TORSDOF 19
ENDMDL
MODEL 3
REMARK VINA RESULT:     -10.3      2.817      4.807
REMARK SMILES Cc1nc(C[N@@H+]2CCC[C@H]2C(=O)OCCOCCOC(=O)c2ccc(-c3c4nc(c(-c5c(F)cc(S(=O)(=O)[O-])cc5F)c5ccc([nH]5)c(-c5c(F)cc(S(=O)(=O)[O-])cc5F)c5nc(c(-c6c(F)cc(S(=O)(=O)[O-])cc6F)c6ccc3[nH]6)C=C5)C=C4)cc2)cs1
REMARK SMILES IDX 17 1 16 2 15 3 14 4 13 5 11 6 12 7 10 8 6 9 7 10 8 12 9 13
REMARK SMILES IDX 5 14 4 15 1 16 2 17 3 18 89 19 88 20 18 21 19 22 20 23 21 24
REMARK SMILES IDX 22 25 23 26 87 27 24 28 86 29 25 30 26 31 27 32 80 33 28 34
REMARK SMILES IDX 85 35 79 36 81 37 29 38 84 39 78 40 77 41 30 43 64 44 43 45
REMARK SMILES IDX 63 46 44 47 47 48 62 49 82 50 45 51 46 52 61 54 83 55 48 56
REMARK SMILES IDX 31 57 32 58 41 59 33 60 34 61 40 62 42 63 35 64 36 65 37 66
REMARK SMILES IDX 38 67 39 68 65 69 66 70 75 71 67 72 68 73 74 74 76 75 69 76
REMARK SMILES IDX 70 77 71 78 72 79 73 80 49 81 50 82 59 83 51 84 52 85 58 86
REMARK SMILES IDX 60 87 53 88 54 89 55 90 56 91 57 92
REMARK H PARENT 6 11 81 42 47 53
REMARK Flexibility Score: inf
ROOT
ATOM      1  C   UNL A   1      45.687  23.668  27.627  1.00  0.00     0.202 C 
ENDROOT
BRANCH   1   2
ATOM      2  O   UNL A   1      46.504  24.698  27.079  1.00  0.00    -0.374 OA
BRANCH   2   3
ATOM      3  C   UNL A   1      47.162  24.435  25.837  1.00  0.00     0.202 C 
BRANCH   3   4
ATOM      4  C   UNL A   1      46.273  24.173  24.617  1.00  0.00     0.261 C 
BRANCH   4   5
ATOM      5  O   UNL A   1      46.241  22.773  24.297  1.00  0.00    -0.459 OA
BRANCH   5   6
ATOM      6  C   UNL A   1      44.998  22.215  24.202  1.00  0.00     0.365 C 
ATOM      7  O   UNL A   1      44.169  22.504  23.347  1.00  0.00    -0.245 OA
BRANCH   6   8
ATOM      8  C   UNL A   1      44.821  21.095  25.249  1.00  0.00     0.295 C 
ATOM      9  N   UNL A   1      43.886  20.072  24.748  1.00  0.00    -0.318 N 
ATOM     10  C   UNL A   1      44.685  19.126  23.977  1.00  0.00     0.263 C 
ATOM     11  H   UNL A   1      43.184  20.490  24.137  1.00  0.00     0.349 HD
ATOM     12  C   UNL A   1      46.100  19.170  24.542  1.00  0.00     0.068 C 
ATOM     13  C   UNL A   1      46.139  20.364  25.484  1.00  0.00     0.083 C 
BRANCH   9  14
ATOM     14  C   UNL A   1      43.010  19.491  25.775  1.00  0.00     0.321 C 
BRANCH  14  15
ATOM     15  C   UNL A   1      41.631  20.086  25.874  1.00  0.00     0.106 A 
ATOM     16  C   UNL A   1      38.072  19.566  25.190  1.00  0.00     0.079 C 
ATOM     17  C   UNL A   1      39.427  20.044  25.579  1.00  0.00     0.090 A 
ATOM     18  N   UNL A   1      40.545  19.385  25.355  1.00  0.00    -0.241 NA
ATOM     19  S   UNL A   1      39.608  21.557  26.371  1.00  0.00    -0.127 S 
ATOM     20  C   UNL A   1      41.293  21.282  26.483  1.00  0.00     0.096 A 
ENDBRANCH  14  15
ENDBRANCH   9  14
ENDBRANCH   6   8
ENDBRANCH   5   6
ENDBRANCH   4   5
ENDBRANCH   3   4
ENDBRANCH   2   3
ENDBRANCH   1   2
BRANCH   1  21
ATOM     21  C   UNL A   1      44.293  24.043  28.148  1.00  0.00     0.261 C 
BRANCH  21  22
ATOM     22  O   UNL A   1      43.247  23.866  27.181  1.00  0.00    -0.460 OA
BRANCH  22  23
ATOM     23  C   UNL A   1      42.905  24.999  26.523  1.00  0.00     0.338 C 
ATOM     24  O   UNL A   1      42.967  25.196  25.316  1.00  0.00    -0.246 OA
BRANCH  23  25
ATOM     25  C   UNL A   1      42.267  25.960  27.440  1.00  0.00     0.060 A 
ATOM     26  C   UNL A   1      42.887  27.208  27.581  1.00  0.00     0.016 A 
ATOM     27  C   UNL A   1      41.146  25.633  28.206  1.00  0.00     0.016 A 
ATOM     28  C   UNL A   1      42.422  28.112  28.532  1.00  0.00     0.010 A 
ATOM     29  C   UNL A   1      40.684  26.542  29.168  1.00  0.00     0.010 A 
ATOM     30  C   UNL A   1      41.344  27.769  29.361  1.00  0.00    -0.014 A 
BRANCH  30  31
ATOM     31  C   UNL A   1      41.026  28.654  30.510  1.00  0.00     0.031 A 
ATOM     32  C   UNL A   1      41.886  28.592  31.744  1.00  0.00     0.074 A 
ATOM     33  C   UNL A   1      40.045  29.571  30.412  1.00  0.00     0.049 A 
ATOM     34  N   UNL A   1      41.840  29.329  32.824  1.00  0.00    -0.248 NA
ATOM     35  C   UNL A   1      42.945  27.568  31.761  1.00  0.00     0.031 C 
ATOM     36  C   UNL A   1      39.167  29.746  29.254  1.00  0.00     0.029 A 
ATOM     37  N   UNL A   1      39.635  30.537  31.293  1.00  0.00    -0.354 N 
ATOM     38  C   UNL A   1      42.870  28.874  33.640  1.00  0.00     0.074 A 
ATOM     39  C   UNL A   1      43.497  27.767  32.951  1.00  0.00     0.031 C 
ATOM     40  C   UNL A   1      38.325  30.767  29.496  1.00  0.00     0.029 A 
ATOM     41  C   UNL A   1      38.593  31.304  30.828  1.00  0.00     0.049 A 
ATOM     42  H   UNL A   1      40.047  30.670  32.178  1.00  0.00     0.167 HD
ATOM     43  C   UNL A   1      43.274  29.350  34.842  1.00  0.00     0.037 A 
ATOM     44  C   UNL A   1      37.931  32.320  31.415  1.00  0.00     0.037 A 
ATOM     45  C   UNL A   1      42.646  30.450  35.529  1.00  0.00     0.049 A 
ATOM     46  C   UNL A   1      38.359  32.787  32.782  1.00  0.00     0.074 A 
ATOM     47  C   UNL A   1      42.970  30.997  36.758  1.00  0.00     0.029 A 
ATOM     48  N   UNL A   1      41.566  31.172  35.044  1.00  0.00    -0.354 N 
ATOM     49  N   UNL A   1      39.344  32.354  33.533  1.00  0.00    -0.248 NA
ATOM     50  C   UNL A   1      37.590  33.888  33.379  1.00  0.00     0.031 C 
ATOM     51  C   UNL A   1      42.066  32.027  37.032  1.00  0.00     0.029 A 
ATOM     52  C   UNL A   1      41.205  32.152  35.954  1.00  0.00     0.049 A 
ATOM     53  H   UNL A   1      41.122  31.013  34.180  1.00  0.00     0.167 HD
ATOM     54  C   UNL A   1      39.329  33.148  34.675  1.00  0.00     0.074 A 
ATOM     55  C   UNL A   1      38.251  34.100  34.508  1.00  0.00     0.031 C 
ATOM     56  C   UNL A   1      40.132  33.096  35.767  1.00  0.00     0.037 A 
BRANCH  43  57
ATOM     57  C   UNL A   1      44.452  28.686  35.498  1.00  0.00     0.058 A 
ATOM     58  C   UNL A   1      44.291  27.569  36.332  1.00  0.00     0.135 A 
ATOM     59  C   UNL A   1      45.760  29.129  35.242  1.00  0.00     0.135 A 
ATOM     60  F   UNL A   1      43.061  27.117  36.627  1.00  0.00    -0.206 F 
ATOM     61  C   UNL A   1      45.383  26.919  36.897  1.00  0.00     0.059 A 
ATOM     62  C   UNL A   1      46.869  28.480  35.777  1.00  0.00     0.059 A 
ATOM     63  F   UNL A   1      45.970  30.196  34.455  1.00  0.00    -0.206 F 
ATOM     64  C   UNL A   1      46.670  27.379  36.609  1.00  0.00     0.060 A 
BRANCH  64  65
ATOM     65  S   UNL A   1      48.078  26.500  37.319  1.00  0.00     0.124 S 
ATOM     66  O   UNL A   1      48.208  25.371  36.403  1.00  0.00    -0.237 OA
ATOM     67  O   UNL A   1      49.139  27.500  37.246  1.00  0.00    -0.237 OA
ATOM     68  O   UNL A   1      47.628  26.166  38.667  1.00  0.00    -0.744 OA
ENDBRANCH  64  65
ENDBRANCH  43  57
BRANCH  44  69
ATOM     69  C   UNL A   1      36.782  32.971  30.725  1.00  0.00     0.058 A 
ATOM     70  C   UNL A   1      36.982  33.890  29.685  1.00  0.00     0.135 A 
ATOM     71  C   UNL A   1      35.463  32.721  31.131  1.00  0.00     0.135 A 
ATOM     72  F   UNL A   1      38.227  34.169  29.266  1.00  0.00    -0.206 F 
ATOM     73  C   UNL A   1      35.919  34.569  29.097  1.00  0.00     0.059 A 
ATOM     74  C   UNL A   1      34.381  33.365  30.540  1.00  0.00     0.059 A 
ATOM     75  F   UNL A   1      35.215  31.841  32.113  1.00  0.00    -0.206 F 
ATOM     76  C   UNL A   1      34.621  34.304  29.537  1.00  0.00     0.060 A 
BRANCH  76  77
ATOM     77  S   UNL A   1      33.244  35.186  28.772  1.00  0.00     0.124 S 
ATOM     78  O   UNL A   1      33.942  36.197  27.988  1.00  0.00    -0.237 OA
ATOM     79  O   UNL A   1      32.584  34.129  28.011  1.00  0.00    -0.237 OA
ATOM     80  O   UNL A   1      32.489  35.684  29.918  1.00  0.00    -0.744 OA
ENDBRANCH  76  77
ENDBRANCH  44  69
BRANCH  56  81
ATOM     81  C   UNL A   1      39.893  34.117  36.845  1.00  0.00     0.058 A 
ATOM     82  C   UNL A   1      40.452  35.403  36.780  1.00  0.00     0.135 A 
ATOM     83  C   UNL A   1      39.087  33.808  37.953  1.00  0.00     0.135 A 
ATOM     84  F   UNL A   1      41.233  35.749  35.744  1.00  0.00    -0.206 F 
ATOM     85  C   UNL A   1      40.255  36.333  37.795  1.00  0.00     0.059 A 
ATOM     86  C   UNL A   1      38.854  34.733  38.967  1.00  0.00     0.059 A 
ATOM     87  F   UNL A   1      38.516  32.598  38.057  1.00  0.00    -0.206 F 
ATOM     88  C   UNL A   1      39.460  35.986  38.889  1.00  0.00     0.060 A 
BRANCH  88  89
ATOM     89  S   UNL A   1      39.216  37.198  40.205  1.00  0.00     0.124 S 
ATOM     90  O   UNL A   1      38.482  36.414  41.192  1.00  0.00    -0.237 OA
ATOM     91  O   UNL A   1      40.586  37.549  40.567  1.00  0.00    -0.237 OA
ATOM     92  O   UNL A   1      38.456  38.259  39.552  1.00  0.00    -0.744 OA
ENDBRANCH  88  89
ENDBRANCH  56  81
ENDBRANCH  30  31
ENDBRANCH  23  25
ENDBRANCH  22  23
ENDBRANCH  21  22
ENDBRANCH   1  21
TORSDOF 19
ENDMDL
