MODEL 1
REMARK VINA RESULT:     -11.6      0.000      0.000
REMARK SMILES C[C@@H](C(=O)OCCOCCOC(=O)c1ccc(-c2c3nc(c(-c4c(F)cc(S(=O)(=O)[O-])cc4F)c4ccc([nH]4)c(-c4c(F)cc(S(=O)(=O)[O-])cc4F)c4nc(c(-c5c(F)cc(S(=O)(=O)[O-])cc5F)c5ccc2[nH]5)C=C4)C=C3)cc1)c1ccc(-c2cccc(OC(=O)Nc3ccccc3)c2)c(F)c1
REMARK SMILES IDX 7 1 6 2 5 3 3 4 4 5 2 6 1 7 80 8 81 9 102 10 82 11 100 12
REMARK SMILES IDX 83 13 101 14 84 15 85 16 99 17 86 18 88 19 87 20 89 21 90 22
REMARK SMILES IDX 91 23 92 24 93 26 94 27 98 28 95 29 97 30 96 31 8 32 9 33
REMARK SMILES IDX 10 34 11 35 12 36 13 37 14 38 15 39 79 40 16 41 78 42 17 43
REMARK SMILES IDX 18 44 19 45 72 46 20 47 77 48 71 49 73 50 21 51 76 52 70 53
REMARK SMILES IDX 69 54 22 56 56 57 35 58 55 59 36 60 39 61 54 62 74 63 37 64
REMARK SMILES IDX 38 65 53 67 75 68 40 69 23 70 24 71 33 72 25 73 26 74 32 75
REMARK SMILES IDX 34 76 27 77 28 78 29 79 30 80 31 81 57 82 58 83 67 84 59 85
REMARK SMILES IDX 60 86 66 87 68 88 61 89 62 90 63 91 64 92 65 93 41 94 42 95
REMARK SMILES IDX 51 96 43 97 44 98 50 99 52 100 45 101 46 102 47 103 48 104
REMARK SMILES IDX 49 105
REMARK H PARENT 92 25 73 55 39 66
REMARK Flexibility Score: inf
ROOT
ATOM      1  C   UNL A   1      44.720  20.903  25.174  1.00  0.00     0.202 C 
ENDROOT
BRANCH   1   2
ATOM      2  C   UNL A   1      43.617  19.915  25.566  1.00  0.00     0.261 C 
BRANCH   2   3
ATOM      3  O   UNL A   1      42.312  20.495  25.408  1.00  0.00    -0.463 OA
BRANCH   3   4
ATOM      4  C   UNL A   1      41.597  20.655  26.554  1.00  0.00     0.313 C 
ATOM      5  O   UNL A   1      41.254  19.730  27.284  1.00  0.00    -0.252 OA
BRANCH   4   6
ATOM      6  C   UNL A   1      41.303  22.131  26.880  1.00  0.00     0.126 C 
ATOM      7  C   UNL A   1      41.789  22.542  28.277  1.00  0.00     0.025 C 
BRANCH   6   8
ATOM      8  C   UNL A   1      39.850  22.507  26.560  1.00  0.00    -0.031 A 
ATOM      9  C   UNL A   1      39.270  23.746  26.880  1.00  0.00     0.005 A 
ATOM     10  C   UNL A   1      39.038  21.570  25.898  1.00  0.00     0.044 A 
ATOM     11  C   UNL A   1      37.922  24.019  26.579  1.00  0.00     0.012 A 
ATOM     12  C   UNL A   1      37.700  21.841  25.618  1.00  0.00     0.131 A 
ATOM     13  C   UNL A   1      37.108  23.060  25.958  1.00  0.00     0.018 A 
ATOM     14  F   UNL A   1      36.979  20.889  25.004  1.00  0.00    -0.206 F 
BRANCH  13  15
ATOM     15  C   UNL A   1      35.679  23.299  25.707  1.00  0.00    -0.012 A 
ATOM     16  C   UNL A   1      34.687  22.447  26.218  1.00  0.00     0.009 A 
ATOM     17  C   UNL A   1      35.277  24.421  24.956  1.00  0.00     0.056 A 
ATOM     18  C   UNL A   1      33.332  22.715  25.998  1.00  0.00     0.004 A 
ATOM     19  C   UNL A   1      33.928  24.675  24.724  1.00  0.00     0.133 A 
ATOM     20  C   UNL A   1      32.952  23.831  25.252  1.00  0.00     0.047 A 
BRANCH  19  21
ATOM     21  O   UNL A   1      33.434  25.764  23.962  1.00  0.00    -0.410 OA
BRANCH  21  22
ATOM     22  C   UNL A   1      32.172  25.848  23.377  1.00  0.00     0.417 C 
ATOM     23  O   UNL A   1      31.763  25.154  22.449  1.00  0.00    -0.224 OA
ATOM     24  N   UNL A   1      31.306  26.718  23.990  1.00  0.00    -0.291 N 
ATOM     25  H   UNL A   1      30.379  26.669  23.663  1.00  0.00     0.173 HD
BRANCH  24  26
ATOM     26  C   UNL A   1      31.516  27.665  25.003  1.00  0.00     0.044 A 
ATOM     27  C   UNL A   1      31.515  27.192  26.321  1.00  0.00     0.026 A 
ATOM     28  C   UNL A   1      31.686  29.031  24.771  1.00  0.00     0.026 A 
ATOM     29  C   UNL A   1      31.730  28.064  27.389  1.00  0.00     0.002 A 
ATOM     30  C   UNL A   1      31.879  29.907  25.844  1.00  0.00     0.002 A 
ATOM     31  C   UNL A   1      31.912  29.424  27.150  1.00  0.00     0.000 A 
ENDBRANCH  24  26
ENDBRANCH  21  22
ENDBRANCH  19  21
ENDBRANCH  13  15
ENDBRANCH   6   8
ENDBRANCH   4   6
ENDBRANCH   3   4
ENDBRANCH   2   3
ENDBRANCH   1   2
BRANCH   1  32
ATOM     32  O   UNL A   1      44.569  22.248  25.624  1.00  0.00    -0.374 OA
BRANCH  32  33
ATOM     33  C   UNL A   1      44.860  23.297  24.701  1.00  0.00     0.202 C 
BRANCH  33  34
ATOM     34  C   UNL A   1      44.239  24.672  24.980  1.00  0.00     0.261 C 
BRANCH  34  35
ATOM     35  O   UNL A   1      43.189  24.629  25.966  1.00  0.00    -0.460 OA
BRANCH  35  36
ATOM     36  C   UNL A   1      42.325  25.675  25.917  1.00  0.00     0.338 C 
ATOM     37  O   UNL A   1      41.555  25.950  25.011  1.00  0.00    -0.246 OA
BRANCH  36  38
ATOM     38  C   UNL A   1      42.289  26.376  27.215  1.00  0.00     0.060 A 
ATOM     39  C   UNL A   1      41.261  26.039  28.103  1.00  0.00     0.016 A 
ATOM     40  C   UNL A   1      43.175  27.413  27.515  1.00  0.00     0.016 A 
ATOM     41  C   UNL A   1      41.084  26.767  29.278  1.00  0.00     0.010 A 
ATOM     42  C   UNL A   1      42.989  28.150  28.692  1.00  0.00     0.010 A 
ATOM     43  C   UNL A   1      41.921  27.855  29.561  1.00  0.00    -0.014 A 
BRANCH  43  44
ATOM     44  C   UNL A   1      41.584  28.762  30.685  1.00  0.00     0.031 A 
ATOM     45  C   UNL A   1      42.403  28.701  31.946  1.00  0.00     0.074 A 
ATOM     46  C   UNL A   1      40.586  29.658  30.571  1.00  0.00     0.049 A 
ATOM     47  N   UNL A   1      42.271  29.381  33.055  1.00  0.00    -0.248 NA
ATOM     48  C   UNL A   1      43.522  27.743  31.956  1.00  0.00     0.031 C 
ATOM     49  C   UNL A   1      39.747  29.841  29.388  1.00  0.00     0.029 A 
ATOM     50  N   UNL A   1      40.107  30.580  31.469  1.00  0.00    -0.354 N 
ATOM     51  C   UNL A   1      43.285  28.935  33.896  1.00  0.00     0.074 A 
ATOM     52  C   UNL A   1      44.003  27.903  33.180  1.00  0.00     0.031 C 
ATOM     53  C   UNL A   1      38.846  30.806  29.638  1.00  0.00     0.029 A 
ATOM     54  C   UNL A   1      39.025  31.289  31.006  1.00  0.00     0.049 A 
ATOM     55  H   UNL A   1      40.502  30.718  32.360  1.00  0.00     0.167 HD
ATOM     56  C   UNL A   1      43.595  29.355  35.146  1.00  0.00     0.037 A 
ATOM     57  C   UNL A   1      38.255  32.208  31.623  1.00  0.00     0.037 A 
ATOM     58  C   UNL A   1      42.876  30.382  35.856  1.00  0.00     0.049 A 
ATOM     59  C   UNL A   1      38.580  32.615  33.037  1.00  0.00     0.074 A 
ATOM     60  C   UNL A   1      43.117  30.884  37.122  1.00  0.00     0.029 A 
ATOM     61  N   UNL A   1      41.771  31.061  35.363  1.00  0.00    -0.354 N 
ATOM     62  N   UNL A   1      39.550  32.197  33.814  1.00  0.00    -0.248 NA
ATOM     63  C   UNL A   1      37.707  33.624  33.656  1.00  0.00     0.031 C 
ATOM     64  C   UNL A   1      42.133  31.834  37.413  1.00  0.00     0.029 A 
ATOM     65  C   UNL A   1      41.307  31.961  36.307  1.00  0.00     0.049 A 
ATOM     66  H   UNL A   1      41.375  30.922  34.472  1.00  0.00     0.167 HD
ATOM     67  C   UNL A   1      39.420  32.907  35.004  1.00  0.00     0.074 A 
ATOM     68  C   UNL A   1      38.284  33.790  34.839  1.00  0.00     0.031 C 
ATOM     69  C   UNL A   1      40.175  32.836  36.129  1.00  0.00     0.037 A 
BRANCH  56  70
ATOM     70  C   UNL A   1      44.750  28.685  35.837  1.00  0.00     0.058 A 
ATOM     71  C   UNL A   1      46.062  29.172  35.721  1.00  0.00     0.135 A 
ATOM     72  C   UNL A   1      44.540  27.557  36.645  1.00  0.00     0.135 A 
ATOM     73  F   UNL A   1      46.322  30.238  34.947  1.00  0.00    -0.206 F 
ATOM     74  C   UNL A   1      47.129  28.547  36.359  1.00  0.00     0.059 A 
ATOM     75  C   UNL A   1      45.588  26.930  37.314  1.00  0.00     0.059 A 
ATOM     76  F   UNL A   1      43.307  27.049  36.789  1.00  0.00    -0.206 F 
ATOM     77  C   UNL A   1      46.882  27.425  37.152  1.00  0.00     0.060 A 
BRANCH  77  78
ATOM     78  S   UNL A   1      48.276  26.621  37.971  1.00  0.00     0.124 S 
ATOM     79  O   UNL A   1      47.593  25.670  38.840  1.00  0.00    -0.237 OA
ATOM     80  O   UNL A   1      49.007  26.043  36.848  1.00  0.00    -0.237 OA
ATOM     81  O   UNL A   1      48.950  27.722  38.653  1.00  0.00    -0.744 OA
ENDBRANCH  77  78
ENDBRANCH  56  70
BRANCH  57  82
ATOM     82  C   UNL A   1      37.089  32.794  30.910  1.00  0.00     0.058 A 
ATOM     83  C   UNL A   1      35.820  32.200  30.977  1.00  0.00     0.135 A 
ATOM     84  C   UNL A   1      37.222  33.967  30.151  1.00  0.00     0.135 A 
ATOM     85  F   UNL A   1      35.644  31.070  31.679  1.00  0.00    -0.206 F 
ATOM     86  C   UNL A   1      34.726  32.743  30.310  1.00  0.00     0.059 A 
ATOM     87  C   UNL A   1      36.139  34.543  29.496  1.00  0.00     0.059 A 
ATOM     88  F   UNL A   1      38.414  34.579  30.063  1.00  0.00    -0.206 F 
ATOM     89  C   UNL A   1      34.895  33.917  29.575  1.00  0.00     0.060 A 
BRANCH  89  90
ATOM     90  S   UNL A   1      33.458  34.646  28.758  1.00  0.00     0.124 S 
ATOM     91  O   UNL A   1      33.018  33.549  27.905  1.00  0.00    -0.237 OA
ATOM     92  O   UNL A   1      32.593  34.964  29.890  1.00  0.00    -0.237 OA
ATOM     93  O   UNL A   1      34.019  35.802  28.063  1.00  0.00    -0.744 OA
ENDBRANCH  89  90
ENDBRANCH  57  82
BRANCH  69  94
ATOM     94  C   UNL A   1      39.820  33.759  37.263  1.00  0.00     0.058 A 
ATOM     95  C   UNL A   1      38.959  33.360  38.298  1.00  0.00     0.135 A 
ATOM     96  C   UNL A   1      40.393  35.039  37.344  1.00  0.00     0.135 A 
ATOM     97  F   UNL A   1      38.382  32.149  38.266  1.00  0.00    -0.206 F 
ATOM     98  C   UNL A   1      38.662  34.206  39.362  1.00  0.00     0.059 A 
ATOM     99  C   UNL A   1      40.130  35.891  38.413  1.00  0.00     0.059 A 
ATOM    100  F   UNL A   1      41.232  35.466  36.386  1.00  0.00    -0.206 F 
ATOM    101  C   UNL A   1      39.254  35.470  39.412  1.00  0.00     0.060 A 
BRANCH 101 102
ATOM    102  S   UNL A   1      38.888  36.545  40.815  1.00  0.00     0.124 S 
ATOM    103  O   UNL A   1      37.942  35.730  41.570  1.00  0.00    -0.237 OA
ATOM    104  O   UNL A   1      40.201  36.720  41.426  1.00  0.00    -0.237 OA
ATOM    105  O   UNL A   1      38.330  37.740  40.191  1.00  0.00    -0.744 OA
ENDBRANCH 101 102
ENDBRANCH  69  94
ENDBRANCH  43  44
ENDBRANCH  36  38
ENDBRANCH  35  36
ENDBRANCH  34  35
ENDBRANCH  33  34
ENDBRANCH  32  33
ENDBRANCH   1  32
TORSDOF 22
ENDMDL
MODEL 2
REMARK VINA RESULT:     -11.5      1.467      2.536
REMARK SMILES C[C@@H](C(=O)OCCOCCOC(=O)c1ccc(-c2c3nc(c(-c4c(F)cc(S(=O)(=O)[O-])cc4F)c4ccc([nH]4)c(-c4c(F)cc(S(=O)(=O)[O-])cc4F)c4nc(c(-c5c(F)cc(S(=O)(=O)[O-])cc5F)c5ccc2[nH]5)C=C4)C=C3)cc1)c1ccc(-c2cccc(OC(=O)Nc3ccccc3)c2)c(F)c1
REMARK SMILES IDX 7 1 6 2 5 3 3 4 4 5 2 6 1 7 80 8 81 9 102 10 82 11 100 12
REMARK SMILES IDX 83 13 101 14 84 15 85 16 99 17 86 18 88 19 87 20 89 21 90 22
REMARK SMILES IDX 91 23 92 24 93 26 94 27 98 28 95 29 97 30 96 31 8 32 9 33
REMARK SMILES IDX 10 34 11 35 12 36 13 37 14 38 15 39 79 40 16 41 78 42 17 43
REMARK SMILES IDX 18 44 19 45 72 46 20 47 77 48 71 49 73 50 21 51 76 52 70 53
REMARK SMILES IDX 69 54 22 56 56 57 35 58 55 59 36 60 39 61 54 62 74 63 37 64
REMARK SMILES IDX 38 65 53 67 75 68 40 69 23 70 24 71 33 72 25 73 26 74 32 75
REMARK SMILES IDX 34 76 27 77 28 78 29 79 30 80 31 81 57 82 58 83 67 84 59 85
REMARK SMILES IDX 60 86 66 87 68 88 61 89 62 90 63 91 64 92 65 93 41 94 42 95
REMARK SMILES IDX 51 96 43 97 44 98 50 99 52 100 45 101 46 102 47 103 48 104
REMARK SMILES IDX 49 105
REMARK H PARENT 92 25 73 55 39 66
REMARK Flexibility Score: inf
ROOT
ATOM      1  C   UNL A   1      46.024  20.703  25.155  1.00  0.00     0.202 C 
ENDROOT
BRANCH   1   2
ATOM      2  C   UNL A   1      44.790  20.260  24.363  1.00  0.00     0.261 C 
BRANCH   2   3
ATOM      3  O   UNL A   1      43.576  20.545  25.079  1.00  0.00    -0.463 OA
BRANCH   3   4
ATOM      4  C   UNL A   1      42.980  19.477  25.675  1.00  0.00     0.313 C 
ATOM      5  O   UNL A   1      43.180  18.310  25.351  1.00  0.00    -0.252 OA
BRANCH   4   6
ATOM      6  C   UNL A   1      42.062  19.875  26.845  1.00  0.00     0.126 C 
ATOM      7  C   UNL A   1      42.053  18.837  27.976  1.00  0.00     0.025 C 
BRANCH   6   8
ATOM      8  C   UNL A   1      40.675  20.316  26.357  1.00  0.00    -0.031 A 
ATOM      9  C   UNL A   1      39.784  19.481  25.665  1.00  0.00     0.005 A 
ATOM     10  C   UNL A   1      40.252  21.630  26.621  1.00  0.00     0.044 A 
ATOM     11  C   UNL A   1      38.534  19.956  25.224  1.00  0.00     0.012 A 
ATOM     12  C   UNL A   1      39.020  22.098  26.167  1.00  0.00     0.131 A 
ATOM     13  C   UNL A   1      38.139  21.282  25.452  1.00  0.00     0.018 A 
ATOM     14  F   UNL A   1      38.691  23.373  26.434  1.00  0.00    -0.206 F 
BRANCH  13  15
ATOM     15  C   UNL A   1      36.872  21.817  24.932  1.00  0.00    -0.012 A 
ATOM     16  C   UNL A   1      36.798  22.464  23.688  1.00  0.00     0.009 A 
ATOM     17  C   UNL A   1      35.687  21.663  25.678  1.00  0.00     0.056 A 
ATOM     18  C   UNL A   1      35.575  22.931  23.196  1.00  0.00     0.004 A 
ATOM     19  C   UNL A   1      34.474  22.144  25.193  1.00  0.00     0.133 A 
ATOM     20  C   UNL A   1      34.412  22.770  23.948  1.00  0.00     0.047 A 
BRANCH  19  21
ATOM     21  O   UNL A   1      33.239  22.055  25.884  1.00  0.00    -0.410 OA
BRANCH  21  22
ATOM     22  C   UNL A   1      32.055  21.519  25.381  1.00  0.00     0.417 C 
ATOM     23  O   UNL A   1      31.803  20.322  25.264  1.00  0.00    -0.224 OA
ATOM     24  N   UNL A   1      31.074  22.437  25.106  1.00  0.00    -0.291 N 
ATOM     25  H   UNL A   1      30.198  22.045  24.887  1.00  0.00     0.173 HD
BRANCH  24  26
ATOM     26  C   UNL A   1      31.105  23.838  25.083  1.00  0.00     0.044 A 
ATOM     27  C   UNL A   1      31.020  24.453  23.828  1.00  0.00     0.026 A 
ATOM     28  C   UNL A   1      31.250  24.634  26.221  1.00  0.00     0.026 A 
ATOM     29  C   UNL A   1      31.030  25.844  23.715  1.00  0.00     0.002 A 
ATOM     30  C   UNL A   1      31.282  26.028  26.105  1.00  0.00     0.002 A 
ATOM     31  C   UNL A   1      31.161  26.633  24.856  1.00  0.00     0.000 A 
ENDBRANCH  24  26
ENDBRANCH  21  22
ENDBRANCH  19  21
ENDBRANCH  13  15
ENDBRANCH   6   8
ENDBRANCH   4   6
ENDBRANCH   3   4
ENDBRANCH   2   3
ENDBRANCH   1   2
BRANCH   1  32
ATOM     32  O   UNL A   1      45.936  21.954  25.837  1.00  0.00    -0.374 OA
BRANCH  32  33
ATOM     33  C   UNL A   1      45.961  23.144  25.050  1.00  0.00     0.202 C 
BRANCH  33  34
ATOM     34  C   UNL A   1      45.331  24.404  25.661  1.00  0.00     0.261 C 
BRANCH  34  35
ATOM     35  O   UNL A   1      44.281  24.111  26.604  1.00  0.00    -0.460 OA
BRANCH  35  36
ATOM     36  C   UNL A   1      43.039  24.475  26.196  1.00  0.00     0.338 C 
ATOM     37  O   UNL A   1      42.387  23.978  25.291  1.00  0.00    -0.246 OA
BRANCH  36  38
ATOM     38  C   UNL A   1      42.461  25.468  27.122  1.00  0.00     0.060 A 
ATOM     39  C   UNL A   1      43.061  26.732  27.170  1.00  0.00     0.016 A 
ATOM     40  C   UNL A   1      41.425  25.141  27.998  1.00  0.00     0.016 A 
ATOM     41  C   UNL A   1      42.659  27.662  28.128  1.00  0.00     0.010 A 
ATOM     42  C   UNL A   1      41.029  26.073  28.966  1.00  0.00     0.010 A 
ATOM     43  C   UNL A   1      41.668  27.324  29.059  1.00  0.00    -0.014 A 
BRANCH  43  44
ATOM     44  C   UNL A   1      41.413  28.223  30.211  1.00  0.00     0.031 A 
ATOM     45  C   UNL A   1      42.264  28.091  31.444  1.00  0.00     0.074 A 
ATOM     46  C   UNL A   1      40.462  29.173  30.145  1.00  0.00     0.049 A 
ATOM     47  N   UNL A   1      42.201  28.753  32.571  1.00  0.00    -0.248 NA
ATOM     48  C   UNL A   1      43.329  27.075  31.402  1.00  0.00     0.031 C 
ATOM     49  C   UNL A   1      39.600  29.426  28.992  1.00  0.00     0.029 A 
ATOM     50  N   UNL A   1      40.059  30.099  31.075  1.00  0.00    -0.354 N 
ATOM     51  C   UNL A   1      43.213  28.235  33.372  1.00  0.00     0.074 A 
ATOM     52  C   UNL A   1      43.854  27.182  32.614  1.00  0.00     0.031 C 
ATOM     53  C   UNL A   1      38.759  30.432  29.288  1.00  0.00     0.029 A 
ATOM     54  C   UNL A   1      39.004  30.876  30.660  1.00  0.00     0.049 A 
ATOM     55  H   UNL A   1      40.487  30.197  31.957  1.00  0.00     0.167 HD
ATOM     56  C   UNL A   1      43.582  28.611  34.620  1.00  0.00     0.037 A 
ATOM     57  C   UNL A   1      38.303  31.820  31.318  1.00  0.00     0.037 A 
ATOM     58  C   UNL A   1      42.940  29.659  35.372  1.00  0.00     0.049 A 
ATOM     59  C   UNL A   1      38.690  32.179  32.729  1.00  0.00     0.074 A 
ATOM     60  C   UNL A   1      43.245  30.120  36.640  1.00  0.00     0.029 A 
ATOM     61  N   UNL A   1      41.859  30.406  34.926  1.00  0.00    -0.354 N 
ATOM     62  N   UNL A   1      39.659  31.693  33.468  1.00  0.00    -0.248 NA
ATOM     63  C   UNL A   1      37.891  33.219  33.394  1.00  0.00     0.031 C 
ATOM     64  C   UNL A   1      42.321  31.115  36.980  1.00  0.00     0.029 A 
ATOM     65  C   UNL A   1      41.472  31.309  35.902  1.00  0.00     0.049 A 
ATOM     66  H   UNL A   1      41.430  30.308  34.045  1.00  0.00     0.167 HD
ATOM     67  C   UNL A   1      39.601  32.383  34.676  1.00  0.00     0.074 A 
ATOM     68  C   UNL A   1      38.510  33.328  34.563  1.00  0.00     0.031 C 
ATOM     69  C   UNL A   1      40.384  32.247  35.775  1.00  0.00     0.037 A 
BRANCH  56  70
ATOM     70  C   UNL A   1      44.719  27.866  35.262  1.00  0.00     0.058 A 
ATOM     71  C   UNL A   1      44.513  26.664  35.959  1.00  0.00     0.135 A 
ATOM     72  C   UNL A   1      46.034  28.345  35.158  1.00  0.00     0.135 A 
ATOM     73  F   UNL A   1      43.273  26.169  36.103  1.00  0.00    -0.206 F 
ATOM     74  C   UNL A   1      45.568  25.979  36.553  1.00  0.00     0.059 A 
ATOM     75  C   UNL A   1      47.108  27.663  35.723  1.00  0.00     0.059 A 
ATOM     76  F   UNL A   1      46.287  29.490  34.505  1.00  0.00    -0.206 F 
ATOM     77  C   UNL A   1      46.862  26.488  36.432  1.00  0.00     0.060 A 
BRANCH  77  78
ATOM     78  S   UNL A   1      48.221  25.590  37.213  1.00  0.00     0.124 S 
ATOM     79  O   UNL A   1      48.599  26.508  38.281  1.00  0.00    -0.237 OA
ATOM     80  O   UNL A   1      47.574  24.354  37.640  1.00  0.00    -0.237 OA
ATOM     81  O   UNL A   1      49.195  25.445  36.135  1.00  0.00    -0.744 OA
ENDBRANCH  77  78
ENDBRANCH  56  70
BRANCH  57  82
ATOM     82  C   UNL A   1      37.151  32.482  30.652  1.00  0.00     0.058 A 
ATOM     83  C   UNL A   1      37.341  33.516  29.723  1.00  0.00     0.135 A 
ATOM     84  C   UNL A   1      35.833  32.087  30.928  1.00  0.00     0.135 A 
ATOM     85  F   UNL A   1      38.581  33.939  29.435  1.00  0.00    -0.206 F 
ATOM     86  C   UNL A   1      36.266  34.141  29.099  1.00  0.00     0.059 A 
ATOM     87  C   UNL A   1      34.742  32.679  30.298  1.00  0.00     0.059 A 
ATOM     88  F   UNL A   1      35.597  31.095  31.802  1.00  0.00    -0.206 F 
ATOM     89  C   UNL A   1      34.970  33.712  29.390  1.00  0.00     0.060 A 
BRANCH  89  90
ATOM     90  S   UNL A   1      33.583  34.491  28.534  1.00  0.00     0.124 S 
ATOM     91  O   UNL A   1      33.204  33.451  27.584  1.00  0.00    -0.237 OA
ATOM     92  O   UNL A   1      32.645  34.731  29.626  1.00  0.00    -0.237 OA
ATOM     93  O   UNL A   1      34.179  35.691  27.954  1.00  0.00    -0.744 OA
ENDBRANCH  89  90
ENDBRANCH  57  82
BRANCH  69  94
ATOM     94  C   UNL A   1      40.113  33.163  36.938  1.00  0.00     0.058 A 
ATOM     95  C   UNL A   1      40.848  34.342  37.138  1.00  0.00     0.135 A 
ATOM     96  C   UNL A   1      39.066  32.884  37.833  1.00  0.00     0.135 A 
ATOM     97  F   UNL A   1      41.861  34.652  36.315  1.00  0.00    -0.206 F 
ATOM     98  C   UNL A   1      40.568  35.202  38.196  1.00  0.00     0.059 A 
ATOM     99  C   UNL A   1      38.753  33.743  38.882  1.00  0.00     0.059 A 
ATOM    100  F   UNL A   1      38.324  31.775  37.681  1.00  0.00    -0.206 F 
ATOM    101  C   UNL A   1      39.518  34.894  39.062  1.00  0.00     0.060 A 
BRANCH 101 102
ATOM    102  S   UNL A   1      39.143  36.035  40.411  1.00  0.00     0.124 S 
ATOM    103  O   UNL A   1      38.677  37.210  39.680  1.00  0.00    -0.237 OA
ATOM    104  O   UNL A   1      38.123  35.310  41.161  1.00  0.00    -0.237 OA
ATOM    105  O   UNL A   1      40.424  36.188  41.093  1.00  0.00    -0.744 OA
ENDBRANCH 101 102
ENDBRANCH  69  94
ENDBRANCH  43  44
ENDBRANCH  36  38
ENDBRANCH  35  36
ENDBRANCH  34  35
ENDBRANCH  33  34
ENDBRANCH  32  33
ENDBRANCH   1  32
TORSDOF 22
ENDMDL
MODEL 3
REMARK VINA RESULT:     -11.4      2.048      3.408
REMARK SMILES C[C@@H](C(=O)OCCOCCOC(=O)c1ccc(-c2c3nc(c(-c4c(F)cc(S(=O)(=O)[O-])cc4F)c4ccc([nH]4)c(-c4c(F)cc(S(=O)(=O)[O-])cc4F)c4nc(c(-c5c(F)cc(S(=O)(=O)[O-])cc5F)c5ccc2[nH]5)C=C4)C=C3)cc1)c1ccc(-c2cccc(OC(=O)Nc3ccccc3)c2)c(F)c1
REMARK SMILES IDX 7 1 6 2 5 3 3 4 4 5 2 6 1 7 80 8 81 9 102 10 82 11 100 12
REMARK SMILES IDX 83 13 101 14 84 15 85 16 99 17 86 18 88 19 87 20 89 21 90 22
REMARK SMILES IDX 91 23 92 24 93 26 94 27 98 28 95 29 97 30 96 31 8 32 9 33
REMARK SMILES IDX 10 34 11 35 12 36 13 37 14 38 15 39 79 40 16 41 78 42 17 43
REMARK SMILES IDX 18 44 19 45 72 46 20 47 77 48 71 49 73 50 21 51 76 52 70 53
REMARK SMILES IDX 69 54 22 56 56 57 35 58 55 59 36 60 39 61 54 62 74 63 37 64
REMARK SMILES IDX 38 65 53 67 75 68 40 69 23 70 24 71 33 72 25 73 26 74 32 75
REMARK SMILES IDX 34 76 27 77 28 78 29 79 30 80 31 81 57 82 58 83 67 84 59 85
REMARK SMILES IDX 60 86 66 87 68 88 61 89 62 90 63 91 64 92 65 93 41 94 42 95
REMARK SMILES IDX 51 96 43 97 44 98 50 99 52 100 45 101 46 102 47 103 48 104
REMARK SMILES IDX 49 105
REMARK H PARENT 92 25 73 55 39 66
REMARK Flexibility Score: inf
ROOT
ATOM      1  C   UNL A   1      46.251  21.088  24.887  1.00  0.00     0.202 C 
ENDROOT
BRANCH   1   2
ATOM      2  C   UNL A   1      44.902  20.777  24.231  1.00  0.00     0.261 C 
BRANCH   2   3
ATOM      3  O   UNL A   1      43.831  20.817  25.189  1.00  0.00    -0.463 OA
BRANCH   3   4
ATOM      4  C   UNL A   1      43.317  19.609  25.547  1.00  0.00     0.313 C 
ATOM      5  O   UNL A   1      43.613  18.549  25.004  1.00  0.00    -0.252 OA
BRANCH   4   6
ATOM      6  C   UNL A   1      42.360  19.694  26.750  1.00  0.00     0.126 C 
ATOM      7  C   UNL A   1      42.417  18.450  27.647  1.00  0.00     0.025 C 
BRANCH   6   8
ATOM      8  C   UNL A   1      40.949  20.126  26.326  1.00  0.00    -0.031 A 
ATOM      9  C   UNL A   1      39.998  19.259  25.765  1.00  0.00     0.005 A 
ATOM     10  C   UNL A   1      40.567  21.465  26.514  1.00  0.00     0.044 A 
ATOM     11  C   UNL A   1      38.727  19.725  25.376  1.00  0.00     0.012 A 
ATOM     12  C   UNL A   1      39.313  21.923  26.111  1.00  0.00     0.131 A 
ATOM     13  C   UNL A   1      38.371  21.073  25.526  1.00  0.00     0.018 A 
ATOM     14  F   UNL A   1      39.025  23.221  26.300  1.00  0.00    -0.206 F 
BRANCH  13  15
ATOM     15  C   UNL A   1      37.079  21.593  25.054  1.00  0.00    -0.012 A 
ATOM     16  C   UNL A   1      36.982  22.408  23.915  1.00  0.00     0.009 A 
ATOM     17  C   UNL A   1      35.895  21.254  25.738  1.00  0.00     0.056 A 
ATOM     18  C   UNL A   1      35.738  22.860  23.463  1.00  0.00     0.004 A 
ATOM     19  C   UNL A   1      34.660  21.720  25.295  1.00  0.00     0.133 A 
ATOM     20  C   UNL A   1      34.576  22.514  24.152  1.00  0.00     0.047 A 
BRANCH  19  21
ATOM     21  O   UNL A   1      33.423  21.450  25.933  1.00  0.00    -0.410 OA
BRANCH  21  22
ATOM     22  C   UNL A   1      32.160  21.578  25.358  1.00  0.00     0.417 C 
ATOM     23  O   UNL A   1      31.431  22.564  25.441  1.00  0.00    -0.224 OA
ATOM     24  N   UNL A   1      31.782  20.537  24.549  1.00  0.00    -0.291 N 
ATOM     25  H   UNL A   1      30.957  20.697  24.036  1.00  0.00     0.173 HD
BRANCH  24  26
ATOM     26  C   UNL A   1      32.371  19.284  24.327  1.00  0.00     0.044 A 
ATOM     27  C   UNL A   1      32.717  18.538  25.460  1.00  0.00     0.026 A 
ATOM     28  C   UNL A   1      32.657  18.770  23.061  1.00  0.00     0.026 A 
ATOM     29  C   UNL A   1      33.295  17.274  25.330  1.00  0.00     0.002 A 
ATOM     30  C   UNL A   1      33.257  17.512  22.932  1.00  0.00     0.002 A 
ATOM     31  C   UNL A   1      33.566  16.761  24.064  1.00  0.00     0.000 A 
ENDBRANCH  24  26
ENDBRANCH  21  22
ENDBRANCH  19  21
ENDBRANCH  13  15
ENDBRANCH   6   8
ENDBRANCH   4   6
ENDBRANCH   3   4
ENDBRANCH   2   3
ENDBRANCH   1   2
BRANCH   1  32
ATOM     32  O   UNL A   1      46.416  22.396  25.433  1.00  0.00    -0.374 OA
BRANCH  32  33
ATOM     33  C   UNL A   1      45.639  23.454  24.873  1.00  0.00     0.202 C 
BRANCH  33  34
ATOM     34  C   UNL A   1      45.225  24.596  25.811  1.00  0.00     0.261 C 
BRANCH  34  35
ATOM     35  O   UNL A   1      44.101  24.259  26.648  1.00  0.00    -0.460 OA
BRANCH  35  36
ATOM     36  C   UNL A   1      42.902  24.700  26.188  1.00  0.00     0.338 C 
ATOM     37  O   UNL A   1      42.285  24.279  25.223  1.00  0.00    -0.246 OA
BRANCH  36  38
ATOM     38  C   UNL A   1      42.315  25.673  27.129  1.00  0.00     0.060 A 
ATOM     39  C   UNL A   1      42.836  26.972  27.126  1.00  0.00     0.016 A 
ATOM     40  C   UNL A   1      41.349  25.299  28.066  1.00  0.00     0.016 A 
ATOM     41  C   UNL A   1      42.429  27.893  28.089  1.00  0.00     0.010 A 
ATOM     42  C   UNL A   1      40.949  26.223  29.040  1.00  0.00     0.010 A 
ATOM     43  C   UNL A   1      41.513  27.512  29.079  1.00  0.00    -0.014 A 
BRANCH  43  44
ATOM     44  C   UNL A   1      41.264  28.415  30.229  1.00  0.00     0.031 A 
ATOM     45  C   UNL A   1      42.124  28.289  31.457  1.00  0.00     0.074 A 
ATOM     46  C   UNL A   1      40.312  29.363  30.167  1.00  0.00     0.049 A 
ATOM     47  N   UNL A   1      42.068  28.955  32.582  1.00  0.00    -0.248 NA
ATOM     48  C   UNL A   1      43.190  27.275  31.411  1.00  0.00     0.031 C 
ATOM     49  C   UNL A   1      39.441  29.611  29.019  1.00  0.00     0.029 A 
ATOM     50  N   UNL A   1      39.914  30.292  31.097  1.00  0.00    -0.354 N 
ATOM     51  C   UNL A   1      43.087  28.442  33.377  1.00  0.00     0.074 A 
ATOM     52  C   UNL A   1      43.723  27.387  32.619  1.00  0.00     0.031 C 
ATOM     53  C   UNL A   1      38.601  30.617  29.317  1.00  0.00     0.029 A 
ATOM     54  C   UNL A   1      38.855  31.066  30.685  1.00  0.00     0.049 A 
ATOM     55  H   UNL A   1      40.348  30.394  31.974  1.00  0.00     0.167 HD
ATOM     56  C   UNL A   1      43.464  28.823  34.622  1.00  0.00     0.037 A 
ATOM     57  C   UNL A   1      38.157  32.011  31.345  1.00  0.00     0.037 A 
ATOM     58  C   UNL A   1      42.825  29.872  35.374  1.00  0.00     0.049 A 
ATOM     59  C   UNL A   1      38.554  32.376  32.752  1.00  0.00     0.074 A 
ATOM     60  C   UNL A   1      43.138  30.338  36.638  1.00  0.00     0.029 A 
ATOM     61  N   UNL A   1      41.740  30.616  34.933  1.00  0.00    -0.354 N 
ATOM     62  N   UNL A   1      39.528  31.894  33.486  1.00  0.00    -0.248 NA
ATOM     63  C   UNL A   1      37.758  33.417  33.419  1.00  0.00     0.031 C 
ATOM     64  C   UNL A   1      42.216  31.333  36.981  1.00  0.00     0.029 A 
ATOM     65  C   UNL A   1      41.358  31.522  35.909  1.00  0.00     0.049 A 
ATOM     66  H   UNL A   1      41.306  30.514  34.055  1.00  0.00     0.167 HD
ATOM     67  C   UNL A   1      39.478  32.589  34.691  1.00  0.00     0.074 A 
ATOM     68  C   UNL A   1      38.385  33.532  34.583  1.00  0.00     0.031 C 
ATOM     69  C   UNL A   1      40.269  32.458  35.786  1.00  0.00     0.037 A 
BRANCH  56  70
ATOM     70  C   UNL A   1      44.606  28.081  35.258  1.00  0.00     0.058 A 
ATOM     71  C   UNL A   1      44.398  26.928  36.032  1.00  0.00     0.135 A 
ATOM     72  C   UNL A   1      45.928  28.514  35.073  1.00  0.00     0.135 A 
ATOM     73  F   UNL A   1      43.152  26.479  36.256  1.00  0.00    -0.206 F 
ATOM     74  C   UNL A   1      45.458  26.246  36.621  1.00  0.00     0.059 A 
ATOM     75  C   UNL A   1      47.007  27.833  35.631  1.00  0.00     0.059 A 
ATOM     76  F   UNL A   1      46.184  29.612  34.345  1.00  0.00    -0.206 F 
ATOM     77  C   UNL A   1      46.759  26.708  36.417  1.00  0.00     0.060 A 
BRANCH  77  78
ATOM     78  S   UNL A   1      48.125  25.816  37.191  1.00  0.00     0.124 S 
ATOM     79  O   UNL A   1      49.075  26.896  37.435  1.00  0.00    -0.237 OA
ATOM     80  O   UNL A   1      47.494  25.248  38.378  1.00  0.00    -0.237 OA
ATOM     81  O   UNL A   1      48.522  24.850  36.172  1.00  0.00    -0.744 OA
ENDBRANCH  77  78
ENDBRANCH  56  70
BRANCH  57  82
ATOM     82  C   UNL A   1      36.999  32.670  30.685  1.00  0.00     0.058 A 
ATOM     83  C   UNL A   1      35.685  32.234  30.914  1.00  0.00     0.135 A 
ATOM     84  C   UNL A   1      37.184  33.756  29.816  1.00  0.00     0.135 A 
ATOM     85  F   UNL A   1      35.456  31.191  31.726  1.00  0.00    -0.206 F 
ATOM     86  C   UNL A   1      34.597  32.845  30.297  1.00  0.00     0.059 A 
ATOM     87  C   UNL A   1      36.112  34.400  29.207  1.00  0.00     0.059 A 
ATOM     88  F   UNL A   1      38.422  34.218  29.572  1.00  0.00    -0.206 F 
ATOM     89  C   UNL A   1      34.822  33.930  29.448  1.00  0.00     0.060 A 
BRANCH  89  90
ATOM     90  S   UNL A   1      33.400  34.753  28.695  1.00  0.00     0.124 S 
ATOM     91  O   UNL A   1      34.026  35.919  28.083  1.00  0.00    -0.237 OA
ATOM     92  O   UNL A   1      32.910  33.733  27.773  1.00  0.00    -0.237 OA
ATOM     93  O   UNL A   1      32.530  35.028  29.835  1.00  0.00    -0.744 OA
ENDBRANCH  89  90
ENDBRANCH  57  82
BRANCH  69  94
ATOM     94  C   UNL A   1      40.004  33.377  36.948  1.00  0.00     0.058 A 
ATOM     95  C   UNL A   1      38.988  33.116  37.880  1.00  0.00     0.135 A 
ATOM     96  C   UNL A   1      40.814  34.505  37.161  1.00  0.00     0.135 A 
ATOM     97  F   UNL A   1      38.182  32.054  37.720  1.00  0.00    -0.206 F 
ATOM     98  C   UNL A   1      38.771  33.951  38.972  1.00  0.00     0.059 A 
ATOM     99  C   UNL A   1      40.631  35.340  38.259  1.00  0.00     0.059 A 
ATOM    100  F   UNL A   1      41.807  34.795  36.305  1.00  0.00    -0.206 F 
ATOM    101  C   UNL A   1      39.598  35.061  39.154  1.00  0.00     0.060 A 
BRANCH 101 102
ATOM    102  S   UNL A   1      39.329  36.118  40.592  1.00  0.00     0.124 S 
ATOM    103  O   UNL A   1      38.672  37.273  39.988  1.00  0.00    -0.237 OA
ATOM    104  O   UNL A   1      38.486  35.282  41.441  1.00  0.00    -0.237 OA
ATOM    105  O   UNL A   1      40.677  36.355  41.097  1.00  0.00    -0.744 OA
ENDBRANCH 101 102
ENDBRANCH  69  94
ENDBRANCH  43  44
ENDBRANCH  36  38
ENDBRANCH  35  36
ENDBRANCH  34  35
ENDBRANCH  33  34
ENDBRANCH  32  33
ENDBRANCH   1  32
TORSDOF 22
ENDMDL
