MODEL 1
REMARK VINA RESULT:     -12.1      0.000      0.000
REMARK SMILES O=C(OCCOCCOC(=O)[C@H]1CCCCN1c1cc(-c2ccccc2)nc(-c2cccc(Cl)c2)n1)c1ccc(-c2c3nc(c(-c4c(F)cc(S(=O)(=O)[O-])cc4F)c4ccc([nH]4)c(-c4c(F)cc(S(=O)(=O)[O-])cc4F)c4nc(c(-c5c(F)cc(S(=O)(=O)[O-])cc5F)c5ccc2[nH]5)C=C4)C=C3)cc1
REMARK SMILES IDX 5 1 4 2 3 3 2 4 1 5 37 6 38 7 102 8 39 9 101 10 40 11 41 12
REMARK SMILES IDX 42 13 95 14 43 15 100 16 94 17 96 18 44 19 99 20 93 21 92 22
REMARK SMILES IDX 45 24 79 25 58 26 78 27 59 28 62 29 77 30 97 31 60 32 61 33
REMARK SMILES IDX 76 35 98 36 63 37 46 38 47 39 56 40 48 41 49 42 55 43 57 44
REMARK SMILES IDX 50 45 51 46 52 47 53 48 54 49 80 50 81 51 90 52 82 53 83 54
REMARK SMILES IDX 89 55 91 56 84 57 85 58 86 59 87 60 88 61 64 62 65 63 74 64
REMARK SMILES IDX 66 65 67 66 73 67 75 68 68 69 69 70 70 71 71 72 72 73 6 74
REMARK SMILES IDX 7 75 8 76 9 77 10 78 11 79 12 80 13 81 17 82 14 83 16 84
REMARK SMILES IDX 15 85 18 86 19 87 36 88 20 89 28 90 27 91 21 92 22 93 26 94
REMARK SMILES IDX 23 95 25 96 24 97 29 98 30 99 35 100 31 101 33 102 32 103
REMARK SMILES IDX 34 104
REMARK H PARENT 96 23 62 34
REMARK Flexibility Score: inf
ROOT
ATOM      1  C   UNL A   1      36.125  20.881  25.408  1.00  0.00     0.202 C 
ENDROOT
BRANCH   1   2
ATOM      2  C   UNL A   1      37.184  21.800  24.795  1.00  0.00     0.261 C 
BRANCH   2   3
ATOM      3  O   UNL A   1      37.776  22.636  25.810  1.00  0.00    -0.460 OA
BRANCH   3   4
ATOM      4  C   UNL A   1      39.027  22.494  26.332  1.00  0.00     0.338 C 
ATOM      5  O   UNL A   1      39.631  21.439  26.231  1.00  0.00    -0.246 OA
BRANCH   4   6
ATOM      6  C   UNL A   1      39.686  23.669  26.950  1.00  0.00     0.060 A 
ATOM      7  C   UNL A   1      39.362  24.957  26.555  1.00  0.00     0.016 A 
ATOM      8  C   UNL A   1      40.655  23.495  27.935  1.00  0.00     0.016 A 
ATOM      9  C   UNL A   1      40.144  26.030  26.884  1.00  0.00     0.010 A 
ATOM     10  C   UNL A   1      41.321  24.615  28.442  1.00  0.00     0.010 A 
ATOM     11  C   UNL A   1      41.086  25.883  27.885  1.00  0.00    -0.014 A 
BRANCH  11  12
ATOM     12  C   UNL A   1      41.817  27.096  28.274  1.00  0.00     0.031 A 
ATOM     13  C   UNL A   1      41.080  28.153  29.023  1.00  0.00     0.074 A 
ATOM     14  C   UNL A   1      43.150  27.146  28.069  1.00  0.00     0.049 A 
ATOM     15  N   UNL A   1      41.461  29.362  29.318  1.00  0.00    -0.248 NA
ATOM     16  C   UNL A   1      39.729  27.809  29.499  1.00  0.00     0.031 C 
ATOM     17  C   UNL A   1      43.964  26.068  27.486  1.00  0.00     0.029 A 
ATOM     18  N   UNL A   1      44.065  28.116  28.363  1.00  0.00    -0.354 N 
ATOM     19  C   UNL A   1      40.372  29.950  29.944  1.00  0.00     0.074 A 
ATOM     20  C   UNL A   1      39.320  28.962  30.006  1.00  0.00     0.031 C 
ATOM     21  C   UNL A   1      45.256  26.419  27.514  1.00  0.00     0.029 A 
ATOM     22  C   UNL A   1      45.346  27.791  27.978  1.00  0.00     0.049 A 
ATOM     23  H   UNL A   1      43.833  28.965  28.805  1.00  0.00     0.167 HD
ATOM     24  C   UNL A   1      40.276  31.220  30.397  1.00  0.00     0.037 A 
ATOM     25  C   UNL A   1      46.452  28.555  27.934  1.00  0.00     0.037 A 
ATOM     26  C   UNL A   1      41.375  32.145  30.321  1.00  0.00     0.049 A 
ATOM     27  C   UNL A   1      46.298  29.985  28.361  1.00  0.00     0.074 A 
ATOM     28  C   UNL A   1      41.413  33.479  30.672  1.00  0.00     0.029 A 
ATOM     29  N   UNL A   1      42.647  31.810  29.863  1.00  0.00    -0.354 N 
ATOM     30  N   UNL A   1      45.232  30.587  28.838  1.00  0.00    -0.248 NA
ATOM     31  C   UNL A   1      47.473  30.847  28.222  1.00  0.00     0.031 C 
ATOM     32  C   UNL A   1      42.695  33.961  30.385  1.00  0.00     0.029 A 
ATOM     33  C   UNL A   1      43.475  32.913  29.910  1.00  0.00     0.049 A 
ATOM     34  H   UNL A   1      42.916  30.915  29.552  1.00  0.00     0.167 HD
ATOM     35  C   UNL A   1      45.607  31.901  29.068  1.00  0.00     0.074 A 
ATOM     36  C   UNL A   1      47.008  31.996  28.695  1.00  0.00     0.031 C 
ATOM     37  C   UNL A   1      44.870  32.939  29.536  1.00  0.00     0.037 A 
BRANCH  24  38
ATOM     38  C   UNL A   1      38.935  31.671  30.901  1.00  0.00     0.058 A 
ATOM     39  C   UNL A   1      38.010  32.339  30.083  1.00  0.00     0.135 A 
ATOM     40  C   UNL A   1      38.594  31.479  32.250  1.00  0.00     0.135 A 
ATOM     41  F   UNL A   1      38.299  32.586  28.795  1.00  0.00    -0.206 F 
ATOM     42  C   UNL A   1      36.809  32.829  30.593  1.00  0.00     0.059 A 
ATOM     43  C   UNL A   1      37.389  31.935  32.774  1.00  0.00     0.059 A 
ATOM     44  F   UNL A   1      39.451  30.865  33.082  1.00  0.00    -0.206 F 
ATOM     45  C   UNL A   1      36.511  32.625  31.942  1.00  0.00     0.060 A 
BRANCH  45  46
ATOM     46  S   UNL A   1      34.962  33.285  32.593  1.00  0.00     0.124 S 
ATOM     47  O   UNL A   1      33.977  32.470  31.886  1.00  0.00    -0.237 OA
ATOM     48  O   UNL A   1      35.090  33.026  34.023  1.00  0.00    -0.237 OA
ATOM     49  O   UNL A   1      35.003  34.693  32.207  1.00  0.00    -0.744 OA
ENDBRANCH  45  46
ENDBRANCH  24  38
BRANCH  25  50
ATOM     50  C   UNL A   1      47.728  28.010  27.394  1.00  0.00     0.058 A 
ATOM     51  C   UNL A   1      48.689  27.434  28.236  1.00  0.00     0.135 A 
ATOM     52  C   UNL A   1      48.004  28.028  26.014  1.00  0.00     0.135 A 
ATOM     53  F   UNL A   1      48.478  27.390  29.560  1.00  0.00    -0.206 F 
ATOM     54  C   UNL A   1      49.879  26.911  27.736  1.00  0.00     0.059 A 
ATOM     55  C   UNL A   1      49.170  27.483  25.488  1.00  0.00     0.059 A 
ATOM     56  F   UNL A   1      47.115  28.553  25.155  1.00  0.00    -0.206 F 
ATOM     57  C   UNL A   1      50.110  26.938  26.359  1.00  0.00     0.060 A 
BRANCH  57  58
ATOM     58  S   UNL A   1      51.644  26.232  25.720  1.00  0.00     0.124 S 
ATOM     59  O   UNL A   1      51.460  26.385  24.281  1.00  0.00    -0.237 OA
ATOM     60  O   UNL A   1      52.655  27.090  26.330  1.00  0.00    -0.237 OA
ATOM     61  O   UNL A   1      51.616  24.860  26.217  1.00  0.00    -0.744 OA
ENDBRANCH  57  58
ENDBRANCH  25  50
BRANCH  37  62
ATOM     62  C   UNL A   1      45.590  34.240  29.715  1.00  0.00     0.058 A 
ATOM     63  C   UNL A   1      46.268  34.548  30.902  1.00  0.00     0.135 A 
ATOM     64  C   UNL A   1      45.649  35.157  28.655  1.00  0.00     0.135 A 
ATOM     65  F   UNL A   1      46.226  33.704  31.946  1.00  0.00    -0.206 F 
ATOM     66  C   UNL A   1      46.973  35.736  31.039  1.00  0.00     0.059 A 
ATOM     67  C   UNL A   1      46.374  36.335  28.757  1.00  0.00     0.059 A 
ATOM     68  F   UNL A   1      45.019  34.895  27.497  1.00  0.00    -0.206 F 
ATOM     69  C   UNL A   1      47.025  36.619  29.957  1.00  0.00     0.060 A 
BRANCH  69  70
ATOM     70  S   UNL A   1      47.989  38.132  30.127  1.00  0.00     0.124 S 
ATOM     71  O   UNL A   1      48.771  38.121  28.896  1.00  0.00    -0.237 OA
ATOM     72  O   UNL A   1      46.951  39.155  30.210  1.00  0.00    -0.237 OA
ATOM     73  O   UNL A   1      48.747  37.916  31.356  1.00  0.00    -0.744 OA
ENDBRANCH  69  70
ENDBRANCH  37  62
ENDBRANCH  11  12
ENDBRANCH   4   6
ENDBRANCH   3   4
ENDBRANCH   2   3
ENDBRANCH   1   2
BRANCH   1  74
ATOM     74  O   UNL A   1      34.871  21.463  25.736  1.00  0.00    -0.374 OA
BRANCH  74  75
ATOM     75  C   UNL A   1      34.652  21.715  27.121  1.00  0.00     0.202 C 
BRANCH  75  76
ATOM     76  C   UNL A   1      33.234  22.236  27.328  1.00  0.00     0.261 C 
BRANCH  76  77
ATOM     77  O   UNL A   1      32.767  22.836  26.102  1.00  0.00    -0.462 OA
BRANCH  77  78
ATOM     78  C   UNL A   1      32.322  24.125  26.233  1.00  0.00     0.328 C 
ATOM     79  O   UNL A   1      31.498  24.485  27.067  1.00  0.00    -0.250 OA
BRANCH  78  80
ATOM     80  C   UNL A   1      32.949  25.055  25.169  1.00  0.00     0.193 C 
ATOM     81  C   UNL A   1      33.993  24.269  24.376  1.00  0.00     0.037 C 
ATOM     82  N   UNL A   1      31.951  25.716  24.272  1.00  0.00    -0.343 N 
ATOM     83  C   UNL A   1      33.337  23.387  23.325  1.00  0.00     0.005 C 
ATOM     84  C   UNL A   1      31.645  25.246  22.916  1.00  0.00     0.119 C 
ATOM     85  C   UNL A   1      32.648  24.275  22.310  1.00  0.00     0.022 C 
BRANCH  82  86
ATOM     86  C   UNL A   1      31.753  27.081  24.460  1.00  0.00     0.134 A 
ATOM     87  C   UNL A   1      30.791  27.796  23.764  1.00  0.00     0.076 A 
ATOM     88  N   UNL A   1      32.592  27.695  25.292  1.00  0.00    -0.211 NA
ATOM     89  C   UNL A   1      30.714  29.162  23.984  1.00  0.00     0.076 A 
ATOM     90  C   UNL A   1      32.471  29.021  25.425  1.00  0.00     0.162 A 
ATOM     91  N   UNL A   1      31.565  29.794  24.815  1.00  0.00    -0.228 NA
BRANCH  89  92
ATOM     92  C   UNL A   1      29.712  30.031  23.339  1.00  0.00     0.000 A 
ATOM     93  C   UNL A   1      29.225  31.173  24.003  1.00  0.00     0.010 A 
ATOM     94  C   UNL A   1      29.166  29.728  22.079  1.00  0.00     0.010 A 
ATOM     95  C   UNL A   1      28.228  31.975  23.438  1.00  0.00     0.001 A 
ATOM     96  C   UNL A   1      28.159  30.523  21.519  1.00  0.00     0.001 A 
ATOM     97  C   UNL A   1      27.689  31.644  22.200  1.00  0.00     0.000 A 
ENDBRANCH  89  92
BRANCH  90  98
ATOM     98  C   UNL A   1      33.426  29.638  26.330  1.00  0.00     0.021 A 
ATOM     99  C   UNL A   1      34.529  28.903  26.804  1.00  0.00     0.012 A 
ATOM    100  C   UNL A   1      33.215  30.934  26.817  1.00  0.00     0.032 A 
ATOM    101  C   UNL A   1      35.394  29.444  27.751  1.00  0.00     0.002 A 
ATOM    102  C   UNL A   1      34.070  31.463  27.779  1.00  0.00     0.041 A 
ATOM    103  C   UNL A   1      35.158  30.724  28.248  1.00  0.00     0.020 A 
ATOM    104  Cl  UNL A   1      33.764  33.029  28.421  1.00  0.00    -0.084 Cl
ENDBRANCH  90  98
ENDBRANCH  82  86
ENDBRANCH  78  80
ENDBRANCH  77  78
ENDBRANCH  76  77
ENDBRANCH  75  76
ENDBRANCH  74  75
ENDBRANCH   1  74
TORSDOF 20
ENDMDL
MODEL 2
REMARK VINA RESULT:     -11.6      5.305      9.615
REMARK SMILES O=C(OCCOCCOC(=O)[C@H]1CCCCN1c1cc(-c2ccccc2)nc(-c2cccc(Cl)c2)n1)c1ccc(-c2c3nc(c(-c4c(F)cc(S(=O)(=O)[O-])cc4F)c4ccc([nH]4)c(-c4c(F)cc(S(=O)(=O)[O-])cc4F)c4nc(c(-c5c(F)cc(S(=O)(=O)[O-])cc5F)c5ccc2[nH]5)C=C4)C=C3)cc1
REMARK SMILES IDX 5 1 4 2 3 3 2 4 1 5 37 6 38 7 102 8 39 9 101 10 40 11 41 12
REMARK SMILES IDX 42 13 95 14 43 15 100 16 94 17 96 18 44 19 99 20 93 21 92 22
REMARK SMILES IDX 45 24 79 25 58 26 78 27 59 28 62 29 77 30 97 31 60 32 61 33
REMARK SMILES IDX 76 35 98 36 63 37 46 38 47 39 56 40 48 41 49 42 55 43 57 44
REMARK SMILES IDX 50 45 51 46 52 47 53 48 54 49 80 50 81 51 90 52 82 53 83 54
REMARK SMILES IDX 89 55 91 56 84 57 85 58 86 59 87 60 88 61 64 62 65 63 74 64
REMARK SMILES IDX 66 65 67 66 73 67 75 68 68 69 69 70 70 71 71 72 72 73 6 74
REMARK SMILES IDX 7 75 8 76 9 77 10 78 11 79 12 80 13 81 17 82 14 83 16 84
REMARK SMILES IDX 15 85 18 86 19 87 36 88 20 89 28 90 27 91 21 92 22 93 26 94
REMARK SMILES IDX 23 95 25 96 24 97 29 98 30 99 35 100 31 101 33 102 32 103
REMARK SMILES IDX 34 104
REMARK H PARENT 96 23 62 34
REMARK Flexibility Score: inf
ROOT
ATOM      1  C   UNL A   1      37.284  23.183  25.334  1.00  0.00     0.202 C 
ENDROOT
BRANCH   1   2
ATOM      2  C   UNL A   1      37.435  24.256  26.416  1.00  0.00     0.261 C 
BRANCH   2   3
ATOM      3  O   UNL A   1      38.764  24.224  26.976  1.00  0.00    -0.460 OA
BRANCH   3   4
ATOM      4  C   UNL A   1      39.650  25.260  26.990  1.00  0.00     0.338 C 
ATOM      5  O   UNL A   1      40.431  25.428  26.067  1.00  0.00    -0.246 OA
BRANCH   4   6
ATOM      6  C   UNL A   1      39.594  26.239  28.101  1.00  0.00     0.060 A 
ATOM      7  C   UNL A   1      40.189  27.485  27.985  1.00  0.00     0.016 A 
ATOM      8  C   UNL A   1      38.948  25.914  29.292  1.00  0.00     0.016 A 
ATOM      9  C   UNL A   1      40.409  28.283  29.073  1.00  0.00     0.010 A 
ATOM     10  C   UNL A   1      38.981  26.822  30.355  1.00  0.00     0.010 A 
ATOM     11  C   UNL A   1      39.746  27.995  30.252  1.00  0.00    -0.014 A 
BRANCH  11  12
ATOM     12  C   UNL A   1      39.932  28.950  31.353  1.00  0.00     0.031 A 
ATOM     13  C   UNL A   1      41.153  28.821  32.199  1.00  0.00     0.074 A 
ATOM     14  C   UNL A   1      39.075  29.985  31.468  1.00  0.00     0.049 A 
ATOM     15  N   UNL A   1      41.443  29.428  33.312  1.00  0.00    -0.248 NA
ATOM     16  C   UNL A   1      42.184  27.877  31.735  1.00  0.00     0.031 C 
ATOM     17  C   UNL A   1      37.946  30.262  30.565  1.00  0.00     0.029 A 
ATOM     18  N   UNL A   1      39.035  31.021  32.357  1.00  0.00    -0.354 N 
ATOM     19  C   UNL A   1      42.652  28.886  33.725  1.00  0.00     0.074 A 
ATOM     20  C   UNL A   1      43.053  27.914  32.733  1.00  0.00     0.031 C 
ATOM     21  C   UNL A   1      37.364  31.416  30.918  1.00  0.00     0.029 A 
ATOM     22  C   UNL A   1      37.980  31.879  32.148  1.00  0.00     0.049 A 
ATOM     23  H   UNL A   1      39.696  31.142  33.078  1.00  0.00     0.167 HD
ATOM     24  C   UNL A   1      43.335  29.175  34.854  1.00  0.00     0.037 A 
ATOM     25  C   UNL A   1      37.521  32.882  32.917  1.00  0.00     0.037 A 
ATOM     26  C   UNL A   1      42.885  30.172  35.787  1.00  0.00     0.049 A 
ATOM     27  C   UNL A   1      38.245  33.126  34.208  1.00  0.00     0.074 A 
ATOM     28  C   UNL A   1      43.427  30.529  37.005  1.00  0.00     0.029 A 
ATOM     29  N   UNL A   1      41.772  30.984  35.585  1.00  0.00    -0.354 N 
ATOM     30  N   UNL A   1      39.321  32.527  34.669  1.00  0.00    -0.248 NA
ATOM     31  C   UNL A   1      37.691  34.149  35.096  1.00  0.00     0.031 C 
ATOM     32  C   UNL A   1      42.617  31.527  37.558  1.00  0.00     0.029 A 
ATOM     33  C   UNL A   1      41.602  31.834  36.659  1.00  0.00     0.049 A 
ATOM     34  H   UNL A   1      41.191  30.957  34.790  1.00  0.00     0.167 HD
ATOM     35  C   UNL A   1      39.582  33.108  35.900  1.00  0.00     0.074 A 
ATOM     36  C   UNL A   1      38.559  34.120  36.098  1.00  0.00     0.031 C 
ATOM     37  C   UNL A   1      40.567  32.834  36.790  1.00  0.00     0.037 A 
BRANCH  24  38
ATOM     38  C   UNL A   1      44.546  28.340  35.158  1.00  0.00     0.058 A 
ATOM     39  C   UNL A   1      45.848  28.759  34.842  1.00  0.00     0.135 A 
ATOM     40  C   UNL A   1      44.390  27.065  35.727  1.00  0.00     0.135 A 
ATOM     41  F   UNL A   1      46.053  29.951  34.260  1.00  0.00    -0.206 F 
ATOM     42  C   UNL A   1      46.949  27.931  35.050  1.00  0.00     0.059 A 
ATOM     43  C   UNL A   1      45.479  26.232  35.968  1.00  0.00     0.059 A 
ATOM     44  F   UNL A   1      43.166  26.605  36.028  1.00  0.00    -0.206 F 
ATOM     45  C   UNL A   1      46.752  26.667  35.610  1.00  0.00     0.060 A 
BRANCH  45  46
ATOM     46  S   UNL A   1      48.185  25.596  35.852  1.00  0.00     0.124 S 
ATOM     47  O   UNL A   1      47.820  24.892  37.079  1.00  0.00    -0.237 OA
ATOM     48  O   UNL A   1      48.182  24.792  34.635  1.00  0.00    -0.237 OA
ATOM     49  O   UNL A   1      49.295  26.536  35.976  1.00  0.00    -0.744 OA
ENDBRANCH  45  46
ENDBRANCH  24  38
BRANCH  25  50
ATOM     50  C   UNL A   1      36.294  33.633  32.529  1.00  0.00     0.058 A 
ATOM     51  C   UNL A   1      35.121  33.556  33.292  1.00  0.00     0.135 A 
ATOM     52  C   UNL A   1      36.276  34.470  31.398  1.00  0.00     0.135 A 
ATOM     53  F   UNL A   1      35.081  32.774  34.381  1.00  0.00    -0.206 F 
ATOM     54  C   UNL A   1      33.974  34.265  32.942  1.00  0.00     0.059 A 
ATOM     55  C   UNL A   1      35.155  35.212  31.047  1.00  0.00     0.059 A 
ATOM     56  F   UNL A   1      37.375  34.596  30.636  1.00  0.00    -0.206 F 
ATOM     57  C   UNL A   1      34.002  35.093  31.818  1.00  0.00     0.060 A 
BRANCH  57  58
ATOM     58  S   UNL A   1      32.518  36.029  31.391  1.00  0.00     0.124 S 
ATOM     59  O   UNL A   1      31.514  35.387  32.233  1.00  0.00    -0.237 OA
ATOM     60  O   UNL A   1      32.893  37.389  31.768  1.00  0.00    -0.237 OA
ATOM     61  O   UNL A   1      32.377  35.801  29.956  1.00  0.00    -0.744 OA
ENDBRANCH  57  58
ENDBRANCH  25  50
BRANCH  37  62
ATOM     62  C   UNL A   1      40.603  33.680  38.025  1.00  0.00     0.058 A 
ATOM     63  C   UNL A   1      41.430  34.807  38.121  1.00  0.00     0.135 A 
ATOM     64  C   UNL A   1      39.747  33.387  39.098  1.00  0.00     0.135 A 
ATOM     65  F   UNL A   1      42.274  35.115  37.122  1.00  0.00    -0.206 F 
ATOM     66  C   UNL A   1      41.419  35.613  39.251  1.00  0.00     0.059 A 
ATOM     67  C   UNL A   1      39.696  34.196  40.224  1.00  0.00     0.059 A 
ATOM     68  F   UNL A   1      38.932  32.320  39.042  1.00  0.00    -0.206 F 
ATOM     69  C   UNL A   1      40.543  35.302  40.293  1.00  0.00     0.060 A 
BRANCH  69  70
ATOM     70  S   UNL A   1      40.497  36.386  41.733  1.00  0.00     0.124 S 
ATOM     71  O   UNL A   1      41.503  35.773  42.593  1.00  0.00    -0.237 OA
ATOM     72  O   UNL A   1      40.856  37.680  41.158  1.00  0.00    -0.237 OA
ATOM     73  O   UNL A   1      39.118  36.275  42.198  1.00  0.00    -0.744 OA
ENDBRANCH  69  70
ENDBRANCH  37  62
ENDBRANCH  11  12
ENDBRANCH   4   6
ENDBRANCH   3   4
ENDBRANCH   2   3
ENDBRANCH   1   2
BRANCH   1  74
ATOM     74  O   UNL A   1      36.194  22.281  25.463  1.00  0.00    -0.374 OA
BRANCH  74  75
ATOM     75  C   UNL A   1      34.929  22.776  25.035  1.00  0.00     0.202 C 
BRANCH  75  76
ATOM     76  C   UNL A   1      35.081  23.466  23.684  1.00  0.00     0.261 C 
BRANCH  76  77
ATOM     77  O   UNL A   1      34.225  24.627  23.647  1.00  0.00    -0.462 OA
BRANCH  77  78
ATOM     78  C   UNL A   1      33.190  24.543  22.754  1.00  0.00     0.328 C 
ATOM     79  O   UNL A   1      33.322  24.207  21.581  1.00  0.00    -0.250 OA
BRANCH  78  80
ATOM     80  C   UNL A   1      31.849  24.970  23.392  1.00  0.00     0.193 C 
ATOM     81  C   UNL A   1      30.899  23.773  23.402  1.00  0.00     0.037 C 
ATOM     82  N   UNL A   1      31.988  25.581  24.751  1.00  0.00    -0.343 N 
ATOM     83  C   UNL A   1      31.224  22.821  24.543  1.00  0.00     0.005 C 
ATOM     84  C   UNL A   1      31.741  24.846  25.998  1.00  0.00     0.119 C 
ATOM     85  C   UNL A   1      30.978  23.537  25.854  1.00  0.00     0.022 C 
BRANCH  82  86
ATOM     86  C   UNL A   1      31.764  26.951  24.844  1.00  0.00     0.134 A 
ATOM     87  C   UNL A   1      30.798  27.599  24.089  1.00  0.00     0.076 A 
ATOM     88  N   UNL A   1      32.581  27.636  25.640  1.00  0.00    -0.211 NA
ATOM     89  C   UNL A   1      30.694  28.975  24.215  1.00  0.00     0.076 A 
ATOM     90  C   UNL A   1      32.435  28.965  25.682  1.00  0.00     0.162 A 
ATOM     91  N   UNL A   1      31.523  29.678  25.010  1.00  0.00    -0.228 NA
BRANCH  89  92
ATOM     92  C   UNL A   1      29.684  29.780  23.501  1.00  0.00     0.000 A 
ATOM     93  C   UNL A   1      29.043  29.268  22.357  1.00  0.00     0.010 A 
ATOM     94  C   UNL A   1      29.369  31.093  23.892  1.00  0.00     0.010 A 
ATOM     95  C   UNL A   1      28.132  30.037  21.627  1.00  0.00     0.001 A 
ATOM     96  C   UNL A   1      28.466  31.869  23.154  1.00  0.00     0.001 A 
ATOM     97  C   UNL A   1      27.850  31.341  22.021  1.00  0.00     0.000 A 
ENDBRANCH  89  92
BRANCH  90  98
ATOM     98  C   UNL A   1      33.367  29.661  26.553  1.00  0.00     0.021 A 
ATOM     99  C   UNL A   1      33.004  30.886  27.144  1.00  0.00     0.012 A 
ATOM    100  C   UNL A   1      34.668  29.176  26.741  1.00  0.00     0.032 A 
ATOM    101  C   UNL A   1      33.921  31.617  27.895  1.00  0.00     0.002 A 
ATOM    102  C   UNL A   1      35.587  29.920  27.476  1.00  0.00     0.041 A 
ATOM    103  C   UNL A   1      35.219  31.137  28.053  1.00  0.00     0.020 A 
ATOM    104  Cl  UNL A   1      37.201  29.349  27.646  1.00  0.00    -0.084 Cl
ENDBRANCH  90  98
ENDBRANCH  82  86
ENDBRANCH  78  80
ENDBRANCH  77  78
ENDBRANCH  76  77
ENDBRANCH  75  76
ENDBRANCH  74  75
ENDBRANCH   1  74
TORSDOF 20
ENDMDL
MODEL 3
REMARK VINA RESULT:     -11.6      3.584      9.197
REMARK SMILES O=C(OCCOCCOC(=O)[C@H]1CCCCN1c1cc(-c2ccccc2)nc(-c2cccc(Cl)c2)n1)c1ccc(-c2c3nc(c(-c4c(F)cc(S(=O)(=O)[O-])cc4F)c4ccc([nH]4)c(-c4c(F)cc(S(=O)(=O)[O-])cc4F)c4nc(c(-c5c(F)cc(S(=O)(=O)[O-])cc5F)c5ccc2[nH]5)C=C4)C=C3)cc1
REMARK SMILES IDX 5 1 4 2 3 3 2 4 1 5 37 6 38 7 102 8 39 9 101 10 40 11 41 12
REMARK SMILES IDX 42 13 95 14 43 15 100 16 94 17 96 18 44 19 99 20 93 21 92 22
REMARK SMILES IDX 45 24 79 25 58 26 78 27 59 28 62 29 77 30 97 31 60 32 61 33
REMARK SMILES IDX 76 35 98 36 63 37 46 38 47 39 56 40 48 41 49 42 55 43 57 44
REMARK SMILES IDX 50 45 51 46 52 47 53 48 54 49 80 50 81 51 90 52 82 53 83 54
REMARK SMILES IDX 89 55 91 56 84 57 85 58 86 59 87 60 88 61 64 62 65 63 74 64
REMARK SMILES IDX 66 65 67 66 73 67 75 68 68 69 69 70 70 71 71 72 72 73 6 74
REMARK SMILES IDX 7 75 8 76 9 77 10 78 11 79 12 80 13 81 17 82 14 83 16 84
REMARK SMILES IDX 15 85 18 86 19 87 36 88 20 89 28 90 27 91 21 92 22 93 26 94
REMARK SMILES IDX 23 95 25 96 24 97 29 98 30 99 35 100 31 101 33 102 32 103
REMARK SMILES IDX 34 104
REMARK H PARENT 96 23 62 34
REMARK Flexibility Score: inf
ROOT
ATOM      1  C   UNL A   1      34.047  30.197  27.072  1.00  0.00     0.202 C 
ENDROOT
BRANCH   1   2
ATOM      2  C   UNL A   1      34.407  31.231  28.142  1.00  0.00     0.261 C 
BRANCH   2   3
ATOM      3  O   UNL A   1      35.829  31.232  28.384  1.00  0.00    -0.460 OA
BRANCH   3   4
ATOM      4  C   UNL A   1      36.496  30.400  29.233  1.00  0.00     0.338 C 
ATOM      5  O   UNL A   1      35.899  29.779  30.097  1.00  0.00    -0.246 OA
BRANCH   4   6
ATOM      6  C   UNL A   1      37.950  30.188  29.038  1.00  0.00     0.060 A 
ATOM      7  C   UNL A   1      38.460  29.845  27.796  1.00  0.00     0.016 A 
ATOM      8  C   UNL A   1      38.830  30.319  30.110  1.00  0.00     0.016 A 
ATOM      9  C   UNL A   1      39.731  29.363  27.647  1.00  0.00     0.010 A 
ATOM     10  C   UNL A   1      40.185  30.033  29.918  1.00  0.00     0.010 A 
ATOM     11  C   UNL A   1      40.627  29.518  28.688  1.00  0.00    -0.014 A 
BRANCH  11  12
ATOM     12  C   UNL A   1      42.006  29.083  28.431  1.00  0.00     0.031 A 
ATOM     13  C   UNL A   1      43.101  30.080  28.598  1.00  0.00     0.074 A 
ATOM     14  C   UNL A   1      42.243  27.776  28.196  1.00  0.00     0.049 A 
ATOM     15  N   UNL A   1      44.356  29.979  28.268  1.00  0.00    -0.248 NA
ATOM     16  C   UNL A   1      42.737  31.369  29.212  1.00  0.00     0.031 C 
ATOM     17  C   UNL A   1      41.224  26.713  28.182  1.00  0.00     0.029 A 
ATOM     18  N   UNL A   1      43.410  27.104  27.967  1.00  0.00    -0.354 N 
ATOM     19  C   UNL A   1      44.916  31.214  28.561  1.00  0.00     0.074 A 
ATOM     20  C   UNL A   1      43.871  32.045  29.113  1.00  0.00     0.031 C 
ATOM     21  C   UNL A   1      41.820  25.526  28.010  1.00  0.00     0.029 A 
ATOM     22  C   UNL A   1      43.231  25.756  27.756  1.00  0.00     0.049 A 
ATOM     23  H   UNL A   1      44.292  27.541  27.954  1.00  0.00     0.167 HD
ATOM     24  C   UNL A   1      46.193  31.603  28.352  1.00  0.00     0.037 A 
ATOM     25  C   UNL A   1      44.104  24.829  27.326  1.00  0.00     0.037 A 
ATOM     26  C   UNL A   1      47.187  30.712  27.816  1.00  0.00     0.049 A 
ATOM     27  C   UNL A   1      45.493  25.304  27.019  1.00  0.00     0.074 A 
ATOM     28  C   UNL A   1      48.500  30.975  27.483  1.00  0.00     0.029 A 
ATOM     29  N   UNL A   1      46.962  29.364  27.545  1.00  0.00    -0.354 N 
ATOM     30  N   UNL A   1      45.999  26.507  27.172  1.00  0.00    -0.248 NA
ATOM     31  C   UNL A   1      46.420  24.321  26.456  1.00  0.00     0.031 C 
ATOM     32  C   UNL A   1      49.056  29.797  26.971  1.00  0.00     0.029 A 
ATOM     33  C   UNL A   1      48.108  28.783  27.039  1.00  0.00     0.049 A 
ATOM     34  H   UNL A   1      46.110  28.893  27.695  1.00  0.00     0.167 HD
ATOM     35  C   UNL A   1      47.312  26.427  26.736  1.00  0.00     0.074 A 
ATOM     36  C   UNL A   1      47.523  25.048  26.331  1.00  0.00     0.031 C 
ATOM     37  C   UNL A   1      48.258  27.396  26.666  1.00  0.00     0.037 A 
BRANCH  24  38
ATOM     38  C   UNL A   1      46.523  33.045  28.608  1.00  0.00     0.058 A 
ATOM     39  C   UNL A   1      46.384  34.036  27.623  1.00  0.00     0.135 A 
ATOM     40  C   UNL A   1      47.045  33.432  29.853  1.00  0.00     0.135 A 
ATOM     41  F   UNL A   1      45.929  33.716  26.401  1.00  0.00    -0.206 F 
ATOM     42  C   UNL A   1      46.781  35.351  27.853  1.00  0.00     0.059 A 
ATOM     43  C   UNL A   1      47.422  34.746  30.114  1.00  0.00     0.059 A 
ATOM     44  F   UNL A   1      47.219  32.522  30.825  1.00  0.00    -0.206 F 
ATOM     45  C   UNL A   1      47.303  35.695  29.102  1.00  0.00     0.060 A 
BRANCH  45  46
ATOM     46  S   UNL A   1      47.834  37.398  29.378  1.00  0.00     0.124 S 
ATOM     47  O   UNL A   1      49.283  37.239  29.475  1.00  0.00    -0.237 OA
ATOM     48  O   UNL A   1      47.350  38.073  28.179  1.00  0.00    -0.237 OA
ATOM     49  O   UNL A   1      47.160  37.768  30.618  1.00  0.00    -0.744 OA
ENDBRANCH  45  46
ENDBRANCH  24  38
BRANCH  25  50
ATOM     50  C   UNL A   1      43.662  23.427  27.084  1.00  0.00     0.058 A 
ATOM     51  C   UNL A   1      43.460  22.533  28.144  1.00  0.00     0.135 A 
ATOM     52  C   UNL A   1      43.403  22.957  25.783  1.00  0.00     0.135 A 
ATOM     53  F   UNL A   1      43.691  22.927  29.405  1.00  0.00    -0.206 F 
ATOM     54  C   UNL A   1      43.036  21.225  27.926  1.00  0.00     0.059 A 
ATOM     55  C   UNL A   1      42.948  21.665  25.542  1.00  0.00     0.059 A 
ATOM     56  F   UNL A   1      43.564  23.771  24.727  1.00  0.00    -0.206 F 
ATOM     57  C   UNL A   1      42.779  20.801  26.620  1.00  0.00     0.060 A 
BRANCH  57  58
ATOM     58  S   UNL A   1      42.202  19.111  26.352  1.00  0.00     0.124 S 
ATOM     59  O   UNL A   1      43.308  18.541  25.591  1.00  0.00    -0.237 OA
ATOM     60  O   UNL A   1      42.045  18.619  27.718  1.00  0.00    -0.237 OA
ATOM     61  O   UNL A   1      40.956  19.294  25.614  1.00  0.00    -0.744 OA
ENDBRANCH  57  58
ENDBRANCH  25  50
BRANCH  37  62
ATOM     62  C   UNL A   1      49.611  26.973  26.183  1.00  0.00     0.058 A 
ATOM     63  C   UNL A   1      50.574  26.450  27.056  1.00  0.00     0.135 A 
ATOM     64  C   UNL A   1      49.914  27.035  24.814  1.00  0.00     0.135 A 
ATOM     65  F   UNL A   1      50.328  26.386  28.375  1.00  0.00    -0.206 F 
ATOM     66  C   UNL A   1      51.807  26.016  26.589  1.00  0.00     0.059 A 
ATOM     67  C   UNL A   1      51.127  26.577  24.321  1.00  0.00     0.059 A 
ATOM     68  F   UNL A   1      49.015  27.521  23.943  1.00  0.00    -0.206 F 
ATOM     69  C   UNL A   1      52.070  26.076  25.219  1.00  0.00     0.060 A 
BRANCH  69  70
ATOM     70  S   UNL A   1      53.652  25.458  24.617  1.00  0.00     0.124 S 
ATOM     71  O   UNL A   1      53.588  24.056  25.014  1.00  0.00    -0.237 OA
ATOM     72  O   UNL A   1      53.562  25.716  23.183  1.00  0.00    -0.237 OA
ATOM     73  O   UNL A   1      54.629  26.271  25.334  1.00  0.00    -0.744 OA
ENDBRANCH  69  70
ENDBRANCH  37  62
ENDBRANCH  11  12
ENDBRANCH   4   6
ENDBRANCH   3   4
ENDBRANCH   2   3
ENDBRANCH   1   2
BRANCH   1  74
ATOM     74  O   UNL A   1      34.287  28.832  27.382  1.00  0.00    -0.374 OA
BRANCH  74  75
ATOM     75  C   UNL A   1      33.643  27.885  26.535  1.00  0.00     0.202 C 
BRANCH  75  76
ATOM     76  C   UNL A   1      33.353  28.523  25.182  1.00  0.00     0.261 C 
BRANCH  76  77
ATOM     77  O   UNL A   1      32.515  27.637  24.411  1.00  0.00    -0.462 OA
BRANCH  77  78
ATOM     78  C   UNL A   1      33.144  26.508  23.957  1.00  0.00     0.328 C 
ATOM     79  O   UNL A   1      34.020  26.510  23.098  1.00  0.00    -0.250 OA
BRANCH  78  80
ATOM     80  C   UNL A   1      32.580  25.234  24.624  1.00  0.00     0.193 C 
ATOM     81  C   UNL A   1      31.113  25.470  24.987  1.00  0.00     0.037 C 
ATOM     82  N   UNL A   1      32.758  23.990  23.812  1.00  0.00    -0.343 N 
ATOM     83  C   UNL A   1      30.214  25.320  23.769  1.00  0.00     0.005 C 
ATOM     84  C   UNL A   1      31.692  23.396  22.995  1.00  0.00     0.119 C 
ATOM     85  C   UNL A   1      30.281  23.885  23.292  1.00  0.00     0.022 C 
BRANCH  82  86
ATOM     86  C   UNL A   1      33.698  23.074  24.275  1.00  0.00     0.134 A 
ATOM     87  C   UNL A   1      34.929  23.464  24.782  1.00  0.00     0.076 A 
ATOM     88  N   UNL A   1      33.394  21.786  24.136  1.00  0.00    -0.211 NA
ATOM     89  C   UNL A   1      35.815  22.470  25.164  1.00  0.00     0.076 A 
ATOM     90  C   UNL A   1      34.317  20.889  24.500  1.00  0.00     0.162 A 
ATOM     91  N   UNL A   1      35.521  21.164  25.017  1.00  0.00    -0.228 NA
BRANCH  89  92
ATOM     92  C   UNL A   1      37.138  22.748  25.755  1.00  0.00     0.000 A 
ATOM     93  C   UNL A   1      37.453  24.038  26.223  1.00  0.00     0.010 A 
ATOM     94  C   UNL A   1      38.144  21.767  25.819  1.00  0.00     0.010 A 
ATOM     95  C   UNL A   1      38.723  24.340  26.726  1.00  0.00     0.001 A 
ATOM     96  C   UNL A   1      39.419  22.072  26.311  1.00  0.00     0.001 A 
ATOM     97  C   UNL A   1      39.708  23.359  26.762  1.00  0.00     0.000 A 
ENDBRANCH  89  92
BRANCH  90  98
ATOM     98  C   UNL A   1      33.937  19.500  24.306  1.00  0.00     0.021 A 
ATOM     99  C   UNL A   1      32.660  19.179  23.808  1.00  0.00     0.012 A 
ATOM    100  C   UNL A   1      34.792  18.463  24.699  1.00  0.00     0.032 A 
ATOM    101  C   UNL A   1      32.241  17.854  23.716  1.00  0.00     0.002 A 
ATOM    102  C   UNL A   1      34.361  17.141  24.624  1.00  0.00     0.041 A 
ATOM    103  C   UNL A   1      33.091  16.833  24.135  1.00  0.00     0.020 A 
ATOM    104  Cl  UNL A   1      35.394  15.879  25.172  1.00  0.00    -0.084 Cl
ENDBRANCH  90  98
ENDBRANCH  82  86
ENDBRANCH  78  80
ENDBRANCH  77  78
ENDBRANCH  76  77
ENDBRANCH  75  76
ENDBRANCH  74  75
ENDBRANCH   1  74
TORSDOF 20
ENDMDL
