MODEL 1
REMARK VINA RESULT:     -11.1      0.000      0.000
REMARK SMILES CC[C@H](C)[C@H](NC(=O)[C@H](C)Oc1ccc2c(C)c(C)c(=O)oc2c1C)C(=O)OCCOCCOC(=O)c1ccc(-c2c3nc(c(-c4c(F)cc(S(=O)(=O)[O-])cc4F)c4ccc([nH]4)c(-c4c(F)cc(S(=O)(=O)[O-])cc4F)c4nc(c(-c5c(F)cc(S(=O)(=O)[O-])cc5F)c5ccc2[nH]5)C=C4)C=C3)cc1
REMARK SMILES IDX 30 1 29 2 28 3 26 4 27 5 5 6 3 7 4 8 2 9 1 10 6 11 7 12 8 14
REMARK SMILES IDX 9 15 10 16 11 17 12 18 13 19 24 20 14 21 23 22 25 23 15 24
REMARK SMILES IDX 22 25 16 26 20 27 17 28 18 29 21 30 19 31 31 32 32 33 33 34
REMARK SMILES IDX 34 35 35 36 36 37 37 38 38 39 102 40 39 41 101 42 40 43
REMARK SMILES IDX 41 44 42 45 95 46 43 47 100 48 94 49 96 50 44 51 99 52 93 53
REMARK SMILES IDX 92 54 45 56 79 57 58 58 78 59 59 60 62 61 77 62 97 63 60 64
REMARK SMILES IDX 61 65 76 67 98 68 63 69 46 70 47 71 56 72 48 73 49 74 55 75
REMARK SMILES IDX 57 76 50 77 51 78 52 79 53 80 54 81 80 82 81 83 90 84 82 85
REMARK SMILES IDX 83 86 89 87 91 88 84 89 85 90 86 91 87 92 88 93 64 94 65 95
REMARK SMILES IDX 74 96 66 97 67 98 73 99 75 100 68 101 69 102 70 103 71 104
REMARK SMILES IDX 72 105
REMARK H PARENT 6 13 96 55 62 66
REMARK Flexibility Score: inf
ROOT
ATOM      1  C   UNL A   1      33.113  32.318  27.541  1.00  0.00     0.202 C 
ENDROOT
BRANCH   1   2
ATOM      2  C   UNL A   1      31.681  32.044  27.096  1.00  0.00     0.261 C 
BRANCH   2   3
ATOM      3  O   UNL A   1      31.697  31.069  26.037  1.00  0.00    -0.462 OA
BRANCH   3   4
ATOM      4  C   UNL A   1      31.806  29.779  26.414  1.00  0.00     0.328 C 
ATOM      5  O   UNL A   1      31.595  29.363  27.550  1.00  0.00    -0.250 OA
BRANCH   4   6
ATOM      6  C   UNL A   1      32.359  28.875  25.304  1.00  0.00     0.195 C 
BRANCH   6   7
ATOM      7  C   UNL A   1      33.797  28.319  25.555  1.00  0.00     0.019 C 
ATOM      8  C   UNL A   1      34.655  29.245  26.405  1.00  0.00     0.010 C 
BRANCH   7   9
ATOM      9  C   UNL A   1      33.887  26.862  26.063  1.00  0.00     0.002 C 
ATOM     10  C   UNL A   1      32.627  26.011  25.923  1.00  0.00     0.004 C 
ENDBRANCH   7   9
ENDBRANCH   6   7
BRANCH   6  11
ATOM     11  N   UNL A   1      32.111  29.154  23.867  1.00  0.00    -0.339 N 
ATOM     12  C   UNL A   1      31.032  29.028  23.039  1.00  0.00     0.261 C 
ATOM     13  H   UNL A   1      32.905  29.511  23.406  1.00  0.00     0.164 HD
ATOM     14  O   UNL A   1      30.873  29.970  22.252  1.00  0.00    -0.271 OA
BRANCH  12  15
ATOM     15  C   UNL A   1      30.215  27.717  22.897  1.00  0.00     0.258 C 
ATOM     16  C   UNL A   1      29.898  27.295  24.340  1.00  0.00     0.064 C 
BRANCH  15  17
ATOM     17  O   UNL A   1      30.594  26.683  21.976  1.00  0.00    -0.480 OA
BRANCH  17  18
ATOM     18  C   UNL A   1      31.107  25.506  22.444  1.00  0.00     0.127 A 
ATOM     19  C   UNL A   1      30.371  24.645  23.258  1.00  0.00     0.047 A 
ATOM     20  C   UNL A   1      32.347  25.054  21.987  1.00  0.00     0.035 A 
ATOM     21  C   UNL A   1      30.940  23.497  23.818  1.00  0.00     0.016 A 
ATOM     22  C   UNL A   1      32.958  23.983  22.669  1.00  0.00     0.145 A 
ATOM     23  C   UNL A   1      33.004  25.567  20.738  1.00  0.00     0.052 C 
ATOM     24  C   UNL A   1      32.280  23.197  23.595  1.00  0.00     0.021 A 
ATOM     25  O   UNL A   1      34.323  23.764  22.415  1.00  0.00    -0.422 OA
ATOM     26  C   UNL A   1      32.993  22.097  24.259  1.00  0.00    -0.030 A 
ATOM     27  C   UNL A   1      35.074  23.053  23.335  1.00  0.00     0.339 A 
ATOM     28  C   UNL A   1      32.177  21.093  25.028  1.00  0.00     0.045 C 
ATOM     29  C   UNL A   1      34.338  22.058  24.164  1.00  0.00     0.038 A 
ATOM     30  O   UNL A   1      36.288  23.211  23.421  1.00  0.00    -0.246 OA
ATOM     31  C   UNL A   1      35.191  21.051  24.879  1.00  0.00     0.052 C 
ENDBRANCH  17  18
ENDBRANCH  15  17
ENDBRANCH  12  15
ENDBRANCH   6  11
ENDBRANCH   4   6
ENDBRANCH   3   4
ENDBRANCH   2   3
ENDBRANCH   1   2
BRANCH   1  32
ATOM     32  O   UNL A   1      33.314  33.661  27.983  1.00  0.00    -0.374 OA
BRANCH  32  33
ATOM     33  C   UNL A   1      34.588  33.938  28.568  1.00  0.00     0.202 C 
BRANCH  33  34
ATOM     34  C   UNL A   1      35.716  33.006  28.102  1.00  0.00     0.261 C 
BRANCH  34  35
ATOM     35  O   UNL A   1      36.727  32.841  29.114  1.00  0.00    -0.460 OA
BRANCH  35  36
ATOM     36  C   UNL A   1      36.676  31.676  29.813  1.00  0.00     0.338 C 
ATOM     37  O   UNL A   1      35.747  31.255  30.473  1.00  0.00    -0.246 OA
BRANCH  36  38
ATOM     38  C   UNL A   1      37.871  30.869  29.477  1.00  0.00     0.060 A 
ATOM     39  C   UNL A   1      38.881  30.743  30.438  1.00  0.00     0.016 A 
ATOM     40  C   UNL A   1      38.002  30.250  28.233  1.00  0.00     0.016 A 
ATOM     41  C   UNL A   1      40.038  30.017  30.147  1.00  0.00     0.010 A 
ATOM     42  C   UNL A   1      39.146  29.497  27.955  1.00  0.00     0.010 A 
ATOM     43  C   UNL A   1      40.194  29.417  28.891  1.00  0.00    -0.014 A 
BRANCH  43  44
ATOM     44  C   UNL A   1      41.537  28.949  28.454  1.00  0.00     0.031 A 
ATOM     45  C   UNL A   1      42.665  29.952  28.470  1.00  0.00     0.074 A 
ATOM     46  C   UNL A   1      41.781  27.676  28.091  1.00  0.00     0.049 A 
ATOM     47  N   UNL A   1      43.910  29.812  28.102  1.00  0.00    -0.248 NA
ATOM     48  C   UNL A   1      42.330  31.306  28.948  1.00  0.00     0.031 C 
ATOM     49  C   UNL A   1      40.799  26.594  28.048  1.00  0.00     0.029 A 
ATOM     50  N   UNL A   1      42.955  27.079  27.695  1.00  0.00    -0.354 N 
ATOM     51  C   UNL A   1      44.498  31.058  28.289  1.00  0.00     0.074 A 
ATOM     52  C   UNL A   1      43.461  31.958  28.736  1.00  0.00     0.031 C 
ATOM     53  C   UNL A   1      41.416  25.460  27.668  1.00  0.00     0.029 A 
ATOM     54  C   UNL A   1      42.832  25.736  27.421  1.00  0.00     0.049 A 
ATOM     55  H   UNL A   1      43.807  27.567  27.615  1.00  0.00     0.167 HD
ATOM     56  C   UNL A   1      45.793  31.421  28.147  1.00  0.00     0.037 A 
ATOM     57  C   UNL A   1      43.758  24.838  27.027  1.00  0.00     0.037 A 
ATOM     58  C   UNL A   1      46.845  30.528  27.755  1.00  0.00     0.049 A 
ATOM     59  C   UNL A   1      45.192  25.272  26.835  1.00  0.00     0.074 A 
ATOM     60  C   UNL A   1      48.193  30.802  27.607  1.00  0.00     0.029 A 
ATOM     61  N   UNL A   1      46.671  29.184  27.467  1.00  0.00    -0.354 N 
ATOM     62  N   UNL A   1      45.732  26.452  27.025  1.00  0.00    -0.248 NA
ATOM     63  C   UNL A   1      46.144  24.248  26.374  1.00  0.00     0.031 C 
ATOM     64  C   UNL A   1      48.831  29.627  27.199  1.00  0.00     0.029 A 
ATOM     65  C   UNL A   1      47.885  28.616  27.130  1.00  0.00     0.049 A 
ATOM     66  H   UNL A   1      45.810  28.707  27.497  1.00  0.00     0.167 HD
ATOM     67  C   UNL A   1      47.086  26.304  26.735  1.00  0.00     0.074 A 
ATOM     68  C   UNL A   1      47.287  24.920  26.362  1.00  0.00     0.031 C 
ATOM     69  C   UNL A   1      48.074  27.232  26.776  1.00  0.00     0.037 A 
BRANCH  56  70
ATOM     70  C   UNL A   1      46.134  32.854  28.438  1.00  0.00     0.058 A 
ATOM     71  C   UNL A   1      46.429  33.285  29.741  1.00  0.00     0.135 A 
ATOM     72  C   UNL A   1      46.153  33.806  27.407  1.00  0.00     0.135 A 
ATOM     73  F   UNL A   1      46.395  32.417  30.764  1.00  0.00    -0.206 F 
ATOM     74  C   UNL A   1      46.695  34.620  30.020  1.00  0.00     0.059 A 
ATOM     75  C   UNL A   1      46.445  35.142  27.658  1.00  0.00     0.059 A 
ATOM     76  F   UNL A   1      45.870  33.443  26.146  1.00  0.00    -0.206 F 
ATOM     77  C   UNL A   1      46.698  35.541  28.971  1.00  0.00     0.060 A 
BRANCH  77  78
ATOM     78  S   UNL A   1      47.031  37.273  29.352  1.00  0.00     0.124 S 
ATOM     79  O   UNL A   1      48.090  37.581  28.396  1.00  0.00    -0.237 OA
ATOM     80  O   UNL A   1      45.740  37.903  29.091  1.00  0.00    -0.237 OA
ATOM     81  O   UNL A   1      47.439  37.240  30.753  1.00  0.00    -0.744 OA
ENDBRANCH  77  78
ENDBRANCH  56  70
BRANCH  57  82
ATOM     82  C   UNL A   1      43.376  23.416  26.813  1.00  0.00     0.058 A 
ATOM     83  C   UNL A   1      43.186  22.554  27.903  1.00  0.00     0.135 A 
ATOM     84  C   UNL A   1      43.215  22.885  25.524  1.00  0.00     0.135 A 
ATOM     85  F   UNL A   1      43.344  23.012  29.155  1.00  0.00    -0.206 F 
ATOM     86  C   UNL A   1      42.864  21.212  27.726  1.00  0.00     0.059 A 
ATOM     87  C   UNL A   1      42.873  21.551  25.321  1.00  0.00     0.059 A 
ATOM     88  F   UNL A   1      43.383  23.670  24.447  1.00  0.00    -0.206 F 
ATOM     89  C   UNL A   1      42.708  20.720  26.429  1.00  0.00     0.060 A 
BRANCH  89  90
ATOM     90  S   UNL A   1      42.255  18.985  26.217  1.00  0.00     0.124 S 
ATOM     91  O   UNL A   1      43.257  18.534  25.259  1.00  0.00    -0.237 OA
ATOM     92  O   UNL A   1      42.391  18.467  27.574  1.00  0.00    -0.237 OA
ATOM     93  O   UNL A   1      40.887  19.056  25.713  1.00  0.00    -0.744 OA
ENDBRANCH  89  90
ENDBRANCH  57  82
BRANCH  69  94
ATOM     94  C   UNL A   1      49.473  26.797  26.435  1.00  0.00     0.058 A 
ATOM     95  C   UNL A   1      50.304  26.191  27.388  1.00  0.00     0.135 A 
ATOM     96  C   UNL A   1      49.942  26.883  25.113  1.00  0.00     0.135 A 
ATOM     97  F   UNL A   1      49.903  26.085  28.665  1.00  0.00    -0.206 F 
ATOM     98  C   UNL A   1      51.555  25.688  27.045  1.00  0.00     0.059 A 
ATOM     99  C   UNL A   1      51.180  26.367  24.743  1.00  0.00     0.059 A 
ATOM    100  F   UNL A   1      49.179  27.442  24.161  1.00  0.00    -0.206 F 
ATOM    101  C   UNL A   1      51.981  25.772  25.717  1.00  0.00     0.060 A 
BRANCH 101 102
ATOM    102  S   UNL A   1      53.576  25.051  25.273  1.00  0.00     0.124 S 
ATOM    103  O   UNL A   1      54.431  25.541  26.349  1.00  0.00    -0.237 OA
ATOM    104  O   UNL A   1      53.288  23.620  25.296  1.00  0.00    -0.237 OA
ATOM    105  O   UNL A   1      53.846  25.608  23.951  1.00  0.00    -0.744 OA
ENDBRANCH 101 102
ENDBRANCH  69  94
ENDBRANCH  43  44
ENDBRANCH  36  38
ENDBRANCH  35  36
ENDBRANCH  34  35
ENDBRANCH  33  34
ENDBRANCH  32  33
ENDBRANCH   1  32
TORSDOF 23
ENDMDL
MODEL 2
REMARK VINA RESULT:     -10.7      1.628      2.674
REMARK SMILES CC[C@H](C)[C@H](NC(=O)[C@H](C)Oc1ccc2c(C)c(C)c(=O)oc2c1C)C(=O)OCCOCCOC(=O)c1ccc(-c2c3nc(c(-c4c(F)cc(S(=O)(=O)[O-])cc4F)c4ccc([nH]4)c(-c4c(F)cc(S(=O)(=O)[O-])cc4F)c4nc(c(-c5c(F)cc(S(=O)(=O)[O-])cc5F)c5ccc2[nH]5)C=C4)C=C3)cc1
REMARK SMILES IDX 30 1 29 2 28 3 26 4 27 5 5 6 3 7 4 8 2 9 1 10 6 11 7 12 8 14
REMARK SMILES IDX 9 15 10 16 11 17 12 18 13 19 24 20 14 21 23 22 25 23 15 24
REMARK SMILES IDX 22 25 16 26 20 27 17 28 18 29 21 30 19 31 31 32 32 33 33 34
REMARK SMILES IDX 34 35 35 36 36 37 37 38 38 39 102 40 39 41 101 42 40 43
REMARK SMILES IDX 41 44 42 45 95 46 43 47 100 48 94 49 96 50 44 51 99 52 93 53
REMARK SMILES IDX 92 54 45 56 79 57 58 58 78 59 59 60 62 61 77 62 97 63 60 64
REMARK SMILES IDX 61 65 76 67 98 68 63 69 46 70 47 71 56 72 48 73 49 74 55 75
REMARK SMILES IDX 57 76 50 77 51 78 52 79 53 80 54 81 80 82 81 83 90 84 82 85
REMARK SMILES IDX 83 86 89 87 91 88 84 89 85 90 86 91 87 92 88 93 64 94 65 95
REMARK SMILES IDX 74 96 66 97 67 98 73 99 75 100 68 101 69 102 70 103 71 104
REMARK SMILES IDX 72 105
REMARK H PARENT 6 13 96 55 62 66
REMARK Flexibility Score: inf
ROOT
ATOM      1  C   UNL A   1      34.343  29.402  27.299  1.00  0.00     0.202 C 
ENDROOT
BRANCH   1   2
ATOM      2  C   UNL A   1      33.015  30.046  26.921  1.00  0.00     0.261 C 
BRANCH   2   3
ATOM      3  O   UNL A   1      32.312  29.176  26.014  1.00  0.00    -0.462 OA
BRANCH   3   4
ATOM      4  C   UNL A   1      31.549  29.778  25.079  1.00  0.00     0.328 C 
ATOM      5  O   UNL A   1      30.689  30.621  25.316  1.00  0.00    -0.250 OA
BRANCH   4   6
ATOM      6  C   UNL A   1      31.763  29.204  23.672  1.00  0.00     0.195 C 
BRANCH   6   7
ATOM      7  C   UNL A   1      30.687  28.173  23.204  1.00  0.00     0.019 C 
ATOM      8  C   UNL A   1      30.193  27.274  24.329  1.00  0.00     0.010 C 
BRANCH   7   9
ATOM      9  C   UNL A   1      29.502  28.742  22.392  1.00  0.00     0.002 C 
ATOM     10  C   UNL A   1      28.133  28.710  23.068  1.00  0.00     0.004 C 
ENDBRANCH   7   9
ENDBRANCH   6   7
BRANCH   6  11
ATOM     11  N   UNL A   1      33.115  28.874  23.155  1.00  0.00    -0.339 N 
ATOM     12  C   UNL A   1      33.629  27.861  22.396  1.00  0.00     0.261 C 
ATOM     13  H   UNL A   1      33.795  29.534  23.420  1.00  0.00     0.164 HD
ATOM     14  O   UNL A   1      34.452  28.222  21.544  1.00  0.00    -0.271 OA
BRANCH  12  15
ATOM     15  C   UNL A   1      33.417  26.359  22.721  1.00  0.00     0.258 C 
ATOM     16  C   UNL A   1      32.334  25.895  21.734  1.00  0.00     0.064 C 
BRANCH  15  17
ATOM     17  O   UNL A   1      33.328  25.879  24.070  1.00  0.00    -0.480 OA
BRANCH  17  18
ATOM     18  C   UNL A   1      33.800  24.635  24.386  1.00  0.00     0.127 A 
ATOM     19  C   UNL A   1      35.153  24.390  24.618  1.00  0.00     0.047 A 
ATOM     20  C   UNL A   1      32.906  23.593  24.638  1.00  0.00     0.035 A 
ATOM     21  C   UNL A   1      35.639  23.097  24.835  1.00  0.00     0.016 A 
ATOM     22  C   UNL A   1      33.415  22.281  24.707  1.00  0.00     0.145 A 
ATOM     23  C   UNL A   1      31.455  23.808  24.958  1.00  0.00     0.052 C 
ATOM     24  C   UNL A   1      34.776  22.007  24.796  1.00  0.00     0.021 A 
ATOM     25  O   UNL A   1      32.483  21.232  24.629  1.00  0.00    -0.422 OA
ATOM     26  C   UNL A   1      35.221  20.608  24.867  1.00  0.00    -0.030 A 
ATOM     27  C   UNL A   1      32.916  19.972  24.253  1.00  0.00     0.339 A 
ATOM     28  C   UNL A   1      36.654  20.345  25.249  1.00  0.00     0.045 C 
ATOM     29  C   UNL A   1      34.333  19.639  24.565  1.00  0.00     0.038 A 
ATOM     30  O   UNL A   1      32.150  19.166  23.734  1.00  0.00    -0.246 OA
ATOM     31  C   UNL A   1      34.688  18.182  24.498  1.00  0.00     0.052 C 
ENDBRANCH  17  18
ENDBRANCH  15  17
ENDBRANCH  12  15
ENDBRANCH   6  11
ENDBRANCH   4   6
ENDBRANCH   3   4
ENDBRANCH   2   3
ENDBRANCH   1   2
BRANCH   1  32
ATOM     32  O   UNL A   1      35.223  30.294  27.983  1.00  0.00    -0.374 OA
BRANCH  32  33
ATOM     33  C   UNL A   1      36.382  29.697  28.569  1.00  0.00     0.202 C 
BRANCH  33  34
ATOM     34  C   UNL A   1      36.345  29.612  30.101  1.00  0.00     0.261 C 
BRANCH  34  35
ATOM     35  O   UNL A   1      36.541  30.900  30.714  1.00  0.00    -0.460 OA
BRANCH  35  36
ATOM     36  C   UNL A   1      37.377  30.921  31.786  1.00  0.00     0.338 C 
ATOM     37  O   UNL A   1      37.067  30.991  32.958  1.00  0.00    -0.246 OA
BRANCH  36  38
ATOM     38  C   UNL A   1      38.752  30.627  31.321  1.00  0.00     0.060 A 
ATOM     39  C   UNL A   1      39.220  31.279  30.174  1.00  0.00     0.016 A 
ATOM     40  C   UNL A   1      39.568  29.719  31.997  1.00  0.00     0.016 A 
ATOM     41  C   UNL A   1      40.499  31.004  29.684  1.00  0.00     0.010 A 
ATOM     42  C   UNL A   1      40.860  29.469  31.525  1.00  0.00     0.010 A 
ATOM     43  C   UNL A   1      41.316  30.071  30.337  1.00  0.00    -0.014 A 
BRANCH  43  44
ATOM     44  C   UNL A   1      42.513  29.522  29.646  1.00  0.00     0.031 A 
ATOM     45  C   UNL A   1      43.745  30.391  29.586  1.00  0.00     0.074 A 
ATOM     46  C   UNL A   1      42.545  28.283  29.121  1.00  0.00     0.049 A 
ATOM     47  N   UNL A   1      44.897  30.166  29.012  1.00  0.00    -0.248 NA
ATOM     48  C   UNL A   1      43.652  31.705  30.247  1.00  0.00     0.031 C 
ATOM     49  C   UNL A   1      41.442  27.323  29.124  1.00  0.00     0.029 A 
ATOM     50  N   UNL A   1      43.566  27.617  28.485  1.00  0.00    -0.354 N 
ATOM     51  C   UNL A   1      45.654  31.312  29.231  1.00  0.00     0.074 A 
ATOM     52  C   UNL A   1      44.810  32.255  29.926  1.00  0.00     0.031 C 
ATOM     53  C   UNL A   1      41.853  26.184  28.536  1.00  0.00     0.029 A 
ATOM     54  C   UNL A   1      43.241  26.338  28.097  1.00  0.00     0.049 A 
ATOM     55  H   UNL A   1      44.450  28.019  28.320  1.00  0.00     0.167 HD
ATOM     56  C   UNL A   1      46.949  31.551  28.923  1.00  0.00     0.037 A 
ATOM     57  C   UNL A   1      43.983  25.401  27.471  1.00  0.00     0.037 A 
ATOM     58  C   UNL A   1      47.815  30.606  28.279  1.00  0.00     0.049 A 
ATOM     59  C   UNL A   1      45.415  25.701  27.099  1.00  0.00     0.074 A 
ATOM     60  C   UNL A   1      49.150  30.753  27.948  1.00  0.00     0.029 A 
ATOM     61  N   UNL A   1      47.438  29.333  27.886  1.00  0.00    -0.354 N 
ATOM     62  N   UNL A   1      46.117  26.787  27.321  1.00  0.00    -0.248 NA
ATOM     63  C   UNL A   1      46.157  24.646  26.390  1.00  0.00     0.031 C 
ATOM     64  C   UNL A   1      49.574  29.575  27.325  1.00  0.00     0.029 A 
ATOM     65  C   UNL A   1      48.511  28.684  27.304  1.00  0.00     0.049 A 
ATOM     66  H   UNL A   1      46.539  28.948  28.003  1.00  0.00     0.167 HD
ATOM     67  C   UNL A   1      47.387  26.534  26.806  1.00  0.00     0.074 A 
ATOM     68  C   UNL A   1      47.360  25.191  26.266  1.00  0.00     0.031 C 
ATOM     69  C   UNL A   1      48.476  27.341  26.785  1.00  0.00     0.037 A 
BRANCH  56  70
ATOM     70  C   UNL A   1      47.501  32.895  29.301  1.00  0.00     0.058 A 
ATOM     71  C   UNL A   1      48.090  33.116  30.556  1.00  0.00     0.135 A 
ATOM     72  C   UNL A   1      47.429  33.973  28.406  1.00  0.00     0.135 A 
ATOM     73  F   UNL A   1      48.156  32.123  31.456  1.00  0.00    -0.206 F 
ATOM     74  C   UNL A   1      48.556  34.372  30.926  1.00  0.00     0.059 A 
ATOM     75  C   UNL A   1      47.915  35.232  28.744  1.00  0.00     0.059 A 
ATOM     76  F   UNL A   1      46.867  33.813  27.197  1.00  0.00    -0.206 F 
ATOM     77  C   UNL A   1      48.460  35.424  30.014  1.00  0.00     0.060 A 
BRANCH  77  78
ATOM     78  S   UNL A   1      49.057  37.051  30.516  1.00  0.00     0.124 S 
ATOM     79  O   UNL A   1      50.500  36.837  30.535  1.00  0.00    -0.237 OA
ATOM     80  O   UNL A   1      48.558  37.909  29.446  1.00  0.00    -0.237 OA
ATOM     81  O   UNL A   1      48.434  37.253  31.821  1.00  0.00    -0.744 OA
ENDBRANCH  77  78
ENDBRANCH  56  70
BRANCH  57  82
ATOM     82  C   UNL A   1      43.402  24.063  27.176  1.00  0.00     0.058 A 
ATOM     83  C   UNL A   1      43.297  23.091  28.182  1.00  0.00     0.135 A 
ATOM     84  C   UNL A   1      42.965  23.720  25.887  1.00  0.00     0.135 A 
ATOM     85  F   UNL A   1      43.718  23.366  29.426  1.00  0.00    -0.206 F 
ATOM     86  C   UNL A   1      42.792  21.821  27.921  1.00  0.00     0.059 A 
ATOM     87  C   UNL A   1      42.437  22.464  25.605  1.00  0.00     0.059 A 
ATOM     88  F   UNL A   1      43.042  24.617  24.890  1.00  0.00    -0.206 F 
ATOM     89  C   UNL A   1      42.362  21.518  26.627  1.00  0.00     0.060 A 
BRANCH  89  90
ATOM     90  S   UNL A   1      41.675  19.878  26.312  1.00  0.00     0.124 S 
ATOM     91  O   UNL A   1      42.051  19.163  27.526  1.00  0.00    -0.237 OA
ATOM     92  O   UNL A   1      40.253  20.168  26.158  1.00  0.00    -0.237 OA
ATOM     93  O   UNL A   1      42.359  19.457  25.094  1.00  0.00    -0.744 OA
ENDBRANCH  89  90
ENDBRANCH  57  82
BRANCH  69  94
ATOM     94  C   UNL A   1      49.747  26.805  26.183  1.00  0.00     0.058 A 
ATOM     95  C   UNL A   1      50.098  27.077  24.853  1.00  0.00     0.135 A 
ATOM     96  C   UNL A   1      50.673  26.110  26.979  1.00  0.00     0.135 A 
ATOM     97  F   UNL A   1      49.246  27.737  24.051  1.00  0.00    -0.206 F 
ATOM     98  C   UNL A   1      51.323  26.677  24.330  1.00  0.00     0.059 A 
ATOM     99  C   UNL A   1      51.913  25.720  26.483  1.00  0.00     0.059 A 
ATOM    100  F   UNL A   1      50.390  25.837  28.262  1.00  0.00    -0.206 F 
ATOM    101  C   UNL A   1      52.228  26.006  25.155  1.00  0.00     0.060 A 
BRANCH 101 102
ATOM    102  S   UNL A   1      53.842  25.556  24.482  1.00  0.00     0.124 S 
ATOM    103  O   UNL A   1      54.692  26.613  25.022  1.00  0.00    -0.237 OA
ATOM    104  O   UNL A   1      54.054  24.225  25.042  1.00  0.00    -0.237 OA
ATOM    105  O   UNL A   1      53.632  25.596  23.038  1.00  0.00    -0.744 OA
ENDBRANCH 101 102
ENDBRANCH  69  94
ENDBRANCH  43  44
ENDBRANCH  36  38
ENDBRANCH  35  36
ENDBRANCH  34  35
ENDBRANCH  33  34
ENDBRANCH  32  33
ENDBRANCH   1  32
TORSDOF 23
ENDMDL
MODEL 3
REMARK VINA RESULT:     -10.6      6.344      8.369
REMARK SMILES CC[C@H](C)[C@H](NC(=O)[C@H](C)Oc1ccc2c(C)c(C)c(=O)oc2c1C)C(=O)OCCOCCOC(=O)c1ccc(-c2c3nc(c(-c4c(F)cc(S(=O)(=O)[O-])cc4F)c4ccc([nH]4)c(-c4c(F)cc(S(=O)(=O)[O-])cc4F)c4nc(c(-c5c(F)cc(S(=O)(=O)[O-])cc5F)c5ccc2[nH]5)C=C4)C=C3)cc1
REMARK SMILES IDX 30 1 29 2 28 3 26 4 27 5 5 6 3 7 4 8 2 9 1 10 6 11 7 12 8 14
REMARK SMILES IDX 9 15 10 16 11 17 12 18 13 19 24 20 14 21 23 22 25 23 15 24
REMARK SMILES IDX 22 25 16 26 20 27 17 28 18 29 21 30 19 31 31 32 32 33 33 34
REMARK SMILES IDX 34 35 35 36 36 37 37 38 38 39 102 40 39 41 101 42 40 43
REMARK SMILES IDX 41 44 42 45 95 46 43 47 100 48 94 49 96 50 44 51 99 52 93 53
REMARK SMILES IDX 92 54 45 56 79 57 58 58 78 59 59 60 62 61 77 62 97 63 60 64
REMARK SMILES IDX 61 65 76 67 98 68 63 69 46 70 47 71 56 72 48 73 49 74 55 75
REMARK SMILES IDX 57 76 50 77 51 78 52 79 53 80 54 81 80 82 81 83 90 84 82 85
REMARK SMILES IDX 83 86 89 87 91 88 84 89 85 90 86 91 87 92 88 93 64 94 65 95
REMARK SMILES IDX 74 96 66 97 67 98 73 99 75 100 68 101 69 102 70 103 71 104
REMARK SMILES IDX 72 105
REMARK H PARENT 6 13 96 55 62 66
REMARK Flexibility Score: inf
ROOT
ATOM      1  C   UNL A   1      34.313  31.445  28.074  1.00  0.00     0.202 C 
ENDROOT
BRANCH   1   2
ATOM      2  C   UNL A   1      33.695  30.147  27.569  1.00  0.00     0.261 C 
BRANCH   2   3
ATOM      3  O   UNL A   1      33.622  30.189  26.132  1.00  0.00    -0.462 OA
BRANCH   3   4
ATOM      4  C   UNL A   1      32.392  30.073  25.592  1.00  0.00     0.328 C 
ATOM      5  O   UNL A   1      31.401  30.689  25.974  1.00  0.00    -0.250 OA
BRANCH   4   6
ATOM      6  C   UNL A   1      32.309  28.979  24.520  1.00  0.00     0.195 C 
BRANCH   6   7
ATOM      7  C   UNL A   1      31.491  27.712  24.925  1.00  0.00     0.019 C 
ATOM      8  C   UNL A   1      31.390  27.524  26.432  1.00  0.00     0.010 C 
BRANCH   7   9
ATOM      9  C   UNL A   1      30.109  27.547  24.255  1.00  0.00     0.002 C 
ATOM     10  C   UNL A   1      29.869  28.350  22.978  1.00  0.00     0.004 C 
ENDBRANCH   7   9
ENDBRANCH   6   7
BRANCH   6  11
ATOM     11  N   UNL A   1      33.464  28.643  23.649  1.00  0.00    -0.339 N 
ATOM     12  C   UNL A   1      33.676  27.740  22.646  1.00  0.00     0.261 C 
ATOM     13  H   UNL A   1      34.256  29.196  23.838  1.00  0.00     0.164 HD
ATOM     14  O   UNL A   1      34.321  28.181  21.685  1.00  0.00    -0.271 OA
BRANCH  12  15
ATOM     15  C   UNL A   1      33.375  26.225  22.783  1.00  0.00     0.258 C 
ATOM     16  C   UNL A   1      32.401  25.915  21.637  1.00  0.00     0.064 C 
BRANCH  15  17
ATOM     17  O   UNL A   1      33.112  25.616  24.056  1.00  0.00    -0.480 OA
BRANCH  17  18
ATOM     18  C   UNL A   1      33.640  24.390  24.349  1.00  0.00     0.127 A 
ATOM     19  C   UNL A   1      35.016  24.164  24.390  1.00  0.00     0.047 A 
ATOM     20  C   UNL A   1      32.806  23.353  24.772  1.00  0.00     0.035 A 
ATOM     21  C   UNL A   1      35.545  22.884  24.586  1.00  0.00     0.016 A 
ATOM     22  C   UNL A   1      33.337  22.049  24.819  1.00  0.00     0.145 A 
ATOM     23  C   UNL A   1      31.415  23.572  25.293  1.00  0.00     0.052 C 
ATOM     24  C   UNL A   1      34.699  21.788  24.719  1.00  0.00     0.021 A 
ATOM     25  O   UNL A   1      32.416  20.991  24.921  1.00  0.00    -0.422 OA
ATOM     26  C   UNL A   1      35.168  20.397  24.780  1.00  0.00    -0.030 A 
ATOM     27  C   UNL A   1      32.806  19.719  24.538  1.00  0.00     0.339 A 
ATOM     28  C   UNL A   1      36.644  20.159  24.959  1.00  0.00     0.045 C 
ATOM     29  C   UNL A   1      34.258  19.409  24.652  1.00  0.00     0.038 A 
ATOM     30  O   UNL A   1      31.983  18.887  24.170  1.00  0.00    -0.246 OA
ATOM     31  C   UNL A   1      34.618  17.953  24.593  1.00  0.00     0.052 C 
ENDBRANCH  17  18
ENDBRANCH  15  17
ENDBRANCH  12  15
ENDBRANCH   6  11
ENDBRANCH   4   6
ENDBRANCH   3   4
ENDBRANCH   2   3
ENDBRANCH   1   2
BRANCH   1  32
ATOM     32  O   UNL A   1      33.593  32.606  27.656  1.00  0.00    -0.374 OA
BRANCH  32  33
ATOM     33  C   UNL A   1      34.109  33.857  28.117  1.00  0.00     0.202 C 
BRANCH  33  34
ATOM     34  C   UNL A   1      34.106  34.019  29.644  1.00  0.00     0.261 C 
BRANCH  34  35
ATOM     35  O   UNL A   1      32.953  34.751  30.101  1.00  0.00    -0.460 OA
BRANCH  35  36
ATOM     36  C   UNL A   1      33.009  35.196  31.385  1.00  0.00     0.338 C 
ATOM     37  O   UNL A   1      32.160  35.828  31.981  1.00  0.00    -0.246 OA
BRANCH  36  38
ATOM     38  C   UNL A   1      34.195  34.601  32.041  1.00  0.00     0.060 A 
ATOM     39  C   UNL A   1      35.413  35.287  31.962  1.00  0.00     0.016 A 
ATOM     40  C   UNL A   1      34.116  33.385  32.720  1.00  0.00     0.016 A 
ATOM     41  C   UNL A   1      36.563  34.743  32.540  1.00  0.00     0.010 A 
ATOM     42  C   UNL A   1      35.260  32.857  33.327  1.00  0.00     0.010 A 
ATOM     43  C   UNL A   1      36.502  33.508  33.198  1.00  0.00    -0.014 A 
BRANCH  43  44
ATOM     44  C   UNL A   1      37.755  32.768  33.505  1.00  0.00     0.031 A 
ATOM     45  C   UNL A   1      38.461  33.097  34.798  1.00  0.00     0.074 A 
ATOM     46  C   UNL A   1      38.246  31.805  32.703  1.00  0.00     0.049 A 
ATOM     47  N   UNL A   1      39.582  32.629  35.278  1.00  0.00    -0.248 NA
ATOM     48  C   UNL A   1      37.820  34.112  35.653  1.00  0.00     0.031 C 
ATOM     49  C   UNL A   1      37.662  31.363  31.438  1.00  0.00     0.029 A 
ATOM     50  N   UNL A   1      39.360  31.013  32.852  1.00  0.00    -0.354 N 
ATOM     51  C   UNL A   1      39.785  33.302  36.477  1.00  0.00     0.074 A 
ATOM     52  C   UNL A   1      38.712  34.258  36.618  1.00  0.00     0.031 C 
ATOM     53  C   UNL A   1      38.412  30.365  30.936  1.00  0.00     0.029 A 
ATOM     54  C   UNL A   1      39.540  30.108  31.831  1.00  0.00     0.049 A 
ATOM     55  H   UNL A   1      39.974  31.086  33.618  1.00  0.00     0.167 HD
ATOM     56  C   UNL A   1      40.750  33.118  37.406  1.00  0.00     0.037 A 
ATOM     57  C   UNL A   1      40.499  29.176  31.651  1.00  0.00     0.037 A 
ATOM     58  C   UNL A   1      41.793  32.138  37.307  1.00  0.00     0.049 A 
ATOM     59  C   UNL A   1      41.592  29.013  32.680  1.00  0.00     0.074 A 
ATOM     60  C   UNL A   1      42.803  31.864  38.211  1.00  0.00     0.029 A 
ATOM     61  N   UNL A   1      41.949  31.260  36.247  1.00  0.00    -0.354 N 
ATOM     62  N   UNL A   1      41.764  29.653  33.813  1.00  0.00    -0.248 NA
ATOM     63  C   UNL A   1      42.624  28.000  32.405  1.00  0.00     0.031 C 
ATOM     64  C   UNL A   1      43.590  30.836  37.684  1.00  0.00     0.029 A 
ATOM     65  C   UNL A   1      43.047  30.448  36.468  1.00  0.00     0.049 A 
ATOM     66  H   UNL A   1      41.366  31.220  35.455  1.00  0.00     0.167 HD
ATOM     67  C   UNL A   1      42.902  29.099  34.395  1.00  0.00     0.074 A 
ATOM     68  C   UNL A   1      43.376  28.070  33.495  1.00  0.00     0.031 C 
ATOM     69  C   UNL A   1      43.499  29.415  35.572  1.00  0.00     0.037 A 
BRANCH  56  70
ATOM     70  C   UNL A   1      40.702  33.999  38.621  1.00  0.00     0.058 A 
ATOM     71  C   UNL A   1      41.428  35.198  38.684  1.00  0.00     0.135 A 
ATOM     72  C   UNL A   1      39.932  33.634  39.737  1.00  0.00     0.135 A 
ATOM     73  F   UNL A   1      42.201  35.575  37.653  1.00  0.00    -0.206 F 
ATOM     74  C   UNL A   1      41.424  35.990  39.826  1.00  0.00     0.059 A 
ATOM     75  C   UNL A   1      39.890  34.425  40.880  1.00  0.00     0.059 A 
ATOM     76  F   UNL A   1      39.227  32.493  39.727  1.00  0.00    -0.206 F 
ATOM     77  C   UNL A   1      40.654  35.592  40.920  1.00  0.00     0.060 A 
BRANCH  77  78
ATOM     78  S   UNL A   1      40.671  36.622  42.401  1.00  0.00     0.124 S 
ATOM     79  O   UNL A   1      40.622  35.614  43.455  1.00  0.00    -0.237 OA
ATOM     80  O   UNL A   1      41.935  37.338  42.268  1.00  0.00    -0.237 OA
ATOM     81  O   UNL A   1      39.471  37.441  42.259  1.00  0.00    -0.744 OA
ENDBRANCH  77  78
ENDBRANCH  56  70
BRANCH  57  82
ATOM     82  C   UNL A   1      40.464  28.289  30.457  1.00  0.00     0.058 A 
ATOM     83  C   UNL A   1      41.350  28.490  29.389  1.00  0.00     0.135 A 
ATOM     84  C   UNL A   1      39.535  27.243  30.347  1.00  0.00     0.135 A 
ATOM     85  F   UNL A   1      42.246  29.488  29.440  1.00  0.00    -0.206 F 
ATOM     86  C   UNL A   1      41.311  27.695  28.247  1.00  0.00     0.059 A 
ATOM     87  C   UNL A   1      39.488  26.421  29.225  1.00  0.00     0.059 A 
ATOM     88  F   UNL A   1      38.666  27.008  31.344  1.00  0.00    -0.206 F 
ATOM     89  C   UNL A   1      40.376  26.661  28.176  1.00  0.00     0.060 A 
BRANCH  89  90
ATOM     90  S   UNL A   1      40.361  25.616  26.703  1.00  0.00     0.124 S 
ATOM     91  O   UNL A   1      38.961  25.213  26.642  1.00  0.00    -0.237 OA
ATOM     92  O   UNL A   1      40.803  26.544  25.667  1.00  0.00    -0.237 OA
ATOM     93  O   UNL A   1      41.309  24.557  27.034  1.00  0.00    -0.744 OA
ENDBRANCH  89  90
ENDBRANCH  57  82
BRANCH  69  94
ATOM     94  C   UNL A   1      44.718  28.636  35.982  1.00  0.00     0.058 A 
ATOM     95  C   UNL A   1      44.612  27.435  36.699  1.00  0.00     0.135 A 
ATOM     96  C   UNL A   1      45.995  29.037  35.555  1.00  0.00     0.135 A 
ATOM     97  F   UNL A   1      43.414  27.009  37.130  1.00  0.00    -0.206 F 
ATOM     98  C   UNL A   1      45.731  26.659  36.981  1.00  0.00     0.059 A 
ATOM     99  C   UNL A   1      47.125  28.264  35.807  1.00  0.00     0.059 A 
ATOM    100  F   UNL A   1      46.148  30.172  34.855  1.00  0.00    -0.206 F 
ATOM    101  C   UNL A   1      46.983  27.077  36.523  1.00  0.00     0.060 A 
BRANCH 101 102
ATOM    102  S   UNL A   1      48.414  26.021  36.836  1.00  0.00     0.124 S 
ATOM    103  O   UNL A   1      47.917  24.716  36.413  1.00  0.00    -0.237 OA
ATOM    104  O   UNL A   1      49.435  26.618  35.981  1.00  0.00    -0.237 OA
ATOM    105  O   UNL A   1      48.641  26.172  38.271  1.00  0.00    -0.744 OA
ENDBRANCH 101 102
ENDBRANCH  69  94
ENDBRANCH  43  44
ENDBRANCH  36  38
ENDBRANCH  35  36
ENDBRANCH  34  35
ENDBRANCH  33  34
ENDBRANCH  32  33
ENDBRANCH   1  32
TORSDOF 23
ENDMDL
