MODEL 1
REMARK VINA RESULT:     -10.9      0.000      0.000
REMARK SMILES O=C(OCCOCCOC(=O)c1ccc2nc(Cl)sc2c1)c1ccc(-c2c3nc(c(-c4c(F)cc(S(=O)(=O)[O-])cc4F)c4ccc([nH]4)c(-c4c(F)cc(S(=O)(=O)[O-])cc4F)c4nc(c(-c5c(F)cc(S(=O)(=O)[O-])cc5F)c5ccc2[nH]5)C=C4)C=C3)cc1
REMARK SMILES IDX 4 1 3 2 2 3 1 4 22 5 23 6 87 7 24 8 86 9 25 10 26 11 27 12
REMARK SMILES IDX 80 13 28 14 85 15 79 16 81 17 29 18 84 19 78 20 77 21 30 23
REMARK SMILES IDX 64 24 43 25 63 26 44 27 47 28 62 29 82 30 45 31 46 32 61 34
REMARK SMILES IDX 83 35 48 36 31 37 32 38 41 39 33 40 34 41 40 42 42 43 35 44
REMARK SMILES IDX 36 45 37 46 38 47 39 48 65 49 66 50 75 51 67 52 68 53 74 54
REMARK SMILES IDX 76 55 69 56 70 57 71 58 72 59 73 60 49 61 50 62 59 63 51 64
REMARK SMILES IDX 52 65 58 66 60 67 53 68 54 69 55 70 56 71 57 72 5 73 6 74
REMARK SMILES IDX 7 75 8 76 9 77 10 78 11 79 12 80 13 81 21 82 14 83 20 84
REMARK SMILES IDX 15 85 19 86 16 87 17 88 18 89
REMARK H PARENT 81 22 47 33
REMARK Flexibility Score: inf
ROOT
ATOM      1  C   UNL A   1      43.051  39.221  27.044  1.00  0.00     0.261 C 
ENDROOT
BRANCH   1   2
ATOM      2  O   UNL A   1      43.223  37.852  26.631  1.00  0.00    -0.460 OA
BRANCH   2   3
ATOM      3  C   UNL A   1      44.130  37.016  27.206  1.00  0.00     0.338 C 
ATOM      4  O   UNL A   1      45.217  36.815  26.677  1.00  0.00    -0.246 OA
BRANCH   3   5
ATOM      5  C   UNL A   1      43.651  36.108  28.288  1.00  0.00     0.060 A 
ATOM      6  C   UNL A   1      42.371  35.546  28.166  1.00  0.00     0.016 A 
ATOM      7  C   UNL A   1      44.393  35.804  29.422  1.00  0.00     0.016 A 
ATOM      8  C   UNL A   1      41.833  34.760  29.198  1.00  0.00     0.010 A 
ATOM      9  C   UNL A   1      43.830  35.096  30.476  1.00  0.00     0.010 A 
ATOM     10  C   UNL A   1      42.550  34.551  30.387  1.00  0.00    -0.014 A 
BRANCH  10  11
ATOM     11  C   UNL A   1      42.059  33.636  31.452  1.00  0.00     0.031 A 
ATOM     12  C   UNL A   1      40.567  33.661  31.701  1.00  0.00     0.074 A 
ATOM     13  C   UNL A   1      42.685  32.474  31.724  1.00  0.00     0.049 A 
ATOM     14  N   UNL A   1      39.684  33.000  31.005  1.00  0.00    -0.248 NA
ATOM     15  C   UNL A   1      39.979  34.704  32.548  1.00  0.00     0.031 C 
ATOM     16  C   UNL A   1      43.092  31.507  30.701  1.00  0.00     0.029 A 
ATOM     17  N   UNL A   1      42.802  31.792  32.916  1.00  0.00    -0.354 N 
ATOM     18  C   UNL A   1      38.437  33.545  31.290  1.00  0.00     0.074 A 
ATOM     19  C   UNL A   1      38.677  34.607  32.243  1.00  0.00     0.031 C 
ATOM     20  C   UNL A   1      43.267  30.307  31.291  1.00  0.00     0.029 A 
ATOM     21  C   UNL A   1      43.088  30.442  32.736  1.00  0.00     0.049 A 
ATOM     22  H   UNL A   1      42.695  32.215  33.798  1.00  0.00     0.167 HD
ATOM     23  C   UNL A   1      37.267  33.118  30.740  1.00  0.00     0.037 A 
ATOM     24  C   UNL A   1      42.668  29.456  33.580  1.00  0.00     0.037 A 
ATOM     25  C   UNL A   1      37.361  31.979  29.878  1.00  0.00     0.049 A 
ATOM     26  C   UNL A   1      41.256  29.257  33.086  1.00  0.00     0.074 A 
ATOM     27  C   UNL A   1      37.425  31.714  28.528  1.00  0.00     0.029 A 
ATOM     28  N   UNL A   1      37.432  30.743  30.475  1.00  0.00    -0.354 N 
ATOM     29  N   UNL A   1      40.895  28.581  32.027  1.00  0.00    -0.248 NA
ATOM     30  C   UNL A   1      40.235  30.175  33.598  1.00  0.00     0.031 C 
ATOM     31  C   UNL A   1      38.002  30.408  28.425  1.00  0.00     0.029 A 
ATOM     32  C   UNL A   1      38.290  29.987  29.723  1.00  0.00     0.049 A 
ATOM     33  H   UNL A   1      36.956  30.457  31.289  1.00  0.00     0.167 HD
ATOM     34  C   UNL A   1      39.725  29.197  31.577  1.00  0.00     0.074 A 
ATOM     35  C   UNL A   1      39.346  30.134  32.616  1.00  0.00     0.031 C 
ATOM     36  C   UNL A   1      39.241  29.068  30.308  1.00  0.00     0.037 A 
BRANCH  23  37
ATOM     37  C   UNL A   1      35.923  33.600  31.137  1.00  0.00     0.058 A 
ATOM     38  C   UNL A   1      35.213  34.396  30.226  1.00  0.00     0.135 A 
ATOM     39  C   UNL A   1      35.420  33.482  32.438  1.00  0.00     0.135 A 
ATOM     40  F   UNL A   1      35.667  34.543  28.969  1.00  0.00    -0.206 F 
ATOM     41  C   UNL A   1      34.070  35.093  30.597  1.00  0.00     0.059 A 
ATOM     42  C   UNL A   1      34.268  34.167  32.833  1.00  0.00     0.059 A 
ATOM     43  F   UNL A   1      36.065  32.738  33.351  1.00  0.00    -0.206 F 
ATOM     44  C   UNL A   1      33.615  34.987  31.910  1.00  0.00     0.060 A 
BRANCH  44  45
ATOM     45  S   UNL A   1      32.177  35.974  32.385  1.00  0.00     0.124 S 
ATOM     46  O   UNL A   1      31.851  36.652  31.134  1.00  0.00    -0.237 OA
ATOM     47  O   UNL A   1      31.236  34.945  32.814  1.00  0.00    -0.237 OA
ATOM     48  O   UNL A   1      32.690  36.833  33.447  1.00  0.00    -0.744 OA
ENDBRANCH  44  45
ENDBRANCH  23  37
BRANCH  24  49
ATOM     49  C   UNL A   1      43.043  29.629  35.021  1.00  0.00     0.058 A 
ATOM     50  C   UNL A   1      43.846  28.632  35.616  1.00  0.00     0.135 A 
ATOM     51  C   UNL A   1      42.691  30.707  35.846  1.00  0.00     0.135 A 
ATOM     52  F   UNL A   1      44.122  27.498  34.950  1.00  0.00    -0.206 F 
ATOM     53  C   UNL A   1      44.406  28.778  36.882  1.00  0.00     0.059 A 
ATOM     54  C   UNL A   1      43.258  30.891  37.110  1.00  0.00     0.059 A 
ATOM     55  F   UNL A   1      41.810  31.633  35.441  1.00  0.00    -0.206 F 
ATOM     56  C   UNL A   1      44.149  29.940  37.601  1.00  0.00     0.060 A 
BRANCH  56  57
ATOM     57  S   UNL A   1      45.052  30.213  39.138  1.00  0.00     0.124 S 
ATOM     58  O   UNL A   1      46.228  30.941  38.675  1.00  0.00    -0.237 OA
ATOM     59  O   UNL A   1      44.087  30.991  39.911  1.00  0.00    -0.237 OA
ATOM     60  O   UNL A   1      45.299  28.863  39.632  1.00  0.00    -0.744 OA
ENDBRANCH  56  57
ENDBRANCH  24  49
BRANCH  36  61
ATOM     61  C   UNL A   1      39.936  28.080  29.437  1.00  0.00     0.058 A 
ATOM     62  C   UNL A   1      39.511  26.746  29.405  1.00  0.00     0.135 A 
ATOM     63  C   UNL A   1      40.976  28.462  28.572  1.00  0.00     0.135 A 
ATOM     64  F   UNL A   1      38.518  26.330  30.207  1.00  0.00    -0.206 F 
ATOM     65  C   UNL A   1      40.066  25.833  28.515  1.00  0.00     0.059 A 
ATOM     66  C   UNL A   1      41.527  27.572  27.657  1.00  0.00     0.059 A 
ATOM     67  F   UNL A   1      41.446  29.721  28.576  1.00  0.00    -0.206 F 
ATOM     68  C   UNL A   1      41.058  26.260  27.630  1.00  0.00     0.060 A 
BRANCH  68  69
ATOM     69  S   UNL A   1      41.665  25.099  26.390  1.00  0.00     0.124 S 
ATOM     70  O   UNL A   1      40.872  23.907  26.671  1.00  0.00    -0.237 OA
ATOM     71  O   UNL A   1      41.353  25.789  25.140  1.00  0.00    -0.237 OA
ATOM     72  O   UNL A   1      43.091  24.987  26.692  1.00  0.00    -0.744 OA
ENDBRANCH  68  69
ENDBRANCH  36  61
ENDBRANCH  10  11
ENDBRANCH   3   5
ENDBRANCH   2   3
ENDBRANCH   1   2
BRANCH   1  73
ATOM     73  C   UNL A   1      44.182  40.115  26.521  1.00  0.00     0.202 C 
BRANCH  73  74
ATOM     74  O   UNL A   1      43.860  40.828  25.331  1.00  0.00    -0.374 OA
BRANCH  74  75
ATOM     75  C   UNL A   1      44.563  42.063  25.149  1.00  0.00     0.202 C 
BRANCH  75  76
ATOM     76  C   UNL A   1      43.879  42.981  24.135  1.00  0.00     0.261 C 
BRANCH  76  77
ATOM     77  O   UNL A   1      43.525  42.248  22.951  1.00  0.00    -0.460 OA
BRANCH  77  78
ATOM     78  C   UNL A   1      44.307  42.491  21.873  1.00  0.00     0.338 C 
ATOM     79  O   UNL A   1      45.434  42.091  21.642  1.00  0.00    -0.246 OA
BRANCH  78  80
ATOM     80  C   UNL A   1      43.491  43.195  20.871  1.00  0.00     0.061 A 
ATOM     81  C   UNL A   1      42.158  42.849  20.661  1.00  0.00     0.018 A 
ATOM     82  C   UNL A   1      44.110  44.216  20.135  1.00  0.00     0.037 A 
ATOM     83  C   UNL A   1      41.408  43.527  19.694  1.00  0.00     0.031 A 
ATOM     84  C   UNL A   1      43.351  44.865  19.153  1.00  0.00     0.057 A 
ATOM     85  C   UNL A   1      42.007  44.543  18.919  1.00  0.00     0.083 A 
ATOM     86  S   UNL A   1      43.827  46.116  18.066  1.00  0.00    -0.102 S 
ATOM     87  N   UNL A   1      41.387  45.280  17.924  1.00  0.00    -0.225 NA
ATOM     88  C   UNL A   1      42.255  46.127  17.433  1.00  0.00     0.184 A 
ATOM     89  Cl  UNL A   1      41.850  47.226  16.178  1.00  0.00    -0.050 Cl
ENDBRANCH  78  80
ENDBRANCH  77  78
ENDBRANCH  76  77
ENDBRANCH  75  76
ENDBRANCH  74  75
ENDBRANCH  73  74
ENDBRANCH   1  73
TORSDOF 17
ENDMDL
MODEL 2
REMARK VINA RESULT:     -10.8      8.577     18.145
REMARK SMILES O=C(OCCOCCOC(=O)c1ccc2nc(Cl)sc2c1)c1ccc(-c2c3nc(c(-c4c(F)cc(S(=O)(=O)[O-])cc4F)c4ccc([nH]4)c(-c4c(F)cc(S(=O)(=O)[O-])cc4F)c4nc(c(-c5c(F)cc(S(=O)(=O)[O-])cc5F)c5ccc2[nH]5)C=C4)C=C3)cc1
REMARK SMILES IDX 4 1 3 2 2 3 1 4 22 5 23 6 87 7 24 8 86 9 25 10 26 11 27 12
REMARK SMILES IDX 80 13 28 14 85 15 79 16 81 17 29 18 84 19 78 20 77 21 30 23
REMARK SMILES IDX 64 24 43 25 63 26 44 27 47 28 62 29 82 30 45 31 46 32 61 34
REMARK SMILES IDX 83 35 48 36 31 37 32 38 41 39 33 40 34 41 40 42 42 43 35 44
REMARK SMILES IDX 36 45 37 46 38 47 39 48 65 49 66 50 75 51 67 52 68 53 74 54
REMARK SMILES IDX 76 55 69 56 70 57 71 58 72 59 73 60 49 61 50 62 59 63 51 64
REMARK SMILES IDX 52 65 58 66 60 67 53 68 54 69 55 70 56 71 57 72 5 73 6 74
REMARK SMILES IDX 7 75 8 76 9 77 10 78 11 79 12 80 13 81 21 82 14 83 20 84
REMARK SMILES IDX 15 85 19 86 16 87 17 88 18 89
REMARK H PARENT 81 22 47 33
REMARK Flexibility Score: inf
ROOT
ATOM      1  C   UNL A   1      46.776  22.949  37.488  1.00  0.00     0.261 C 
ENDROOT
BRANCH   1   2
ATOM      2  O   UNL A   1      46.498  23.933  36.474  1.00  0.00    -0.460 OA
BRANCH   2   3
ATOM      3  C   UNL A   1      45.393  23.883  35.682  1.00  0.00     0.338 C 
ATOM      4  O   UNL A   1      44.496  23.078  35.910  1.00  0.00    -0.246 OA
BRANCH   3   5
ATOM      5  C   UNL A   1      45.450  24.574  34.361  1.00  0.00     0.060 A 
ATOM      6  C   UNL A   1      46.465  25.521  34.151  1.00  0.00     0.016 A 
ATOM      7  C   UNL A   1      44.541  24.352  33.335  1.00  0.00     0.016 A 
ATOM      8  C   UNL A   1      46.511  26.269  32.963  1.00  0.00     0.010 A 
ATOM      9  C   UNL A   1      44.538  25.148  32.197  1.00  0.00     0.010 A 
ATOM     10  C   UNL A   1      45.522  26.112  31.979  1.00  0.00    -0.014 A 
BRANCH  10  11
ATOM     11  C   UNL A   1      45.600  26.806  30.666  1.00  0.00     0.031 A 
ATOM     12  C   UNL A   1      45.377  25.935  29.450  1.00  0.00     0.074 A 
ATOM     13  C   UNL A   1      45.258  28.104  30.535  1.00  0.00     0.049 A 
ATOM     14  N   UNL A   1      44.210  25.599  28.976  1.00  0.00    -0.248 NA
ATOM     15  C   UNL A   1      46.479  25.130  28.910  1.00  0.00     0.031 C 
ATOM     16  C   UNL A   1      44.024  28.681  31.076  1.00  0.00     0.029 A 
ATOM     17  N   UNL A   1      45.744  29.062  29.674  1.00  0.00    -0.354 N 
ATOM     18  C   UNL A   1      44.405  24.532  28.107  1.00  0.00     0.074 A 
ATOM     19  C   UNL A   1      45.828  24.272  28.111  1.00  0.00     0.031 C 
ATOM     20  C   UNL A   1      43.765  29.829  30.418  1.00  0.00     0.029 A 
ATOM     21  C   UNL A   1      44.859  30.120  29.492  1.00  0.00     0.049 A 
ATOM     22  H   UNL A   1      46.623  29.004  29.235  1.00  0.00     0.167 HD
ATOM     23  C   UNL A   1      43.408  23.902  27.426  1.00  0.00     0.037 A 
ATOM     24  C   UNL A   1      44.750  30.832  28.334  1.00  0.00     0.037 A 
ATOM     25  C   UNL A   1      42.098  24.458  27.582  1.00  0.00     0.049 A 
ATOM     26  C   UNL A   1      43.867  29.911  27.529  1.00  0.00     0.074 A 
ATOM     27  C   UNL A   1      40.961  24.218  28.322  1.00  0.00     0.029 A 
ATOM     28  N   UNL A   1      41.792  25.569  26.832  1.00  0.00    -0.354 N 
ATOM     29  N   UNL A   1      42.570  29.790  27.640  1.00  0.00    -0.248 NA
ATOM     30  C   UNL A   1      44.523  28.805  26.826  1.00  0.00     0.031 C 
ATOM     31  C   UNL A   1      40.240  25.455  28.322  1.00  0.00     0.029 A 
ATOM     32  C   UNL A   1      41.014  26.377  27.617  1.00  0.00     0.049 A 
ATOM     33  H   UNL A   1      42.079  25.748  25.906  1.00  0.00     0.167 HD
ATOM     34  C   UNL A   1      42.291  28.469  27.281  1.00  0.00     0.074 A 
ATOM     35  C   UNL A   1      43.526  27.935  26.742  1.00  0.00     0.031 C 
ATOM     36  C   UNL A   1      41.144  27.816  27.627  1.00  0.00     0.037 A 
BRANCH  23  37
ATOM     37  C   UNL A   1      43.619  22.857  26.396  1.00  0.00     0.058 A 
ATOM     38  C   UNL A   1      43.237  21.542  26.705  1.00  0.00     0.135 A 
ATOM     39  C   UNL A   1      44.363  23.069  25.230  1.00  0.00     0.135 A 
ATOM     40  F   UNL A   1      42.529  21.295  27.822  1.00  0.00    -0.206 F 
ATOM     41  C   UNL A   1      43.618  20.465  25.917  1.00  0.00     0.059 A 
ATOM     42  C   UNL A   1      44.751  22.002  24.416  1.00  0.00     0.059 A 
ATOM     43  F   UNL A   1      44.759  24.307  24.893  1.00  0.00    -0.206 F 
ATOM     44  C   UNL A   1      44.392  20.703  24.782  1.00  0.00     0.060 A 
BRANCH  44  45
ATOM     45  S   UNL A   1      44.944  19.272  23.825  1.00  0.00     0.124 S 
ATOM     46  O   UNL A   1      44.401  19.567  22.503  1.00  0.00    -0.237 OA
ATOM     47  O   UNL A   1      46.394  19.368  23.951  1.00  0.00    -0.237 OA
ATOM     48  O   UNL A   1      44.331  18.143  24.517  1.00  0.00    -0.744 OA
ENDBRANCH  44  45
ENDBRANCH  23  37
BRANCH  24  49
ATOM     49  C   UNL A   1      46.021  31.444  27.825  1.00  0.00     0.058 A 
ATOM     50  C   UNL A   1      46.059  32.847  27.670  1.00  0.00     0.135 A 
ATOM     51  C   UNL A   1      47.201  30.758  27.503  1.00  0.00     0.135 A 
ATOM     52  F   UNL A   1      44.941  33.576  27.823  1.00  0.00    -0.206 F 
ATOM     53  C   UNL A   1      47.234  33.537  27.386  1.00  0.00     0.059 A 
ATOM     54  C   UNL A   1      48.400  31.427  27.240  1.00  0.00     0.059 A 
ATOM     55  F   UNL A   1      47.238  29.419  27.464  1.00  0.00    -0.206 F 
ATOM     56  C   UNL A   1      48.413  32.819  27.225  1.00  0.00     0.060 A 
BRANCH  56  57
ATOM     57  S   UNL A   1      49.960  33.735  27.076  1.00  0.00     0.124 S 
ATOM     58  O   UNL A   1      50.769  33.141  28.135  1.00  0.00    -0.237 OA
ATOM     59  O   UNL A   1      50.363  33.410  25.710  1.00  0.00    -0.237 OA
ATOM     60  O   UNL A   1      49.557  35.120  27.292  1.00  0.00    -0.744 OA
ENDBRANCH  56  57
ENDBRANCH  24  49
BRANCH  36  61
ATOM     61  C   UNL A   1      40.089  28.643  28.278  1.00  0.00     0.058 A 
ATOM     62  C   UNL A   1      39.197  29.390  27.500  1.00  0.00     0.135 A 
ATOM     63  C   UNL A   1      39.907  28.639  29.672  1.00  0.00     0.135 A 
ATOM     64  F   UNL A   1      39.324  29.422  26.164  1.00  0.00    -0.206 F 
ATOM     65  C   UNL A   1      38.133  30.074  28.078  1.00  0.00     0.059 A 
ATOM     66  C   UNL A   1      38.835  29.296  30.268  1.00  0.00     0.059 A 
ATOM     67  F   UNL A   1      40.747  27.965  30.474  1.00  0.00    -0.206 F 
ATOM     68  C   UNL A   1      37.947  30.003  29.460  1.00  0.00     0.060 A 
BRANCH  68  69
ATOM     69  S   UNL A   1      36.483  30.780  30.174  1.00  0.00     0.124 S 
ATOM     70  O   UNL A   1      35.529  30.706  29.073  1.00  0.00    -0.237 OA
ATOM     71  O   UNL A   1      36.202  29.916  31.318  1.00  0.00    -0.237 OA
ATOM     72  O   UNL A   1      36.940  32.125  30.516  1.00  0.00    -0.744 OA
ENDBRANCH  68  69
ENDBRANCH  36  61
ENDBRANCH  10  11
ENDBRANCH   3   5
ENDBRANCH   2   3
ENDBRANCH   1   2
BRANCH   1  73
ATOM     73  C   UNL A   1      47.750  21.878  36.984  1.00  0.00     0.202 C 
BRANCH  73  74
ATOM     74  O   UNL A   1      47.130  20.815  36.269  1.00  0.00    -0.374 OA
BRANCH  74  75
ATOM     75  C   UNL A   1      46.074  20.143  36.966  1.00  0.00     0.202 C 
BRANCH  75  76
ATOM     76  C   UNL A   1      46.591  19.031  37.880  1.00  0.00     0.261 C 
BRANCH  76  77
ATOM     77  O   UNL A   1      45.495  18.330  38.491  1.00  0.00    -0.460 OA
BRANCH  77  78
ATOM     78  C   UNL A   1      45.719  17.914  39.759  1.00  0.00     0.338 C 
ATOM     79  O   UNL A   1      46.521  18.340  40.572  1.00  0.00    -0.246 OA
BRANCH  78  80
ATOM     80  C   UNL A   1      44.670  16.942  40.109  1.00  0.00     0.061 A 
ATOM     81  C   UNL A   1      43.890  16.344  39.122  1.00  0.00     0.018 A 
ATOM     82  C   UNL A   1      44.485  16.654  41.468  1.00  0.00     0.037 A 
ATOM     83  C   UNL A   1      42.893  15.431  39.483  1.00  0.00     0.031 A 
ATOM     84  C   UNL A   1      43.464  15.759  41.812  1.00  0.00     0.057 A 
ATOM     85  C   UNL A   1      42.665  15.136  40.844  1.00  0.00     0.083 A 
ATOM     86  S   UNL A   1      42.962  15.234  43.377  1.00  0.00    -0.102 S 
ATOM     87  N   UNL A   1      41.706  14.268  41.339  1.00  0.00    -0.225 NA
ATOM     88  C   UNL A   1      41.794  14.250  42.644  1.00  0.00     0.184 A 
ATOM     89  Cl  UNL A   1      40.769  13.276  43.617  1.00  0.00    -0.050 Cl
ENDBRANCH  78  80
ENDBRANCH  77  78
ENDBRANCH  76  77
ENDBRANCH  75  76
ENDBRANCH  74  75
ENDBRANCH  73  74
ENDBRANCH   1  73
TORSDOF 17
ENDMDL
MODEL 3
REMARK VINA RESULT:     -10.7      7.329     12.081
REMARK SMILES O=C(OCCOCCOC(=O)c1ccc2nc(Cl)sc2c1)c1ccc(-c2c3nc(c(-c4c(F)cc(S(=O)(=O)[O-])cc4F)c4ccc([nH]4)c(-c4c(F)cc(S(=O)(=O)[O-])cc4F)c4nc(c(-c5c(F)cc(S(=O)(=O)[O-])cc5F)c5ccc2[nH]5)C=C4)C=C3)cc1
REMARK SMILES IDX 4 1 3 2 2 3 1 4 22 5 23 6 87 7 24 8 86 9 25 10 26 11 27 12
REMARK SMILES IDX 80 13 28 14 85 15 79 16 81 17 29 18 84 19 78 20 77 21 30 23
REMARK SMILES IDX 64 24 43 25 63 26 44 27 47 28 62 29 82 30 45 31 46 32 61 34
REMARK SMILES IDX 83 35 48 36 31 37 32 38 41 39 33 40 34 41 40 42 42 43 35 44
REMARK SMILES IDX 36 45 37 46 38 47 39 48 65 49 66 50 75 51 67 52 68 53 74 54
REMARK SMILES IDX 76 55 69 56 70 57 71 58 72 59 73 60 49 61 50 62 59 63 51 64
REMARK SMILES IDX 52 65 58 66 60 67 53 68 54 69 55 70 56 71 57 72 5 73 6 74
REMARK SMILES IDX 7 75 8 76 9 77 10 78 11 79 12 80 13 81 21 82 14 83 20 84
REMARK SMILES IDX 15 85 19 86 16 87 17 88 18 89
REMARK H PARENT 81 22 47 33
REMARK Flexibility Score: inf
ROOT
ATOM      1  C   UNL A   1      37.966  22.191  25.298  1.00  0.00     0.261 C 
ENDROOT
BRANCH   1   2
ATOM      2  O   UNL A   1      38.892  21.728  26.300  1.00  0.00    -0.460 OA
BRANCH   2   3
ATOM      3  C   UNL A   1      40.230  21.968  26.233  1.00  0.00     0.338 C 
ATOM      4  O   UNL A   1      41.027  21.040  26.146  1.00  0.00    -0.246 OA
BRANCH   3   5
ATOM      5  C   UNL A   1      40.713  23.329  26.607  1.00  0.00     0.060 A 
ATOM      6  C   UNL A   1      41.962  23.747  26.122  1.00  0.00     0.016 A 
ATOM      7  C   UNL A   1      40.006  24.198  27.427  1.00  0.00     0.016 A 
ATOM      8  C   UNL A   1      42.507  24.979  26.518  1.00  0.00     0.010 A 
ATOM      9  C   UNL A   1      40.580  25.378  27.883  1.00  0.00     0.010 A 
ATOM     10  C   UNL A   1      41.832  25.800  27.435  1.00  0.00    -0.014 A 
BRANCH  10  11
ATOM     11  C   UNL A   1      42.326  27.157  27.790  1.00  0.00     0.031 A 
ATOM     12  C   UNL A   1      41.274  28.241  27.858  1.00  0.00     0.074 A 
ATOM     13  C   UNL A   1      43.403  27.328  28.582  1.00  0.00     0.049 A 
ATOM     14  N   UNL A   1      40.505  28.472  28.886  1.00  0.00    -0.248 NA
ATOM     15  C   UNL A   1      40.819  28.903  26.630  1.00  0.00     0.031 C 
ATOM     16  C   UNL A   1      43.602  26.623  29.852  1.00  0.00     0.029 A 
ATOM     17  N   UNL A   1      44.343  28.335  28.590  1.00  0.00    -0.354 N 
ATOM     18  C   UNL A   1      39.457  29.274  28.450  1.00  0.00     0.074 A 
ATOM     19  C   UNL A   1      39.692  29.503  27.041  1.00  0.00     0.031 C 
ATOM     20  C   UNL A   1      44.497  27.313  30.588  1.00  0.00     0.029 A 
ATOM     21  C   UNL A   1      45.008  28.440  29.808  1.00  0.00     0.049 A 
ATOM     22  H   UNL A   1      44.523  28.918  27.818  1.00  0.00     0.167 HD
ATOM     23  C   UNL A   1      38.443  29.715  29.246  1.00  0.00     0.037 A 
ATOM     24  C   UNL A   1      45.478  29.612  30.321  1.00  0.00     0.037 A 
ATOM     25  C   UNL A   1      38.544  29.373  30.632  1.00  0.00     0.049 A 
ATOM     26  C   UNL A   1      44.214  30.172  30.925  1.00  0.00     0.074 A 
ATOM     27  C   UNL A   1      38.040  28.426  31.496  1.00  0.00     0.029 A 
ATOM     28  N   UNL A   1      39.375  30.142  31.411  1.00  0.00    -0.354 N 
ATOM     29  N   UNL A   1      43.681  29.823  32.067  1.00  0.00    -0.248 NA
ATOM     30  C   UNL A   1      43.307  30.891  30.026  1.00  0.00     0.031 C 
ATOM     31  C   UNL A   1      38.953  28.396  32.599  1.00  0.00     0.029 A 
ATOM     32  C   UNL A   1      39.975  29.298  32.306  1.00  0.00     0.049 A 
ATOM     33  H   UNL A   1      39.513  31.115  31.338  1.00  0.00     0.167 HD
ATOM     34  C   UNL A   1      42.308  30.020  31.909  1.00  0.00     0.074 A 
ATOM     35  C   UNL A   1      42.150  30.727  30.654  1.00  0.00     0.031 C 
ATOM     36  C   UNL A   1      41.362  29.426  32.693  1.00  0.00     0.037 A 
BRANCH  23  37
ATOM     37  C   UNL A   1      37.399  30.679  28.825  1.00  0.00     0.058 A 
ATOM     38  C   UNL A   1      37.656  32.047  29.006  1.00  0.00     0.135 A 
ATOM     39  C   UNL A   1      36.104  30.296  28.460  1.00  0.00     0.135 A 
ATOM     40  F   UNL A   1      38.885  32.456  29.365  1.00  0.00    -0.206 F 
ATOM     41  C   UNL A   1      36.657  33.003  28.878  1.00  0.00     0.059 A 
ATOM     42  C   UNL A   1      35.084  31.240  28.317  1.00  0.00     0.059 A 
ATOM     43  F   UNL A   1      35.804  28.999  28.282  1.00  0.00    -0.206 F 
ATOM     44  C   UNL A   1      35.367  32.587  28.552  1.00  0.00     0.060 A 
BRANCH  44  45
ATOM     45  S   UNL A   1      34.071  33.844  28.478  1.00  0.00     0.124 S 
ATOM     46  O   UNL A   1      33.061  33.189  27.653  1.00  0.00    -0.237 OA
ATOM     47  O   UNL A   1      33.730  34.007  29.888  1.00  0.00    -0.237 OA
ATOM     48  O   UNL A   1      34.738  34.986  27.862  1.00  0.00    -0.744 OA
ENDBRANCH  44  45
ENDBRANCH  23  37
BRANCH  24  49
ATOM     49  C   UNL A   1      46.405  30.387  29.432  1.00  0.00     0.058 A 
ATOM     50  C   UNL A   1      47.651  30.782  29.966  1.00  0.00     0.135 A 
ATOM     51  C   UNL A   1      46.167  30.745  28.097  1.00  0.00     0.135 A 
ATOM     52  F   UNL A   1      47.916  30.604  31.271  1.00  0.00    -0.206 F 
ATOM     53  C   UNL A   1      48.659  31.336  29.183  1.00  0.00     0.059 A 
ATOM     54  C   UNL A   1      47.169  31.279  27.282  1.00  0.00     0.059 A 
ATOM     55  F   UNL A   1      44.966  30.561  27.532  1.00  0.00    -0.206 F 
ATOM     56  C   UNL A   1      48.426  31.531  27.826  1.00  0.00     0.060 A 
BRANCH  56  57
ATOM     57  S   UNL A   1      49.807  32.043  26.785  1.00  0.00     0.124 S 
ATOM     58  O   UNL A   1      49.182  33.032  25.914  1.00  0.00    -0.237 OA
ATOM     59  O   UNL A   1      50.742  32.570  27.775  1.00  0.00    -0.237 OA
ATOM     60  O   UNL A   1      50.221  30.804  26.137  1.00  0.00    -0.744 OA
ENDBRANCH  56  57
ENDBRANCH  24  49
BRANCH  36  61
ATOM     61  C   UNL A   1      41.868  28.664  33.869  1.00  0.00     0.058 A 
ATOM     62  C   UNL A   1      41.818  29.229  35.150  1.00  0.00     0.135 A 
ATOM     63  C   UNL A   1      42.334  27.344  33.748  1.00  0.00     0.135 A 
ATOM     64  F   UNL A   1      41.376  30.485  35.321  1.00  0.00    -0.206 F 
ATOM     65  C   UNL A   1      42.174  28.495  36.276  1.00  0.00     0.059 A 
ATOM     66  C   UNL A   1      42.671  26.585  34.863  1.00  0.00     0.059 A 
ATOM     67  F   UNL A   1      42.432  26.757  32.543  1.00  0.00    -0.206 F 
ATOM     68  C   UNL A   1      42.578  27.168  36.126  1.00  0.00     0.060 A 
BRANCH  68  69
ATOM     69  S   UNL A   1      42.900  26.191  37.608  1.00  0.00     0.124 S 
ATOM     70  O   UNL A   1      43.764  27.079  38.378  1.00  0.00    -0.237 OA
ATOM     71  O   UNL A   1      41.556  25.990  38.144  1.00  0.00    -0.237 OA
ATOM     72  O   UNL A   1      43.544  24.984  37.091  1.00  0.00    -0.744 OA
ENDBRANCH  68  69
ENDBRANCH  36  61
ENDBRANCH  10  11
ENDBRANCH   3   5
ENDBRANCH   2   3
ENDBRANCH   1   2
BRANCH   1  73
ATOM     73  C   UNL A   1      36.963  21.098  24.909  1.00  0.00     0.202 C 
BRANCH  73  74
ATOM     74  O   UNL A   1      35.891  20.933  25.831  1.00  0.00    -0.374 OA
BRANCH  74  75
ATOM     75  C   UNL A   1      34.752  21.771  25.600  1.00  0.00     0.202 C 
BRANCH  75  76
ATOM     76  C   UNL A   1      34.047  21.450  24.282  1.00  0.00     0.261 C 
BRANCH  76  77
ATOM     77  O   UNL A   1      33.542  22.652  23.675  1.00  0.00    -0.460 OA
BRANCH  77  78
ATOM     78  C   UNL A   1      34.489  23.528  23.269  1.00  0.00     0.338 C 
ATOM     79  O   UNL A   1      35.553  23.301  22.719  1.00  0.00    -0.246 OA
BRANCH  78  80
ATOM     80  C   UNL A   1      33.944  24.887  23.420  1.00  0.00     0.061 A 
ATOM     81  C   UNL A   1      33.515  25.614  22.312  1.00  0.00     0.018 A 
ATOM     82  C   UNL A   1      33.886  25.419  24.716  1.00  0.00     0.037 A 
ATOM     83  C   UNL A   1      33.011  26.908  22.482  1.00  0.00     0.031 A 
ATOM     84  C   UNL A   1      33.404  26.726  24.864  1.00  0.00     0.057 A 
ATOM     85  C   UNL A   1      32.960  27.482  23.770  1.00  0.00     0.083 A 
ATOM     86  S   UNL A   1      33.246  27.668  26.300  1.00  0.00    -0.102 S 
ATOM     87  N   UNL A   1      32.501  28.752  24.077  1.00  0.00    -0.225 NA
ATOM     88  C   UNL A   1      32.605  28.930  25.369  1.00  0.00     0.184 A 
ATOM     89  Cl  UNL A   1      32.121  30.390  26.133  1.00  0.00    -0.050 Cl
ENDBRANCH  78  80
ENDBRANCH  77  78
ENDBRANCH  76  77
ENDBRANCH  75  76
ENDBRANCH  74  75
ENDBRANCH  73  74
ENDBRANCH   1  73
TORSDOF 17
ENDMDL
