MODEL 1
REMARK VINA RESULT:      -9.9      0.000      0.000
REMARK SMILES O=C(C[NH+]1CC2(CCCC2)C1)OCCOCCOC(=O)c1ccc(-c2c3nc(c(-c4c(F)cc(S(=O)(=O)[O-])cc4F)c4ccc([nH]4)c(-c4c(F)cc(S(=O)(=O)[O-])cc4F)c4nc(c(-c5c(F)cc(S(=O)(=O)[O-])cc5F)c5ccc2[nH]5)C=C4)C=C3)cc1
REMARK SMILES IDX 16 1 15 2 14 3 13 4 12 5 2 6 1 7 3 8 4 9 5 10 11 11 6 13
REMARK SMILES IDX 7 14 10 15 8 16 9 17 17 18 18 19 19 20 20 21 21 22 22 23
REMARK SMILES IDX 86 24 23 25 85 26 24 27 25 28 26 29 79 30 27 31 84 32 78 33
REMARK SMILES IDX 80 34 28 35 83 36 77 37 76 38 29 40 63 41 42 42 62 43 43 44
REMARK SMILES IDX 46 45 61 46 81 47 44 48 45 49 60 51 82 52 47 53 30 54 31 55
REMARK SMILES IDX 40 56 32 57 33 58 39 59 41 60 34 61 35 62 36 63 37 64 38 65
REMARK SMILES IDX 64 66 65 67 74 68 66 69 67 70 73 71 75 72 68 73 69 74 70 75
REMARK SMILES IDX 71 76 72 77 48 78 49 79 58 80 50 81 51 82 57 83 59 84 52 85
REMARK SMILES IDX 53 86 54 87 55 88 56 89
REMARK H PARENT 4 12 80 39 46 50
REMARK Flexibility Score: inf
ROOT
ATOM      1  C   UNL A   1      45.676  22.582  26.158  1.00  0.00     0.202 C 
ENDROOT
BRANCH   1   2
ATOM      2  O   UNL A   1      44.887  21.473  25.707  1.00  0.00    -0.374 OA
BRANCH   2   3
ATOM      3  C   UNL A   1      45.581  20.402  25.056  1.00  0.00     0.202 C 
BRANCH   3   4
ATOM      4  C   UNL A   1      44.752  19.183  24.645  1.00  0.00     0.261 C 
BRANCH   4   5
ATOM      5  O   UNL A   1      43.351  19.451  24.801  1.00  0.00    -0.459 OA
BRANCH   5   6
ATOM      6  C   UNL A   1      42.680  18.989  25.876  1.00  0.00     0.361 C 
ATOM      7  O   UNL A   1      43.041  17.952  26.435  1.00  0.00    -0.245 OA
BRANCH   6   8
ATOM      8  C   UNL A   1      41.483  19.780  26.375  1.00  0.00     0.386 C 
BRANCH   8   9
ATOM      9  N   UNL A   1      41.826  21.128  26.863  1.00  0.00    -0.324 N 
ATOM     10  C   UNL A   1      40.810  21.727  27.759  1.00  0.00     0.275 C 
ATOM     11  C   UNL A   1      41.448  22.113  25.819  1.00  0.00     0.275 C 
ATOM     12  H   UNL A   1      42.777  21.003  27.210  1.00  0.00     0.348 HD
ATOM     13  C   UNL A   1      40.069  22.301  26.525  1.00  0.00     0.068 C 
ATOM     14  C   UNL A   1      38.862  21.480  26.039  1.00  0.00     0.019 C 
ATOM     15  C   UNL A   1      39.602  23.755  26.627  1.00  0.00     0.019 C 
ATOM     16  C   UNL A   1      37.913  22.514  25.467  1.00  0.00     0.001 C 
ATOM     17  C   UNL A   1      38.093  23.688  26.410  1.00  0.00     0.001 C 
ENDBRANCH   8   9
ENDBRANCH   6   8
ENDBRANCH   5   6
ENDBRANCH   4   5
ENDBRANCH   3   4
ENDBRANCH   2   3
ENDBRANCH   1   2
BRANCH   1  18
ATOM     18  C   UNL A   1      45.147  23.366  27.364  1.00  0.00     0.261 C 
BRANCH  18  19
ATOM     19  O   UNL A   1      43.771  23.715  27.187  1.00  0.00    -0.460 OA
BRANCH  19  20
ATOM     20  C   UNL A   1      43.574  24.880  26.526  1.00  0.00     0.338 C 
ATOM     21  O   UNL A   1      43.727  25.082  25.330  1.00  0.00    -0.246 OA
BRANCH  20  22
ATOM     22  C   UNL A   1      42.885  25.824  27.426  1.00  0.00     0.060 A 
ATOM     23  C   UNL A   1      43.307  27.161  27.399  1.00  0.00     0.016 A 
ATOM     24  C   UNL A   1      41.836  25.422  28.255  1.00  0.00     0.016 A 
ATOM     25  C   UNL A   1      42.725  28.089  28.248  1.00  0.00     0.010 A 
ATOM     26  C   UNL A   1      41.267  26.349  29.127  1.00  0.00     0.010 A 
ATOM     27  C   UNL A   1      41.750  27.669  29.159  1.00  0.00    -0.014 A 
BRANCH  27  28
ATOM     28  C   UNL A   1      41.431  28.546  30.301  1.00  0.00     0.031 A 
ATOM     29  C   UNL A   1      42.279  28.416  31.537  1.00  0.00     0.074 A 
ATOM     30  C   UNL A   1      40.459  29.469  30.214  1.00  0.00     0.049 A 
ATOM     31  N   UNL A   1      42.190  29.049  32.676  1.00  0.00    -0.248 NA
ATOM     32  C   UNL A   1      43.379  27.435  31.478  1.00  0.00     0.031 C 
ATOM     33  C   UNL A   1      39.616  29.699  29.041  1.00  0.00     0.029 A 
ATOM     34  N   UNL A   1      40.018  30.382  31.134  1.00  0.00    -0.354 N 
ATOM     35  C   UNL A   1      43.218  28.545  33.465  1.00  0.00     0.074 A 
ATOM     36  C   UNL A   1      43.888  27.522  32.698  1.00  0.00     0.031 C 
ATOM     37  C   UNL A   1      38.745  30.684  29.321  1.00  0.00     0.029 A 
ATOM     38  C   UNL A   1      38.951  31.128  30.697  1.00  0.00     0.049 A 
ATOM     39  H   UNL A   1      40.427  30.494  32.022  1.00  0.00     0.167 HD
ATOM     40  C   UNL A   1      43.578  28.919  34.714  1.00  0.00     0.037 A 
ATOM     41  C   UNL A   1      38.213  32.044  31.354  1.00  0.00     0.037 A 
ATOM     42  C   UNL A   1      42.892  29.936  35.465  1.00  0.00     0.049 A 
ATOM     43  C   UNL A   1      38.586  32.390  32.773  1.00  0.00     0.074 A 
ATOM     44  C   UNL A   1      43.158  30.391  36.743  1.00  0.00     0.029 A 
ATOM     45  N   UNL A   1      41.799  30.656  35.001  1.00  0.00    -0.354 N 
ATOM     46  N   UNL A   1      39.565  31.914  33.510  1.00  0.00    -0.248 NA
ATOM     47  C   UNL A   1      37.765  33.403  33.447  1.00  0.00     0.031 C 
ATOM     48  C   UNL A   1      42.195  31.352  37.071  1.00  0.00     0.029 A 
ATOM     49  C   UNL A   1      41.367  31.541  35.974  1.00  0.00     0.049 A 
ATOM     50  H   UNL A   1      41.391  30.553  34.111  1.00  0.00     0.167 HD
ATOM     51  C   UNL A   1      39.493  32.593  34.723  1.00  0.00     0.074 A 
ATOM     52  C   UNL A   1      38.389  33.524  34.610  1.00  0.00     0.031 C 
ATOM     53  C   UNL A   1      40.268  32.463  35.831  1.00  0.00     0.037 A 
BRANCH  40  54
ATOM     54  C   UNL A   1      44.750  28.216  35.342  1.00  0.00     0.058 A 
ATOM     55  C   UNL A   1      44.590  27.037  36.089  1.00  0.00     0.135 A 
ATOM     56  C   UNL A   1      46.052  28.709  35.174  1.00  0.00     0.135 A 
ATOM     57  F   UNL A   1      43.363  26.533  36.306  1.00  0.00    -0.206 F 
ATOM     58  C   UNL A   1      45.676  26.384  36.663  1.00  0.00     0.059 A 
ATOM     59  C   UNL A   1      47.158  28.057  35.713  1.00  0.00     0.059 A 
ATOM     60  F   UNL A   1      46.264  29.838  34.480  1.00  0.00    -0.206 F 
ATOM     61  C   UNL A   1      46.958  26.899  36.465  1.00  0.00     0.060 A 
BRANCH  61  62
ATOM     62  S   UNL A   1      48.358  26.027  37.197  1.00  0.00     0.124 S 
ATOM     63  O   UNL A   1      48.568  26.789  38.425  1.00  0.00    -0.237 OA
ATOM     64  O   UNL A   1      47.828  24.679  37.371  1.00  0.00    -0.237 OA
ATOM     65  O   UNL A   1      49.407  26.161  36.191  1.00  0.00    -0.744 OA
ENDBRANCH  61  62
ENDBRANCH  40  54
BRANCH  41  66
ATOM     66  C   UNL A   1      37.045  32.682  30.688  1.00  0.00     0.058 A 
ATOM     67  C   UNL A   1      37.206  33.765  29.812  1.00  0.00     0.135 A 
ATOM     68  C   UNL A   1      35.739  32.228  30.931  1.00  0.00     0.135 A 
ATOM     69  F   UNL A   1      38.432  34.240  29.550  1.00  0.00    -0.206 F 
ATOM     70  C   UNL A   1      36.114  34.396  29.224  1.00  0.00     0.059 A 
ATOM     71  C   UNL A   1      34.633  32.820  30.330  1.00  0.00     0.059 A 
ATOM     72  F   UNL A   1      35.529  31.185  31.749  1.00  0.00    -0.206 F 
ATOM     73  C   UNL A   1      34.830  33.915  29.491  1.00  0.00     0.060 A 
BRANCH  73  74
ATOM     74  S   UNL A   1      33.421  34.728  28.707  1.00  0.00     0.124 S 
ATOM     75  O   UNL A   1      34.054  35.894  28.102  1.00  0.00    -0.237 OA
ATOM     76  O   UNL A   1      32.953  33.702  27.780  1.00  0.00    -0.237 OA
ATOM     77  O   UNL A   1      32.527  35.005  29.827  1.00  0.00    -0.744 OA
ENDBRANCH  73  74
ENDBRANCH  41  66
BRANCH  53  78
ATOM     78  C   UNL A   1      39.975  33.380  36.987  1.00  0.00     0.058 A 
ATOM     79  C   UNL A   1      39.018  33.060  37.962  1.00  0.00     0.135 A 
ATOM     80  C   UNL A   1      40.690  34.578  37.138  1.00  0.00     0.135 A 
ATOM     81  F   UNL A   1      38.303  31.927  37.864  1.00  0.00    -0.206 F 
ATOM     82  C   UNL A   1      38.752  33.915  39.026  1.00  0.00     0.059 A 
ATOM     83  C   UNL A   1      40.467  35.432  38.213  1.00  0.00     0.059 A 
ATOM     84  F   UNL A   1      41.628  34.924  36.242  1.00  0.00    -0.206 F 
ATOM     85  C   UNL A   1      39.483  35.100  39.142  1.00  0.00     0.060 A 
BRANCH  85  86
ATOM     86  S   UNL A   1      39.139  36.194  40.535  1.00  0.00     0.124 S 
ATOM     87  O   UNL A   1      38.118  35.439  41.256  1.00  0.00    -0.237 OA
ATOM     88  O   UNL A   1      40.440  36.286  41.188  1.00  0.00    -0.237 OA
ATOM     89  O   UNL A   1      38.675  37.422  39.897  1.00  0.00    -0.744 OA
ENDBRANCH  85  86
ENDBRANCH  53  78
ENDBRANCH  27  28
ENDBRANCH  20  22
ENDBRANCH  19  20
ENDBRANCH  18  19
ENDBRANCH   1  18
TORSDOF 18
ENDMDL
MODEL 2
REMARK VINA RESULT:      -9.7      6.014     13.825
REMARK SMILES O=C(C[NH+]1CC2(CCCC2)C1)OCCOCCOC(=O)c1ccc(-c2c3nc(c(-c4c(F)cc(S(=O)(=O)[O-])cc4F)c4ccc([nH]4)c(-c4c(F)cc(S(=O)(=O)[O-])cc4F)c4nc(c(-c5c(F)cc(S(=O)(=O)[O-])cc5F)c5ccc2[nH]5)C=C4)C=C3)cc1
REMARK SMILES IDX 16 1 15 2 14 3 13 4 12 5 2 6 1 7 3 8 4 9 5 10 11 11 6 13
REMARK SMILES IDX 7 14 10 15 8 16 9 17 17 18 18 19 19 20 20 21 21 22 22 23
REMARK SMILES IDX 86 24 23 25 85 26 24 27 25 28 26 29 79 30 27 31 84 32 78 33
REMARK SMILES IDX 80 34 28 35 83 36 77 37 76 38 29 40 63 41 42 42 62 43 43 44
REMARK SMILES IDX 46 45 61 46 81 47 44 48 45 49 60 51 82 52 47 53 30 54 31 55
REMARK SMILES IDX 40 56 32 57 33 58 39 59 41 60 34 61 35 62 36 63 37 64 38 65
REMARK SMILES IDX 64 66 65 67 74 68 66 69 67 70 73 71 75 72 68 73 69 74 70 75
REMARK SMILES IDX 71 76 72 77 48 78 49 79 58 80 50 81 51 82 57 83 59 84 52 85
REMARK SMILES IDX 53 86 54 87 55 88 56 89
REMARK H PARENT 4 12 80 39 46 50
REMARK Flexibility Score: inf
ROOT
ATOM      1  C   UNL A   1      35.055  32.828  28.352  1.00  0.00     0.202 C 
ENDROOT
BRANCH   1   2
ATOM      2  O   UNL A   1      34.751  34.159  28.789  1.00  0.00    -0.374 OA
BRANCH   2   3
ATOM      3  C   UNL A   1      33.518  34.728  28.333  1.00  0.00     0.202 C 
BRANCH   3   4
ATOM      4  C   UNL A   1      32.918  35.858  29.173  1.00  0.00     0.261 C 
BRANCH   4   5
ATOM      5  O   UNL A   1      32.624  35.397  30.500  1.00  0.00    -0.459 OA
BRANCH   5   6
ATOM      6  C   UNL A   1      33.123  36.040  31.576  1.00  0.00     0.361 C 
ATOM      7  O   UNL A   1      32.810  37.210  31.799  1.00  0.00    -0.245 OA
BRANCH   6   8
ATOM      8  C   UNL A   1      34.065  35.284  32.497  1.00  0.00     0.386 C 
BRANCH   8   9
ATOM      9  N   UNL A   1      34.685  34.103  31.870  1.00  0.00    -0.324 N 
ATOM     10  C   UNL A   1      34.691  32.893  32.724  1.00  0.00     0.275 C 
ATOM     11  C   UNL A   1      36.156  34.200  32.042  1.00  0.00     0.275 C 
ATOM     12  H   UNL A   1      34.220  34.064  30.963  1.00  0.00     0.348 HD
ATOM     13  C   UNL A   1      36.040  33.343  33.342  1.00  0.00     0.068 C 
ATOM     14  C   UNL A   1      35.938  34.057  34.700  1.00  0.00     0.019 C 
ATOM     15  C   UNL A   1      37.115  32.264  33.488  1.00  0.00     0.019 C 
ATOM     16  C   UNL A   1      37.221  33.682  35.415  1.00  0.00     0.001 C 
ATOM     17  C   UNL A   1      37.438  32.246  34.979  1.00  0.00     0.001 C 
ENDBRANCH   8   9
ENDBRANCH   6   8
ENDBRANCH   5   6
ENDBRANCH   4   5
ENDBRANCH   3   4
ENDBRANCH   2   3
ENDBRANCH   1   2
BRANCH   1  18
ATOM     18  C   UNL A   1      35.031  31.725  29.414  1.00  0.00     0.261 C 
BRANCH  18  19
ATOM     19  O   UNL A   1      35.923  30.659  29.071  1.00  0.00    -0.460 OA
BRANCH  19  20
ATOM     20  C   UNL A   1      36.616  30.155  30.119  1.00  0.00     0.338 C 
ATOM     21  O   UNL A   1      36.154  29.653  31.133  1.00  0.00    -0.246 OA
BRANCH  20  22
ATOM     22  C   UNL A   1      38.039  30.062  29.743  1.00  0.00     0.060 A 
ATOM     23  C   UNL A   1      38.333  29.878  28.384  1.00  0.00     0.016 A 
ATOM     24  C   UNL A   1      39.061  30.181  30.686  1.00  0.00     0.016 A 
ATOM     25  C   UNL A   1      39.650  29.745  27.971  1.00  0.00     0.010 A 
ATOM     26  C   UNL A   1      40.385  30.023  30.275  1.00  0.00     0.010 A 
ATOM     27  C   UNL A   1      40.672  29.752  28.927  1.00  0.00    -0.014 A 
BRANCH  27  28
ATOM     28  C   UNL A   1      41.995  29.223  28.544  1.00  0.00     0.031 A 
ATOM     29  C   UNL A   1      43.148  30.189  28.510  1.00  0.00     0.074 A 
ATOM     30  C   UNL A   1      42.171  27.915  28.298  1.00  0.00     0.049 A 
ATOM     31  N   UNL A   1      44.396  29.982  28.185  1.00  0.00    -0.248 NA
ATOM     32  C   UNL A   1      42.850  31.581  28.894  1.00  0.00     0.031 C 
ATOM     33  C   UNL A   1      41.123  26.896  28.353  1.00  0.00     0.029 A 
ATOM     34  N   UNL A   1      43.300  27.222  27.950  1.00  0.00    -0.354 N 
ATOM     35  C   UNL A   1      45.028  31.212  28.326  1.00  0.00     0.074 A 
ATOM     36  C   UNL A   1      44.023  32.171  28.718  1.00  0.00     0.031 C 
ATOM     37  C   UNL A   1      41.658  25.706  28.032  1.00  0.00     0.029 A 
ATOM     38  C   UNL A   1      43.074  25.887  27.721  1.00  0.00     0.049 A 
ATOM     39  H   UNL A   1      44.187  27.640  27.872  1.00  0.00     0.167 HD
ATOM     40  C   UNL A   1      46.338  31.506  28.159  1.00  0.00     0.037 A 
ATOM     41  C   UNL A   1      43.918  24.933  27.283  1.00  0.00     0.037 A 
ATOM     42  C   UNL A   1      47.323  30.538  27.761  1.00  0.00     0.049 A 
ATOM     43  C   UNL A   1      45.357  25.302  27.030  1.00  0.00     0.074 A 
ATOM     44  C   UNL A   1      48.677  30.722  27.548  1.00  0.00     0.029 A 
ATOM     45  N   UNL A   1      47.056  29.197  27.514  1.00  0.00    -0.354 N 
ATOM     46  N   UNL A   1      45.950  26.467  27.173  1.00  0.00    -0.248 NA
ATOM     47  C   UNL A   1      46.247  24.230  26.567  1.00  0.00     0.031 C 
ATOM     48  C   UNL A   1      49.219  29.504  27.123  1.00  0.00     0.029 A 
ATOM     49  C   UNL A   1      48.216  28.546  27.133  1.00  0.00     0.049 A 
ATOM     50  H   UNL A   1      46.172  28.773  27.596  1.00  0.00     0.167 HD
ATOM     51  C   UNL A   1      47.287  26.257  26.846  1.00  0.00     0.074 A 
ATOM     52  C   UNL A   1      47.416  24.852  26.518  1.00  0.00     0.031 C 
ATOM     53  C   UNL A   1      48.316  27.142  26.820  1.00  0.00     0.037 A 
BRANCH  40  54
ATOM     54  C   UNL A   1      46.768  32.929  28.392  1.00  0.00     0.058 A 
ATOM     55  C   UNL A   1      47.237  33.364  29.642  1.00  0.00     0.135 A 
ATOM     56  C   UNL A   1      46.736  33.865  27.346  1.00  0.00     0.135 A 
ATOM     57  F   UNL A   1      47.265  32.519  30.686  1.00  0.00    -0.206 F 
ATOM     58  C   UNL A   1      47.640  34.679  29.853  1.00  0.00     0.059 A 
ATOM     59  C   UNL A   1      47.163  35.177  27.525  1.00  0.00     0.059 A 
ATOM     60  F   UNL A   1      46.285  33.508  26.133  1.00  0.00    -0.206 F 
ATOM     61  C   UNL A   1      47.605  35.577  28.786  1.00  0.00     0.060 A 
BRANCH  61  62
ATOM     62  S   UNL A   1      48.153  37.273  29.071  1.00  0.00     0.124 S 
ATOM     63  O   UNL A   1      49.603  37.130  28.985  1.00  0.00    -0.237 OA
ATOM     64  O   UNL A   1      47.521  37.993  27.970  1.00  0.00    -0.237 OA
ATOM     65  O   UNL A   1      47.632  37.581  30.399  1.00  0.00    -0.744 OA
ENDBRANCH  61  62
ENDBRANCH  40  54
BRANCH  41  66
ATOM     66  C   UNL A   1      43.424  23.550  27.041  1.00  0.00     0.058 A 
ATOM     67  C   UNL A   1      43.011  23.136  25.767  1.00  0.00     0.135 A 
ATOM     68  C   UNL A   1      43.338  22.619  28.089  1.00  0.00     0.135 A 
ATOM     69  F   UNL A   1      43.068  23.988  24.732  1.00  0.00    -0.206 F 
ATOM     70  C   UNL A   1      42.503  21.860  25.543  1.00  0.00     0.059 A 
ATOM     71  C   UNL A   1      42.865  21.328  27.885  1.00  0.00     0.059 A 
ATOM     72  F   UNL A   1      43.734  22.958  29.326  1.00  0.00    -0.206 F 
ATOM     73  C   UNL A   1      42.433  20.962  26.611  1.00  0.00     0.060 A 
BRANCH  73  74
ATOM     74  S   UNL A   1      41.791  19.302  26.307  1.00  0.00     0.124 S 
ATOM     75  O   UNL A   1      40.447  19.592  25.820  1.00  0.00    -0.237 OA
ATOM     76  O   UNL A   1      42.732  18.787  25.316  1.00  0.00    -0.237 OA
ATOM     77  O   UNL A   1      41.865  18.668  27.619  1.00  0.00    -0.744 OA
ENDBRANCH  73  74
ENDBRANCH  41  66
BRANCH  53  78
ATOM     78  C   UNL A   1      49.677  26.604  26.467  1.00  0.00     0.058 A 
ATOM     79  C   UNL A   1      50.160  26.616  25.150  1.00  0.00     0.135 A 
ATOM     80  C   UNL A   1      50.521  26.103  27.472  1.00  0.00     0.135 A 
ATOM     81  F   UNL A   1      49.393  27.081  24.151  1.00  0.00    -0.206 F 
ATOM     82  C   UNL A   1      51.418  26.114  24.835  1.00  0.00     0.059 A 
ATOM     83  C   UNL A   1      51.796  25.629  27.185  1.00  0.00     0.059 A 
ATOM     84  F   UNL A   1      50.114  26.083  28.751  1.00  0.00    -0.206 F 
ATOM     85  C   UNL A   1      52.229  25.622  25.860  1.00  0.00     0.060 A 
BRANCH  85  86
ATOM     86  S   UNL A   1      53.864  24.988  25.439  1.00  0.00     0.124 S 
ATOM     87  O   UNL A   1      53.596  23.560  25.288  1.00  0.00    -0.237 OA
ATOM     88  O   UNL A   1      54.172  25.709  24.208  1.00  0.00    -0.237 OA
ATOM     89  O   UNL A   1      54.680  25.353  26.593  1.00  0.00    -0.744 OA
ENDBRANCH  85  86
ENDBRANCH  53  78
ENDBRANCH  27  28
ENDBRANCH  20  22
ENDBRANCH  19  20
ENDBRANCH  18  19
ENDBRANCH   1  18
TORSDOF 18
ENDMDL
MODEL 3
REMARK VINA RESULT:      -9.6      2.963      4.089
REMARK SMILES O=C(C[NH+]1CC2(CCCC2)C1)OCCOCCOC(=O)c1ccc(-c2c3nc(c(-c4c(F)cc(S(=O)(=O)[O-])cc4F)c4ccc([nH]4)c(-c4c(F)cc(S(=O)(=O)[O-])cc4F)c4nc(c(-c5c(F)cc(S(=O)(=O)[O-])cc5F)c5ccc2[nH]5)C=C4)C=C3)cc1
REMARK SMILES IDX 16 1 15 2 14 3 13 4 12 5 2 6 1 7 3 8 4 9 5 10 11 11 6 13
REMARK SMILES IDX 7 14 10 15 8 16 9 17 17 18 18 19 19 20 20 21 21 22 22 23
REMARK SMILES IDX 86 24 23 25 85 26 24 27 25 28 26 29 79 30 27 31 84 32 78 33
REMARK SMILES IDX 80 34 28 35 83 36 77 37 76 38 29 40 63 41 42 42 62 43 43 44
REMARK SMILES IDX 46 45 61 46 81 47 44 48 45 49 60 51 82 52 47 53 30 54 31 55
REMARK SMILES IDX 40 56 32 57 33 58 39 59 41 60 34 61 35 62 36 63 37 64 38 65
REMARK SMILES IDX 64 66 65 67 74 68 66 69 67 70 73 71 75 72 68 73 69 74 70 75
REMARK SMILES IDX 71 76 72 77 48 78 49 79 58 80 50 81 51 82 57 83 59 84 52 85
REMARK SMILES IDX 53 86 54 87 55 88 56 89
REMARK H PARENT 4 12 80 39 46 50
REMARK Flexibility Score: inf
ROOT
ATOM      1  C   UNL A   1      38.740  22.392  26.386  1.00  0.00     0.202 C 
ENDROOT
BRANCH   1   2
ATOM      2  O   UNL A   1      38.803  21.278  25.487  1.00  0.00    -0.374 OA
BRANCH   2   3
ATOM      3  C   UNL A   1      37.618  20.975  24.741  1.00  0.00     0.202 C 
BRANCH   3   4
ATOM      4  C   UNL A   1      36.279  21.131  25.467  1.00  0.00     0.261 C 
BRANCH   4   5
ATOM      5  O   UNL A   1      35.579  22.288  24.987  1.00  0.00    -0.459 OA
BRANCH   5   6
ATOM      6  C   UNL A   1      34.248  22.245  24.772  1.00  0.00     0.361 C 
ATOM      7  O   UNL A   1      33.521  23.142  25.200  1.00  0.00    -0.245 OA
BRANCH   6   8
ATOM      8  C   UNL A   1      33.681  21.073  23.989  1.00  0.00     0.386 C 
BRANCH   8   9
ATOM      9  N   UNL A   1      32.538  20.418  24.650  1.00  0.00    -0.324 N 
ATOM     10  C   UNL A   1      32.911  19.547  25.788  1.00  0.00     0.275 C 
ATOM     11  C   UNL A   1      32.181  19.205  23.873  1.00  0.00     0.275 C 
ATOM     12  H   UNL A   1      31.900  21.197  24.814  1.00  0.00     0.348 HD
ATOM     13  C   UNL A   1      33.099  18.359  24.809  1.00  0.00     0.068 C 
ATOM     14  C   UNL A   1      34.550  18.080  24.381  1.00  0.00     0.019 C 
ATOM     15  C   UNL A   1      32.500  17.019  25.244  1.00  0.00     0.019 C 
ATOM     16  C   UNL A   1      34.591  16.581  24.162  1.00  0.00     0.001 C 
ATOM     17  C   UNL A   1      33.685  16.058  25.259  1.00  0.00     0.001 C 
ENDBRANCH   8   9
ENDBRANCH   6   8
ENDBRANCH   5   6
ENDBRANCH   4   5
ENDBRANCH   3   4
ENDBRANCH   2   3
ENDBRANCH   1   2
BRANCH   1  18
ATOM     18  C   UNL A   1      39.963  23.313  26.438  1.00  0.00     0.261 C 
BRANCH  18  19
ATOM     19  O   UNL A   1      39.576  24.689  26.350  1.00  0.00    -0.460 OA
BRANCH  19  20
ATOM     20  C   UNL A   1      40.613  25.552  26.244  1.00  0.00     0.338 C 
ATOM     21  O   UNL A   1      41.232  25.838  25.229  1.00  0.00    -0.246 OA
BRANCH  20  22
ATOM     22  C   UNL A   1      40.727  26.310  27.504  1.00  0.00     0.060 A 
ATOM     23  C   UNL A   1      39.717  26.125  28.459  1.00  0.00     0.016 A 
ATOM     24  C   UNL A   1      41.807  27.158  27.761  1.00  0.00     0.016 A 
ATOM     25  C   UNL A   1      39.747  26.837  29.648  1.00  0.00     0.010 A 
ATOM     26  C   UNL A   1      41.825  27.893  28.946  1.00  0.00     0.010 A 
ATOM     27  C   UNL A   1      40.767  27.770  29.863  1.00  0.00    -0.014 A 
BRANCH  27  28
ATOM     28  C   UNL A   1      40.580  28.786  30.917  1.00  0.00     0.031 A 
ATOM     29  C   UNL A   1      41.468  28.705  32.128  1.00  0.00     0.074 A 
ATOM     30  C   UNL A   1      39.691  29.781  30.766  1.00  0.00     0.049 A 
ATOM     31  N   UNL A   1      41.487  29.456  33.195  1.00  0.00    -0.248 NA
ATOM     32  C   UNL A   1      42.472  27.625  32.135  1.00  0.00     0.031 C 
ATOM     33  C   UNL A   1      38.820  29.968  29.606  1.00  0.00     0.029 A 
ATOM     34  N   UNL A   1      39.375  30.821  31.599  1.00  0.00    -0.354 N 
ATOM     35  C   UNL A   1      42.501  28.943  33.997  1.00  0.00     0.074 A 
ATOM     36  C   UNL A   1      43.042  27.788  33.319  1.00  0.00     0.031 C 
ATOM     37  C   UNL A   1      38.054  31.053  29.810  1.00  0.00     0.029 A 
ATOM     38  C   UNL A   1      38.360  31.615  31.123  1.00  0.00     0.049 A 
ATOM     39  H   UNL A   1      39.832  30.985  32.455  1.00  0.00     0.167 HD
ATOM     40  C   UNL A   1      42.949  29.408  35.185  1.00  0.00     0.037 A 
ATOM     41  C   UNL A   1      37.737  32.658  31.705  1.00  0.00     0.037 A 
ATOM     42  C   UNL A   1      42.391  30.556  35.847  1.00  0.00     0.049 A 
ATOM     43  C   UNL A   1      38.204  33.111  33.065  1.00  0.00     0.074 A 
ATOM     44  C   UNL A   1      42.754  31.113  37.059  1.00  0.00     0.029 A 
ATOM     45  N   UNL A   1      41.347  31.324  35.348  1.00  0.00    -0.354 N 
ATOM     46  N   UNL A   1      39.168  32.625  33.813  1.00  0.00    -0.248 NA
ATOM     47  C   UNL A   1      37.507  34.260  33.657  1.00  0.00     0.031 C 
ATOM     48  C   UNL A   1      41.895  32.188  37.318  1.00  0.00     0.029 A 
ATOM     49  C   UNL A   1      41.039  32.339  36.237  1.00  0.00     0.049 A 
ATOM     50  H   UNL A   1      40.891  31.168  34.490  1.00  0.00     0.167 HD
ATOM     51  C   UNL A   1      39.212  33.428  34.949  1.00  0.00     0.074 A 
ATOM     52  C   UNL A   1      38.191  34.441  34.777  1.00  0.00     0.031 C 
ATOM     53  C   UNL A   1      40.021  33.340  36.036  1.00  0.00     0.037 A 
BRANCH  40  54
ATOM     54  C   UNL A   1      44.080  28.666  35.842  1.00  0.00     0.058 A 
ATOM     55  C   UNL A   1      43.849  27.602  36.730  1.00  0.00     0.135 A 
ATOM     56  C   UNL A   1      45.413  29.004  35.562  1.00  0.00     0.135 A 
ATOM     57  F   UNL A   1      42.594  27.253  37.057  1.00  0.00    -0.206 F 
ATOM     58  C   UNL A   1      44.898  26.914  37.331  1.00  0.00     0.059 A 
ATOM     59  C   UNL A   1      46.479  28.309  36.128  1.00  0.00     0.059 A 
ATOM     60  F   UNL A   1      45.693  30.019  34.730  1.00  0.00    -0.206 F 
ATOM     61  C   UNL A   1      46.211  27.271  37.019  1.00  0.00     0.060 A 
BRANCH  61  62
ATOM     62  S   UNL A   1      47.559  26.352  37.790  1.00  0.00     0.124 S 
ATOM     63  O   UNL A   1      47.228  24.980  37.418  1.00  0.00    -0.237 OA
ATOM     64  O   UNL A   1      48.734  26.920  37.138  1.00  0.00    -0.237 OA
ATOM     65  O   UNL A   1      47.419  26.667  39.209  1.00  0.00    -0.744 OA
ENDBRANCH  61  62
ENDBRANCH  40  54
BRANCH  41  66
ATOM     66  C   UNL A   1      36.602  33.330  31.017  1.00  0.00     0.058 A 
ATOM     67  C   UNL A   1      36.811  34.176  29.918  1.00  0.00     0.135 A 
ATOM     68  C   UNL A   1      35.281  33.152  31.460  1.00  0.00     0.135 A 
ATOM     69  F   UNL A   1      38.054  34.384  29.459  1.00  0.00    -0.206 F 
ATOM     70  C   UNL A   1      35.759  34.845  29.301  1.00  0.00     0.059 A 
ATOM     71  C   UNL A   1      34.208  33.783  30.839  1.00  0.00     0.059 A 
ATOM     72  F   UNL A   1      35.022  32.342  32.498  1.00  0.00    -0.206 F 
ATOM     73  C   UNL A   1      34.459  34.642  29.771  1.00  0.00     0.060 A 
BRANCH  73  74
ATOM     74  S   UNL A   1      33.098  35.498  28.950  1.00  0.00     0.124 S 
ATOM     75  O   UNL A   1      32.482  34.414  28.195  1.00  0.00    -0.237 OA
ATOM     76  O   UNL A   1      32.329  36.006  30.083  1.00  0.00    -0.237 OA
ATOM     77  O   UNL A   1      33.774  36.518  28.155  1.00  0.00    -0.744 OA
ENDBRANCH  73  74
ENDBRANCH  41  66
BRANCH  53  78
ATOM     78  C   UNL A   1      39.863  34.394  37.098  1.00  0.00     0.058 A 
ATOM     79  C   UNL A   1      40.540  35.622  37.031  1.00  0.00     0.135 A 
ATOM     80  C   UNL A   1      38.993  34.183  38.179  1.00  0.00     0.135 A 
ATOM     81  F   UNL A   1      41.387  35.874  36.019  1.00  0.00    -0.206 F 
ATOM     82  C   UNL A   1      40.389  36.588  38.019  1.00  0.00     0.059 A 
ATOM     83  C   UNL A   1      38.799  35.149  39.161  1.00  0.00     0.059 A 
ATOM     84  F   UNL A   1      38.309  33.033  38.284  1.00  0.00    -0.206 F 
ATOM     85  C   UNL A   1      39.516  36.342  39.081  1.00  0.00     0.060 A 
BRANCH  85  86
ATOM     86  S   UNL A   1      39.318  37.610  40.348  1.00  0.00     0.124 S 
ATOM     87  O   UNL A   1      38.255  38.433  39.778  1.00  0.00    -0.237 OA
ATOM     88  O   UNL A   1      38.952  36.824  41.522  1.00  0.00    -0.237 OA
ATOM     89  O   UNL A   1      40.634  38.240  40.408  1.00  0.00    -0.744 OA
ENDBRANCH  85  86
ENDBRANCH  53  78
ENDBRANCH  27  28
ENDBRANCH  20  22
ENDBRANCH  19  20
ENDBRANCH  18  19
ENDBRANCH   1  18
TORSDOF 18
ENDMDL
