MODEL 1
REMARK VINA RESULT:     -10.5      0.000      0.000
REMARK SMILES CCN(CC)S(=O)(=O)c1ccc(F)c(C(=O)N2CCC[C@H]2C(=O)OCCOCCOC(=O)c2ccc(-c3c4nc(c(-c5c(F)cc(S(=O)(=O)[O-])cc5F)c5ccc([nH]5)c(-c5c(F)cc(S(=O)(=O)[O-])cc5F)c5nc(c(-c6c(F)cc(S(=O)(=O)[O-])cc6F)c6ccc3[nH]6)C=C5)C=C4)cc2)c1
REMARK SMILES IDX 26 1 25 2 24 3 22 4 23 5 21 6 17 7 18 8 19 9 20 10 15 11
REMARK SMILES IDX 16 12 14 13 9 14 10 15 99 16 11 17 12 18 13 19 6 20 7 21
REMARK SMILES IDX 8 22 3 23 2 24 1 25 4 26 5 27 27 28 28 29 29 30 30 31 31 32
REMARK SMILES IDX 32 33 33 34 34 35 98 36 35 37 97 38 36 39 37 40 38 41 91 42
REMARK SMILES IDX 39 43 96 44 90 45 92 46 40 47 95 48 89 49 88 50 41 52 75 53
REMARK SMILES IDX 54 54 74 55 55 56 58 57 73 58 93 59 56 60 57 61 72 63 94 64
REMARK SMILES IDX 59 65 42 66 43 67 52 68 44 69 45 70 51 71 53 72 46 73 47 74
REMARK SMILES IDX 48 75 49 76 50 77 76 78 77 79 86 80 78 81 79 82 85 83 87 84
REMARK SMILES IDX 80 85 81 86 82 87 83 88 84 89 60 90 61 91 70 92 62 93 63 94
REMARK SMILES IDX 69 95 71 96 64 97 65 98 66 99 67 100 68 101
REMARK H PARENT 92 51 58 62
REMARK Flexibility Score: inf
ROOT
ATOM      1  C   UNL A   1      33.310  31.932  27.592  1.00  0.00     0.202 C 
ENDROOT
BRANCH   1   2
ATOM      2  C   UNL A   1      33.010  30.493  27.166  1.00  0.00     0.261 C 
BRANCH   2   3
ATOM      3  O   UNL A   1      32.308  30.499  25.908  1.00  0.00    -0.462 OA
BRANCH   3   4
ATOM      4  C   UNL A   1      31.639  29.358  25.576  1.00  0.00     0.328 C 
ATOM      5  O   UNL A   1      31.455  28.417  26.338  1.00  0.00    -0.250 OA
BRANCH   4   6
ATOM      6  C   UNL A   1      31.093  29.416  24.136  1.00  0.00     0.195 C 
ATOM      7  N   UNL A   1      30.613  28.157  23.534  1.00  0.00    -0.325 N 
ATOM      8  C   UNL A   1      29.220  28.283  23.130  1.00  0.00     0.121 C 
ATOM      9  C   UNL A   1      29.056  29.771  22.877  1.00  0.00     0.024 C 
ATOM     10  C   UNL A   1      29.918  30.397  23.968  1.00  0.00     0.039 C 
BRANCH   7  11
ATOM     11  C   UNL A   1      31.527  27.173  23.199  1.00  0.00     0.257 C 
ATOM     12  O   UNL A   1      32.235  27.275  22.199  1.00  0.00    -0.269 OA
BRANCH  11  13
ATOM     13  C   UNL A   1      31.657  25.919  23.987  1.00  0.00     0.077 A 
ATOM     14  C   UNL A   1      32.807  23.791  24.318  1.00  0.00     0.083 A 
ATOM     15  C   UNL A   1      31.808  23.383  25.208  1.00  0.00     0.025 A 
ATOM     16  C   UNL A   1      32.728  25.050  23.701  1.00  0.00     0.038 A 
ATOM     17  C   UNL A   1      30.723  24.220  25.457  1.00  0.00     0.041 A 
ATOM     18  C   UNL A   1      30.641  25.463  24.830  1.00  0.00     0.136 A 
ATOM     19  F   UNL A   1      29.510  26.161  25.003  1.00  0.00    -0.206 F 
BRANCH  14  20
ATOM     20  S   UNL A   1      34.018  22.590  23.777  1.00  0.00     0.243 S 
ATOM     21  O   UNL A   1      34.581  23.062  22.531  1.00  0.00    -0.207 OA
ATOM     22  O   UNL A   1      33.358  21.300  23.823  1.00  0.00    -0.207 OA
BRANCH  20  23
ATOM     23  N   UNL A   1      35.244  22.597  24.976  1.00  0.00    -0.198 NA
BRANCH  23  24
ATOM     24  C   UNL A   1      34.997  21.667  26.127  1.00  0.00     0.099 C 
ATOM     25  C   UNL A   1      34.474  22.378  27.362  1.00  0.00     0.022 C 
ENDBRANCH  23  24
BRANCH  23  26
ATOM     26  C   UNL A   1      36.667  22.521  24.518  1.00  0.00     0.099 C 
ATOM     27  C   UNL A   1      37.352  21.195  24.816  1.00  0.00     0.022 C 
ENDBRANCH  23  26
ENDBRANCH  20  23
ENDBRANCH  14  20
ENDBRANCH  11  13
ENDBRANCH   7  11
ENDBRANCH   4   6
ENDBRANCH   3   4
ENDBRANCH   2   3
ENDBRANCH   1   2
BRANCH   1  28
ATOM     28  O   UNL A   1      34.696  32.282  27.614  1.00  0.00    -0.374 OA
BRANCH  28  29
ATOM     29  C   UNL A   1      35.184  32.910  28.797  1.00  0.00     0.202 C 
BRANCH  29  30
ATOM     30  C   UNL A   1      35.420  31.976  29.989  1.00  0.00     0.261 C 
BRANCH  30  31
ATOM     31  O   UNL A   1      35.913  30.685  29.592  1.00  0.00    -0.460 OA
BRANCH  31  32
ATOM     32  C   UNL A   1      36.721  30.101  30.513  1.00  0.00     0.338 C 
ATOM     33  O   UNL A   1      36.375  29.517  31.526  1.00  0.00    -0.246 OA
BRANCH  32  34
ATOM     34  C   UNL A   1      38.130  30.137  30.073  1.00  0.00     0.060 A 
ATOM     35  C   UNL A   1      38.366  30.120  28.692  1.00  0.00     0.016 A 
ATOM     36  C   UNL A   1      39.198  30.076  30.973  1.00  0.00     0.016 A 
ATOM     37  C   UNL A   1      39.660  29.959  28.206  1.00  0.00     0.010 A 
ATOM     38  C   UNL A   1      40.500  29.911  30.482  1.00  0.00     0.010 A 
ATOM     39  C   UNL A   1      40.728  29.798  29.098  1.00  0.00    -0.014 A 
BRANCH  39  40
ATOM     40  C   UNL A   1      42.029  29.311  28.574  1.00  0.00     0.031 A 
ATOM     41  C   UNL A   1      43.191  30.268  28.523  1.00  0.00     0.074 A 
ATOM     42  C   UNL A   1      42.202  28.020  28.238  1.00  0.00     0.049 A 
ATOM     43  N   UNL A   1      44.424  30.057  28.144  1.00  0.00    -0.248 NA
ATOM     44  C   UNL A   1      42.929  31.649  28.965  1.00  0.00     0.031 C 
ATOM     45  C   UNL A   1      41.169  26.987  28.298  1.00  0.00     0.029 A 
ATOM     46  N   UNL A   1      43.317  27.355  27.794  1.00  0.00    -0.354 N 
ATOM     47  C   UNL A   1      45.085  31.269  28.307  1.00  0.00     0.074 A 
ATOM     48  C   UNL A   1      44.107  32.224  28.780  1.00  0.00     0.031 C 
ATOM     49  C   UNL A   1      41.704  25.814  27.918  1.00  0.00     0.029 A 
ATOM     50  C   UNL A   1      43.108  26.016  27.564  1.00  0.00     0.049 A 
ATOM     51  H   UNL A   1      44.187  27.797  27.653  1.00  0.00     0.167 HD
ATOM     52  C   UNL A   1      46.391  31.558  28.101  1.00  0.00     0.037 A 
ATOM     53  C   UNL A   1      43.954  25.066  27.117  1.00  0.00     0.037 A 
ATOM     54  C   UNL A   1      47.364  30.606  27.636  1.00  0.00     0.049 A 
ATOM     55  C   UNL A   1      45.388  25.425  26.829  1.00  0.00     0.074 A 
ATOM     56  C   UNL A   1      48.709  30.807  27.376  1.00  0.00     0.029 A 
ATOM     57  N   UNL A   1      47.099  29.271  27.365  1.00  0.00    -0.354 N 
ATOM     58  N   UNL A   1      45.992  26.580  26.972  1.00  0.00    -0.248 NA
ATOM     59  C   UNL A   1      46.256  24.351  26.324  1.00  0.00     0.031 C 
ATOM     60  C   UNL A   1      49.249  29.603  26.915  1.00  0.00     0.029 A 
ATOM     61  C   UNL A   1      48.253  28.640  26.931  1.00  0.00     0.049 A 
ATOM     62  H   UNL A   1      46.222  28.839  27.465  1.00  0.00     0.167 HD
ATOM     63  C   UNL A   1      47.317  26.366  26.603  1.00  0.00     0.074 A 
ATOM     64  C   UNL A   1      47.427  24.970  26.233  1.00  0.00     0.031 C 
ATOM     65  C   UNL A   1      48.349  27.245  26.578  1.00  0.00     0.037 A 
BRANCH  52  66
ATOM     66  C   UNL A   1      46.844  32.965  28.369  1.00  0.00     0.058 A 
ATOM     67  C   UNL A   1      47.302  33.338  29.642  1.00  0.00     0.135 A 
ATOM     68  C   UNL A   1      46.791  33.957  27.375  1.00  0.00     0.135 A 
ATOM     69  F   UNL A   1      47.384  32.428  30.625  1.00  0.00    -0.206 F 
ATOM     70  C   UNL A   1      47.679  34.647  29.925  1.00  0.00     0.059 A 
ATOM     71  C   UNL A   1      47.186  35.267  27.630  1.00  0.00     0.059 A 
ATOM     72  F   UNL A   1      46.386  33.646  26.134  1.00  0.00    -0.206 F 
ATOM     73  C   UNL A   1      47.617  35.605  28.913  1.00  0.00     0.060 A 
BRANCH  73  74
ATOM     74  S   UNL A   1      48.153  37.289  29.285  1.00  0.00     0.124 S 
ATOM     75  O   UNL A   1      49.550  37.259  28.867  1.00  0.00    -0.237 OA
ATOM     76  O   UNL A   1      47.256  38.086  28.454  1.00  0.00    -0.237 OA
ATOM     77  O   UNL A   1      47.927  37.405  30.723  1.00  0.00    -0.744 OA
ENDBRANCH  73  74
ENDBRANCH  52  66
BRANCH  53  78
ATOM     78  C   UNL A   1      43.465  23.673  26.937  1.00  0.00     0.058 A 
ATOM     79  C   UNL A   1      43.139  23.178  25.665  1.00  0.00     0.135 A 
ATOM     80  C   UNL A   1      43.287  22.819  28.036  1.00  0.00     0.135 A 
ATOM     81  F   UNL A   1      43.289  23.955  24.581  1.00  0.00    -0.206 F 
ATOM     82  C   UNL A   1      42.630  21.896  25.491  1.00  0.00     0.059 A 
ATOM     83  C   UNL A   1      42.800  21.524  27.886  1.00  0.00     0.059 A 
ATOM     84  F   UNL A   1      43.600  23.243  29.270  1.00  0.00    -0.206 F 
ATOM     85  C   UNL A   1      42.456  21.079  26.609  1.00  0.00     0.060 A 
BRANCH  85  86
ATOM     86  S   UNL A   1      41.769  19.426  26.363  1.00  0.00     0.124 S 
ATOM     87  O   UNL A   1      42.429  19.020  25.126  1.00  0.00    -0.237 OA
ATOM     88  O   UNL A   1      42.203  18.732  27.571  1.00  0.00    -0.237 OA
ATOM     89  O   UNL A   1      40.335  19.670  26.262  1.00  0.00    -0.744 OA
ENDBRANCH  85  86
ENDBRANCH  53  78
BRANCH  65  90
ATOM     90  C   UNL A   1      49.701  26.730  26.171  1.00  0.00     0.058 A 
ATOM     91  C   UNL A   1      50.546  26.132  27.120  1.00  0.00     0.135 A 
ATOM     92  C   UNL A   1      50.195  26.901  24.868  1.00  0.00     0.135 A 
ATOM     93  F   UNL A   1      50.124  25.951  28.382  1.00  0.00    -0.206 F 
ATOM     94  C   UNL A   1      51.839  25.735  26.796  1.00  0.00     0.059 A 
ATOM     95  C   UNL A   1      51.477  26.489  24.516  1.00  0.00     0.059 A 
ATOM     96  F   UNL A   1      49.423  27.460  23.922  1.00  0.00    -0.206 F 
ATOM     97  C   UNL A   1      52.298  25.923  25.492  1.00  0.00     0.060 A 
BRANCH  97  98
ATOM     98  S   UNL A   1      53.974  25.391  25.083  1.00  0.00     0.124 S 
ATOM     99  O   UNL A   1      54.715  25.803  26.271  1.00  0.00    -0.237 OA
ATOM    100  O   UNL A   1      53.808  23.952  24.906  1.00  0.00    -0.237 OA
ATOM    101  O   UNL A   1      54.277  26.135  23.864  1.00  0.00    -0.744 OA
ENDBRANCH  97  98
ENDBRANCH  65  90
ENDBRANCH  39  40
ENDBRANCH  32  34
ENDBRANCH  31  32
ENDBRANCH  30  31
ENDBRANCH  29  30
ENDBRANCH  28  29
ENDBRANCH   1  28
TORSDOF 23
ENDMDL
MODEL 2
REMARK VINA RESULT:     -10.2      1.414      1.966
REMARK SMILES CCN(CC)S(=O)(=O)c1ccc(F)c(C(=O)N2CCC[C@H]2C(=O)OCCOCCOC(=O)c2ccc(-c3c4nc(c(-c5c(F)cc(S(=O)(=O)[O-])cc5F)c5ccc([nH]5)c(-c5c(F)cc(S(=O)(=O)[O-])cc5F)c5nc(c(-c6c(F)cc(S(=O)(=O)[O-])cc6F)c6ccc3[nH]6)C=C5)C=C4)cc2)c1
REMARK SMILES IDX 26 1 25 2 24 3 22 4 23 5 21 6 17 7 18 8 19 9 20 10 15 11
REMARK SMILES IDX 16 12 14 13 9 14 10 15 99 16 11 17 12 18 13 19 6 20 7 21
REMARK SMILES IDX 8 22 3 23 2 24 1 25 4 26 5 27 27 28 28 29 29 30 30 31 31 32
REMARK SMILES IDX 32 33 33 34 34 35 98 36 35 37 97 38 36 39 37 40 38 41 91 42
REMARK SMILES IDX 39 43 96 44 90 45 92 46 40 47 95 48 89 49 88 50 41 52 75 53
REMARK SMILES IDX 54 54 74 55 55 56 58 57 73 58 93 59 56 60 57 61 72 63 94 64
REMARK SMILES IDX 59 65 42 66 43 67 52 68 44 69 45 70 51 71 53 72 46 73 47 74
REMARK SMILES IDX 48 75 49 76 50 77 76 78 77 79 86 80 78 81 79 82 85 83 87 84
REMARK SMILES IDX 80 85 81 86 82 87 83 88 84 89 60 90 61 91 70 92 62 93 63 94
REMARK SMILES IDX 69 95 71 96 64 97 65 98 66 99 67 100 68 101
REMARK H PARENT 92 51 58 62
REMARK Flexibility Score: inf
ROOT
ATOM      1  C   UNL A   1      33.336  32.334  27.597  1.00  0.00     0.202 C 
ENDROOT
BRANCH   1   2
ATOM      2  C   UNL A   1      33.006  30.885  27.230  1.00  0.00     0.261 C 
BRANCH   2   3
ATOM      3  O   UNL A   1      31.946  30.863  26.254  1.00  0.00    -0.462 OA
BRANCH   3   4
ATOM      4  C   UNL A   1      31.577  29.640  25.780  1.00  0.00     0.328 C 
ATOM      5  O   UNL A   1      31.374  28.658  26.482  1.00  0.00    -0.250 OA
BRANCH   4   6
ATOM      6  C   UNL A   1      31.391  29.653  24.250  1.00  0.00     0.195 C 
ATOM      7  N   UNL A   1      31.680  28.408  23.513  1.00  0.00    -0.325 N 
ATOM      8  C   UNL A   1      30.507  27.971  22.769  1.00  0.00     0.121 C 
ATOM      9  C   UNL A   1      29.744  29.260  22.520  1.00  0.00     0.024 C 
ATOM     10  C   UNL A   1      29.967  30.040  23.812  1.00  0.00     0.039 C 
BRANCH   7  11
ATOM     11  C   UNL A   1      32.990  27.976  23.398  1.00  0.00     0.257 C 
ATOM     12  O   UNL A   1      33.786  28.543  22.653  1.00  0.00    -0.269 OA
BRANCH  11  13
ATOM     13  C   UNL A   1      33.486  26.771  24.115  1.00  0.00     0.077 A 
ATOM     14  C   UNL A   1      33.470  24.339  24.336  1.00  0.00     0.083 A 
ATOM     15  C   UNL A   1      34.114  24.442  25.574  1.00  0.00     0.025 A 
ATOM     16  C   UNL A   1      33.148  25.499  23.613  1.00  0.00     0.038 A 
ATOM     17  C   UNL A   1      34.407  25.699  26.096  1.00  0.00     0.041 A 
ATOM     18  C   UNL A   1      34.070  26.848  25.382  1.00  0.00     0.136 A 
ATOM     19  F   UNL A   1      34.253  28.025  25.996  1.00  0.00    -0.206 F 
BRANCH  14  20
ATOM     20  S   UNL A   1      32.828  22.747  23.831  1.00  0.00     0.243 S 
ATOM     21  O   UNL A   1      33.242  22.519  22.464  1.00  0.00    -0.207 OA
ATOM     22  O   UNL A   1      31.416  22.756  24.161  1.00  0.00    -0.207 OA
BRANCH  20  23
ATOM     23  N   UNL A   1      33.598  21.597  24.842  1.00  0.00    -0.198 NA
BRANCH  23  24
ATOM     24  C   UNL A   1      32.687  20.537  25.389  1.00  0.00     0.099 C 
ATOM     25  C   UNL A   1      32.526  19.354  24.451  1.00  0.00     0.022 C 
ENDBRANCH  23  24
BRANCH  23  26
ATOM     26  C   UNL A   1      34.888  21.004  24.367  1.00  0.00     0.099 C 
ATOM     27  C   UNL A   1      36.122  21.823  24.719  1.00  0.00     0.022 C 
ENDBRANCH  23  26
ENDBRANCH  20  23
ENDBRANCH  14  20
ENDBRANCH  11  13
ENDBRANCH   7  11
ENDBRANCH   4   6
ENDBRANCH   3   4
ENDBRANCH   2   3
ENDBRANCH   1   2
BRANCH   1  28
ATOM     28  O   UNL A   1      34.723  32.604  27.813  1.00  0.00    -0.374 OA
BRANCH  28  29
ATOM     29  C   UNL A   1      35.047  33.496  28.878  1.00  0.00     0.202 C 
BRANCH  29  30
ATOM     30  C   UNL A   1      34.960  32.899  30.287  1.00  0.00     0.261 C 
BRANCH  30  31
ATOM     31  O   UNL A   1      35.277  31.496  30.314  1.00  0.00    -0.460 OA
BRANCH  31  32
ATOM     32  C   UNL A   1      36.244  31.172  31.209  1.00  0.00     0.338 C 
ATOM     33  O   UNL A   1      36.223  31.368  32.413  1.00  0.00    -0.246 OA
BRANCH  32  34
ATOM     34  C   UNL A   1      37.324  30.403  30.560  1.00  0.00     0.060 A 
ATOM     35  C   UNL A   1      38.257  29.784  31.401  1.00  0.00     0.016 A 
ATOM     36  C   UNL A   1      37.493  30.373  29.173  1.00  0.00     0.016 A 
ATOM     37  C   UNL A   1      39.405  29.206  30.865  1.00  0.00     0.010 A 
ATOM     38  C   UNL A   1      38.650  29.793  28.635  1.00  0.00     0.010 A 
ATOM     39  C   UNL A   1      39.635  29.255  29.484  1.00  0.00    -0.014 A 
BRANCH  39  40
ATOM     40  C   UNL A   1      40.990  28.930  28.974  1.00  0.00     0.031 A 
ATOM     41  C   UNL A   1      42.058  29.991  29.033  1.00  0.00     0.074 A 
ATOM     42  C   UNL A   1      41.294  27.688  28.553  1.00  0.00     0.049 A 
ATOM     43  N   UNL A   1      43.316  29.922  28.684  1.00  0.00    -0.248 NA
ATOM     44  C   UNL A   1      41.654  31.305  29.561  1.00  0.00     0.031 C 
ATOM     45  C   UNL A   1      40.362  26.563  28.503  1.00  0.00     0.029 A 
ATOM     46  N   UNL A   1      42.480  27.164  28.103  1.00  0.00    -0.354 N 
ATOM     47  C   UNL A   1      43.854  31.175  28.957  1.00  0.00     0.074 A 
ATOM     48  C   UNL A   1      42.777  31.998  29.461  1.00  0.00     0.031 C 
ATOM     49  C   UNL A   1      41.016  25.475  28.060  1.00  0.00     0.029 A 
ATOM     50  C   UNL A   1      42.404  25.832  27.772  1.00  0.00     0.049 A 
ATOM     51  H   UNL A   1      43.307  27.692  28.026  1.00  0.00     0.167 HD
ATOM     52  C   UNL A   1      45.133  31.596  28.819  1.00  0.00     0.037 A 
ATOM     53  C   UNL A   1      43.349  24.998  27.290  1.00  0.00     0.037 A 
ATOM     54  C   UNL A   1      46.205  30.775  28.323  1.00  0.00     0.049 A 
ATOM     55  C   UNL A   1      44.750  25.508  27.080  1.00  0.00     0.074 A 
ATOM     56  C   UNL A   1      47.532  31.117  28.127  1.00  0.00     0.029 A 
ATOM     57  N   UNL A   1      46.075  29.445  27.948  1.00  0.00    -0.354 N 
ATOM     58  N   UNL A   1      45.239  26.701  27.326  1.00  0.00    -0.248 NA
ATOM     59  C   UNL A   1      45.730  24.559  26.531  1.00  0.00     0.031 C 
ATOM     60  C   UNL A   1      48.196  30.005  27.601  1.00  0.00     0.029 A 
ATOM     61  C   UNL A   1      47.295  28.956  27.513  1.00  0.00     0.049 A 
ATOM     62  H   UNL A   1      45.239  28.928  27.986  1.00  0.00     0.167 HD
ATOM     63  C   UNL A   1      46.587  26.637  26.990  1.00  0.00     0.074 A 
ATOM     64  C   UNL A   1      46.839  25.287  26.527  1.00  0.00     0.031 C 
ATOM     65  C   UNL A   1      47.533  27.607  27.065  1.00  0.00     0.037 A 
BRANCH  52  66
ATOM     66  C   UNL A   1      45.444  33.016  29.203  1.00  0.00     0.058 A 
ATOM     67  C   UNL A   1      45.844  33.331  30.510  1.00  0.00     0.135 A 
ATOM     68  C   UNL A   1      45.310  34.071  28.285  1.00  0.00     0.135 A 
ATOM     69  F   UNL A   1      45.998  32.360  31.424  1.00  0.00    -0.206 F 
ATOM     70  C   UNL A   1      46.088  34.644  30.899  1.00  0.00     0.059 A 
ATOM     71  C   UNL A   1      45.572  35.390  28.646  1.00  0.00     0.059 A 
ATOM     72  F   UNL A   1      44.956  33.820  27.015  1.00  0.00    -0.206 F 
ATOM     73  C   UNL A   1      45.949  35.667  29.960  1.00  0.00     0.060 A 
BRANCH  73  74
ATOM     74  S   UNL A   1      46.314  37.361  30.471  1.00  0.00     0.124 S 
ATOM     75  O   UNL A   1      45.020  37.808  30.974  1.00  0.00    -0.237 OA
ATOM     76  O   UNL A   1      47.353  37.160  31.476  1.00  0.00    -0.237 OA
ATOM     77  O   UNL A   1      46.764  37.996  29.236  1.00  0.00    -0.744 OA
ENDBRANCH  73  74
ENDBRANCH  52  66
BRANCH  53  78
ATOM     78  C   UNL A   1      42.998  23.584  26.993  1.00  0.00     0.058 A 
ATOM     79  C   UNL A   1      42.810  22.652  28.024  1.00  0.00     0.135 A 
ATOM     80  C   UNL A   1      42.872  23.131  25.671  1.00  0.00     0.135 A 
ATOM     81  F   UNL A   1      42.922  23.033  29.306  1.00  0.00    -0.206 F 
ATOM     82  C   UNL A   1      42.536  21.315  27.757  1.00  0.00     0.059 A 
ATOM     83  C   UNL A   1      42.577  21.802  25.377  1.00  0.00     0.059 A 
ATOM     84  F   UNL A   1      43.028  23.990  24.652  1.00  0.00    -0.206 F 
ATOM     85  C   UNL A   1      42.429  20.898  26.429  1.00  0.00     0.060 A 
BRANCH  85  86
ATOM     86  S   UNL A   1      42.097  19.153  26.104  1.00  0.00     0.124 S 
ATOM     87  O   UNL A   1      40.679  19.187  25.759  1.00  0.00    -0.237 OA
ATOM     88  O   UNL A   1      43.012  18.868  25.004  1.00  0.00    -0.237 OA
ATOM     89  O   UNL A   1      42.422  18.507  27.371  1.00  0.00    -0.744 OA
ENDBRANCH  85  86
ENDBRANCH  53  78
BRANCH  65  90
ATOM     90  C   UNL A   1      48.938  27.249  26.672  1.00  0.00     0.058 A 
ATOM     91  C   UNL A   1      49.865  26.843  27.646  1.00  0.00     0.135 A 
ATOM     92  C   UNL A   1      49.393  27.387  25.351  1.00  0.00     0.135 A 
ATOM     93  F   UNL A   1      49.483  26.702  28.925  1.00  0.00    -0.206 F 
ATOM     94  C   UNL A   1      51.197  26.601  27.328  1.00  0.00     0.059 A 
ATOM     95  C   UNL A   1      50.717  27.126  25.006  1.00  0.00     0.059 A 
ATOM     96  F   UNL A   1      48.545  27.764  24.381  1.00  0.00    -0.206 F 
ATOM     97  C   UNL A   1      51.615  26.750  26.005  1.00  0.00     0.060 A 
BRANCH  97  98
ATOM     98  S   UNL A   1      53.344  26.420  25.605  1.00  0.00     0.124 S 
ATOM     99  O   UNL A   1      53.839  27.758  25.297  1.00  0.00    -0.237 OA
ATOM    100  O   UNL A   1      53.842  25.829  26.844  1.00  0.00    -0.237 OA
ATOM    101  O   UNL A   1      53.260  25.505  24.471  1.00  0.00    -0.744 OA
ENDBRANCH  97  98
ENDBRANCH  65  90
ENDBRANCH  39  40
ENDBRANCH  32  34
ENDBRANCH  31  32
ENDBRANCH  30  31
ENDBRANCH  29  30
ENDBRANCH  28  29
ENDBRANCH   1  28
TORSDOF 23
ENDMDL
MODEL 3
REMARK VINA RESULT:     -10.2      1.452      2.190
REMARK SMILES CCN(CC)S(=O)(=O)c1ccc(F)c(C(=O)N2CCC[C@H]2C(=O)OCCOCCOC(=O)c2ccc(-c3c4nc(c(-c5c(F)cc(S(=O)(=O)[O-])cc5F)c5ccc([nH]5)c(-c5c(F)cc(S(=O)(=O)[O-])cc5F)c5nc(c(-c6c(F)cc(S(=O)(=O)[O-])cc6F)c6ccc3[nH]6)C=C5)C=C4)cc2)c1
REMARK SMILES IDX 26 1 25 2 24 3 22 4 23 5 21 6 17 7 18 8 19 9 20 10 15 11
REMARK SMILES IDX 16 12 14 13 9 14 10 15 99 16 11 17 12 18 13 19 6 20 7 21
REMARK SMILES IDX 8 22 3 23 2 24 1 25 4 26 5 27 27 28 28 29 29 30 30 31 31 32
REMARK SMILES IDX 32 33 33 34 34 35 98 36 35 37 97 38 36 39 37 40 38 41 91 42
REMARK SMILES IDX 39 43 96 44 90 45 92 46 40 47 95 48 89 49 88 50 41 52 75 53
REMARK SMILES IDX 54 54 74 55 55 56 58 57 73 58 93 59 56 60 57 61 72 63 94 64
REMARK SMILES IDX 59 65 42 66 43 67 52 68 44 69 45 70 51 71 53 72 46 73 47 74
REMARK SMILES IDX 48 75 49 76 50 77 76 78 77 79 86 80 78 81 79 82 85 83 87 84
REMARK SMILES IDX 80 85 81 86 82 87 83 88 84 89 60 90 61 91 70 92 62 93 63 94
REMARK SMILES IDX 69 95 71 96 64 97 65 98 66 99 67 100 68 101
REMARK H PARENT 92 51 58 62
REMARK Flexibility Score: inf
ROOT
ATOM      1  C   UNL A   1      35.322  30.534  28.010  1.00  0.00     0.202 C 
ENDROOT
BRANCH   1   2
ATOM      2  C   UNL A   1      34.076  31.140  27.362  1.00  0.00     0.261 C 
BRANCH   2   3
ATOM      3  O   UNL A   1      32.973  30.221  27.483  1.00  0.00    -0.462 OA
BRANCH   3   4
ATOM      4  C   UNL A   1      32.985  29.139  26.654  1.00  0.00     0.328 C 
ATOM      5  O   UNL A   1      33.312  28.009  26.996  1.00  0.00    -0.250 OA
BRANCH   4   6
ATOM      6  C   UNL A   1      32.483  29.496  25.242  1.00  0.00     0.195 C 
ATOM      7  N   UNL A   1      32.322  28.395  24.273  1.00  0.00    -0.325 N 
ATOM      8  C   UNL A   1      30.949  28.337  23.790  1.00  0.00     0.121 C 
ATOM      9  C   UNL A   1      30.458  29.765  23.944  1.00  0.00     0.024 C 
ATOM     10  C   UNL A   1      31.121  30.214  25.242  1.00  0.00     0.039 C 
BRANCH   7  11
ATOM     11  C   UNL A   1      33.445  27.766  23.766  1.00  0.00     0.257 C 
ATOM     12  O   UNL A   1      34.404  28.412  23.349  1.00  0.00    -0.269 OA
BRANCH  11  13
ATOM     13  C   UNL A   1      33.529  26.286  23.641  1.00  0.00     0.077 A 
ATOM     14  C   UNL A   1      34.218  24.161  24.625  1.00  0.00     0.083 A 
ATOM     15  C   UNL A   1      34.017  23.521  23.396  1.00  0.00     0.025 A 
ATOM     16  C   UNL A   1      33.985  25.540  24.745  1.00  0.00     0.038 A 
ATOM     17  C   UNL A   1      33.612  24.264  22.290  1.00  0.00     0.041 A 
ATOM     18  C   UNL A   1      33.398  25.637  22.411  1.00  0.00     0.136 A 
ATOM     19  F   UNL A   1      33.144  26.317  21.285  1.00  0.00    -0.206 F 
BRANCH  14  20
ATOM     20  S   UNL A   1      35.029  23.259  25.941  1.00  0.00     0.243 S 
ATOM     21  O   UNL A   1      34.166  23.301  27.100  1.00  0.00    -0.207 OA
ATOM     22  O   UNL A   1      36.375  23.791  26.027  1.00  0.00    -0.207 OA
BRANCH  20  23
ATOM     23  N   UNL A   1      35.138  21.639  25.391  1.00  0.00    -0.198 NA
BRANCH  23  24
ATOM     24  C   UNL A   1      36.525  21.066  25.404  1.00  0.00     0.099 C 
ATOM     25  C   UNL A   1      36.605  19.693  24.761  1.00  0.00     0.022 C 
ENDBRANCH  23  24
BRANCH  23  26
ATOM     26  C   UNL A   1      34.145  20.654  25.924  1.00  0.00     0.099 C 
ATOM     27  C   UNL A   1      32.952  20.407  25.011  1.00  0.00     0.022 C 
ENDBRANCH  23  26
ENDBRANCH  20  23
ENDBRANCH  14  20
ENDBRANCH  11  13
ENDBRANCH   7  11
ENDBRANCH   4   6
ENDBRANCH   3   4
ENDBRANCH   2   3
ENDBRANCH   1   2
BRANCH   1  28
ATOM     28  O   UNL A   1      35.512  30.867  29.388  1.00  0.00    -0.374 OA
BRANCH  28  29
ATOM     29  C   UNL A   1      35.038  32.144  29.813  1.00  0.00     0.202 C 
BRANCH  29  30
ATOM     30  C   UNL A   1      35.632  32.663  31.127  1.00  0.00     0.261 C 
BRANCH  30  31
ATOM     31  O   UNL A   1      36.450  31.683  31.790  1.00  0.00    -0.460 OA
BRANCH  31  32
ATOM     32  C   UNL A   1      37.728  32.088  31.999  1.00  0.00     0.338 C 
ATOM     33  O   UNL A   1      38.102  32.972  32.752  1.00  0.00    -0.246 OA
BRANCH  32  34
ATOM     34  C   UNL A   1      38.680  31.218  31.280  1.00  0.00     0.060 A 
ATOM     35  C   UNL A   1      39.583  30.484  32.059  1.00  0.00     0.016 A 
ATOM     36  C   UNL A   1      38.770  31.199  29.885  1.00  0.00     0.016 A 
ATOM     37  C   UNL A   1      40.628  29.794  31.452  1.00  0.00     0.010 A 
ATOM     38  C   UNL A   1      39.825  30.506  29.276  1.00  0.00     0.010 A 
ATOM     39  C   UNL A   1      40.788  29.846  30.061  1.00  0.00    -0.014 A 
BRANCH  39  40
ATOM     40  C   UNL A   1      42.070  29.384  29.472  1.00  0.00     0.031 A 
ATOM     41  C   UNL A   1      43.252  30.317  29.493  1.00  0.00     0.074 A 
ATOM     42  C   UNL A   1      42.209  28.127  29.012  1.00  0.00     0.049 A 
ATOM     43  N   UNL A   1      44.475  30.117  29.076  1.00  0.00    -0.248 NA
ATOM     44  C   UNL A   1      43.027  31.655  30.067  1.00  0.00     0.031 C 
ATOM     45  C   UNL A   1      41.155  27.115  28.992  1.00  0.00     0.029 A 
ATOM     46  N   UNL A   1      43.303  27.485  28.489  1.00  0.00    -0.354 N 
ATOM     47  C   UNL A   1      45.164  31.295  29.342  1.00  0.00     0.074 A 
ATOM     48  C   UNL A   1      44.215  32.221  29.919  1.00  0.00     0.031 C 
ATOM     49  C   UNL A   1      41.658  25.972  28.494  1.00  0.00     0.029 A 
ATOM     50  C   UNL A   1      43.061  26.178  28.137  1.00  0.00     0.049 A 
ATOM     51  H   UNL A   1      44.180  27.919  28.377  1.00  0.00     0.167 HD
ATOM     52  C   UNL A   1      46.474  31.574  29.143  1.00  0.00     0.037 A 
ATOM     53  C   UNL A   1      43.879  25.257  27.589  1.00  0.00     0.037 A 
ATOM     54  C   UNL A   1      47.419  30.651  28.574  1.00  0.00     0.049 A 
ATOM     55  C   UNL A   1      45.317  25.612  27.313  1.00  0.00     0.074 A 
ATOM     56  C   UNL A   1      48.764  30.848  28.312  1.00  0.00     0.029 A 
ATOM     57  N   UNL A   1      47.120  29.354  28.182  1.00  0.00    -0.354 N 
ATOM     58  N   UNL A   1      45.948  26.736  27.554  1.00  0.00    -0.248 NA
ATOM     59  C   UNL A   1      46.154  24.573  26.694  1.00  0.00     0.031 C 
ATOM     60  C   UNL A   1      49.270  29.682  27.731  1.00  0.00     0.029 A 
ATOM     61  C   UNL A   1      48.253  28.743  27.672  1.00  0.00     0.049 A 
ATOM     62  H   UNL A   1      46.235  28.932  28.255  1.00  0.00     0.167 HD
ATOM     63  C   UNL A   1      47.262  26.530  27.145  1.00  0.00     0.074 A 
ATOM     64  C   UNL A   1      47.336  25.173  26.644  1.00  0.00     0.031 C 
ATOM     65  C   UNL A   1      48.313  27.386  27.186  1.00  0.00     0.037 A 
BRANCH  52  66
ATOM     66  C   UNL A   1      46.962  32.940  29.535  1.00  0.00     0.058 A 
ATOM     67  C   UNL A   1      46.942  33.998  28.614  1.00  0.00     0.135 A 
ATOM     68  C   UNL A   1      47.485  33.194  30.814  1.00  0.00     0.135 A 
ATOM     69  F   UNL A   1      46.443  33.813  27.382  1.00  0.00    -0.206 F 
ATOM     70  C   UNL A   1      47.436  35.257  28.941  1.00  0.00     0.059 A 
ATOM     71  C   UNL A   1      47.962  34.452  31.170  1.00  0.00     0.059 A 
ATOM     72  F   UNL A   1      47.502  32.224  31.741  1.00  0.00    -0.206 F 
ATOM     73  C   UNL A   1      47.944  35.474  30.221  1.00  0.00     0.060 A 
BRANCH  73  74
ATOM     74  S   UNL A   1      48.539  37.127  30.643  1.00  0.00     0.124 S 
ATOM     75  O   UNL A   1      49.907  37.091  30.141  1.00  0.00    -0.237 OA
ATOM     76  O   UNL A   1      47.613  37.982  29.908  1.00  0.00    -0.237 OA
ATOM     77  O   UNL A   1      48.401  37.175  32.096  1.00  0.00    -0.744 OA
ENDBRANCH  73  74
ENDBRANCH  52  66
BRANCH  53  78
ATOM     78  C   UNL A   1      43.357  23.898  27.286  1.00  0.00     0.058 A 
ATOM     79  C   UNL A   1      42.884  23.572  26.005  1.00  0.00     0.135 A 
ATOM     80  C   UNL A   1      43.294  22.907  28.278  1.00  0.00     0.135 A 
ATOM     81  F   UNL A   1      42.919  24.484  25.022  1.00  0.00    -0.206 F 
ATOM     82  C   UNL A   1      42.343  22.322  25.725  1.00  0.00     0.059 A 
ATOM     83  C   UNL A   1      42.778  21.641  28.016  1.00  0.00     0.059 A 
ATOM     84  F   UNL A   1      43.749  23.168  29.513  1.00  0.00    -0.206 F 
ATOM     85  C   UNL A   1      42.288  21.365  26.740  1.00  0.00     0.060 A 
BRANCH  85  86
ATOM     86  S   UNL A   1      41.558  19.757  26.361  1.00  0.00     0.124 S 
ATOM     87  O   UNL A   1      42.284  19.389  25.148  1.00  0.00    -0.237 OA
ATOM     88  O   UNL A   1      41.884  18.985  27.555  1.00  0.00    -0.237 OA
ATOM     89  O   UNL A   1      40.144  20.063  26.180  1.00  0.00    -0.744 OA
ENDBRANCH  85  86
ENDBRANCH  53  78
BRANCH  65  90
ATOM     90  C   UNL A   1      49.647  26.883  26.711  1.00  0.00     0.058 A 
ATOM     91  C   UNL A   1      50.003  26.990  25.356  1.00  0.00     0.135 A 
ATOM     92  C   UNL A   1      50.537  26.222  27.572  1.00  0.00     0.135 A 
ATOM     93  F   UNL A   1      49.184  27.606  24.489  1.00  0.00    -0.206 F 
ATOM     94  C   UNL A   1      51.186  26.445  24.869  1.00  0.00     0.059 A 
ATOM     95  C   UNL A   1      51.738  25.692  27.111  1.00  0.00     0.059 A 
ATOM     96  F   UNL A   1      50.247  26.102  28.878  1.00  0.00    -0.206 F 
ATOM     97  C   UNL A   1      52.046  25.793  25.754  1.00  0.00     0.060 A 
BRANCH  97  98
ATOM     98  S   UNL A   1      53.585  25.103  25.109  1.00  0.00     0.124 S 
ATOM     99  O   UNL A   1      54.561  25.601  26.072  1.00  0.00    -0.237 OA
ATOM    100  O   UNL A   1      53.323  23.667  25.156  1.00  0.00    -0.237 OA
ATOM    101  O   UNL A   1      53.676  25.673  23.769  1.00  0.00    -0.744 OA
ENDBRANCH  97  98
ENDBRANCH  65  90
ENDBRANCH  39  40
ENDBRANCH  32  34
ENDBRANCH  31  32
ENDBRANCH  30  31
ENDBRANCH  29  30
ENDBRANCH  28  29
ENDBRANCH   1  28
TORSDOF 23
ENDMDL
