MODEL 1
REMARK VINA RESULT:     -11.7      0.000      0.000
REMARK SMILES O=C(OCCOCCOC(=O)[C@H]1[C@H](C(=O)NC2CC[NH+](Cc3ccccc3)CC2)[C@H]2C=C[C@@H]1C2)c1ccc(-c2c3nc(c(-c4c(F)cc(S(=O)(=O)[O-])cc4F)c4ccc([nH]4)c(-c4c(F)cc(S(=O)(=O)[O-])cc4F)c4nc(c(-c5c(F)cc(S(=O)(=O)[O-])cc5F)c5ccc2[nH]5)C=C4)C=C3)cc1
REMARK SMILES IDX 7 1 6 2 5 3 4 4 3 5 2 6 1 7 35 8 36 9 100 10 37 11 99 12
REMARK SMILES IDX 38 13 39 14 40 15 93 16 41 17 98 18 92 19 94 20 42 21 97 22
REMARK SMILES IDX 91 23 90 24 43 26 77 27 56 28 76 29 57 30 60 31 75 32 95 33
REMARK SMILES IDX 58 34 59 35 74 37 96 38 61 39 44 40 45 41 54 42 46 43 47 44
REMARK SMILES IDX 53 45 55 46 48 47 49 48 50 49 51 50 52 51 78 52 79 53 88 54
REMARK SMILES IDX 80 55 81 56 87 57 89 58 82 59 83 60 84 61 85 62 86 63 62 64
REMARK SMILES IDX 63 65 72 66 64 67 65 68 71 69 73 70 66 71 67 72 68 73 69 74
REMARK SMILES IDX 70 75 8 76 9 77 10 78 11 79 12 80 13 81 33 82 30 83 32 84
REMARK SMILES IDX 34 85 31 86 14 87 15 88 16 89 17 91 18 92 29 93 19 94 28 95
REMARK SMILES IDX 20 96 21 98 22 99 23 100 27 101 24 102 26 103 25 104
REMARK H PARENT 94 25 60 36 16 90 20 97
REMARK Flexibility Score: inf
ROOT
ATOM      1  C   UNL A   1      34.320  29.323  27.231  1.00  0.00     0.202 C 
ENDROOT
BRANCH   1   2
ATOM      2  O   UNL A   1      33.641  30.515  27.630  1.00  0.00    -0.374 OA
BRANCH   2   3
ATOM      3  C   UNL A   1      34.420  31.701  27.773  1.00  0.00     0.202 C 
BRANCH   3   4
ATOM      4  C   UNL A   1      34.748  32.129  29.203  1.00  0.00     0.261 C 
BRANCH   4   5
ATOM      5  O   UNL A   1      36.101  31.718  29.554  1.00  0.00    -0.460 OA
BRANCH   5   6
ATOM      6  C   UNL A   1      36.471  30.566  30.178  1.00  0.00     0.338 C 
ATOM      7  O   UNL A   1      35.902  30.158  31.180  1.00  0.00    -0.246 OA
BRANCH   6   8
ATOM      8  C   UNL A   1      37.575  29.812  29.568  1.00  0.00     0.060 A 
ATOM      9  C   UNL A   1      38.358  29.026  30.391  1.00  0.00     0.016 A 
ATOM     10  C   UNL A   1      37.950  30.026  28.246  1.00  0.00     0.016 A 
ATOM     11  C   UNL A   1      39.669  28.836  30.072  1.00  0.00     0.010 A 
ATOM     12  C   UNL A   1      39.192  29.548  27.822  1.00  0.00     0.010 A 
ATOM     13  C   UNL A   1      40.091  29.018  28.764  1.00  0.00    -0.014 A 
BRANCH  13  14
ATOM     14  C   UNL A   1      41.496  28.684  28.470  1.00  0.00     0.031 A 
ATOM     15  C   UNL A   1      42.546  29.729  28.682  1.00  0.00     0.074 A 
ATOM     16  C   UNL A   1      41.803  27.407  28.154  1.00  0.00     0.049 A 
ATOM     17  N   UNL A   1      43.784  29.731  28.279  1.00  0.00    -0.248 NA
ATOM     18  C   UNL A   1      42.152  30.949  29.413  1.00  0.00     0.031 C 
ATOM     19  C   UNL A   1      40.837  26.299  28.043  1.00  0.00     0.029 A 
ATOM     20  N   UNL A   1      43.004  26.795  27.931  1.00  0.00    -0.354 N 
ATOM     21  C   UNL A   1      44.287  30.980  28.618  1.00  0.00     0.074 A 
ATOM     22  C   UNL A   1      43.231  31.706  29.281  1.00  0.00     0.031 C 
ATOM     23  C   UNL A   1      41.490  25.142  27.903  1.00  0.00     0.029 A 
ATOM     24  C   UNL A   1      42.891  25.444  27.692  1.00  0.00     0.049 A 
ATOM     25  H   UNL A   1      43.864  27.273  27.940  1.00  0.00     0.167 HD
ATOM     26  C   UNL A   1      45.525  31.457  28.357  1.00  0.00     0.037 A 
ATOM     27  C   UNL A   1      43.801  24.564  27.245  1.00  0.00     0.037 A 
ATOM     28  C   UNL A   1      46.538  30.643  27.736  1.00  0.00     0.049 A 
ATOM     29  C   UNL A   1      45.151  25.125  26.925  1.00  0.00     0.074 A 
ATOM     30  C   UNL A   1      47.811  30.988  27.332  1.00  0.00     0.029 A 
ATOM     31  N   UNL A   1      46.379  29.288  27.453  1.00  0.00    -0.354 N 
ATOM     32  N   UNL A   1      45.582  26.357  27.083  1.00  0.00    -0.248 NA
ATOM     33  C   UNL A   1      46.122  24.210  26.326  1.00  0.00     0.031 C 
ATOM     34  C   UNL A   1      48.412  29.849  26.782  1.00  0.00     0.029 A 
ATOM     35  C   UNL A   1      47.530  28.780  26.884  1.00  0.00     0.049 A 
ATOM     36  H   UNL A   1      45.563  28.766  27.633  1.00  0.00     0.167 HD
ATOM     37  C   UNL A   1      46.877  26.372  26.597  1.00  0.00     0.074 A 
ATOM     38  C   UNL A   1      47.166  25.012  26.170  1.00  0.00     0.031 C 
ATOM     39  C   UNL A   1      47.747  27.407  26.493  1.00  0.00     0.037 A 
BRANCH  26  40
ATOM     40  C   UNL A   1      45.799  32.904  28.667  1.00  0.00     0.058 A 
ATOM     41  C   UNL A   1      46.362  33.322  29.884  1.00  0.00     0.135 A 
ATOM     42  C   UNL A   1      45.459  33.901  27.736  1.00  0.00     0.135 A 
ATOM     43  F   UNL A   1      46.678  32.422  30.828  1.00  0.00    -0.206 F 
ATOM     44  C   UNL A   1      46.551  34.672  30.176  1.00  0.00     0.059 A 
ATOM     45  C   UNL A   1      45.661  35.253  27.996  1.00  0.00     0.059 A 
ATOM     46  F   UNL A   1      44.902  33.564  26.562  1.00  0.00    -0.206 F 
ATOM     47  C   UNL A   1      46.193  35.631  29.228  1.00  0.00     0.060 A 
BRANCH  47  48
ATOM     48  S   UNL A   1      46.429  37.378  29.626  1.00  0.00     0.124 S 
ATOM     49  O   UNL A   1      47.101  37.293  30.921  1.00  0.00    -0.237 OA
ATOM     50  O   UNL A   1      47.253  37.843  28.516  1.00  0.00    -0.237 OA
ATOM     51  O   UNL A   1      45.069  37.907  29.660  1.00  0.00    -0.744 OA
ENDBRANCH  47  48
ENDBRANCH  26  40
BRANCH  27  52
ATOM     52  C   UNL A   1      43.416  23.152  26.965  1.00  0.00     0.058 A 
ATOM     53  C   UNL A   1      43.307  22.671  25.654  1.00  0.00     0.135 A 
ATOM     54  C   UNL A   1      43.198  22.233  28.009  1.00  0.00     0.135 A 
ATOM     55  F   UNL A   1      43.501  23.501  24.617  1.00  0.00    -0.206 F 
ATOM     56  C   UNL A   1      42.988  21.341  25.387  1.00  0.00     0.059 A 
ATOM     57  C   UNL A   1      42.918  20.893  27.770  1.00  0.00     0.059 A 
ATOM     58  F   UNL A   1      43.304  22.628  29.289  1.00  0.00    -0.206 F 
ATOM     59  C   UNL A   1      42.798  20.458  26.452  1.00  0.00     0.060 A 
BRANCH  59  60
ATOM     60  S   UNL A   1      42.413  18.729  26.102  1.00  0.00     0.124 S 
ATOM     61  O   UNL A   1      43.329  18.444  25.004  1.00  0.00    -0.237 OA
ATOM     62  O   UNL A   1      42.717  18.079  27.373  1.00  0.00    -0.237 OA
ATOM     63  O   UNL A   1      40.997  18.765  25.749  1.00  0.00    -0.744 OA
ENDBRANCH  59  60
ENDBRANCH  27  52
BRANCH  39  64
ATOM     64  C   UNL A   1      49.093  27.067  25.938  1.00  0.00     0.058 A 
ATOM     65  C   UNL A   1      49.375  27.195  24.571  1.00  0.00     0.135 A 
ATOM     66  C   UNL A   1      50.112  26.632  26.797  1.00  0.00     0.135 A 
ATOM     67  F   UNL A   1      48.419  27.593  23.716  1.00  0.00    -0.206 F 
ATOM     68  C   UNL A   1      50.627  26.877  24.066  1.00  0.00     0.059 A 
ATOM     69  C   UNL A   1      51.379  26.336  26.317  1.00  0.00     0.059 A 
ATOM     70  F   UNL A   1      49.880  26.502  28.113  1.00  0.00    -0.206 F 
ATOM     71  C   UNL A   1      51.622  26.450  24.949  1.00  0.00     0.060 A 
BRANCH  71  72
ATOM     72  S   UNL A   1      53.255  26.072  24.286  1.00  0.00     0.124 S 
ATOM     73  O   UNL A   1      54.047  27.178  24.814  1.00  0.00    -0.237 OA
ATOM     74  O   UNL A   1      53.529  24.760  24.865  1.00  0.00    -0.237 OA
ATOM     75  O   UNL A   1      53.043  26.081  22.842  1.00  0.00    -0.744 OA
ENDBRANCH  71  72
ENDBRANCH  39  64
ENDBRANCH  13  14
ENDBRANCH   6   8
ENDBRANCH   5   6
ENDBRANCH   4   5
ENDBRANCH   3   4
ENDBRANCH   2   3
ENDBRANCH   1   2
BRANCH   1  76
ATOM     76  C   UNL A   1      33.471  28.617  26.162  1.00  0.00     0.261 C 
BRANCH  76  77
ATOM     77  O   UNL A   1      33.259  27.237  26.498  1.00  0.00    -0.463 OA
BRANCH  77  78
ATOM     78  C   UNL A   1      31.985  26.775  26.380  1.00  0.00     0.310 C 
ATOM     79  O   UNL A   1      31.069  27.081  27.102  1.00  0.00    -0.252 OA
BRANCH  78  80
ATOM     80  C   UNL A   1      31.845  25.888  25.147  1.00  0.00     0.119 C 
ATOM     81  C   UNL A   1      30.576  24.973  25.246  1.00  0.00     0.100 C 
ATOM     82  C   UNL A   1      31.619  26.650  23.794  1.00  0.00     0.027 C 
ATOM     83  C   UNL A   1      29.904  25.231  23.868  1.00  0.00     0.025 C 
ATOM     84  C   UNL A   1      30.352  27.484  23.789  1.00  0.00    -0.027 C 
ATOM     85  C   UNL A   1      31.083  25.508  22.938  1.00  0.00     0.017 C 
ATOM     86  C   UNL A   1      29.321  26.635  23.875  1.00  0.00    -0.027 C 
BRANCH  81  87
ATOM     87  C   UNL A   1      30.829  23.691  26.085  1.00  0.00     0.224 C 
ATOM     88  O   UNL A   1      30.387  23.712  27.251  1.00  0.00    -0.275 OA
ATOM     89  N   UNL A   1      31.479  22.538  25.893  1.00  0.00    -0.353 N 
ATOM     90  H   UNL A   1      31.585  22.104  26.770  1.00  0.00     0.163 HD
BRANCH  89  91
ATOM     91  C   UNL A   1      32.097  21.667  24.884  1.00  0.00     0.093 C 
ATOM     92  C   UNL A   1      33.293  20.879  25.337  1.00  0.00     0.086 C 
ATOM     93  C   UNL A   1      32.532  22.471  23.638  1.00  0.00     0.086 C 
ATOM     94  C   UNL A   1      34.414  21.852  25.649  1.00  0.00     0.264 C 
ATOM     95  C   UNL A   1      33.714  23.411  23.934  1.00  0.00     0.264 C 
ATOM     96  N   UNL A   1      34.851  22.730  24.574  1.00  0.00    -0.331 N 
ATOM     97  H   UNL A   1      35.278  22.176  23.830  1.00  0.00     0.348 HD
BRANCH  96  98
ATOM     98  C   UNL A   1      35.891  23.666  25.093  1.00  0.00     0.299 C 
BRANCH  98  99
ATOM     99  C   UNL A   1      37.245  23.129  25.547  1.00  0.00     0.006 A 
ATOM    100  C   UNL A   1      37.634  21.832  25.176  1.00  0.00     0.009 A 
ATOM    101  C   UNL A   1      38.095  23.846  26.405  1.00  0.00     0.009 A 
ATOM    102  C   UNL A   1      38.823  21.268  25.648  1.00  0.00     0.001 A 
ATOM    103  C   UNL A   1      39.287  23.282  26.876  1.00  0.00     0.001 A 
ATOM    104  C   UNL A   1      39.650  21.992  26.500  1.00  0.00     0.000 A 
ENDBRANCH  98  99
ENDBRANCH  96  98
ENDBRANCH  89  91
ENDBRANCH  81  87
ENDBRANCH  78  80
ENDBRANCH  77  78
ENDBRANCH  76  77
ENDBRANCH   1  76
TORSDOF 21
ENDMDL
MODEL 2
REMARK VINA RESULT:     -11.1      1.238      2.446
REMARK SMILES O=C(OCCOCCOC(=O)[C@H]1[C@H](C(=O)NC2CC[NH+](Cc3ccccc3)CC2)[C@H]2C=C[C@@H]1C2)c1ccc(-c2c3nc(c(-c4c(F)cc(S(=O)(=O)[O-])cc4F)c4ccc([nH]4)c(-c4c(F)cc(S(=O)(=O)[O-])cc4F)c4nc(c(-c5c(F)cc(S(=O)(=O)[O-])cc5F)c5ccc2[nH]5)C=C4)C=C3)cc1
REMARK SMILES IDX 7 1 6 2 5 3 4 4 3 5 2 6 1 7 35 8 36 9 100 10 37 11 99 12
REMARK SMILES IDX 38 13 39 14 40 15 93 16 41 17 98 18 92 19 94 20 42 21 97 22
REMARK SMILES IDX 91 23 90 24 43 26 77 27 56 28 76 29 57 30 60 31 75 32 95 33
REMARK SMILES IDX 58 34 59 35 74 37 96 38 61 39 44 40 45 41 54 42 46 43 47 44
REMARK SMILES IDX 53 45 55 46 48 47 49 48 50 49 51 50 52 51 78 52 79 53 88 54
REMARK SMILES IDX 80 55 81 56 87 57 89 58 82 59 83 60 84 61 85 62 86 63 62 64
REMARK SMILES IDX 63 65 72 66 64 67 65 68 71 69 73 70 66 71 67 72 68 73 69 74
REMARK SMILES IDX 70 75 8 76 9 77 10 78 11 79 12 80 13 81 33 82 30 83 32 84
REMARK SMILES IDX 34 85 31 86 14 87 15 88 16 89 17 91 18 92 29 93 19 94 28 95
REMARK SMILES IDX 20 96 21 98 22 99 23 100 27 101 24 102 26 103 25 104
REMARK H PARENT 94 25 60 36 16 90 20 97
REMARK Flexibility Score: inf
ROOT
ATOM      1  C   UNL A   1      32.973  30.964  27.148  1.00  0.00     0.202 C 
ENDROOT
BRANCH   1   2
ATOM      2  O   UNL A   1      32.751  32.256  27.713  1.00  0.00    -0.374 OA
BRANCH   2   3
ATOM      3  C   UNL A   1      33.898  33.013  28.098  1.00  0.00     0.202 C 
BRANCH   3   4
ATOM      4  C   UNL A   1      35.251  32.322  27.941  1.00  0.00     0.261 C 
BRANCH   4   5
ATOM      5  O   UNL A   1      35.325  31.154  28.809  1.00  0.00    -0.460 OA
BRANCH   5   6
ATOM      6  C   UNL A   1      36.279  30.888  29.743  1.00  0.00     0.338 C 
ATOM      7  O   UNL A   1      36.206  31.316  30.886  1.00  0.00    -0.246 OA
BRANCH   6   8
ATOM      8  C   UNL A   1      37.392  30.028  29.320  1.00  0.00     0.060 A 
ATOM      9  C   UNL A   1      38.239  29.535  30.294  1.00  0.00     0.016 A 
ATOM     10  C   UNL A   1      37.709  29.868  27.976  1.00  0.00     0.016 A 
ATOM     11  C   UNL A   1      39.545  29.306  29.980  1.00  0.00     0.010 A 
ATOM     12  C   UNL A   1      38.955  29.330  27.646  1.00  0.00     0.010 A 
ATOM     13  C   UNL A   1      39.911  29.120  28.655  1.00  0.00    -0.014 A 
BRANCH  13  14
ATOM     14  C   UNL A   1      41.318  28.762  28.402  1.00  0.00     0.031 A 
ATOM     15  C   UNL A   1      42.377  29.795  28.629  1.00  0.00     0.074 A 
ATOM     16  C   UNL A   1      41.614  27.477  28.109  1.00  0.00     0.049 A 
ATOM     17  N   UNL A   1      43.625  29.774  28.258  1.00  0.00    -0.248 NA
ATOM     18  C   UNL A   1      41.982  31.029  29.335  1.00  0.00     0.031 C 
ATOM     19  C   UNL A   1      40.635  26.383  27.985  1.00  0.00     0.029 A 
ATOM     20  N   UNL A   1      42.811  26.846  27.924  1.00  0.00    -0.354 N 
ATOM     21  C   UNL A   1      44.137  31.020  28.595  1.00  0.00     0.074 A 
ATOM     22  C   UNL A   1      43.076  31.769  29.222  1.00  0.00     0.031 C 
ATOM     23  C   UNL A   1      41.274  25.215  27.876  1.00  0.00     0.029 A 
ATOM     24  C   UNL A   1      42.684  25.494  27.698  1.00  0.00     0.049 A 
ATOM     25  H   UNL A   1      43.677  27.312  27.950  1.00  0.00     0.167 HD
ATOM     26  C   UNL A   1      45.389  31.476  28.361  1.00  0.00     0.037 A 
ATOM     27  C   UNL A   1      43.593  24.596  27.284  1.00  0.00     0.037 A 
ATOM     28  C   UNL A   1      46.405  30.640  27.776  1.00  0.00     0.049 A 
ATOM     29  C   UNL A   1      44.959  25.133  26.993  1.00  0.00     0.074 A 
ATOM     30  C   UNL A   1      47.693  30.963  27.401  1.00  0.00     0.029 A 
ATOM     31  N   UNL A   1      46.233  29.284  27.504  1.00  0.00    -0.354 N 
ATOM     32  N   UNL A   1      45.403  26.361  27.148  1.00  0.00    -0.248 NA
ATOM     33  C   UNL A   1      45.931  24.198  26.430  1.00  0.00     0.031 C 
ATOM     34  C   UNL A   1      48.291  29.808  26.879  1.00  0.00     0.029 A 
ATOM     35  C   UNL A   1      47.391  28.753  26.971  1.00  0.00     0.049 A 
ATOM     36  H   UNL A   1      45.405  28.776  27.669  1.00  0.00     0.167 HD
ATOM     37  C   UNL A   1      46.710  26.352  26.695  1.00  0.00     0.074 A 
ATOM     38  C   UNL A   1      46.991  24.983  26.292  1.00  0.00     0.031 C 
ATOM     39  C   UNL A   1      47.598  27.373  26.601  1.00  0.00     0.037 A 
BRANCH  26  40
ATOM     40  C   UNL A   1      45.676  32.923  28.661  1.00  0.00     0.058 A 
ATOM     41  C   UNL A   1      45.402  33.952  27.746  1.00  0.00     0.135 A 
ATOM     42  C   UNL A   1      46.272  33.284  29.882  1.00  0.00     0.135 A 
ATOM     43  F   UNL A   1      44.864  33.669  26.550  1.00  0.00    -0.206 F 
ATOM     44  C   UNL A   1      45.733  35.279  28.019  1.00  0.00     0.059 A 
ATOM     45  C   UNL A   1      46.588  34.605  30.186  1.00  0.00     0.059 A 
ATOM     46  F   UNL A   1      46.573  32.342  30.791  1.00  0.00    -0.206 F 
ATOM     47  C   UNL A   1      46.330  35.596  29.240  1.00  0.00     0.060 A 
BRANCH  47  48
ATOM     48  S   UNL A   1      46.767  37.317  29.573  1.00  0.00     0.124 S 
ATOM     49  O   UNL A   1      47.900  37.509  28.672  1.00  0.00    -0.237 OA
ATOM     50  O   UNL A   1      45.544  38.026  29.211  1.00  0.00    -0.237 OA
ATOM     51  O   UNL A   1      47.091  37.317  30.997  1.00  0.00    -0.744 OA
ENDBRANCH  47  48
ENDBRANCH  26  40
BRANCH  27  52
ATOM     52  C   UNL A   1      43.195  23.187  27.011  1.00  0.00     0.058 A 
ATOM     53  C   UNL A   1      43.039  22.712  25.702  1.00  0.00     0.135 A 
ATOM     54  C   UNL A   1      43.010  22.263  28.058  1.00  0.00     0.135 A 
ATOM     55  F   UNL A   1      43.200  23.546  24.663  1.00  0.00    -0.206 F 
ATOM     56  C   UNL A   1      42.708  21.383  25.439  1.00  0.00     0.059 A 
ATOM     57  C   UNL A   1      42.718  20.924  27.821  1.00  0.00     0.059 A 
ATOM     58  F   UNL A   1      43.161  22.651  29.335  1.00  0.00    -0.206 F 
ATOM     59  C   UNL A   1      42.552  20.496  26.507  1.00  0.00     0.060 A 
BRANCH  59  60
ATOM     60  S   UNL A   1      42.150  18.770  26.161  1.00  0.00     0.124 S 
ATOM     61  O   UNL A   1      42.388  18.150  27.460  1.00  0.00    -0.237 OA
ATOM     62  O   UNL A   1      40.756  18.854  25.739  1.00  0.00    -0.237 OA
ATOM     63  O   UNL A   1      43.094  18.410  25.108  1.00  0.00    -0.744 OA
ENDBRANCH  59  60
ENDBRANCH  27  52
BRANCH  39  64
ATOM     64  C   UNL A   1      48.953  27.007  26.085  1.00  0.00     0.058 A 
ATOM     65  C   UNL A   1      49.265  27.094  24.722  1.00  0.00     0.135 A 
ATOM     66  C   UNL A   1      49.950  26.588  26.978  1.00  0.00     0.135 A 
ATOM     67  F   UNL A   1      48.331  27.475  23.835  1.00  0.00    -0.206 F 
ATOM     68  C   UNL A   1      50.524  26.752  24.254  1.00  0.00     0.059 A 
ATOM     69  C   UNL A   1      51.224  26.269  26.534  1.00  0.00     0.059 A 
ATOM     70  F   UNL A   1      49.688  26.497  28.292  1.00  0.00    -0.206 F 
ATOM     71  C   UNL A   1      51.497  26.343  25.169  1.00  0.00     0.060 A 
BRANCH  71  72
ATOM     72  S   UNL A   1      53.140  25.933  24.553  1.00  0.00     0.124 S 
ATOM     73  O   UNL A   1      53.260  24.534  24.951  1.00  0.00    -0.237 OA
ATOM     74  O   UNL A   1      53.006  26.177  23.120  1.00  0.00    -0.237 OA
ATOM     75  O   UNL A   1      54.009  26.867  25.263  1.00  0.00    -0.744 OA
ENDBRANCH  71  72
ENDBRANCH  39  64
ENDBRANCH  13  14
ENDBRANCH   6   8
ENDBRANCH   5   6
ENDBRANCH   4   5
ENDBRANCH   3   4
ENDBRANCH   2   3
ENDBRANCH   1   2
BRANCH   1  76
ATOM     76  C   UNL A   1      31.838  30.670  26.152  1.00  0.00     0.261 C 
BRANCH  76  77
ATOM     77  O   UNL A   1      31.743  29.264  25.878  1.00  0.00    -0.463 OA
BRANCH  77  78
ATOM     78  C   UNL A   1      32.696  28.742  25.059  1.00  0.00     0.310 C 
ATOM     79  O   UNL A   1      33.871  29.007  25.110  1.00  0.00    -0.252 OA
BRANCH  78  80
ATOM     80  C   UNL A   1      32.092  27.700  24.123  1.00  0.00     0.119 C 
ATOM     81  C   UNL A   1      30.815  27.043  24.752  1.00  0.00     0.100 C 
ATOM     82  C   UNL A   1      31.559  28.255  22.756  1.00  0.00     0.027 C 
ATOM     83  C   UNL A   1      29.795  27.179  23.588  1.00  0.00     0.025 C 
ATOM     84  C   UNL A   1      30.452  29.279  22.924  1.00  0.00    -0.027 C 
ATOM     85  C   UNL A   1      30.664  27.094  22.335  1.00  0.00     0.017 C 
ATOM     86  C   UNL A   1      29.405  28.643  23.462  1.00  0.00    -0.027 C 
BRANCH  81  87
ATOM     87  C   UNL A   1      31.160  25.893  25.738  1.00  0.00     0.224 C 
ATOM     88  O   UNL A   1      30.242  25.545  26.506  1.00  0.00    -0.275 OA
ATOM     89  N   UNL A   1      32.257  25.185  26.030  1.00  0.00    -0.353 N 
ATOM     90  H   UNL A   1      32.093  24.716  26.881  1.00  0.00     0.163 HD
BRANCH  89  91
ATOM     91  C   UNL A   1      33.610  24.833  25.579  1.00  0.00     0.093 C 
ATOM     92  C   UNL A   1      33.735  24.394  24.148  1.00  0.00     0.086 C 
ATOM     93  C   UNL A   1      34.219  23.712  26.450  1.00  0.00     0.086 C 
ATOM     94  C   UNL A   1      32.992  23.080  23.988  1.00  0.00     0.264 C 
ATOM     95  C   UNL A   1      33.512  22.361  26.240  1.00  0.00     0.264 C 
ATOM     96  N   UNL A   1      33.419  21.969  24.825  1.00  0.00    -0.331 N 
ATOM     97  H   UNL A   1      34.366  21.688  24.567  1.00  0.00     0.348 HD
BRANCH  96  98
ATOM     98  C   UNL A   1      32.521  20.800  24.589  1.00  0.00     0.299 C 
BRANCH  98  99
ATOM     99  C   UNL A   1      33.101  19.477  24.098  1.00  0.00     0.006 A 
ATOM    100  C   UNL A   1      32.424  18.753  23.103  1.00  0.00     0.009 A 
ATOM    101  C   UNL A   1      34.248  18.897  24.663  1.00  0.00     0.009 A 
ATOM    102  C   UNL A   1      32.871  17.493  22.693  1.00  0.00     0.001 A 
ATOM    103  C   UNL A   1      34.696  17.636  24.251  1.00  0.00     0.001 A 
ATOM    104  C   UNL A   1      34.007  16.933  23.267  1.00  0.00     0.000 A 
ENDBRANCH  98  99
ENDBRANCH  96  98
ENDBRANCH  89  91
ENDBRANCH  81  87
ENDBRANCH  78  80
ENDBRANCH  77  78
ENDBRANCH  76  77
ENDBRANCH   1  76
TORSDOF 21
ENDMDL
MODEL 3
REMARK VINA RESULT:     -10.9      1.567      8.337
REMARK SMILES O=C(OCCOCCOC(=O)[C@H]1[C@H](C(=O)NC2CC[NH+](Cc3ccccc3)CC2)[C@H]2C=C[C@@H]1C2)c1ccc(-c2c3nc(c(-c4c(F)cc(S(=O)(=O)[O-])cc4F)c4ccc([nH]4)c(-c4c(F)cc(S(=O)(=O)[O-])cc4F)c4nc(c(-c5c(F)cc(S(=O)(=O)[O-])cc5F)c5ccc2[nH]5)C=C4)C=C3)cc1
REMARK SMILES IDX 7 1 6 2 5 3 4 4 3 5 2 6 1 7 35 8 36 9 100 10 37 11 99 12
REMARK SMILES IDX 38 13 39 14 40 15 93 16 41 17 98 18 92 19 94 20 42 21 97 22
REMARK SMILES IDX 91 23 90 24 43 26 77 27 56 28 76 29 57 30 60 31 75 32 95 33
REMARK SMILES IDX 58 34 59 35 74 37 96 38 61 39 44 40 45 41 54 42 46 43 47 44
REMARK SMILES IDX 53 45 55 46 48 47 49 48 50 49 51 50 52 51 78 52 79 53 88 54
REMARK SMILES IDX 80 55 81 56 87 57 89 58 82 59 83 60 84 61 85 62 86 63 62 64
REMARK SMILES IDX 63 65 72 66 64 67 65 68 71 69 73 70 66 71 67 72 68 73 69 74
REMARK SMILES IDX 70 75 8 76 9 77 10 78 11 79 12 80 13 81 33 82 30 83 32 84
REMARK SMILES IDX 34 85 31 86 14 87 15 88 16 89 17 91 18 92 29 93 19 94 28 95
REMARK SMILES IDX 20 96 21 98 22 99 23 100 27 101 24 102 26 103 25 104
REMARK H PARENT 94 25 60 36 16 90 20 97
REMARK Flexibility Score: inf
ROOT
ATOM      1  C   UNL A   1      34.091  30.663  27.318  1.00  0.00     0.202 C 
ENDROOT
BRANCH   1   2
ATOM      2  O   UNL A   1      34.419  31.601  28.345  1.00  0.00    -0.374 OA
BRANCH   2   3
ATOM      3  C   UNL A   1      35.703  32.220  28.286  1.00  0.00     0.202 C 
BRANCH   3   4
ATOM      4  C   UNL A   1      36.464  32.332  29.606  1.00  0.00     0.261 C 
BRANCH   4   5
ATOM      5  O   UNL A   1      36.293  31.116  30.391  1.00  0.00    -0.460 OA
BRANCH   5   6
ATOM      6  C   UNL A   1      37.096  30.017  30.381  1.00  0.00     0.338 C 
ATOM      7  O   UNL A   1      36.685  28.909  30.693  1.00  0.00    -0.246 OA
BRANCH   6   8
ATOM      8  C   UNL A   1      38.484  30.220  29.945  1.00  0.00     0.060 A 
ATOM      9  C   UNL A   1      38.766  30.103  28.598  1.00  0.00     0.016 A 
ATOM     10  C   UNL A   1      39.521  30.333  30.866  1.00  0.00     0.016 A 
ATOM     11  C   UNL A   1      39.997  29.660  28.215  1.00  0.00     0.010 A 
ATOM     12  C   UNL A   1      40.833  30.184  30.411  1.00  0.00     0.010 A 
ATOM     13  C   UNL A   1      41.067  29.767  29.090  1.00  0.00    -0.014 A 
BRANCH  13  14
ATOM     14  C   UNL A   1      42.388  29.374  28.567  1.00  0.00     0.031 A 
ATOM     15  C   UNL A   1      42.569  27.991  28.026  1.00  0.00     0.074 A 
ATOM     16  C   UNL A   1      43.350  30.319  28.468  1.00  0.00     0.049 A 
ATOM     17  N   UNL A   1      43.675  27.369  27.737  1.00  0.00    -0.248 NA
ATOM     18  C   UNL A   1      41.353  27.183  27.810  1.00  0.00     0.031 C 
ATOM     19  C   UNL A   1      43.205  31.729  28.871  1.00  0.00     0.029 A 
ATOM     20  N   UNL A   1      44.610  30.272  27.944  1.00  0.00    -0.354 N 
ATOM     21  C   UNL A   1      43.301  26.074  27.401  1.00  0.00     0.074 A 
ATOM     22  C   UNL A   1      41.863  26.000  27.498  1.00  0.00     0.031 C 
ATOM     23  C   UNL A   1      44.270  32.426  28.466  1.00  0.00     0.029 A 
ATOM     24  C   UNL A   1      45.260  31.485  27.981  1.00  0.00     0.049 A 
ATOM     25  H   UNL A   1      45.013  29.453  27.578  1.00  0.00     0.167 HD
ATOM     26  C   UNL A   1      44.120  25.050  27.069  1.00  0.00     0.037 A 
ATOM     27  C   UNL A   1      46.548  31.786  27.750  1.00  0.00     0.037 A 
ATOM     28  C   UNL A   1      45.544  25.227  26.945  1.00  0.00     0.049 A 
ATOM     29  C   UNL A   1      47.442  30.630  27.426  1.00  0.00     0.074 A 
ATOM     30  C   UNL A   1      46.522  24.286  26.695  1.00  0.00     0.029 A 
ATOM     31  N   UNL A   1      46.185  26.460  27.042  1.00  0.00    -0.354 N 
ATOM     32  N   UNL A   1      47.117  29.364  27.276  1.00  0.00    -0.248 NA
ATOM     33  C   UNL A   1      48.869  30.916  27.288  1.00  0.00     0.031 C 
ATOM     34  C   UNL A   1      47.757  24.947  26.666  1.00  0.00     0.029 A 
ATOM     35  C   UNL A   1      47.545  26.308  26.853  1.00  0.00     0.049 A 
ATOM     36  H   UNL A   1      45.735  27.318  27.219  1.00  0.00     0.167 HD
ATOM     37  C   UNL A   1      48.303  28.695  27.030  1.00  0.00     0.074 A 
ATOM     38  C   UNL A   1      49.346  29.708  27.019  1.00  0.00     0.031 C 
ATOM     39  C   UNL A   1      48.523  27.369  26.846  1.00  0.00     0.037 A 
BRANCH  26  40
ATOM     40  C   UNL A   1      43.507  23.686  26.907  1.00  0.00     0.058 A 
ATOM     41  C   UNL A   1      43.090  22.910  28.001  1.00  0.00     0.135 A 
ATOM     42  C   UNL A   1      43.363  23.126  25.625  1.00  0.00     0.135 A 
ATOM     43  F   UNL A   1      43.232  23.374  29.252  1.00  0.00    -0.206 F 
ATOM     44  C   UNL A   1      42.582  21.623  27.832  1.00  0.00     0.059 A 
ATOM     45  C   UNL A   1      42.834  21.853  25.431  1.00  0.00     0.059 A 
ATOM     46  F   UNL A   1      43.759  23.813  24.541  1.00  0.00    -0.206 F 
ATOM     47  C   UNL A   1      42.462  21.101  26.543  1.00  0.00     0.060 A 
BRANCH  47  48
ATOM     48  S   UNL A   1      41.815  19.426  26.341  1.00  0.00     0.124 S 
ATOM     49  O   UNL A   1      42.314  18.773  27.549  1.00  0.00    -0.237 OA
ATOM     50  O   UNL A   1      40.374  19.650  26.294  1.00  0.00    -0.237 OA
ATOM     51  O   UNL A   1      42.419  18.976  25.090  1.00  0.00    -0.744 OA
ENDBRANCH  47  48
ENDBRANCH  26  40
BRANCH  27  52
ATOM     52  C   UNL A   1      47.050  33.174  27.950  1.00  0.00     0.058 A 
ATOM     53  C   UNL A   1      47.651  33.568  29.153  1.00  0.00     0.135 A 
ATOM     54  C   UNL A   1      46.986  34.130  26.918  1.00  0.00     0.135 A 
ATOM     55  F   UNL A   1      47.738  32.701  30.173  1.00  0.00    -0.206 F 
ATOM     56  C   UNL A   1      48.160  34.854  29.330  1.00  0.00     0.059 A 
ATOM     57  C   UNL A   1      47.521  35.405  27.056  1.00  0.00     0.059 A 
ATOM     58  F   UNL A   1      46.437  33.810  25.735  1.00  0.00    -0.206 F 
ATOM     59  C   UNL A   1      48.093  35.765  28.274  1.00  0.00     0.060 A 
BRANCH  59  60
ATOM     60  S   UNL A   1      48.778  37.421  28.498  1.00  0.00     0.124 S 
ATOM     61  O   UNL A   1      49.461  37.628  27.226  1.00  0.00    -0.237 OA
ATOM     62  O   UNL A   1      47.581  38.225  28.719  1.00  0.00    -0.237 OA
ATOM     63  O   UNL A   1      49.645  37.271  29.663  1.00  0.00    -0.744 OA
ENDBRANCH  59  60
ENDBRANCH  27  52
BRANCH  39  64
ATOM     64  C   UNL A   1      49.941  26.981  26.574  1.00  0.00     0.058 A 
ATOM     65  C   UNL A   1      50.812  26.614  27.610  1.00  0.00     0.135 A 
ATOM     66  C   UNL A   1      50.416  26.956  25.255  1.00  0.00     0.135 A 
ATOM     67  F   UNL A   1      50.396  26.642  28.886  1.00  0.00    -0.206 F 
ATOM     68  C   UNL A   1      52.125  26.256  27.346  1.00  0.00     0.059 A 
ATOM     69  C   UNL A   1      51.718  26.573  24.967  1.00  0.00     0.059 A 
ATOM     70  F   UNL A   1      49.610  27.297  24.237  1.00  0.00    -0.206 F 
ATOM     71  C   UNL A   1      52.567  26.237  26.021  1.00  0.00     0.060 A 
BRANCH  71  72
ATOM     72  S   UNL A   1      54.266  25.737  25.688  1.00  0.00     0.124 S 
ATOM     73  O   UNL A   1      54.814  25.649  27.038  1.00  0.00    -0.237 OA
ATOM     74  O   UNL A   1      54.086  24.467  24.992  1.00  0.00    -0.237 OA
ATOM     75  O   UNL A   1      54.783  26.827  24.868  1.00  0.00    -0.744 OA
ENDBRANCH  71  72
ENDBRANCH  39  64
ENDBRANCH  13  14
ENDBRANCH   6   8
ENDBRANCH   5   6
ENDBRANCH   4   5
ENDBRANCH   3   4
ENDBRANCH   2   3
ENDBRANCH   1   2
BRANCH   1  76
ATOM     76  C   UNL A   1      32.559  30.588  27.204  1.00  0.00     0.261 C 
BRANCH  76  77
ATOM     77  O   UNL A   1      32.164  29.783  26.083  1.00  0.00    -0.463 OA
BRANCH  77  78
ATOM     78  C   UNL A   1      31.803  28.501  26.358  1.00  0.00     0.310 C 
ATOM     79  O   UNL A   1      31.308  28.129  27.393  1.00  0.00    -0.252 OA
BRANCH  78  80
ATOM     80  C   UNL A   1      32.019  27.606  25.142  1.00  0.00     0.119 C 
ATOM     81  C   UNL A   1      31.013  26.404  25.133  1.00  0.00     0.100 C 
ATOM     82  C   UNL A   1      31.759  28.287  23.753  1.00  0.00     0.027 C 
ATOM     83  C   UNL A   1      30.451  26.486  23.686  1.00  0.00     0.025 C 
ATOM     84  C   UNL A   1      30.333  28.779  23.593  1.00  0.00    -0.027 C 
ATOM     85  C   UNL A   1      31.618  27.047  22.877  1.00  0.00     0.017 C 
ATOM     86  C   UNL A   1      29.541  27.701  23.594  1.00  0.00    -0.027 C 
BRANCH  81  87
ATOM     87  C   UNL A   1      31.483  25.225  26.028  1.00  0.00     0.224 C 
ATOM     88  O   UNL A   1      30.694  24.885  26.932  1.00  0.00    -0.275 OA
ATOM     89  N   UNL A   1      32.593  24.485  26.125  1.00  0.00    -0.353 N 
ATOM     90  H   UNL A   1      32.558  24.002  26.982  1.00  0.00     0.163 HD
BRANCH  89  91
ATOM     91  C   UNL A   1      33.844  24.109  25.450  1.00  0.00     0.093 C 
ATOM     92  C   UNL A   1      33.709  23.620  24.037  1.00  0.00     0.086 C 
ATOM     93  C   UNL A   1      34.599  23.016  26.238  1.00  0.00     0.086 C 
ATOM     94  C   UNL A   1      32.951  22.306  24.059  1.00  0.00     0.264 C 
ATOM     95  C   UNL A   1      33.867  21.663  26.206  1.00  0.00     0.264 C 
ATOM     96  N   UNL A   1      33.521  21.222  24.845  1.00  0.00    -0.331 N 
ATOM     97  H   UNL A   1      34.406  20.926  24.431  1.00  0.00     0.348 HD
BRANCH  96  98
ATOM     98  C   UNL A   1      32.596  20.051  24.815  1.00  0.00     0.299 C 
BRANCH  98  99
ATOM     99  C   UNL A   1      33.145  18.638  24.984  1.00  0.00     0.006 A 
ATOM    100  C   UNL A   1      34.378  18.302  24.402  1.00  0.00     0.009 A 
ATOM    101  C   UNL A   1      32.426  17.617  25.626  1.00  0.00     0.009 A 
ATOM    102  C   UNL A   1      34.872  16.994  24.453  1.00  0.00     0.001 A 
ATOM    103  C   UNL A   1      32.921  16.308  25.679  1.00  0.00     0.001 A 
ATOM    104  C   UNL A   1      34.142  15.996  25.091  1.00  0.00     0.000 A 
ENDBRANCH  98  99
ENDBRANCH  96  98
ENDBRANCH  89  91
ENDBRANCH  81  87
ENDBRANCH  78  80
ENDBRANCH  77  78
ENDBRANCH  76  77
ENDBRANCH   1  76
TORSDOF 21
ENDMDL
