MODEL 1
REMARK VINA RESULT:      -9.3      0.000      0.000
REMARK SMILES Cc1ccc(C(=O)OCCOCCOC(=O)c2ccc(-c3c4nc(c(-c5c(F)cc(S(=O)(=O)[O-])cc5F)c5ccc([nH]5)c(-c5c(F)cc(S(=O)(=O)[O-])cc5F)c5nc(c(-c6c(F)cc(S(=O)(=O)[O-])cc6F)c6ccc3[nH]6)C=C5)C=C4)cc2)c2c1N[C@H](c1ccccc1F)[C@H]1CC=C[C@@H]21
REMARK SMILES IDX 12 1 11 2 10 3 9 4 8 5 6 6 7 7 5 8 1 9 2 10 3 11 84 12 4 13
REMARK SMILES IDX 83 14 85 15 98 16 86 17 94 19 97 20 95 21 96 22 87 23 88 24
REMARK SMILES IDX 92 25 89 26 91 27 93 28 90 29 13 30 14 31 15 32 16 33 17 34
REMARK SMILES IDX 18 35 82 36 19 37 81 38 20 39 21 40 22 41 75 42 23 43 80 44
REMARK SMILES IDX 74 45 76 46 24 47 79 48 73 49 72 50 25 52 59 53 38 54 58 55
REMARK SMILES IDX 39 56 42 57 57 58 77 59 40 60 41 61 56 63 78 64 43 65 26 66
REMARK SMILES IDX 27 67 36 68 28 69 29 70 35 71 37 72 30 73 31 74 32 75 33 76
REMARK SMILES IDX 34 77 60 78 61 79 70 80 62 81 63 82 69 83 71 84 64 85 65 86
REMARK SMILES IDX 66 87 67 88 68 89 44 90 45 91 54 92 46 93 47 94 53 95 55 96
REMARK SMILES IDX 48 97 49 98 50 99 51 100 52 101
REMARK H PARENT 85 18 76 51 42 62
REMARK Flexibility Score: inf
ROOT
ATOM      1  C   UNL A   1      34.403  33.848  30.770  1.00  0.00     0.202 C 
ENDROOT
BRANCH   1   2
ATOM      2  O   UNL A   1      35.439  34.313  31.639  1.00  0.00    -0.374 OA
BRANCH   2   3
ATOM      3  C   UNL A   1      35.490  33.778  32.958  1.00  0.00     0.202 C 
BRANCH   3   4
ATOM      4  C   UNL A   1      36.184  32.424  33.150  1.00  0.00     0.261 C 
BRANCH   4   5
ATOM      5  O   UNL A   1      37.309  32.513  34.034  1.00  0.00    -0.460 OA
BRANCH   5   6
ATOM      6  C   UNL A   1      38.494  32.728  33.419  1.00  0.00     0.338 C 
ATOM      7  O   UNL A   1      38.664  33.206  32.304  1.00  0.00    -0.246 OA
BRANCH   6   8
ATOM      8  C   UNL A   1      39.603  32.337  34.316  1.00  0.00     0.065 A 
ATOM      9  C   UNL A   1      42.527  31.361  37.315  1.00  0.00     0.046 C 
ATOM     10  C   UNL A   1      41.586  31.675  36.181  1.00  0.00    -0.028 A 
ATOM     11  C   UNL A   1      41.019  32.961  36.161  1.00  0.00     0.006 A 
ATOM     12  C   UNL A   1      41.187  30.711  35.223  1.00  0.00     0.042 A 
ATOM     13  C   UNL A   1      40.039  33.295  35.234  1.00  0.00     0.016 A 
ATOM     14  C   UNL A   1      40.188  31.044  34.276  1.00  0.00    -0.003 A 
ATOM     15  N   UNL A   1      41.789  29.455  35.194  1.00  0.00    -0.377 N 
ATOM     16  C   UNL A   1      39.849  30.070  33.163  1.00  0.00     0.050 C 
ATOM     17  C   UNL A   1      41.153  28.365  34.469  1.00  0.00     0.117 C 
ATOM     18  H   UNL A   1      42.641  29.306  35.663  1.00  0.00     0.161 HD
ATOM     19  C   UNL A   1      40.805  28.856  33.048  1.00  0.00     0.031 C 
ATOM     20  C   UNL A   1      38.517  29.366  33.229  1.00  0.00    -0.023 C 
ATOM     21  C   UNL A   1      39.978  27.829  32.253  1.00  0.00     0.034 C 
ATOM     22  C   UNL A   1      38.584  28.145  32.683  1.00  0.00    -0.030 C 
BRANCH  17  23
ATOM     23  C   UNL A   1      41.993  27.105  34.611  1.00  0.00     0.010 A 
ATOM     24  C   UNL A   1      41.462  26.035  35.363  1.00  0.00     0.009 A 
ATOM     25  C   UNL A   1      43.234  26.907  33.999  1.00  0.00     0.128 A 
ATOM     26  C   UNL A   1      42.127  24.809  35.449  1.00  0.00     0.001 A 
ATOM     27  C   UNL A   1      43.897  25.680  34.072  1.00  0.00     0.039 A 
ATOM     28  F   UNL A   1      43.816  27.880  33.284  1.00  0.00    -0.207 F 
ATOM     29  C   UNL A   1      43.339  24.626  34.790  1.00  0.00     0.003 A 
ENDBRANCH  17  23
ENDBRANCH   6   8
ENDBRANCH   5   6
ENDBRANCH   4   5
ENDBRANCH   3   4
ENDBRANCH   2   3
ENDBRANCH   1   2
BRANCH   1  30
ATOM     30  C   UNL A   1      34.806  33.130  29.478  1.00  0.00     0.261 C 
BRANCH  30  31
ATOM     31  O   UNL A   1      34.545  31.714  29.534  1.00  0.00    -0.460 OA
BRANCH  31  32
ATOM     32  C   UNL A   1      34.722  31.055  28.368  1.00  0.00     0.338 C 
ATOM     33  O   UNL A   1      34.036  31.132  27.356  1.00  0.00    -0.246 OA
BRANCH  32  34
ATOM     34  C   UNL A   1      36.003  30.335  28.402  1.00  0.00     0.060 A 
ATOM     35  C   UNL A   1      36.399  29.747  29.611  1.00  0.00     0.016 A 
ATOM     36  C   UNL A   1      36.848  30.329  27.291  1.00  0.00     0.016 A 
ATOM     37  C   UNL A   1      37.661  29.173  29.720  1.00  0.00     0.010 A 
ATOM     38  C   UNL A   1      38.123  29.773  27.412  1.00  0.00     0.010 A 
ATOM     39  C   UNL A   1      38.544  29.225  28.636  1.00  0.00    -0.014 A 
BRANCH  39  40
ATOM     40  C   UNL A   1      39.966  28.879  28.854  1.00  0.00     0.031 A 
ATOM     41  C   UNL A   1      40.868  29.913  29.466  1.00  0.00     0.074 A 
ATOM     42  C   UNL A   1      40.426  27.650  28.562  1.00  0.00     0.049 A 
ATOM     43  N   UNL A   1      42.137  29.830  29.768  1.00  0.00    -0.248 NA
ATOM     44  C   UNL A   1      40.255  31.214  29.787  1.00  0.00     0.031 C 
ATOM     45  C   UNL A   1      39.626  26.557  28.015  1.00  0.00     0.029 A 
ATOM     46  N   UNL A   1      41.683  27.117  28.693  1.00  0.00    -0.354 N 
ATOM     47  C   UNL A   1      42.470  31.058  30.329  1.00  0.00     0.074 A 
ATOM     48  C   UNL A   1      41.283  31.882  30.289  1.00  0.00     0.031 C 
ATOM     49  C   UNL A   1      40.414  25.479  27.852  1.00  0.00     0.029 A 
ATOM     50  C   UNL A   1      41.777  25.816  28.259  1.00  0.00     0.049 A 
ATOM     51  H   UNL A   1      42.446  27.619  29.059  1.00  0.00     0.167 HD
ATOM     52  C   UNL A   1      43.657  31.453  30.846  1.00  0.00     0.037 A 
ATOM     53  C   UNL A   1      42.846  24.998  28.193  1.00  0.00     0.037 A 
ATOM     54  C   UNL A   1      44.835  30.629  30.865  1.00  0.00     0.049 A 
ATOM     55  C   UNL A   1      44.184  25.497  28.676  1.00  0.00     0.074 A 
ATOM     56  C   UNL A   1      46.090  30.936  31.361  1.00  0.00     0.029 A 
ATOM     57  N   UNL A   1      44.909  29.340  30.357  1.00  0.00    -0.354 N 
ATOM     58  N   UNL A   1      44.483  26.653  29.222  1.00  0.00    -0.248 NA
ATOM     59  C   UNL A   1      45.328  24.586  28.535  1.00  0.00     0.031 C 
ATOM     60  C   UNL A   1      46.934  29.850  31.109  1.00  0.00     0.029 A 
ATOM     61  C   UNL A   1      46.194  28.848  30.501  1.00  0.00     0.049 A 
ATOM     62  H   UNL A   1      44.157  28.848  29.954  1.00  0.00     0.167 HD
ATOM     63  C   UNL A   1      45.843  26.598  29.510  1.00  0.00     0.074 A 
ATOM     64  C   UNL A   1      46.307  25.293  29.085  1.00  0.00     0.031 C 
ATOM     65  C   UNL A   1      46.635  27.542  30.077  1.00  0.00     0.037 A 
BRANCH  52  66
ATOM     66  C   UNL A   1      43.742  32.839  31.418  1.00  0.00     0.058 A 
ATOM     67  C   UNL A   1      43.969  33.956  30.600  1.00  0.00     0.135 A 
ATOM     68  C   UNL A   1      43.550  33.059  32.791  1.00  0.00     0.135 A 
ATOM     69  F   UNL A   1      44.180  33.799  29.283  1.00  0.00    -0.206 F 
ATOM     70  C   UNL A   1      44.018  35.243  31.126  1.00  0.00     0.059 A 
ATOM     71  C   UNL A   1      43.571  34.340  33.335  1.00  0.00     0.059 A 
ATOM     72  F   UNL A   1      43.336  32.023  33.619  1.00  0.00    -0.206 F 
ATOM     73  C   UNL A   1      43.814  35.425  32.495  1.00  0.00     0.060 A 
BRANCH  73  74
ATOM     74  S   UNL A   1      43.863  37.104  33.155  1.00  0.00     0.124 S 
ATOM     75  O   UNL A   1      42.666  37.126  33.989  1.00  0.00    -0.237 OA
ATOM     76  O   UNL A   1      45.135  37.119  33.871  1.00  0.00    -0.237 OA
ATOM     77  O   UNL A   1      43.810  37.942  31.960  1.00  0.00    -0.744 OA
ENDBRANCH  73  74
ENDBRANCH  52  66
BRANCH  53  78
ATOM     78  C   UNL A   1      42.693  23.623  27.648  1.00  0.00     0.058 A 
ATOM     79  C   UNL A   1      42.480  22.528  28.500  1.00  0.00     0.135 A 
ATOM     80  C   UNL A   1      42.737  23.377  26.267  1.00  0.00     0.135 A 
ATOM     81  F   UNL A   1      42.442  22.711  29.828  1.00  0.00    -0.206 F 
ATOM     82  C   UNL A   1      42.319  21.239  28.002  1.00  0.00     0.059 A 
ATOM     83  C   UNL A   1      42.556  22.101  25.744  1.00  0.00     0.059 A 
ATOM     84  F   UNL A   1      42.931  24.392  25.410  1.00  0.00    -0.206 F 
ATOM     85  C   UNL A   1      42.352  21.037  26.621  1.00  0.00     0.060 A 
BRANCH  85  86
ATOM     86  S   UNL A   1      42.083  19.367  25.987  1.00  0.00     0.124 S 
ATOM     87  O   UNL A   1      42.555  18.549  27.098  1.00  0.00    -0.237 OA
ATOM     88  O   UNL A   1      40.643  19.359  25.753  1.00  0.00    -0.237 OA
ATOM     89  O   UNL A   1      42.906  19.329  24.781  1.00  0.00    -0.744 OA
ENDBRANCH  85  86
ENDBRANCH  53  78
BRANCH  65  90
ATOM     90  C   UNL A   1      48.086  27.209  30.290  1.00  0.00     0.058 A 
ATOM     91  C   UNL A   1      49.053  27.494  29.315  1.00  0.00     0.135 A 
ATOM     92  C   UNL A   1      48.526  26.703  31.525  1.00  0.00     0.135 A 
ATOM     93  F   UNL A   1      48.684  27.972  28.115  1.00  0.00    -0.206 F 
ATOM     94  C   UNL A   1      50.408  27.291  29.556  1.00  0.00     0.059 A 
ATOM     95  C   UNL A   1      49.877  26.516  31.797  1.00  0.00     0.059 A 
ATOM     96  F   UNL A   1      47.641  26.423  32.495  1.00  0.00    -0.206 F 
ATOM     97  C   UNL A   1      50.811  26.812  30.805  1.00  0.00     0.060 A 
BRANCH  97  98
ATOM     98  S   UNL A   1      52.577  26.627  31.126  1.00  0.00     0.124 S 
ATOM     99  O   UNL A   1      52.635  25.283  31.691  1.00  0.00    -0.237 OA
ATOM    100  O   UNL A   1      53.153  26.779  29.793  1.00  0.00    -0.237 OA
ATOM    101  O   UNL A   1      52.871  27.712  32.057  1.00  0.00    -0.744 OA
ENDBRANCH  97  98
ENDBRANCH  65  90
ENDBRANCH  39  40
ENDBRANCH  32  34
ENDBRANCH  31  32
ENDBRANCH  30  31
ENDBRANCH   1  30
TORSDOF 18
ENDMDL
MODEL 2
REMARK VINA RESULT:      -9.1      5.378     12.640
REMARK SMILES Cc1ccc(C(=O)OCCOCCOC(=O)c2ccc(-c3c4nc(c(-c5c(F)cc(S(=O)(=O)[O-])cc5F)c5ccc([nH]5)c(-c5c(F)cc(S(=O)(=O)[O-])cc5F)c5nc(c(-c6c(F)cc(S(=O)(=O)[O-])cc6F)c6ccc3[nH]6)C=C5)C=C4)cc2)c2c1N[C@H](c1ccccc1F)[C@H]1CC=C[C@@H]21
REMARK SMILES IDX 12 1 11 2 10 3 9 4 8 5 6 6 7 7 5 8 1 9 2 10 3 11 84 12 4 13
REMARK SMILES IDX 83 14 85 15 98 16 86 17 94 19 97 20 95 21 96 22 87 23 88 24
REMARK SMILES IDX 92 25 89 26 91 27 93 28 90 29 13 30 14 31 15 32 16 33 17 34
REMARK SMILES IDX 18 35 82 36 19 37 81 38 20 39 21 40 22 41 75 42 23 43 80 44
REMARK SMILES IDX 74 45 76 46 24 47 79 48 73 49 72 50 25 52 59 53 38 54 58 55
REMARK SMILES IDX 39 56 42 57 57 58 77 59 40 60 41 61 56 63 78 64 43 65 26 66
REMARK SMILES IDX 27 67 36 68 28 69 29 70 35 71 37 72 30 73 31 74 32 75 33 76
REMARK SMILES IDX 34 77 60 78 61 79 70 80 62 81 63 82 69 83 71 84 64 85 65 86
REMARK SMILES IDX 66 87 67 88 68 89 44 90 45 91 54 92 46 93 47 94 53 95 55 96
REMARK SMILES IDX 48 97 49 98 50 99 51 100 52 101
REMARK H PARENT 85 18 76 51 42 62
REMARK Flexibility Score: inf
ROOT
ATOM      1  C   UNL A   1      38.028  22.280  26.046  1.00  0.00     0.202 C 
ENDROOT
BRANCH   1   2
ATOM      2  O   UNL A   1      37.784  21.646  24.788  1.00  0.00    -0.374 OA
BRANCH   2   3
ATOM      3  C   UNL A   1      36.918  22.303  23.869  1.00  0.00     0.202 C 
BRANCH   3   4
ATOM      4  C   UNL A   1      35.412  22.255  24.151  1.00  0.00     0.261 C 
BRANCH   4   5
ATOM      5  O   UNL A   1      34.786  23.533  23.979  1.00  0.00    -0.460 OA
BRANCH   5   6
ATOM      6  C   UNL A   1      34.601  24.229  25.123  1.00  0.00     0.338 C 
ATOM      7  O   UNL A   1      35.472  24.706  25.839  1.00  0.00    -0.246 OA
BRANCH   6   8
ATOM      8  C   UNL A   1      33.154  24.384  25.387  1.00  0.00     0.065 A 
ATOM      9  C   UNL A   1      29.064  24.782  26.657  1.00  0.00     0.046 C 
ATOM     10  C   UNL A   1      30.456  24.642  26.097  1.00  0.00    -0.028 A 
ATOM     11  C   UNL A   1      31.216  23.548  26.547  1.00  0.00     0.006 A 
ATOM     12  C   UNL A   1      31.042  25.606  25.241  1.00  0.00     0.042 A 
ATOM     13  C   UNL A   1      32.553  23.413  26.191  1.00  0.00     0.016 A 
ATOM     14  C   UNL A   1      32.404  25.476  24.876  1.00  0.00    -0.003 A 
ATOM     15  N   UNL A   1      30.279  26.658  24.739  1.00  0.00    -0.377 N 
ATOM     16  C   UNL A   1      33.005  26.423  23.853  1.00  0.00     0.050 C 
ATOM     17  C   UNL A   1      30.941  27.822  24.167  1.00  0.00     0.117 C 
ATOM     18  H   UNL A   1      29.297  26.615  24.773  1.00  0.00     0.161 HD
ATOM     19  C   UNL A   1      31.981  27.337  23.135  1.00  0.00     0.031 C 
ATOM     20  C   UNL A   1      33.993  27.449  24.345  1.00  0.00    -0.023 C 
ATOM     21  C   UNL A   1      32.853  28.484  22.590  1.00  0.00     0.034 C 
ATOM     22  C   UNL A   1      33.936  28.569  23.614  1.00  0.00    -0.030 C 
BRANCH  17  23
ATOM     23  C   UNL A   1      29.894  28.829  23.716  1.00  0.00     0.010 A 
ATOM     24  C   UNL A   1      28.774  28.348  23.005  1.00  0.00     0.009 A 
ATOM     25  C   UNL A   1      29.934  30.196  24.006  1.00  0.00     0.128 A 
ATOM     26  C   UNL A   1      27.721  29.196  22.651  1.00  0.00     0.001 A 
ATOM     27  C   UNL A   1      28.878  31.045  23.665  1.00  0.00     0.039 A 
ATOM     28  F   UNL A   1      30.971  30.735  24.660  1.00  0.00    -0.207 F 
ATOM     29  C   UNL A   1      27.766  30.543  22.994  1.00  0.00     0.003 A 
ENDBRANCH  17  23
ENDBRANCH   6   8
ENDBRANCH   5   6
ENDBRANCH   4   5
ENDBRANCH   3   4
ENDBRANCH   2   3
ENDBRANCH   1   2
BRANCH   1  30
ATOM     30  C   UNL A   1      39.322  23.082  26.216  1.00  0.00     0.261 C 
BRANCH  30  31
ATOM     31  O   UNL A   1      39.072  24.480  26.461  1.00  0.00    -0.460 OA
BRANCH  31  32
ATOM     32  C   UNL A   1      40.152  25.283  26.341  1.00  0.00     0.338 C 
ATOM     33  O   UNL A   1      40.811  25.501  25.333  1.00  0.00    -0.246 OA
BRANCH  32  34
ATOM     34  C   UNL A   1      40.340  26.039  27.588  1.00  0.00     0.060 A 
ATOM     35  C   UNL A   1      39.380  25.897  28.598  1.00  0.00     0.016 A 
ATOM     36  C   UNL A   1      41.389  26.951  27.718  1.00  0.00     0.016 A 
ATOM     37  C   UNL A   1      39.450  26.692  29.737  1.00  0.00     0.010 A 
ATOM     38  C   UNL A   1      41.442  27.766  28.852  1.00  0.00     0.010 A 
ATOM     39  C   UNL A   1      40.454  27.661  29.846  1.00  0.00    -0.014 A 
BRANCH  39  40
ATOM     40  C   UNL A   1      40.347  28.686  30.908  1.00  0.00     0.031 A 
ATOM     41  C   UNL A   1      41.288  28.605  32.077  1.00  0.00     0.074 A 
ATOM     42  C   UNL A   1      39.466  29.696  30.801  1.00  0.00     0.049 A 
ATOM     43  N   UNL A   1      41.394  29.399  33.110  1.00  0.00    -0.248 NA
ATOM     44  C   UNL A   1      42.243  27.484  32.077  1.00  0.00     0.031 C 
ATOM     45  C   UNL A   1      38.545  29.898  29.685  1.00  0.00     0.029 A 
ATOM     46  N   UNL A   1      39.209  30.745  31.647  1.00  0.00    -0.354 N 
ATOM     47  C   UNL A   1      42.435  28.884  33.874  1.00  0.00     0.074 A 
ATOM     48  C   UNL A   1      42.902  27.688  33.208  1.00  0.00     0.031 C 
ATOM     49  C   UNL A   1      37.818  31.005  29.916  1.00  0.00     0.029 A 
ATOM     50  C   UNL A   1      38.205  31.574  31.206  1.00  0.00     0.049 A 
ATOM     51  H   UNL A   1      39.696  30.890  32.489  1.00  0.00     0.167 HD
ATOM     52  C   UNL A   1      42.962  29.376  35.018  1.00  0.00     0.037 A 
ATOM     53  C   UNL A   1      37.659  32.660  31.787  1.00  0.00     0.037 A 
ATOM     54  C   UNL A   1      42.478  30.557  35.680  1.00  0.00     0.049 A 
ATOM     55  C   UNL A   1      38.192  33.128  33.117  1.00  0.00     0.074 A 
ATOM     56  C   UNL A   1      42.940  31.138  36.848  1.00  0.00     0.029 A 
ATOM     57  N   UNL A   1      41.416  31.333  35.239  1.00  0.00    -0.354 N 
ATOM     58  N   UNL A   1      39.189  32.645  33.820  1.00  0.00    -0.248 NA
ATOM     59  C   UNL A   1      37.530  34.286  33.732  1.00  0.00     0.031 C 
ATOM     60  C   UNL A   1      42.125  32.236  37.137  1.00  0.00     0.029 A 
ATOM     61  C   UNL A   1      41.188  32.370  36.125  1.00  0.00     0.049 A 
ATOM     62  H   UNL A   1      40.901  31.169  34.416  1.00  0.00     0.167 HD
ATOM     63  C   UNL A   1      39.288  33.453  34.949  1.00  0.00     0.074 A 
ATOM     64  C   UNL A   1      38.254  34.461  34.831  1.00  0.00     0.031 C 
ATOM     65  C   UNL A   1      40.156  33.369  35.987  1.00  0.00     0.037 A 
BRANCH  52  66
ATOM     66  C   UNL A   1      44.112  28.630  35.634  1.00  0.00     0.058 A 
ATOM     67  C   UNL A   1      45.443  28.953  35.327  1.00  0.00     0.135 A 
ATOM     68  C   UNL A   1      43.884  27.612  36.573  1.00  0.00     0.135 A 
ATOM     69  F   UNL A   1      45.716  29.904  34.420  1.00  0.00    -0.206 F 
ATOM     70  C   UNL A   1      46.507  28.283  35.919  1.00  0.00     0.059 A 
ATOM     71  C   UNL A   1      44.934  26.944  37.196  1.00  0.00     0.059 A 
ATOM     72  F   UNL A   1      42.629  27.259  36.896  1.00  0.00    -0.206 F 
ATOM     73  C   UNL A   1      46.243  27.282  36.856  1.00  0.00     0.060 A 
BRANCH  73  74
ATOM     74  S   UNL A   1      47.639  26.437  37.627  1.00  0.00     0.124 S 
ATOM     75  O   UNL A   1      47.747  25.238  36.802  1.00  0.00    -0.237 OA
ATOM     76  O   UNL A   1      48.715  27.411  37.473  1.00  0.00    -0.237 OA
ATOM     77  O   UNL A   1      47.189  26.215  38.998  1.00  0.00    -0.744 OA
ENDBRANCH  73  74
ENDBRANCH  52  66
BRANCH  53  78
ATOM     78  C   UNL A   1      36.545  33.379  31.112  1.00  0.00     0.058 A 
ATOM     79  C   UNL A   1      36.774  34.150  29.963  1.00  0.00     0.135 A 
ATOM     80  C   UNL A   1      35.228  33.294  31.590  1.00  0.00     0.135 A 
ATOM     81  F   UNL A   1      38.018  34.271  29.475  1.00  0.00    -0.206 F 
ATOM     82  C   UNL A   1      35.738  34.813  29.313  1.00  0.00     0.059 A 
ATOM     83  C   UNL A   1      34.172  33.929  30.945  1.00  0.00     0.059 A 
ATOM     84  F   UNL A   1      34.955  32.562  32.682  1.00  0.00    -0.206 F 
ATOM     85  C   UNL A   1      34.439  34.692  29.809  1.00  0.00     0.060 A 
BRANCH  85  86
ATOM     86  S   UNL A   1      33.096  35.511  28.922  1.00  0.00     0.124 S 
ATOM     87  O   UNL A   1      32.548  34.412  28.136  1.00  0.00    -0.237 OA
ATOM     88  O   UNL A   1      32.260  35.995  30.016  1.00  0.00    -0.237 OA
ATOM     89  O   UNL A   1      33.782  36.551  28.160  1.00  0.00    -0.744 OA
ENDBRANCH  85  86
ENDBRANCH  53  78
BRANCH  65  90
ATOM     90  C   UNL A   1      40.048  34.395  37.080  1.00  0.00     0.058 A 
ATOM     91  C   UNL A   1      40.662  35.651  36.968  1.00  0.00     0.135 A 
ATOM     92  C   UNL A   1      39.231  34.159  38.199  1.00  0.00     0.135 A 
ATOM     93  F   UNL A   1      41.458  35.924  35.922  1.00  0.00    -0.206 F 
ATOM     94  C   UNL A   1      40.468  36.641  37.927  1.00  0.00     0.059 A 
ATOM     95  C   UNL A   1      39.004  35.142  39.157  1.00  0.00     0.059 A 
ATOM     96  F   UNL A   1      38.614  32.976  38.348  1.00  0.00    -0.206 F 
ATOM     97  C   UNL A   1      39.628  36.380  39.012  1.00  0.00     0.060 A 
BRANCH  97  98
ATOM     98  S   UNL A   1      39.329  37.701  40.205  1.00  0.00     0.124 S 
ATOM     99  O   UNL A   1      40.593  38.429  40.163  1.00  0.00    -0.237 OA
ATOM    100  O   UNL A   1      38.181  38.391  39.624  1.00  0.00    -0.237 OA
ATOM    101  O   UNL A   1      39.059  36.984  41.448  1.00  0.00    -0.744 OA
ENDBRANCH  97  98
ENDBRANCH  65  90
ENDBRANCH  39  40
ENDBRANCH  32  34
ENDBRANCH  31  32
ENDBRANCH  30  31
ENDBRANCH   1  30
TORSDOF 18
ENDMDL
MODEL 3
REMARK VINA RESULT:      -9.1      4.773      8.008
REMARK SMILES Cc1ccc(C(=O)OCCOCCOC(=O)c2ccc(-c3c4nc(c(-c5c(F)cc(S(=O)(=O)[O-])cc5F)c5ccc([nH]5)c(-c5c(F)cc(S(=O)(=O)[O-])cc5F)c5nc(c(-c6c(F)cc(S(=O)(=O)[O-])cc6F)c6ccc3[nH]6)C=C5)C=C4)cc2)c2c1N[C@H](c1ccccc1F)[C@H]1CC=C[C@@H]21
REMARK SMILES IDX 12 1 11 2 10 3 9 4 8 5 6 6 7 7 5 8 1 9 2 10 3 11 84 12 4 13
REMARK SMILES IDX 83 14 85 15 98 16 86 17 94 19 97 20 95 21 96 22 87 23 88 24
REMARK SMILES IDX 92 25 89 26 91 27 93 28 90 29 13 30 14 31 15 32 16 33 17 34
REMARK SMILES IDX 18 35 82 36 19 37 81 38 20 39 21 40 22 41 75 42 23 43 80 44
REMARK SMILES IDX 74 45 76 46 24 47 79 48 73 49 72 50 25 52 59 53 38 54 58 55
REMARK SMILES IDX 39 56 42 57 57 58 77 59 40 60 41 61 56 63 78 64 43 65 26 66
REMARK SMILES IDX 27 67 36 68 28 69 29 70 35 71 37 72 30 73 31 74 32 75 33 76
REMARK SMILES IDX 34 77 60 78 61 79 70 80 62 81 63 82 69 83 71 84 64 85 65 86
REMARK SMILES IDX 66 87 67 88 68 89 44 90 45 91 54 92 46 93 47 94 53 95 55 96
REMARK SMILES IDX 48 97 49 98 50 99 51 100 52 101
REMARK H PARENT 85 18 76 51 42 62
REMARK Flexibility Score: inf
ROOT
ATOM      1  C   UNL A   1      33.791  30.464  27.295  1.00  0.00     0.202 C 
ENDROOT
BRANCH   1   2
ATOM      2  O   UNL A   1      32.616  30.798  26.553  1.00  0.00    -0.374 OA
BRANCH   2   3
ATOM      3  C   UNL A   1      31.789  29.729  26.102  1.00  0.00     0.202 C 
BRANCH   3   4
ATOM      4  C   UNL A   1      31.846  28.409  26.878  1.00  0.00     0.261 C 
BRANCH   4   5
ATOM      5  O   UNL A   1      31.873  27.269  26.008  1.00  0.00    -0.460 OA
BRANCH   5   6
ATOM      6  C   UNL A   1      33.107  26.901  25.597  1.00  0.00     0.338 C 
ATOM      7  O   UNL A   1      34.171  27.173  26.140  1.00  0.00    -0.246 OA
BRANCH   6   8
ATOM      8  C   UNL A   1      33.002  26.061  24.384  1.00  0.00     0.065 A 
ATOM      9  C   UNL A   1      33.081  23.909  20.661  1.00  0.00     0.046 C 
ATOM     10  C   UNL A   1      32.954  24.598  21.996  1.00  0.00    -0.028 A 
ATOM     11  C   UNL A   1      32.858  26.001  21.981  1.00  0.00     0.006 A 
ATOM     12  C   UNL A   1      33.035  23.907  23.229  1.00  0.00     0.042 A 
ATOM     13  C   UNL A   1      32.875  26.729  23.164  1.00  0.00     0.016 A 
ATOM     14  C   UNL A   1      33.054  24.644  24.439  1.00  0.00    -0.003 A 
ATOM     15  N   UNL A   1      33.066  22.515  23.256  1.00  0.00    -0.377 N 
ATOM     16  C   UNL A   1      33.002  23.913  25.768  1.00  0.00     0.050 C 
ATOM     17  C   UNL A   1      33.501  21.825  24.462  1.00  0.00     0.117 C 
ATOM     18  H   UNL A   1      32.797  22.000  22.462  1.00  0.00     0.161 HD
ATOM     19  C   UNL A   1      32.716  22.394  25.664  1.00  0.00     0.031 C 
ATOM     20  C   UNL A   1      34.253  23.901  26.610  1.00  0.00    -0.023 C 
ATOM     21  C   UNL A   1      33.220  21.846  27.012  1.00  0.00     0.034 C 
ATOM     22  C   UNL A   1      34.344  22.776  27.330  1.00  0.00    -0.030 C 
BRANCH  17  23
ATOM     23  C   UNL A   1      33.467  20.323  24.227  1.00  0.00     0.010 A 
ATOM     24  C   UNL A   1      32.378  19.789  23.504  1.00  0.00     0.009 A 
ATOM     25  C   UNL A   1      34.470  19.435  24.628  1.00  0.00     0.128 A 
ATOM     26  C   UNL A   1      32.332  18.436  23.157  1.00  0.00     0.001 A 
ATOM     27  C   UNL A   1      34.434  18.085  24.273  1.00  0.00     0.039 A 
ATOM     28  F   UNL A   1      35.526  19.858  25.334  1.00  0.00    -0.207 F 
ATOM     29  C   UNL A   1      33.367  17.586  23.529  1.00  0.00     0.003 A 
ENDBRANCH  17  23
ENDBRANCH   6   8
ENDBRANCH   5   6
ENDBRANCH   4   5
ENDBRANCH   3   4
ENDBRANCH   2   3
ENDBRANCH   1   2
BRANCH   1  30
ATOM     30  C   UNL A   1      34.475  31.568  28.109  1.00  0.00     0.261 C 
BRANCH  30  31
ATOM     31  O   UNL A   1      35.911  31.516  28.004  1.00  0.00    -0.460 OA
BRANCH  31  32
ATOM     32  C   UNL A   1      36.561  31.307  29.170  1.00  0.00     0.338 C 
ATOM     33  O   UNL A   1      36.184  31.600  30.297  1.00  0.00    -0.246 OA
BRANCH  32  34
ATOM     34  C   UNL A   1      37.753  30.483  28.923  1.00  0.00     0.060 A 
ATOM     35  C   UNL A   1      38.671  30.319  29.969  1.00  0.00     0.016 A 
ATOM     36  C   UNL A   1      38.013  29.966  27.652  1.00  0.00     0.016 A 
ATOM     37  C   UNL A   1      39.873  29.657  29.737  1.00  0.00     0.010 A 
ATOM     38  C   UNL A   1      39.231  29.325  27.417  1.00  0.00     0.010 A 
ATOM     39  C   UNL A   1      40.176  29.200  28.450  1.00  0.00    -0.014 A 
BRANCH  39  40
ATOM     40  C   UNL A   1      41.560  28.767  28.152  1.00  0.00     0.031 A 
ATOM     41  C   UNL A   1      42.656  29.793  28.203  1.00  0.00     0.074 A 
ATOM     42  C   UNL A   1      41.836  27.476  27.897  1.00  0.00     0.049 A 
ATOM     43  N   UNL A   1      43.939  29.644  28.001  1.00  0.00    -0.248 NA
ATOM     44  C   UNL A   1      42.254  31.172  28.533  1.00  0.00     0.031 C 
ATOM     45  C   UNL A   1      40.856  26.393  27.875  1.00  0.00     0.029 A 
ATOM     46  N   UNL A   1      43.028  26.862  27.612  1.00  0.00    -0.354 N 
ATOM     47  C   UNL A   1      44.498  30.902  28.195  1.00  0.00     0.074 A 
ATOM     48  C   UNL A   1      43.413  31.811  28.491  1.00  0.00     0.031 C 
ATOM     49  C   UNL A   1      41.488  25.241  27.587  1.00  0.00     0.029 A 
ATOM     50  C   UNL A   1      42.910  25.512  27.380  1.00  0.00     0.049 A 
ATOM     51  H   UNL A   1      43.887  27.341  27.574  1.00  0.00     0.167 HD
ATOM     52  C   UNL A   1      45.802  31.260  28.147  1.00  0.00     0.037 A 
ATOM     53  C   UNL A   1      43.845  24.606  27.031  1.00  0.00     0.037 A 
ATOM     54  C   UNL A   1      46.871  30.351  27.835  1.00  0.00     0.049 A 
ATOM     55  C   UNL A   1      45.277  25.050  26.878  1.00  0.00     0.074 A 
ATOM     56  C   UNL A   1      48.227  30.614  27.756  1.00  0.00     0.029 A 
ATOM     57  N   UNL A   1      46.705  29.005  27.542  1.00  0.00    -0.354 N 
ATOM     58  N   UNL A   1      45.797  26.237  27.083  1.00  0.00    -0.248 NA
ATOM     59  C   UNL A   1      46.249  24.035  26.448  1.00  0.00     0.031 C 
ATOM     60  C   UNL A   1      48.875  29.437  27.366  1.00  0.00     0.029 A 
ATOM     61  C   UNL A   1      47.930  28.430  27.252  1.00  0.00     0.049 A 
ATOM     62  H   UNL A   1      45.843  28.529  27.540  1.00  0.00     0.167 HD
ATOM     63  C   UNL A   1      47.159  26.108  26.829  1.00  0.00     0.074 A 
ATOM     64  C   UNL A   1      47.383  24.724  26.462  1.00  0.00     0.031 C 
ATOM     65  C   UNL A   1      48.134  27.047  26.894  1.00  0.00     0.037 A 
BRANCH  52  66
ATOM     66  C   UNL A   1      46.141  32.697  28.423  1.00  0.00     0.058 A 
ATOM     67  C   UNL A   1      46.488  33.133  29.711  1.00  0.00     0.135 A 
ATOM     68  C   UNL A   1      46.165  33.640  27.383  1.00  0.00     0.135 A 
ATOM     69  F   UNL A   1      46.461  32.277  30.745  1.00  0.00    -0.206 F 
ATOM     70  C   UNL A   1      46.831  34.457  29.962  1.00  0.00     0.059 A 
ATOM     71  C   UNL A   1      46.529  34.964  27.606  1.00  0.00     0.059 A 
ATOM     72  F   UNL A   1      45.835  33.276  26.133  1.00  0.00    -0.206 F 
ATOM     73  C   UNL A   1      46.852  35.365  28.901  1.00  0.00     0.060 A 
BRANCH  73  74
ATOM     74  S   UNL A   1      47.318  37.075  29.243  1.00  0.00     0.124 S 
ATOM     75  O   UNL A   1      46.596  37.790  28.197  1.00  0.00    -0.237 OA
ATOM     76  O   UNL A   1      46.820  37.267  30.602  1.00  0.00    -0.237 OA
ATOM     77  O   UNL A   1      48.772  37.066  29.107  1.00  0.00    -0.744 OA
ENDBRANCH  73  74
ENDBRANCH  52  66
BRANCH  53  78
ATOM     78  C   UNL A   1      43.454  23.189  26.805  1.00  0.00     0.058 A 
ATOM     79  C   UNL A   1      43.391  22.655  25.509  1.00  0.00     0.135 A 
ATOM     80  C   UNL A   1      43.154  22.336  27.879  1.00  0.00     0.135 A 
ATOM     81  F   UNL A   1      43.657  23.434  24.450  1.00  0.00    -0.206 F 
ATOM     82  C   UNL A   1      43.042  21.327  25.285  1.00  0.00     0.059 A 
ATOM     83  C   UNL A   1      42.825  20.998  27.682  1.00  0.00     0.059 A 
ATOM     84  F   UNL A   1      43.208  22.796  29.138  1.00  0.00    -0.206 F 
ATOM     85  C   UNL A   1      42.767  20.505  26.380  1.00  0.00     0.060 A 
BRANCH  85  86
ATOM     86  S   UNL A   1      42.373  18.768  26.077  1.00  0.00     0.124 S 
ATOM     87  O   UNL A   1      42.643  18.172  27.380  1.00  0.00    -0.237 OA
ATOM     88  O   UNL A   1      40.968  18.839  25.685  1.00  0.00    -0.237 OA
ATOM     89  O   UNL A   1      43.295  18.395  25.009  1.00  0.00    -0.744 OA
ENDBRANCH  85  86
ENDBRANCH  53  78
BRANCH  65  90
ATOM     90  C   UNL A   1      49.542  26.625  26.579  1.00  0.00     0.058 A 
ATOM     91  C   UNL A   1      50.377  26.071  27.561  1.00  0.00     0.135 A 
ATOM     92  C   UNL A   1      50.020  26.671  25.258  1.00  0.00     0.135 A 
ATOM     93  F   UNL A   1      49.970  26.011  28.839  1.00  0.00    -0.206 F 
ATOM     94  C   UNL A   1      51.638  25.576  27.244  1.00  0.00     0.059 A 
ATOM     95  C   UNL A   1      51.267  26.159  24.915  1.00  0.00     0.059 A 
ATOM     96  F   UNL A   1      49.255  27.182  24.280  1.00  0.00    -0.206 F 
ATOM     97  C   UNL A   1      52.070  25.614  25.916  1.00  0.00     0.060 A 
BRANCH  97  98
ATOM     98  S   UNL A   1      53.676  24.899  25.513  1.00  0.00     0.124 S 
ATOM     99  O   UNL A   1      54.133  25.781  24.444  1.00  0.00    -0.237 OA
ATOM    100  O   UNL A   1      54.395  25.014  26.779  1.00  0.00    -0.237 OA
ATOM    101  O   UNL A   1      53.351  23.535  25.105  1.00  0.00    -0.744 OA
ENDBRANCH  97  98
ENDBRANCH  65  90
ENDBRANCH  39  40
ENDBRANCH  32  34
ENDBRANCH  31  32
ENDBRANCH  30  31
ENDBRANCH   1  30
TORSDOF 18
ENDMDL
