MODEL 1
REMARK VINA RESULT:     -11.2      0.000      0.000
REMARK SMILES O=C(OCCOCCOC(=O)c1cn(-c2ccccc2)c2c1N=C(O)C[C@@H]2c1cccs1)c1ccc(-c2c3nc(c(-c4c(F)cc(S(=O)(=O)[O-])cc4F)c4ccc([nH]4)c(-c4c(F)cc(S(=O)(=O)[O-])cc4F)c4nc(c(-c5c(F)cc(S(=O)(=O)[O-])cc5F)c5ccc2[nH]5)C=C4)C=C3)cc1
REMARK SMILES IDX 5 1 4 2 3 3 2 4 1 5 33 6 34 7 98 8 35 9 97 10 36 11 37 12
REMARK SMILES IDX 38 13 91 14 39 15 96 16 90 17 92 18 40 19 95 20 89 21 88 22
REMARK SMILES IDX 41 24 75 25 54 26 74 27 55 28 58 29 73 30 93 31 56 32 57 33
REMARK SMILES IDX 72 35 94 36 59 37 42 38 43 39 52 40 44 41 45 42 51 43 53 44
REMARK SMILES IDX 46 45 47 46 48 47 49 48 50 49 76 50 77 51 86 52 78 53 79 54
REMARK SMILES IDX 85 55 87 56 80 57 81 58 82 59 83 60 84 61 60 62 61 63 70 64
REMARK SMILES IDX 62 65 63 66 69 67 71 68 64 69 65 70 66 71 67 72 68 73 6 74
REMARK SMILES IDX 7 75 8 76 9 77 10 78 11 79 12 80 13 81 22 82 14 83 21 84
REMARK SMILES IDX 23 85 27 86 24 87 26 88 15 89 16 90 20 91 17 92 19 93 18 94
REMARK SMILES IDX 28 95 29 96 32 97 30 98 31 99 25 100
REMARK H PARENT 92 23 58 34 25 101
REMARK Flexibility Score: inf
ROOT
ATOM      1  C   UNL A   1      41.901  19.566  27.187  1.00  0.00     0.202 C 
ENDROOT
BRANCH   1   2
ATOM      2  C   UNL A   1      42.970  19.045  26.236  1.00  0.00     0.261 C 
BRANCH   2   3
ATOM      3  O   UNL A   1      43.233  19.866  25.080  1.00  0.00    -0.460 OA
BRANCH   3   4
ATOM      4  C   UNL A   1      44.441  20.467  24.955  1.00  0.00     0.338 C 
ATOM      5  O   UNL A   1      45.393  19.950  24.386  1.00  0.00    -0.246 OA
BRANCH   4   6
ATOM      6  C   UNL A   1      44.393  21.907  25.305  1.00  0.00     0.060 A 
ATOM      7  C   UNL A   1      45.158  22.431  26.347  1.00  0.00     0.016 A 
ATOM      8  C   UNL A   1      43.491  22.734  24.619  1.00  0.00     0.016 A 
ATOM      9  C   UNL A   1      44.936  23.717  26.792  1.00  0.00     0.010 A 
ATOM     10  C   UNL A   1      43.279  24.041  25.056  1.00  0.00     0.010 A 
ATOM     11  C   UNL A   1      43.957  24.504  26.183  1.00  0.00    -0.014 A 
BRANCH  11  12
ATOM     12  C   UNL A   1      43.689  25.780  26.839  1.00  0.00     0.031 A 
ATOM     13  C   UNL A   1      44.719  26.844  26.675  1.00  0.00     0.074 A 
ATOM     14  C   UNL A   1      42.598  26.007  27.593  1.00  0.00     0.049 A 
ATOM     15  N   UNL A   1      45.465  27.394  27.580  1.00  0.00    -0.248 NA
ATOM     16  C   UNL A   1      45.001  27.296  25.306  1.00  0.00     0.031 C 
ATOM     17  C   UNL A   1      41.369  25.215  27.681  1.00  0.00     0.029 A 
ATOM     18  N   UNL A   1      42.342  27.078  28.394  1.00  0.00    -0.354 N 
ATOM     19  C   UNL A   1      46.190  28.389  26.927  1.00  0.00     0.074 A 
ATOM     20  C   UNL A   1      45.941  28.217  25.518  1.00  0.00     0.031 C 
ATOM     21  C   UNL A   1      40.422  25.945  28.309  1.00  0.00     0.029 A 
ATOM     22  C   UNL A   1      41.020  27.180  28.788  1.00  0.00     0.049 A 
ATOM     23  H   UNL A   1      43.035  27.723  28.668  1.00  0.00     0.167 HD
ATOM     24  C   UNL A   1      46.822  29.398  27.588  1.00  0.00     0.037 A 
ATOM     25  C   UNL A   1      40.441  28.244  29.391  1.00  0.00     0.037 A 
ATOM     26  C   UNL A   1      47.043  29.094  28.974  1.00  0.00     0.049 A 
ATOM     27  C   UNL A   1      41.511  29.036  30.047  1.00  0.00     0.074 A 
ATOM     28  C   UNL A   1      47.752  28.125  29.657  1.00  0.00     0.029 A 
ATOM     29  N   UNL A   1      46.245  29.696  29.914  1.00  0.00    -0.354 N 
ATOM     30  N   UNL A   1      42.203  28.635  31.078  1.00  0.00    -0.248 NA
ATOM     31  C   UNL A   1      42.075  30.165  29.323  1.00  0.00     0.031 C 
ATOM     32  C   UNL A   1      47.009  27.883  30.848  1.00  0.00     0.029 A 
ATOM     33  C   UNL A   1      45.897  28.727  30.820  1.00  0.00     0.049 A 
ATOM     34  H   UNL A   1      45.973  30.642  29.934  1.00  0.00     0.167 HD
ATOM     35  C   UNL A   1      43.462  29.191  30.905  1.00  0.00     0.074 A 
ATOM     36  C   UNL A   1      43.288  30.210  29.877  1.00  0.00     0.031 C 
ATOM     37  C   UNL A   1      44.583  28.600  31.415  1.00  0.00     0.037 A 
BRANCH  24  38
ATOM     38  C   UNL A   1      46.991  30.789  27.029  1.00  0.00     0.058 A 
ATOM     39  C   UNL A   1      48.256  31.409  27.034  1.00  0.00     0.135 A 
ATOM     40  C   UNL A   1      45.895  31.632  26.738  1.00  0.00     0.135 A 
ATOM     41  F   UNL A   1      49.363  30.706  27.321  1.00  0.00    -0.206 F 
ATOM     42  C   UNL A   1      48.414  32.780  26.820  1.00  0.00     0.059 A 
ATOM     43  C   UNL A   1      46.036  32.989  26.470  1.00  0.00     0.059 A 
ATOM     44  F   UNL A   1      44.631  31.193  26.799  1.00  0.00    -0.206 F 
ATOM     45  C   UNL A   1      47.293  33.564  26.557  1.00  0.00     0.060 A 
BRANCH  45  46
ATOM     46  S   UNL A   1      47.471  35.350  26.407  1.00  0.00     0.124 S 
ATOM     47  O   UNL A   1      47.801  35.723  27.779  1.00  0.00    -0.237 OA
ATOM     48  O   UNL A   1      48.553  35.473  25.435  1.00  0.00    -0.237 OA
ATOM     49  O   UNL A   1      46.158  35.779  25.932  1.00  0.00    -0.744 OA
ENDBRANCH  45  46
ENDBRANCH  24  38
BRANCH  25  50
ATOM     50  C   UNL A   1      39.084  28.777  29.116  1.00  0.00     0.058 A 
ATOM     51  C   UNL A   1      38.153  28.961  30.151  1.00  0.00     0.135 A 
ATOM     52  C   UNL A   1      38.763  29.364  27.874  1.00  0.00     0.135 A 
ATOM     53  F   UNL A   1      38.395  28.465  31.373  1.00  0.00    -0.206 F 
ATOM     54  C   UNL A   1      36.987  29.713  29.974  1.00  0.00     0.059 A 
ATOM     55  C   UNL A   1      37.601  30.102  27.669  1.00  0.00     0.059 A 
ATOM     56  F   UNL A   1      39.618  29.318  26.841  1.00  0.00    -0.206 F 
ATOM     57  C   UNL A   1      36.728  30.293  28.731  1.00  0.00     0.060 A 
BRANCH  57  58
ATOM     58  S   UNL A   1      35.312  31.398  28.543  1.00  0.00     0.124 S 
ATOM     59  O   UNL A   1      35.832  32.397  27.616  1.00  0.00    -0.237 OA
ATOM     60  O   UNL A   1      34.291  30.503  28.009  1.00  0.00    -0.237 OA
ATOM     61  O   UNL A   1      35.069  31.874  29.902  1.00  0.00    -0.744 OA
ENDBRANCH  57  58
ENDBRANCH  25  50
BRANCH  37  62
ATOM     62  C   UNL A   1      44.422  27.524  32.455  1.00  0.00     0.058 A 
ATOM     63  C   UNL A   1      44.274  27.783  33.829  1.00  0.00     0.135 A 
ATOM     64  C   UNL A   1      44.215  26.204  32.024  1.00  0.00     0.135 A 
ATOM     65  F   UNL A   1      44.358  29.033  34.306  1.00  0.00    -0.206 F 
ATOM     66  C   UNL A   1      43.954  26.771  34.736  1.00  0.00     0.059 A 
ATOM     67  C   UNL A   1      43.868  25.184  32.907  1.00  0.00     0.059 A 
ATOM     68  F   UNL A   1      44.282  25.905  30.716  1.00  0.00    -0.206 F 
ATOM     69  C   UNL A   1      43.743  25.474  34.264  1.00  0.00     0.060 A 
BRANCH  69  70
ATOM     70  S   UNL A   1      43.195  24.197  35.420  1.00  0.00     0.124 S 
ATOM     71  O   UNL A   1      43.617  22.972  34.748  1.00  0.00    -0.237 OA
ATOM     72  O   UNL A   1      43.924  24.534  36.641  1.00  0.00    -0.237 OA
ATOM     73  O   UNL A   1      41.750  24.403  35.495  1.00  0.00    -0.744 OA
ENDBRANCH  69  70
ENDBRANCH  37  62
ENDBRANCH  11  12
ENDBRANCH   4   6
ENDBRANCH   3   4
ENDBRANCH   2   3
ENDBRANCH   1   2
BRANCH   1  74
ATOM     74  O   UNL A   1      41.754  20.985  27.135  1.00  0.00    -0.374 OA
BRANCH  74  75
ATOM     75  C   UNL A   1      40.403  21.453  27.263  1.00  0.00     0.202 C 
BRANCH  75  76
ATOM     76  C   UNL A   1      39.997  22.618  26.351  1.00  0.00     0.261 C 
BRANCH  76  77
ATOM     77  O   UNL A   1      38.614  22.966  26.521  1.00  0.00    -0.460 OA
BRANCH  77  78
ATOM     78  C   UNL A   1      37.739  22.435  25.617  1.00  0.00     0.342 C 
ATOM     79  O   UNL A   1      37.941  21.426  24.962  1.00  0.00    -0.246 OA
BRANCH  78  80
ATOM     80  C   UNL A   1      36.451  23.110  25.631  1.00  0.00     0.104 A 
ATOM     81  C   UNL A   1      36.253  24.435  25.261  1.00  0.00     0.109 A 
ATOM     82  C   UNL A   1      35.176  22.628  25.967  1.00  0.00     0.103 A 
ATOM     83  N   UNL A   1      34.925  24.770  25.438  1.00  0.00    -0.317 N 
ATOM     84  C   UNL A   1      34.261  23.650  25.897  1.00  0.00     0.058 A 
ATOM     85  N   UNL A   1      34.860  21.316  26.306  1.00  0.00    -0.215 NA
ATOM     86  C   UNL A   1      32.806  23.498  26.175  1.00  0.00     0.088 C 
ATOM     87  C   UNL A   1      33.645  21.146  26.706  1.00  0.00     0.187 C 
ATOM     88  C   UNL A   1      32.601  22.203  26.983  1.00  0.00     0.112 C 
BRANCH  83  89
ATOM     89  C   UNL A   1      34.391  26.050  25.179  1.00  0.00     0.045 A 
ATOM     90  C   UNL A   1      34.104  26.432  23.867  1.00  0.00     0.026 A 
ATOM     91  C   UNL A   1      34.124  26.911  26.250  1.00  0.00     0.026 A 
ATOM     92  C   UNL A   1      33.548  27.689  23.627  1.00  0.00     0.002 A 
ATOM     93  C   UNL A   1      33.603  28.180  25.995  1.00  0.00     0.002 A 
ATOM     94  C   UNL A   1      33.309  28.566  24.686  1.00  0.00     0.000 A 
ENDBRANCH  83  89
BRANCH  86  95
ATOM     95  C   UNL A   1      31.870  23.536  24.978  1.00  0.00     0.014 A 
ATOM     96  C   UNL A   1      31.772  22.565  23.992  1.00  0.00     0.016 A 
ATOM     97  S   UNL A   1      30.788  24.828  24.663  1.00  0.00    -0.148 S 
ATOM     98  C   UNL A   1      30.798  22.874  23.002  1.00  0.00     0.012 A 
ATOM     99  C   UNL A   1      30.167  24.067  23.264  1.00  0.00     0.065 A 
ENDBRANCH  86  95
BRANCH  87 100
ATOM    100  O   UNL A   1      33.253  19.894  27.024  1.00  0.00    -0.496 OA
ATOM    101  H   UNL A   1      33.125  19.257  26.347  1.00  0.00     0.294 HD
ENDBRANCH  87 100
ENDBRANCH  78  80
ENDBRANCH  77  78
ENDBRANCH  76  77
ENDBRANCH  75  76
ENDBRANCH  74  75
ENDBRANCH   1  74
TORSDOF 20
ENDMDL
MODEL 2
REMARK VINA RESULT:     -10.6      2.805      3.929
REMARK SMILES O=C(OCCOCCOC(=O)c1cn(-c2ccccc2)c2c1N=C(O)C[C@@H]2c1cccs1)c1ccc(-c2c3nc(c(-c4c(F)cc(S(=O)(=O)[O-])cc4F)c4ccc([nH]4)c(-c4c(F)cc(S(=O)(=O)[O-])cc4F)c4nc(c(-c5c(F)cc(S(=O)(=O)[O-])cc5F)c5ccc2[nH]5)C=C4)C=C3)cc1
REMARK SMILES IDX 5 1 4 2 3 3 2 4 1 5 33 6 34 7 98 8 35 9 97 10 36 11 37 12
REMARK SMILES IDX 38 13 91 14 39 15 96 16 90 17 92 18 40 19 95 20 89 21 88 22
REMARK SMILES IDX 41 24 75 25 54 26 74 27 55 28 58 29 73 30 93 31 56 32 57 33
REMARK SMILES IDX 72 35 94 36 59 37 42 38 43 39 52 40 44 41 45 42 51 43 53 44
REMARK SMILES IDX 46 45 47 46 48 47 49 48 50 49 76 50 77 51 86 52 78 53 79 54
REMARK SMILES IDX 85 55 87 56 80 57 81 58 82 59 83 60 84 61 60 62 61 63 70 64
REMARK SMILES IDX 62 65 63 66 69 67 71 68 64 69 65 70 66 71 67 72 68 73 6 74
REMARK SMILES IDX 7 75 8 76 9 77 10 78 11 79 12 80 13 81 22 82 14 83 21 84
REMARK SMILES IDX 23 85 27 86 24 87 26 88 15 89 16 90 20 91 17 92 19 93 18 94
REMARK SMILES IDX 28 95 29 96 32 97 30 98 31 99 25 100
REMARK H PARENT 92 23 58 34 25 101
REMARK Flexibility Score: inf
ROOT
ATOM      1  C   UNL A   1      41.094  21.141  26.265  1.00  0.00     0.202 C 
ENDROOT
BRANCH   1   2
ATOM      2  C   UNL A   1      41.761  22.424  26.746  1.00  0.00     0.261 C 
BRANCH   2   3
ATOM      3  O   UNL A   1      41.943  23.447  25.747  1.00  0.00    -0.460 OA
BRANCH   3   4
ATOM      4  C   UNL A   1      43.113  24.129  25.703  1.00  0.00     0.338 C 
ATOM      5  O   UNL A   1      44.098  23.734  25.095  1.00  0.00    -0.246 OA
BRANCH   4   6
ATOM      6  C   UNL A   1      42.975  25.517  26.205  1.00  0.00     0.060 A 
ATOM      7  C   UNL A   1      43.646  25.950  27.348  1.00  0.00     0.016 A 
ATOM      8  C   UNL A   1      42.082  26.381  25.552  1.00  0.00     0.016 A 
ATOM      9  C   UNL A   1      43.335  27.168  27.915  1.00  0.00     0.010 A 
ATOM     10  C   UNL A   1      41.782  27.620  26.113  1.00  0.00     0.010 A 
ATOM     11  C   UNL A   1      42.363  27.980  27.329  1.00  0.00    -0.014 A 
BRANCH  11  12
ATOM     12  C   UNL A   1      41.993  29.163  28.101  1.00  0.00     0.031 A 
ATOM     13  C   UNL A   1      43.017  30.242  28.199  1.00  0.00     0.074 A 
ATOM     14  C   UNL A   1      40.815  29.291  28.736  1.00  0.00     0.049 A 
ATOM     15  N   UNL A   1      43.636  30.676  29.251  1.00  0.00    -0.248 NA
ATOM     16  C   UNL A   1      43.455  30.863  26.942  1.00  0.00     0.031 C 
ATOM     17  C   UNL A   1      39.599  28.490  28.573  1.00  0.00     0.029 A 
ATOM     18  N   UNL A   1      40.443  30.252  29.627  1.00  0.00    -0.354 N 
ATOM     19  C   UNL A   1      44.417  31.747  28.821  1.00  0.00     0.074 A 
ATOM     20  C   UNL A   1      44.346  31.752  27.381  1.00  0.00     0.031 C 
ATOM     21  C   UNL A   1      38.569  29.133  29.165  1.00  0.00     0.029 A 
ATOM     22  C   UNL A   1      39.081  30.300  29.864  1.00  0.00     0.049 A 
ATOM     23  H   UNL A   1      41.085  30.859  30.062  1.00  0.00     0.167 HD
ATOM     24  C   UNL A   1      44.945  32.667  29.676  1.00  0.00     0.037 A 
ATOM     25  C   UNL A   1      38.414  31.278  30.518  1.00  0.00     0.037 A 
ATOM     26  C   UNL A   1      45.000  32.191  31.030  1.00  0.00     0.049 A 
ATOM     27  C   UNL A   1      39.381  31.984  31.395  1.00  0.00     0.074 A 
ATOM     28  C   UNL A   1      45.638  31.146  31.669  1.00  0.00     0.029 A 
ATOM     29  N   UNL A   1      44.083  32.669  31.931  1.00  0.00    -0.354 N 
ATOM     30  N   UNL A   1      39.949  31.458  32.445  1.00  0.00    -0.248 NA
ATOM     31  C   UNL A   1      40.008  33.197  30.893  1.00  0.00     0.031 C 
ATOM     32  C   UNL A   1      44.760  30.754  32.719  1.00  0.00     0.029 A 
ATOM     33  C   UNL A   1      43.645  31.592  32.659  1.00  0.00     0.049 A 
ATOM     34  H   UNL A   1      43.794  33.604  32.035  1.00  0.00     0.167 HD
ATOM     35  C   UNL A   1      41.210  32.035  32.500  1.00  0.00     0.074 A 
ATOM     36  C   UNL A   1      41.144  33.175  31.593  1.00  0.00     0.031 C 
ATOM     37  C   UNL A   1      42.270  31.388  33.067  1.00  0.00     0.037 A 
BRANCH  24  38
ATOM     38  C   UNL A   1      45.156  34.117  29.319  1.00  0.00     0.058 A 
ATOM     39  C   UNL A   1      44.051  34.961  29.088  1.00  0.00     0.135 A 
ATOM     40  C   UNL A   1      46.413  34.632  28.931  1.00  0.00     0.135 A 
ATOM     41  F   UNL A   1      42.808  34.561  29.398  1.00  0.00    -0.206 F 
ATOM     42  C   UNL A   1      44.180  36.204  28.466  1.00  0.00     0.059 A 
ATOM     43  C   UNL A   1      46.570  35.889  28.357  1.00  0.00     0.059 A 
ATOM     44  F   UNL A   1      47.530  33.896  29.000  1.00  0.00    -0.206 F 
ATOM     45  C   UNL A   1      45.445  36.650  28.087  1.00  0.00     0.060 A 
BRANCH  45  46
ATOM     46  S   UNL A   1      45.606  38.192  27.170  1.00  0.00     0.124 S 
ATOM     47  O   UNL A   1      44.232  38.414  26.735  1.00  0.00    -0.237 OA
ATOM     48  O   UNL A   1      46.109  39.107  28.189  1.00  0.00    -0.237 OA
ATOM     49  O   UNL A   1      46.558  37.855  26.114  1.00  0.00    -0.744 OA
ENDBRANCH  45  46
ENDBRANCH  24  38
BRANCH  25  50
ATOM     50  C   UNL A   1      37.091  31.838  30.147  1.00  0.00     0.058 A 
ATOM     51  C   UNL A   1      36.229  32.370  31.118  1.00  0.00     0.135 A 
ATOM     52  C   UNL A   1      36.757  32.102  28.802  1.00  0.00     0.135 A 
ATOM     53  F   UNL A   1      36.491  32.195  32.422  1.00  0.00    -0.206 F 
ATOM     54  C   UNL A   1      35.118  33.149  30.777  1.00  0.00     0.059 A 
ATOM     55  C   UNL A   1      35.648  32.859  28.437  1.00  0.00     0.059 A 
ATOM     56  F   UNL A   1      37.554  31.708  27.796  1.00  0.00    -0.206 F 
ATOM     57  C   UNL A   1      34.845  33.400  29.432  1.00  0.00     0.060 A 
BRANCH  57  58
ATOM     58  S   UNL A   1      33.513  34.537  28.992  1.00  0.00     0.124 S 
ATOM     59  O   UNL A   1      32.708  33.721  28.091  1.00  0.00    -0.237 OA
ATOM     60  O   UNL A   1      32.917  34.831  30.292  1.00  0.00    -0.237 OA
ATOM     61  O   UNL A   1      34.213  35.655  28.365  1.00  0.00    -0.744 OA
ENDBRANCH  57  58
ENDBRANCH  25  50
BRANCH  37  62
ATOM     62  C   UNL A   1      42.003  30.189  33.937  1.00  0.00     0.058 A 
ATOM     63  C   UNL A   1      41.823  28.887  33.438  1.00  0.00     0.135 A 
ATOM     64  C   UNL A   1      42.128  30.331  35.329  1.00  0.00     0.135 A 
ATOM     65  F   UNL A   1      41.794  28.656  32.117  1.00  0.00    -0.206 F 
ATOM     66  C   UNL A   1      41.751  27.780  34.285  1.00  0.00     0.059 A 
ATOM     67  C   UNL A   1      42.086  29.238  36.190  1.00  0.00     0.059 A 
ATOM     68  F   UNL A   1      42.363  31.542  35.862  1.00  0.00    -0.206 F 
ATOM     69  C   UNL A   1      41.894  27.963  35.661  1.00  0.00     0.060 A 
BRANCH  69  70
ATOM     70  S   UNL A   1      41.938  26.515  36.741  1.00  0.00     0.124 S 
ATOM     71  O   UNL A   1      40.555  26.429  37.198  1.00  0.00    -0.237 OA
ATOM     72  O   UNL A   1      42.374  25.453  35.837  1.00  0.00    -0.237 OA
ATOM     73  O   UNL A   1      42.914  26.883  37.765  1.00  0.00    -0.744 OA
ENDBRANCH  69  70
ENDBRANCH  37  62
ENDBRANCH  11  12
ENDBRANCH   4   6
ENDBRANCH   3   4
ENDBRANCH   2   3
ENDBRANCH   1   2
BRANCH   1  74
ATOM     74  O   UNL A   1      39.732  21.035  26.678  1.00  0.00    -0.374 OA
BRANCH  74  75
ATOM     75  C   UNL A   1      38.856  22.021  26.113  1.00  0.00     0.202 C 
BRANCH  75  76
ATOM     76  C   UNL A   1      37.540  21.502  25.520  1.00  0.00     0.261 C 
BRANCH  76  77
ATOM     77  O   UNL A   1      36.478  22.458  25.669  1.00  0.00    -0.460 OA
BRANCH  77  78
ATOM     78  C   UNL A   1      36.200  23.231  24.578  1.00  0.00     0.342 C 
ATOM     79  O   UNL A   1      36.785  23.165  23.510  1.00  0.00    -0.246 OA
BRANCH  78  80
ATOM     80  C   UNL A   1      35.008  24.043  24.764  1.00  0.00     0.104 A 
ATOM     81  C   UNL A   1      34.962  25.213  25.512  1.00  0.00     0.109 A 
ATOM     82  C   UNL A   1      33.709  23.881  24.255  1.00  0.00     0.103 A 
ATOM     83  N   UNL A   1      33.671  25.703  25.522  1.00  0.00    -0.317 N 
ATOM     84  C   UNL A   1      32.889  24.862  24.756  1.00  0.00     0.058 A 
ATOM     85  N   UNL A   1      33.297  22.895  23.363  1.00  0.00    -0.215 NA
ATOM     86  C   UNL A   1      31.446  25.007  24.418  1.00  0.00     0.088 C 
ATOM     87  C   UNL A   1      32.025  22.871  23.146  1.00  0.00     0.187 C 
ATOM     88  C   UNL A   1      30.947  23.668  23.843  1.00  0.00     0.112 C 
BRANCH  83  89
ATOM     89  C   UNL A   1      33.272  26.868  26.212  1.00  0.00     0.045 A 
ATOM     90  C   UNL A   1      32.098  26.861  26.970  1.00  0.00     0.026 A 
ATOM     91  C   UNL A   1      34.080  28.010  26.154  1.00  0.00     0.026 A 
ATOM     92  C   UNL A   1      31.731  28.010  27.672  1.00  0.00     0.002 A 
ATOM     93  C   UNL A   1      33.683  29.164  26.829  1.00  0.00     0.002 A 
ATOM     94  C   UNL A   1      32.514  29.162  27.592  1.00  0.00     0.000 A 
ENDBRANCH  83  89
BRANCH  86  95
ATOM     95  C   UNL A   1      31.068  26.158  23.500  1.00  0.00     0.014 A 
ATOM     96  C   UNL A   1      30.270  27.241  23.840  1.00  0.00     0.016 A 
ATOM     97  S   UNL A   1      31.578  26.273  21.867  1.00  0.00    -0.148 S 
ATOM     98  C   UNL A   1      30.103  28.166  22.772  1.00  0.00     0.012 A 
ATOM     99  C   UNL A   1      30.788  27.773  21.647  1.00  0.00     0.065 A 
ENDBRANCH  86  95
BRANCH  87 100
ATOM    100  O   UNL A   1      31.551  21.962  22.267  1.00  0.00    -0.496 OA
ATOM    101  H   UNL A   1      32.133  21.552  21.657  1.00  0.00     0.294 HD
ENDBRANCH  87 100
ENDBRANCH  78  80
ENDBRANCH  77  78
ENDBRANCH  76  77
ENDBRANCH  75  76
ENDBRANCH  74  75
ENDBRANCH   1  74
TORSDOF 20
ENDMDL
MODEL 3
REMARK VINA RESULT:     -10.4      2.826      4.385
REMARK SMILES O=C(OCCOCCOC(=O)c1cn(-c2ccccc2)c2c1N=C(O)C[C@@H]2c1cccs1)c1ccc(-c2c3nc(c(-c4c(F)cc(S(=O)(=O)[O-])cc4F)c4ccc([nH]4)c(-c4c(F)cc(S(=O)(=O)[O-])cc4F)c4nc(c(-c5c(F)cc(S(=O)(=O)[O-])cc5F)c5ccc2[nH]5)C=C4)C=C3)cc1
REMARK SMILES IDX 5 1 4 2 3 3 2 4 1 5 33 6 34 7 98 8 35 9 97 10 36 11 37 12
REMARK SMILES IDX 38 13 91 14 39 15 96 16 90 17 92 18 40 19 95 20 89 21 88 22
REMARK SMILES IDX 41 24 75 25 54 26 74 27 55 28 58 29 73 30 93 31 56 32 57 33
REMARK SMILES IDX 72 35 94 36 59 37 42 38 43 39 52 40 44 41 45 42 51 43 53 44
REMARK SMILES IDX 46 45 47 46 48 47 49 48 50 49 76 50 77 51 86 52 78 53 79 54
REMARK SMILES IDX 85 55 87 56 80 57 81 58 82 59 83 60 84 61 60 62 61 63 70 64
REMARK SMILES IDX 62 65 63 66 69 67 71 68 64 69 65 70 66 71 67 72 68 73 6 74
REMARK SMILES IDX 7 75 8 76 9 77 10 78 11 79 12 80 13 81 22 82 14 83 21 84
REMARK SMILES IDX 23 85 27 86 24 87 26 88 15 89 16 90 20 91 17 92 19 93 18 94
REMARK SMILES IDX 28 95 29 96 32 97 30 98 31 99 25 100
REMARK H PARENT 92 23 58 34 25 101
REMARK Flexibility Score: inf
ROOT
ATOM      1  C   UNL A   1      40.991  22.704  27.862  1.00  0.00     0.202 C 
ENDROOT
BRANCH   1   2
ATOM      2  C   UNL A   1      41.983  22.464  26.732  1.00  0.00     0.261 C 
BRANCH   2   3
ATOM      3  O   UNL A   1      42.022  23.477  25.707  1.00  0.00    -0.460 OA
BRANCH   3   4
ATOM      4  C   UNL A   1      43.150  24.209  25.543  1.00  0.00     0.338 C 
ATOM      5  O   UNL A   1      44.081  23.860  24.831  1.00  0.00    -0.246 OA
BRANCH   4   6
ATOM      6  C   UNL A   1      43.004  25.590  26.063  1.00  0.00     0.060 A 
ATOM      7  C   UNL A   1      43.690  26.018  27.200  1.00  0.00     0.016 A 
ATOM      8  C   UNL A   1      42.090  26.451  25.437  1.00  0.00     0.016 A 
ATOM      9  C   UNL A   1      43.375  27.225  27.787  1.00  0.00     0.010 A 
ATOM     10  C   UNL A   1      41.785  27.680  26.018  1.00  0.00     0.010 A 
ATOM     11  C   UNL A   1      42.383  28.032  27.228  1.00  0.00    -0.014 A 
BRANCH  11  12
ATOM     12  C   UNL A   1      42.014  29.201  28.020  1.00  0.00     0.031 A 
ATOM     13  C   UNL A   1      43.050  30.263  28.167  1.00  0.00     0.074 A 
ATOM     14  C   UNL A   1      40.823  29.331  28.633  1.00  0.00     0.049 A 
ATOM     15  N   UNL A   1      43.652  30.662  29.243  1.00  0.00    -0.248 NA
ATOM     16  C   UNL A   1      43.525  30.907  26.936  1.00  0.00     0.031 C 
ATOM     17  C   UNL A   1      39.600  28.553  28.423  1.00  0.00     0.029 A 
ATOM     18  N   UNL A   1      40.446  30.276  29.538  1.00  0.00    -0.354 N 
ATOM     19  C   UNL A   1      44.457  31.731  28.857  1.00  0.00     0.074 A 
ATOM     20  C   UNL A   1      44.418  31.772  27.416  1.00  0.00     0.031 C 
ATOM     21  C   UNL A   1      38.566  29.196  29.009  1.00  0.00     0.029 A 
ATOM     22  C   UNL A   1      39.079  30.338  29.747  1.00  0.00     0.049 A 
ATOM     23  H   UNL A   1      41.087  30.862  30.003  1.00  0.00     0.167 HD
ATOM     24  C   UNL A   1      44.980  32.622  29.745  1.00  0.00     0.037 A 
ATOM     25  C   UNL A   1      38.412  31.310  30.410  1.00  0.00     0.037 A 
ATOM     26  C   UNL A   1      44.998  32.112  31.088  1.00  0.00     0.049 A 
ATOM     27  C   UNL A   1      39.369  31.980  31.325  1.00  0.00     0.074 A 
ATOM     28  C   UNL A   1      45.606  31.043  31.714  1.00  0.00     0.029 A 
ATOM     29  N   UNL A   1      44.067  32.581  31.980  1.00  0.00    -0.354 N 
ATOM     30  N   UNL A   1      39.907  31.420  32.374  1.00  0.00    -0.248 NA
ATOM     31  C   UNL A   1      40.025  33.195  30.867  1.00  0.00     0.031 C 
ATOM     32  C   UNL A   1      44.699  30.639  32.735  1.00  0.00     0.029 A 
ATOM     33  C   UNL A   1      43.598  31.494  32.672  1.00  0.00     0.049 A 
ATOM     34  H   UNL A   1      43.790  33.518  32.101  1.00  0.00     0.167 HD
ATOM     35  C   UNL A   1      41.174  31.977  32.470  1.00  0.00     0.074 A 
ATOM     36  C   UNL A   1      41.144  33.139  31.591  1.00  0.00     0.031 C 
ATOM     37  C   UNL A   1      42.212  31.301  33.045  1.00  0.00     0.037 A 
BRANCH  24  38
ATOM     38  C   UNL A   1      45.219  34.077  29.428  1.00  0.00     0.058 A 
ATOM     39  C   UNL A   1      44.133  34.936  29.167  1.00  0.00     0.135 A 
ATOM     40  C   UNL A   1      46.496  34.588  29.107  1.00  0.00     0.135 A 
ATOM     41  F   UNL A   1      42.873  34.542  29.414  1.00  0.00    -0.206 F 
ATOM     42  C   UNL A   1      44.300  36.191  28.578  1.00  0.00     0.059 A 
ATOM     43  C   UNL A   1      46.690  35.855  28.568  1.00  0.00     0.059 A 
ATOM     44  F   UNL A   1      47.602  33.839  29.210  1.00  0.00    -0.206 F 
ATOM     45  C   UNL A   1      45.584  36.632  28.265  1.00  0.00     0.060 A 
BRANCH  45  46
ATOM     46  S   UNL A   1      45.800  38.191  27.388  1.00  0.00     0.124 S 
ATOM     47  O   UNL A   1      46.174  39.085  28.479  1.00  0.00    -0.237 OA
ATOM     48  O   UNL A   1      46.857  37.867  26.437  1.00  0.00    -0.237 OA
ATOM     49  O   UNL A   1      44.485  38.428  26.798  1.00  0.00    -0.744 OA
ENDBRANCH  45  46
ENDBRANCH  24  38
BRANCH  25  50
ATOM     50  C   UNL A   1      37.105  31.898  30.024  1.00  0.00     0.058 A 
ATOM     51  C   UNL A   1      36.036  31.950  30.931  1.00  0.00     0.135 A 
ATOM     52  C   UNL A   1      36.963  32.658  28.844  1.00  0.00     0.135 A 
ATOM     53  F   UNL A   1      36.103  31.284  32.093  1.00  0.00    -0.206 F 
ATOM     54  C   UNL A   1      34.904  32.738  30.698  1.00  0.00     0.059 A 
ATOM     55  C   UNL A   1      35.840  33.436  28.582  1.00  0.00     0.059 A 
ATOM     56  F   UNL A   1      37.957  32.743  27.947  1.00  0.00    -0.206 F 
ATOM     57  C   UNL A   1      34.823  33.490  29.526  1.00  0.00     0.060 A 
BRANCH  57  58
ATOM     58  S   UNL A   1      33.444  34.633  29.296  1.00  0.00     0.124 S 
ATOM     59  O   UNL A   1      32.623  33.921  28.324  1.00  0.00    -0.237 OA
ATOM     60  O   UNL A   1      32.896  34.731  30.645  1.00  0.00    -0.237 OA
ATOM     61  O   UNL A   1      34.087  35.847  28.800  1.00  0.00    -0.744 OA
ENDBRANCH  57  58
ENDBRANCH  25  50
BRANCH  37  62
ATOM     62  C   UNL A   1      41.908  30.085  33.879  1.00  0.00     0.058 A 
ATOM     63  C   UNL A   1      41.767  28.791  33.349  1.00  0.00     0.135 A 
ATOM     64  C   UNL A   1      41.957  30.204  35.277  1.00  0.00     0.135 A 
ATOM     65  F   UNL A   1      41.812  28.581  32.025  1.00  0.00    -0.206 F 
ATOM     66  C   UNL A   1      41.659  27.668  34.172  1.00  0.00     0.059 A 
ATOM     67  C   UNL A   1      41.878  29.096  36.117  1.00  0.00     0.059 A 
ATOM     68  F   UNL A   1      42.152  31.408  35.843  1.00  0.00    -0.206 F 
ATOM     69  C   UNL A   1      41.725  27.829  35.557  1.00  0.00     0.060 A 
BRANCH  69  70
ATOM     70  S   UNL A   1      41.723  26.363  36.614  1.00  0.00     0.124 S 
ATOM     71  O   UNL A   1      42.926  26.560  37.416  1.00  0.00    -0.237 OA
ATOM     72  O   UNL A   1      40.456  26.486  37.332  1.00  0.00    -0.237 OA
ATOM     73  O   UNL A   1      41.780  25.256  35.661  1.00  0.00    -0.744 OA
ENDBRANCH  69  70
ENDBRANCH  37  62
ENDBRANCH  11  12
ENDBRANCH   4   6
ENDBRANCH   3   4
ENDBRANCH   2   3
ENDBRANCH   1   2
BRANCH   1  74
ATOM     74  O   UNL A   1      40.870  24.083  28.212  1.00  0.00    -0.374 OA
BRANCH  74  75
ATOM     75  C   UNL A   1      39.555  24.631  28.041  1.00  0.00     0.202 C 
BRANCH  75  76
ATOM     76  C   UNL A   1      39.035  24.718  26.600  1.00  0.00     0.261 C 
BRANCH  76  77
ATOM     77  O   UNL A   1      37.741  24.108  26.466  1.00  0.00    -0.460 OA
BRANCH  77  78
ATOM     78  C   UNL A   1      37.684  22.964  25.723  1.00  0.00     0.342 C 
ATOM     79  O   UNL A   1      38.634  22.235  25.493  1.00  0.00    -0.246 OA
BRANCH  78  80
ATOM     80  C   UNL A   1      36.322  22.607  25.362  1.00  0.00     0.104 A 
ATOM     81  C   UNL A   1      35.813  21.314  25.392  1.00  0.00     0.109 A 
ATOM     82  C   UNL A   1      35.248  23.413  24.951  1.00  0.00     0.103 A 
ATOM     83  N   UNL A   1      34.508  21.321  24.943  1.00  0.00    -0.317 N 
ATOM     84  C   UNL A   1      34.165  22.626  24.650  1.00  0.00     0.058 A 
ATOM     85  N   UNL A   1      35.254  24.803  24.869  1.00  0.00    -0.215 NA
ATOM     86  C   UNL A   1      32.846  23.146  24.193  1.00  0.00     0.088 C 
ATOM     87  C   UNL A   1      34.194  25.310  24.336  1.00  0.00     0.187 C 
ATOM     88  C   UNL A   1      33.047  24.582  23.673  1.00  0.00     0.112 C 
BRANCH  83  89
ATOM     89  C   UNL A   1      33.706  20.166  24.824  1.00  0.00     0.045 A 
ATOM     90  C   UNL A   1      33.442  19.382  25.950  1.00  0.00     0.026 A 
ATOM     91  C   UNL A   1      33.155  19.838  23.579  1.00  0.00     0.026 A 
ATOM     92  C   UNL A   1      32.623  18.259  25.825  1.00  0.00     0.002 A 
ATOM     93  C   UNL A   1      32.369  18.693  23.458  1.00  0.00     0.002 A 
ATOM     94  C   UNL A   1      32.098  17.908  24.581  1.00  0.00     0.000 A 
ENDBRANCH  83  89
BRANCH  86  95
ATOM     95  C   UNL A   1      31.704  23.093  25.193  1.00  0.00     0.014 A 
ATOM     96  C   UNL A   1      30.964  21.967  25.525  1.00  0.00     0.016 A 
ATOM     97  S   UNL A   1      31.145  24.460  26.064  1.00  0.00    -0.148 S 
ATOM     98  C   UNL A   1      29.964  22.226  26.504  1.00  0.00     0.012 A 
ATOM     99  C   UNL A   1      29.975  23.541  26.905  1.00  0.00     0.065 A 
ENDBRANCH  86  95
BRANCH  87 100
ATOM    100  O   UNL A   1      34.110  26.654  24.250  1.00  0.00    -0.496 OA
ATOM    101  H   UNL A   1      34.508  27.191  24.908  1.00  0.00     0.294 HD
ENDBRANCH  87 100
ENDBRANCH  78  80
ENDBRANCH  77  78
ENDBRANCH  76  77
ENDBRANCH  75  76
ENDBRANCH  74  75
ENDBRANCH   1  74
TORSDOF 20
ENDMDL
