MODEL 1
REMARK VINA RESULT:     -11.3      0.000      0.000
REMARK SMILES CCN(CC)C(=O)COc1cc(C)ccc1C(=O)OCCOCCOC(=O)c1ccc(-c2c3nc(c(-c4c(F)cc(S(=O)(=O)[O-])cc4F)c4ccc([nH]4)c(-c4c(F)cc(S(=O)(=O)[O-])cc4F)c4nc(c(-c5c(F)cc(S(=O)(=O)[O-])cc5F)c5ccc2[nH]5)C=C4)C=C3)cc1
REMARK SMILES IDX 21 1 20 2 19 3 17 4 18 5 16 6 10 7 11 8 12 9 15 10 13 11
REMARK SMILES IDX 14 12 9 13 8 14 6 15 3 16 7 17 2 18 1 19 4 20 5 21 22 22
REMARK SMILES IDX 23 23 24 24 25 25 26 26 27 27 28 28 29 29 93 30 30 31 92 32
REMARK SMILES IDX 31 33 32 34 33 35 86 36 34 37 91 38 85 39 87 40 35 41 90 42
REMARK SMILES IDX 84 43 83 44 36 46 70 47 49 48 69 49 50 50 53 51 68 52 88 53
REMARK SMILES IDX 51 54 52 55 67 57 89 58 54 59 37 60 38 61 47 62 39 63 40 64
REMARK SMILES IDX 46 65 48 66 41 67 42 68 43 69 44 70 45 71 71 72 72 73 81 74
REMARK SMILES IDX 73 75 74 76 80 77 82 78 75 79 76 80 77 81 78 82 79 83 55 84
REMARK SMILES IDX 56 85 65 86 57 87 58 88 64 89 66 90 59 91 60 92 61 93 62 94
REMARK SMILES IDX 63 95
REMARK H PARENT 87 45 53 56
REMARK Flexibility Score: inf
ROOT
ATOM      1  C   UNL A   1      34.116  31.923  28.311  1.00  0.00     0.202 C 
ENDROOT
BRANCH   1   2
ATOM      2  C   UNL A   1      34.127  30.823  27.235  1.00  0.00     0.261 C 
BRANCH   2   3
ATOM      3  O   UNL A   1      32.954  30.073  26.985  1.00  0.00    -0.460 OA
BRANCH   3   4
ATOM      4  C   UNL A   1      33.211  28.898  26.399  1.00  0.00     0.342 C 
ATOM      5  O   UNL A   1      33.952  28.002  26.816  1.00  0.00    -0.246 OA
BRANCH   4   6
ATOM      6  C   UNL A   1      32.118  28.618  25.499  1.00  0.00     0.102 A 
ATOM      7  C   UNL A   1      31.735  27.377  24.972  1.00  0.00     0.134 A 
ATOM      8  C   UNL A   1      30.659  27.403  24.087  1.00  0.00     0.050 A 
ATOM      9  C   UNL A   1      30.019  28.605  23.729  1.00  0.00    -0.047 A 
ATOM     10  C   UNL A   1      31.526  29.825  25.097  1.00  0.00     0.020 A 
ATOM     11  C   UNL A   1      28.814  28.607  22.850  1.00  0.00     0.044 C 
ATOM     12  C   UNL A   1      30.488  29.822  24.203  1.00  0.00     0.004 A 
BRANCH   7  13
ATOM     13  O   UNL A   1      32.340  26.222  25.389  1.00  0.00    -0.483 OA
BRANCH  13  14
ATOM     14  C   UNL A   1      31.642  24.985  25.210  1.00  0.00     0.329 C 
BRANCH  14  15
ATOM     15  C   UNL A   1      31.825  23.811  26.208  1.00  0.00     0.260 C 
ATOM     16  N   UNL A   1      32.638  22.738  25.857  1.00  0.00    -0.340 N 
ATOM     17  O   UNL A   1      31.312  23.876  27.332  1.00  0.00    -0.271 OA
BRANCH  16  18
ATOM     18  C   UNL A   1      33.132  21.858  26.918  1.00  0.00     0.116 C 
ATOM     19  C   UNL A   1      34.627  22.054  27.150  1.00  0.00     0.027 C 
ENDBRANCH  16  18
BRANCH  16  20
ATOM     20  C   UNL A   1      32.908  22.347  24.473  1.00  0.00     0.116 C 
ATOM     21  C   UNL A   1      32.861  20.833  24.309  1.00  0.00     0.027 C 
ENDBRANCH  16  20
ENDBRANCH  14  15
ENDBRANCH  13  14
ENDBRANCH   7  13
ENDBRANCH   4   6
ENDBRANCH   3   4
ENDBRANCH   2   3
ENDBRANCH   1   2
BRANCH   1  22
ATOM     22  O   UNL A   1      35.345  32.517  28.639  1.00  0.00    -0.374 OA
BRANCH  22  23
ATOM     23  C   UNL A   1      35.407  32.896  30.011  1.00  0.00     0.202 C 
BRANCH  23  24
ATOM     24  C   UNL A   1      36.422  32.169  31.001  1.00  0.00     0.261 C 
BRANCH  24  25
ATOM     25  O   UNL A   1      37.890  32.239  30.729  1.00  0.00    -0.460 OA
BRANCH  25  26
ATOM     26  C   UNL A   1      38.655  31.378  29.967  1.00  0.00     0.338 C 
ATOM     27  O   UNL A   1      39.767  31.677  29.553  1.00  0.00    -0.246 OA
BRANCH  26  28
ATOM     28  C   UNL A   1      37.811  30.100  29.487  1.00  0.00     0.060 A 
ATOM     29  C   UNL A   1      37.738  29.000  30.341  1.00  0.00     0.016 A 
ATOM     30  C   UNL A   1      38.002  29.672  28.189  1.00  0.00     0.016 A 
ATOM     31  C   UNL A   1      38.537  27.867  30.170  1.00  0.00     0.010 A 
ATOM     32  C   UNL A   1      38.874  28.590  27.985  1.00  0.00     0.010 A 
ATOM     33  C   UNL A   1      39.351  27.851  29.074  1.00  0.00    -0.014 A 
BRANCH  33  34
ATOM     34  C   UNL A   1      40.755  27.378  29.159  1.00  0.00     0.031 A 
ATOM     35  C   UNL A   1      41.077  26.006  28.707  1.00  0.00     0.074 A 
ATOM     36  C   UNL A   1      41.723  28.276  29.520  1.00  0.00     0.049 A 
ATOM     37  N   UNL A   1      42.049  25.287  29.145  1.00  0.00    -0.248 NA
ATOM     38  C   UNL A   1      40.247  25.267  27.758  1.00  0.00     0.031 C 
ATOM     39  C   UNL A   1      43.192  28.179  29.520  1.00  0.00     0.029 A 
ATOM     40  N   UNL A   1      41.515  29.555  30.073  1.00  0.00    -0.354 N 
ATOM     41  C   UNL A   1      42.159  24.184  28.312  1.00  0.00     0.074 A 
ATOM     42  C   UNL A   1      40.909  24.121  27.627  1.00  0.00     0.031 C 
ATOM     43  C   UNL A   1      43.712  29.176  30.273  1.00  0.00     0.029 A 
ATOM     44  C   UNL A   1      42.593  29.833  30.932  1.00  0.00     0.049 A 
ATOM     45  H   UNL A   1      40.750  30.149  29.892  1.00  0.00     0.167 HD
ATOM     46  C   UNL A   1      43.369  23.573  28.160  1.00  0.00     0.037 A 
ATOM     47  C   UNL A   1      42.337  29.798  32.275  1.00  0.00     0.037 A 
ATOM     48  C   UNL A   1      44.344  24.255  29.028  1.00  0.00     0.049 A 
ATOM     49  C   UNL A   1      42.934  28.514  32.882  1.00  0.00     0.074 A 
ATOM     50  C   UNL A   1      45.345  25.185  28.810  1.00  0.00     0.029 A 
ATOM     51  N   UNL A   1      44.070  24.325  30.385  1.00  0.00    -0.354 N 
ATOM     52  N   UNL A   1      43.395  27.507  32.176  1.00  0.00    -0.248 NA
ATOM     53  C   UNL A   1      43.095  28.267  34.309  1.00  0.00     0.031 C 
ATOM     54  C   UNL A   1      45.637  25.825  30.063  1.00  0.00     0.029 A 
ATOM     55  C   UNL A   1      44.812  25.288  31.040  1.00  0.00     0.049 A 
ATOM     56  H   UNL A   1      43.414  23.746  30.836  1.00  0.00     0.167 HD
ATOM     57  C   UNL A   1      43.945  26.543  32.969  1.00  0.00     0.074 A 
ATOM     58  C   UNL A   1      43.642  27.034  34.311  1.00  0.00     0.031 C 
ATOM     59  C   UNL A   1      44.615  25.440  32.483  1.00  0.00     0.037 A 
BRANCH  46  60
ATOM     60  C   UNL A   1      43.744  22.552  27.076  1.00  0.00     0.058 A 
ATOM     61  C   UNL A   1      43.003  21.353  26.956  1.00  0.00     0.135 A 
ATOM     62  C   UNL A   1      44.804  22.646  26.138  1.00  0.00     0.135 A 
ATOM     63  F   UNL A   1      41.933  21.119  27.728  1.00  0.00    -0.206 F 
ATOM     64  C   UNL A   1      43.310  20.339  26.035  1.00  0.00     0.059 A 
ATOM     65  C   UNL A   1      45.144  21.638  25.225  1.00  0.00     0.059 A 
ATOM     66  F   UNL A   1      45.557  23.737  26.005  1.00  0.00    -0.206 F 
ATOM     67  C   UNL A   1      44.389  20.484  25.176  1.00  0.00     0.060 A 
BRANCH  67  68
ATOM     68  S   UNL A   1      44.751  19.189  23.975  1.00  0.00     0.124 S 
ATOM     69  O   UNL A   1      44.488  19.862  22.707  1.00  0.00    -0.237 OA
ATOM     70  O   UNL A   1      46.150  18.893  24.260  1.00  0.00    -0.237 OA
ATOM     71  O   UNL A   1      43.808  18.127  24.319  1.00  0.00    -0.744 OA
ENDBRANCH  67  68
ENDBRANCH  46  60
BRANCH  47  72
ATOM     72  C   UNL A   1      41.032  30.508  32.602  1.00  0.00     0.058 A 
ATOM     73  C   UNL A   1      39.950  29.743  33.124  1.00  0.00     0.135 A 
ATOM     74  C   UNL A   1      40.913  31.886  32.781  1.00  0.00     0.135 A 
ATOM     75  F   UNL A   1      39.951  28.414  32.950  1.00  0.00    -0.206 F 
ATOM     76  C   UNL A   1      38.914  30.276  33.908  1.00  0.00     0.059 A 
ATOM     77  C   UNL A   1      39.862  32.455  33.538  1.00  0.00     0.059 A 
ATOM     78  F   UNL A   1      41.888  32.702  32.353  1.00  0.00    -0.206 F 
ATOM     79  C   UNL A   1      38.900  31.640  34.155  1.00  0.00     0.060 A 
BRANCH  79  80
ATOM     80  S   UNL A   1      37.692  32.327  35.361  1.00  0.00     0.124 S 
ATOM     81  O   UNL A   1      36.464  32.391  34.580  1.00  0.00    -0.237 OA
ATOM     82  O   UNL A   1      37.679  31.359  36.455  1.00  0.00    -0.237 OA
ATOM     83  O   UNL A   1      38.290  33.615  35.708  1.00  0.00    -0.744 OA
ENDBRANCH  79  80
ENDBRANCH  47  72
BRANCH  59  84
ATOM     84  C   UNL A   1      45.089  24.317  33.381  1.00  0.00     0.058 A 
ATOM     85  C   UNL A   1      44.307  23.192  33.656  1.00  0.00     0.135 A 
ATOM     86  C   UNL A   1      46.365  24.330  34.003  1.00  0.00     0.135 A 
ATOM     87  F   UNL A   1      43.001  23.168  33.352  1.00  0.00    -0.206 F 
ATOM     88  C   UNL A   1      44.833  22.063  34.278  1.00  0.00     0.059 A 
ATOM     89  C   UNL A   1      46.885  23.246  34.690  1.00  0.00     0.059 A 
ATOM     90  F   UNL A   1      47.186  25.386  33.971  1.00  0.00    -0.206 F 
ATOM     91  C   UNL A   1      46.137  22.090  34.761  1.00  0.00     0.060 A 
BRANCH  91  92
ATOM     92  S   UNL A   1      46.827  20.626  35.531  1.00  0.00     0.124 S 
ATOM     93  O   UNL A   1      45.649  20.020  36.143  1.00  0.00    -0.237 OA
ATOM     94  O   UNL A   1      47.376  19.922  34.376  1.00  0.00    -0.237 OA
ATOM     95  O   UNL A   1      47.811  21.160  36.468  1.00  0.00    -0.744 OA
ENDBRANCH  91  92
ENDBRANCH  59  84
ENDBRANCH  33  34
ENDBRANCH  26  28
ENDBRANCH  25  26
ENDBRANCH  24  25
ENDBRANCH  23  24
ENDBRANCH  22  23
ENDBRANCH   1  22
TORSDOF 22
ENDMDL
MODEL 2
REMARK VINA RESULT:     -10.8      4.806     11.509
REMARK SMILES CCN(CC)C(=O)COc1cc(C)ccc1C(=O)OCCOCCOC(=O)c1ccc(-c2c3nc(c(-c4c(F)cc(S(=O)(=O)[O-])cc4F)c4ccc([nH]4)c(-c4c(F)cc(S(=O)(=O)[O-])cc4F)c4nc(c(-c5c(F)cc(S(=O)(=O)[O-])cc5F)c5ccc2[nH]5)C=C4)C=C3)cc1
REMARK SMILES IDX 21 1 20 2 19 3 17 4 18 5 16 6 10 7 11 8 12 9 15 10 13 11
REMARK SMILES IDX 14 12 9 13 8 14 6 15 3 16 7 17 2 18 1 19 4 20 5 21 22 22
REMARK SMILES IDX 23 23 24 24 25 25 26 26 27 27 28 28 29 29 93 30 30 31 92 32
REMARK SMILES IDX 31 33 32 34 33 35 86 36 34 37 91 38 85 39 87 40 35 41 90 42
REMARK SMILES IDX 84 43 83 44 36 46 70 47 49 48 69 49 50 50 53 51 68 52 88 53
REMARK SMILES IDX 51 54 52 55 67 57 89 58 54 59 37 60 38 61 47 62 39 63 40 64
REMARK SMILES IDX 46 65 48 66 41 67 42 68 43 69 44 70 45 71 71 72 72 73 81 74
REMARK SMILES IDX 73 75 74 76 80 77 82 78 75 79 76 80 77 81 78 82 79 83 55 84
REMARK SMILES IDX 56 85 65 86 57 87 58 88 64 89 66 90 59 91 60 92 61 93 62 94
REMARK SMILES IDX 63 95
REMARK H PARENT 87 45 53 56
REMARK Flexibility Score: inf
ROOT
ATOM      1  C   UNL A   1      38.385  22.527  25.609  1.00  0.00     0.202 C 
ENDROOT
BRANCH   1   2
ATOM      2  C   UNL A   1      36.989  21.911  25.811  1.00  0.00     0.261 C 
BRANCH   2   3
ATOM      3  O   UNL A   1      35.870  22.755  26.006  1.00  0.00    -0.460 OA
BRANCH   3   4
ATOM      4  C   UNL A   1      35.105  22.852  24.914  1.00  0.00     0.342 C 
ATOM      5  O   UNL A   1      35.446  22.654  23.743  1.00  0.00    -0.246 OA
BRANCH   4   6
ATOM      6  C   UNL A   1      33.732  22.706  25.336  1.00  0.00     0.102 A 
ATOM      7  C   UNL A   1      32.807  21.733  24.933  1.00  0.00     0.134 A 
ATOM      8  C   UNL A   1      31.529  21.855  25.473  1.00  0.00     0.050 A 
ATOM      9  C   UNL A   1      31.186  22.905  26.346  1.00  0.00    -0.047 A 
ATOM     10  C   UNL A   1      33.380  23.791  26.154  1.00  0.00     0.020 A 
ATOM     11  C   UNL A   1      29.840  22.973  26.984  1.00  0.00     0.044 C 
ATOM     12  C   UNL A   1      32.108  23.900  26.647  1.00  0.00     0.004 A 
BRANCH   7  13
ATOM     13  O   UNL A   1      33.191  20.691  24.132  1.00  0.00    -0.483 OA
BRANCH  13  14
ATOM     14  C   UNL A   1      33.975  19.642  24.709  1.00  0.00     0.329 C 
BRANCH  14  15
ATOM     15  C   UNL A   1      33.302  18.402  25.355  1.00  0.00     0.260 C 
ATOM     16  N   UNL A   1      33.753  17.129  25.021  1.00  0.00    -0.340 N 
ATOM     17  O   UNL A   1      32.426  18.558  26.216  1.00  0.00    -0.271 OA
BRANCH  16  18
ATOM     18  C   UNL A   1      33.417  16.013  25.907  1.00  0.00     0.116 C 
ATOM     19  C   UNL A   1      32.433  15.055  25.244  1.00  0.00     0.027 C 
ENDBRANCH  16  18
BRANCH  16  20
ATOM     20  C   UNL A   1      34.418  16.814  23.756  1.00  0.00     0.116 C 
ATOM     21  C   UNL A   1      33.587  17.281  22.567  1.00  0.00     0.027 C 
ENDBRANCH  16  20
ENDBRANCH  14  15
ENDBRANCH  13  14
ENDBRANCH   7  13
ENDBRANCH   4   6
ENDBRANCH   3   4
ENDBRANCH   2   3
ENDBRANCH   1   2
BRANCH   1  22
ATOM     22  O   UNL A   1      39.490  21.780  26.047  1.00  0.00    -0.374 OA
BRANCH  22  23
ATOM     23  C   UNL A   1      40.058  22.311  27.240  1.00  0.00     0.202 C 
BRANCH  23  24
ATOM     24  C   UNL A   1      41.464  23.061  27.197  1.00  0.00     0.261 C 
BRANCH  24  25
ATOM     25  O   UNL A   1      41.841  23.978  28.315  1.00  0.00    -0.460 OA
BRANCH  25  26
ATOM     26  C   UNL A   1      41.686  25.349  28.380  1.00  0.00     0.338 C 
ATOM     27  O   UNL A   1      42.189  26.027  29.266  1.00  0.00    -0.246 OA
BRANCH  26  28
ATOM     28  C   UNL A   1      40.577  25.871  27.345  1.00  0.00     0.060 A 
ATOM     29  C   UNL A   1      40.895  26.959  26.532  1.00  0.00     0.016 A 
ATOM     30  C   UNL A   1      39.287  26.002  27.817  1.00  0.00     0.016 A 
ATOM     31  C   UNL A   1      40.466  28.257  26.819  1.00  0.00     0.010 A 
ATOM     32  C   UNL A   1      38.864  27.285  28.199  1.00  0.00     0.010 A 
ATOM     33  C   UNL A   1      39.649  28.405  27.904  1.00  0.00    -0.014 A 
BRANCH  33  34
ATOM     34  C   UNL A   1      39.836  29.521  28.866  1.00  0.00     0.031 A 
ATOM     35  C   UNL A   1      38.806  30.580  28.942  1.00  0.00     0.074 A 
ATOM     36  C   UNL A   1      40.883  29.452  29.745  1.00  0.00     0.049 A 
ATOM     37  N   UNL A   1      39.015  31.797  29.303  1.00  0.00    -0.248 NA
ATOM     38  C   UNL A   1      37.424  30.377  28.514  1.00  0.00     0.031 C 
ATOM     39  C   UNL A   1      41.229  30.276  30.914  1.00  0.00     0.029 A 
ATOM     40  N   UNL A   1      41.972  28.560  29.684  1.00  0.00    -0.354 N 
ATOM     41  C   UNL A   1      37.777  32.398  29.475  1.00  0.00     0.074 A 
ATOM     42  C   UNL A   1      36.863  31.555  28.776  1.00  0.00     0.031 C 
ATOM     43  C   UNL A   1      42.516  30.049  31.264  1.00  0.00     0.029 A 
ATOM     44  C   UNL A   1      43.094  29.214  30.222  1.00  0.00     0.049 A 
ATOM     45  H   UNL A   1      41.951  27.642  29.327  1.00  0.00     0.167 HD
ATOM     46  C   UNL A   1      37.648  33.433  30.356  1.00  0.00     0.037 A 
ATOM     47  C   UNL A   1      44.060  29.611  29.337  1.00  0.00     0.037 A 
ATOM     48  C   UNL A   1      38.974  33.724  30.925  1.00  0.00     0.049 A 
ATOM     49  C   UNL A   1      43.985  31.137  29.140  1.00  0.00     0.074 A 
ATOM     50  C   UNL A   1      39.594  33.432  32.128  1.00  0.00     0.029 A 
ATOM     51  N   UNL A   1      40.004  34.035  30.051  1.00  0.00    -0.354 N 
ATOM     52  N   UNL A   1      42.996  31.890  29.565  1.00  0.00    -0.248 NA
ATOM     53  C   UNL A   1      45.012  31.941  28.491  1.00  0.00     0.031 C 
ATOM     54  C   UNL A   1      41.013  33.551  31.937  1.00  0.00     0.029 A 
ATOM     55  C   UNL A   1      41.256  33.911  30.619  1.00  0.00     0.049 A 
ATOM     56  H   UNL A   1      39.858  34.317  29.118  1.00  0.00     0.167 HD
ATOM     57  C   UNL A   1      43.232  33.213  29.332  1.00  0.00     0.074 A 
ATOM     58  C   UNL A   1      44.476  33.177  28.567  1.00  0.00     0.031 C 
ATOM     59  C   UNL A   1      42.420  34.229  29.790  1.00  0.00     0.037 A 
BRANCH  46  60
ATOM     60  C   UNL A   1      36.332  34.012  30.892  1.00  0.00     0.058 A 
ATOM     61  C   UNL A   1      35.391  34.565  29.993  1.00  0.00     0.135 A 
ATOM     62  C   UNL A   1      35.917  34.088  32.247  1.00  0.00     0.135 A 
ATOM     63  F   UNL A   1      35.594  34.533  28.669  1.00  0.00    -0.206 F 
ATOM     64  C   UNL A   1      34.190  35.169  30.399  1.00  0.00     0.059 A 
ATOM     65  C   UNL A   1      34.734  34.706  32.678  1.00  0.00     0.059 A 
ATOM     66  F   UNL A   1      36.600  33.531  33.245  1.00  0.00    -0.206 F 
ATOM     67  C   UNL A   1      33.870  35.243  31.746  1.00  0.00     0.060 A 
BRANCH  67  68
ATOM     68  S   UNL A   1      32.309  35.990  32.251  1.00  0.00     0.124 S 
ATOM     69  O   UNL A   1      31.538  34.829  32.684  1.00  0.00    -0.237 OA
ATOM     70  O   UNL A   1      32.734  36.901  33.307  1.00  0.00    -0.237 OA
ATOM     71  O   UNL A   1      31.825  36.634  31.032  1.00  0.00    -0.744 OA
ENDBRANCH  67  68
ENDBRANCH  46  60
BRANCH  47  72
ATOM     72  C   UNL A   1      44.355  28.516  28.323  1.00  0.00     0.058 A 
ATOM     73  C   UNL A   1      44.102  28.774  26.946  1.00  0.00     0.135 A 
ATOM     74  C   UNL A   1      45.185  27.423  28.570  1.00  0.00     0.135 A 
ATOM     75  F   UNL A   1      43.271  29.772  26.614  1.00  0.00    -0.206 F 
ATOM     76  C   UNL A   1      44.748  28.114  25.888  1.00  0.00     0.059 A 
ATOM     77  C   UNL A   1      45.824  26.716  27.523  1.00  0.00     0.059 A 
ATOM     78  F   UNL A   1      45.513  27.104  29.831  1.00  0.00    -0.206 F 
ATOM     79  C   UNL A   1      45.654  27.107  26.186  1.00  0.00     0.060 A 
BRANCH  79  80
ATOM     80  S   UNL A   1      46.678  26.387  24.838  1.00  0.00     0.124 S 
ATOM     81  O   UNL A   1      46.622  27.417  23.810  1.00  0.00    -0.237 OA
ATOM     82  O   UNL A   1      47.992  26.191  25.446  1.00  0.00    -0.237 OA
ATOM     83  O   UNL A   1      45.970  25.146  24.532  1.00  0.00    -0.744 OA
ENDBRANCH  79  80
ENDBRANCH  47  72
BRANCH  59  84
ATOM     84  C   UNL A   1      42.630  35.676  29.396  1.00  0.00     0.058 A 
ATOM     85  C   UNL A   1      43.440  36.546  30.131  1.00  0.00     0.135 A 
ATOM     86  C   UNL A   1      42.016  36.247  28.251  1.00  0.00     0.135 A 
ATOM     87  F   UNL A   1      43.866  36.221  31.360  1.00  0.00    -0.206 F 
ATOM     88  C   UNL A   1      43.819  37.792  29.639  1.00  0.00     0.059 A 
ATOM     89  C   UNL A   1      42.321  37.513  27.779  1.00  0.00     0.059 A 
ATOM     90  F   UNL A   1      41.099  35.610  27.515  1.00  0.00    -0.206 F 
ATOM     91  C   UNL A   1      43.278  38.251  28.442  1.00  0.00     0.060 A 
BRANCH  91  92
ATOM     92  S   UNL A   1      43.791  39.840  27.790  1.00  0.00     0.124 S 
ATOM     93  O   UNL A   1      44.689  40.323  28.836  1.00  0.00    -0.237 OA
ATOM     94  O   UNL A   1      44.428  39.448  26.537  1.00  0.00    -0.237 OA
ATOM     95  O   UNL A   1      42.538  40.578  27.655  1.00  0.00    -0.744 OA
ENDBRANCH  91  92
ENDBRANCH  59  84
ENDBRANCH  33  34
ENDBRANCH  26  28
ENDBRANCH  25  26
ENDBRANCH  24  25
ENDBRANCH  23  24
ENDBRANCH  22  23
ENDBRANCH   1  22
TORSDOF 22
ENDMDL
MODEL 3
REMARK VINA RESULT:      -9.8      3.956     10.943
REMARK SMILES CCN(CC)C(=O)COc1cc(C)ccc1C(=O)OCCOCCOC(=O)c1ccc(-c2c3nc(c(-c4c(F)cc(S(=O)(=O)[O-])cc4F)c4ccc([nH]4)c(-c4c(F)cc(S(=O)(=O)[O-])cc4F)c4nc(c(-c5c(F)cc(S(=O)(=O)[O-])cc5F)c5ccc2[nH]5)C=C4)C=C3)cc1
REMARK SMILES IDX 21 1 20 2 19 3 17 4 18 5 16 6 10 7 11 8 12 9 15 10 13 11
REMARK SMILES IDX 14 12 9 13 8 14 6 15 3 16 7 17 2 18 1 19 4 20 5 21 22 22
REMARK SMILES IDX 23 23 24 24 25 25 26 26 27 27 28 28 29 29 93 30 30 31 92 32
REMARK SMILES IDX 31 33 32 34 33 35 86 36 34 37 91 38 85 39 87 40 35 41 90 42
REMARK SMILES IDX 84 43 83 44 36 46 70 47 49 48 69 49 50 50 53 51 68 52 88 53
REMARK SMILES IDX 51 54 52 55 67 57 89 58 54 59 37 60 38 61 47 62 39 63 40 64
REMARK SMILES IDX 46 65 48 66 41 67 42 68 43 69 44 70 45 71 71 72 72 73 81 74
REMARK SMILES IDX 73 75 74 76 80 77 82 78 75 79 76 80 77 81 78 82 79 83 55 84
REMARK SMILES IDX 56 85 65 86 57 87 58 88 64 89 66 90 59 91 60 92 61 93 62 94
REMARK SMILES IDX 63 95
REMARK H PARENT 87 45 53 56
REMARK Flexibility Score: inf
ROOT
ATOM      1  C   UNL A   1      37.965  22.183  25.073  1.00  0.00     0.202 C 
ENDROOT
BRANCH   1   2
ATOM      2  C   UNL A   1      36.588  22.030  25.744  1.00  0.00     0.261 C 
BRANCH   2   3
ATOM      3  O   UNL A   1      35.659  23.096  25.692  1.00  0.00    -0.460 OA
BRANCH   3   4
ATOM      4  C   UNL A   1      34.714  22.907  24.765  1.00  0.00     0.342 C 
ATOM      5  O   UNL A   1      34.813  22.257  23.719  1.00  0.00    -0.246 OA
BRANCH   4   6
ATOM      6  C   UNL A   1      33.437  23.124  25.402  1.00  0.00     0.102 A 
ATOM      7  C   UNL A   1      32.912  24.329  25.889  1.00  0.00     0.134 A 
ATOM      8  C   UNL A   1      31.663  24.241  26.500  1.00  0.00     0.050 A 
ATOM      9  C   UNL A   1      30.988  23.013  26.639  1.00  0.00    -0.047 A 
ATOM     10  C   UNL A   1      32.799  21.889  25.595  1.00  0.00     0.020 A 
ATOM     11  C   UNL A   1      29.614  22.947  27.215  1.00  0.00     0.044 C 
ATOM     12  C   UNL A   1      31.584  21.829  26.224  1.00  0.00     0.004 A 
BRANCH   7  13
ATOM     13  O   UNL A   1      33.568  25.513  25.682  1.00  0.00    -0.483 OA
BRANCH  13  14
ATOM     14  C   UNL A   1      33.326  26.219  24.461  1.00  0.00     0.329 C 
BRANCH  14  15
ATOM     15  C   UNL A   1      31.885  26.596  24.026  1.00  0.00     0.260 C 
ATOM     16  N   UNL A   1      31.374  27.845  24.366  1.00  0.00    -0.340 N 
ATOM     17  O   UNL A   1      31.235  25.817  23.317  1.00  0.00    -0.271 OA
BRANCH  16  18
ATOM     18  C   UNL A   1      30.215  28.350  23.629  1.00  0.00     0.116 C 
ATOM     19  C   UNL A   1      30.635  29.333  22.540  1.00  0.00     0.027 C 
ENDBRANCH  16  18
BRANCH  16  20
ATOM     20  C   UNL A   1      31.835  28.620  25.518  1.00  0.00     0.116 C 
ATOM     21  C   UNL A   1      31.402  27.970  26.827  1.00  0.00     0.027 C 
ENDBRANCH  16  20
ENDBRANCH  14  15
ENDBRANCH  13  14
ENDBRANCH   7  13
ENDBRANCH   4   6
ENDBRANCH   3   4
ENDBRANCH   2   3
ENDBRANCH   1   2
BRANCH   1  22
ATOM     22  O   UNL A   1      38.901  21.157  25.277  1.00  0.00    -0.374 OA
BRANCH  22  23
ATOM     23  C   UNL A   1      39.535  21.255  26.549  1.00  0.00     0.202 C 
BRANCH  23  24
ATOM     24  C   UNL A   1      41.017  21.828  26.666  1.00  0.00     0.261 C 
BRANCH  24  25
ATOM     25  O   UNL A   1      41.396  22.642  27.860  1.00  0.00    -0.460 OA
BRANCH  25  26
ATOM     26  C   UNL A   1      41.477  24.018  27.960  1.00  0.00     0.338 C 
ATOM     27  O   UNL A   1      42.008  24.578  28.909  1.00  0.00    -0.246 OA
BRANCH  26  28
ATOM     28  C   UNL A   1      40.574  24.748  26.853  1.00  0.00     0.060 A 
ATOM     29  C   UNL A   1      41.106  25.857  26.196  1.00  0.00     0.016 A 
ATOM     30  C   UNL A   1      39.253  24.984  27.174  1.00  0.00     0.016 A 
ATOM     31  C   UNL A   1      40.776  27.166  26.554  1.00  0.00     0.010 A 
ATOM     32  C   UNL A   1      38.916  26.270  27.626  1.00  0.00     0.010 A 
ATOM     33  C   UNL A   1      39.843  27.315  27.540  1.00  0.00    -0.014 A 
BRANCH  33  34
ATOM     34  C   UNL A   1      40.013  28.317  28.623  1.00  0.00     0.031 A 
ATOM     35  C   UNL A   1      39.110  29.488  28.663  1.00  0.00     0.074 A 
ATOM     36  C   UNL A   1      40.907  28.047  29.624  1.00  0.00     0.049 A 
ATOM     37  N   UNL A   1      39.401  30.635  29.166  1.00  0.00    -0.248 NA
ATOM     38  C   UNL A   1      37.790  29.495  28.036  1.00  0.00     0.031 C 
ATOM     39  C   UNL A   1      41.172  28.724  30.903  1.00  0.00     0.029 A 
ATOM     40  N   UNL A   1      41.886  27.032  29.623  1.00  0.00    -0.354 N 
ATOM     41  C   UNL A   1      38.227  31.371  29.228  1.00  0.00     0.074 A 
ATOM     42  C   UNL A   1      37.335  30.709  28.333  1.00  0.00     0.031 C 
ATOM     43  C   UNL A   1      42.361  28.309  31.399  1.00  0.00     0.029 A 
ATOM     44  C   UNL A   1      42.985  27.495  30.367  1.00  0.00     0.049 A 
ATOM     45  H   UNL A   1      41.813  26.156  29.178  1.00  0.00     0.167 HD
ATOM     46  C   UNL A   1      38.089  32.340  30.179  1.00  0.00     0.037 A 
ATOM     47  C   UNL A   1      44.107  27.837  29.663  1.00  0.00     0.037 A 
ATOM     48  C   UNL A   1      39.344  32.415  30.947  1.00  0.00     0.049 A 
ATOM     49  C   UNL A   1      44.235  29.371  29.607  1.00  0.00     0.074 A 
ATOM     50  C   UNL A   1      39.746  31.952  32.188  1.00  0.00     0.029 A 
ATOM     51  N   UNL A   1      40.518  32.664  30.254  1.00  0.00    -0.354 N 
ATOM     52  N   UNL A   1      43.286  30.206  29.967  1.00  0.00    -0.248 NA
ATOM     53  C   UNL A   1      45.429  30.090  29.183  1.00  0.00     0.031 C 
ATOM     54  C   UNL A   1      41.182  31.906  32.201  1.00  0.00     0.029 A 
ATOM     55  C   UNL A   1      41.652  32.338  30.970  1.00  0.00     0.049 A 
ATOM     56  H   UNL A   1      40.541  33.036  29.342  1.00  0.00     0.167 HD
ATOM     57  C   UNL A   1      43.702  31.503  29.898  1.00  0.00     0.074 A 
ATOM     58  C   UNL A   1      45.031  31.373  29.307  1.00  0.00     0.031 C 
ATOM     59  C   UNL A   1      42.953  32.573  30.339  1.00  0.00     0.037 A 
BRANCH  46  60
ATOM     60  C   UNL A   1      36.783  33.035  30.588  1.00  0.00     0.058 A 
ATOM     61  C   UNL A   1      36.089  33.832  29.649  1.00  0.00     0.135 A 
ATOM     62  C   UNL A   1      36.153  32.998  31.859  1.00  0.00     0.135 A 
ATOM     63  F   UNL A   1      36.513  33.940  28.383  1.00  0.00    -0.206 F 
ATOM     64  C   UNL A   1      34.922  34.551  29.952  1.00  0.00     0.059 A 
ATOM     65  C   UNL A   1      35.001  33.724  32.192  1.00  0.00     0.059 A 
ATOM     66  F   UNL A   1      36.578  32.222  32.855  1.00  0.00    -0.206 F 
ATOM     67  C   UNL A   1      34.385  34.498  31.230  1.00  0.00     0.060 A 
BRANCH  67  68
ATOM     68  S   UNL A   1      32.866  35.398  31.595  1.00  0.00     0.124 S 
ATOM     69  O   UNL A   1      33.371  36.714  31.975  1.00  0.00    -0.237 OA
ATOM     70  O   UNL A   1      32.158  35.330  30.322  1.00  0.00    -0.237 OA
ATOM     71  O   UNL A   1      32.264  34.630  32.683  1.00  0.00    -0.744 OA
ENDBRANCH  67  68
ENDBRANCH  46  60
BRANCH  47  72
ATOM     72  C   UNL A   1      44.421  26.799  28.596  1.00  0.00     0.058 A 
ATOM     73  C   UNL A   1      44.386  27.193  27.228  1.00  0.00     0.135 A 
ATOM     74  C   UNL A   1      45.089  25.600  28.841  1.00  0.00     0.135 A 
ATOM     75  F   UNL A   1      43.717  28.305  26.889  1.00  0.00    -0.206 F 
ATOM     76  C   UNL A   1      45.096  26.548  26.203  1.00  0.00     0.059 A 
ATOM     77  C   UNL A   1      45.787  24.909  27.822  1.00  0.00     0.059 A 
ATOM     78  F   UNL A   1      45.208  25.146  30.098  1.00  0.00    -0.206 F 
ATOM     79  C   UNL A   1      45.842  25.422  26.517  1.00  0.00     0.060 A 
BRANCH  79  80
ATOM     80  S   UNL A   1      46.958  24.695  25.248  1.00  0.00     0.124 S 
ATOM     81  O   UNL A   1      48.183  24.455  26.000  1.00  0.00    -0.237 OA
ATOM     82  O   UNL A   1      46.264  23.492  24.798  1.00  0.00    -0.237 OA
ATOM     83  O   UNL A   1      47.029  25.756  24.245  1.00  0.00    -0.744 OA
ENDBRANCH  79  80
ENDBRANCH  47  72
BRANCH  59  84
ATOM     84  C   UNL A   1      43.379  34.009  30.120  1.00  0.00     0.058 A 
ATOM     85  C   UNL A   1      43.444  34.590  28.851  1.00  0.00     0.135 A 
ATOM     86  C   UNL A   1      43.741  34.865  31.193  1.00  0.00     0.135 A 
ATOM     87  F   UNL A   1      43.383  33.837  27.742  1.00  0.00    -0.206 F 
ATOM     88  C   UNL A   1      43.600  35.962  28.675  1.00  0.00     0.059 A 
ATOM     89  C   UNL A   1      43.973  36.221  31.037  1.00  0.00     0.059 A 
ATOM     90  F   UNL A   1      43.878  34.442  32.455  1.00  0.00    -0.206 F 
ATOM     91  C   UNL A   1      43.831  36.773  29.782  1.00  0.00     0.060 A 
BRANCH  91  92
ATOM     92  S   UNL A   1      43.998  38.545  29.561  1.00  0.00     0.124 S 
ATOM     93  O   UNL A   1      45.241  38.641  28.801  1.00  0.00    -0.237 OA
ATOM     94  O   UNL A   1      42.778  38.863  28.826  1.00  0.00    -0.237 OA
ATOM     95  O   UNL A   1      44.062  39.057  30.927  1.00  0.00    -0.744 OA
ENDBRANCH  91  92
ENDBRANCH  59  84
ENDBRANCH  33  34
ENDBRANCH  26  28
ENDBRANCH  25  26
ENDBRANCH  24  25
ENDBRANCH  23  24
ENDBRANCH  22  23
ENDBRANCH   1  22
TORSDOF 22
ENDMDL
