MODEL 1
REMARK VINA RESULT:      -8.8      0.000      0.000
REMARK SMILES O=C(OCCOCCOC(=O)[C@H]1CSCN1C(=O)c1cccc2cccnc12)c1ccc(-c2c3nc(c(-c4c(F)cc(S(=O)(=O)[O-])cc4F)c4ccc([nH]4)c(-c4c(F)cc(S(=O)(=O)[O-])cc4F)c4nc(c(-c5c(F)cc(S(=O)(=O)[O-])cc5F)c5ccc2[nH]5)C=C4)C=C3)cc1
REMARK SMILES IDX 5 1 4 2 3 3 2 4 1 5 29 6 30 7 94 8 31 9 93 10 32 11 33 12
REMARK SMILES IDX 34 13 87 14 35 15 92 16 86 17 88 18 36 19 91 20 85 21 84 22
REMARK SMILES IDX 37 24 71 25 50 26 70 27 51 28 54 29 69 30 89 31 52 32 53 33
REMARK SMILES IDX 68 35 90 36 55 37 38 38 39 39 48 40 40 41 41 42 47 43 49 44
REMARK SMILES IDX 42 45 43 46 44 47 45 48 46 49 72 50 73 51 82 52 74 53 75 54
REMARK SMILES IDX 81 55 83 56 76 57 77 58 78 59 79 60 80 61 56 62 57 63 66 64
REMARK SMILES IDX 58 65 59 66 65 67 67 68 60 69 61 70 62 71 63 72 64 73 6 74
REMARK SMILES IDX 7 75 8 76 9 77 10 78 11 79 12 80 13 81 16 82 14 83 15 84
REMARK SMILES IDX 17 85 18 86 19 87 20 88 28 89 21 90 23 91 27 92 22 93 24 94
REMARK SMILES IDX 26 95 25 96
REMARK H PARENT 88 23 54 34
REMARK Flexibility Score: inf
ROOT
ATOM      1  C   UNL A   1      34.564  33.016  29.496  1.00  0.00     0.202 C 
ENDROOT
BRANCH   1   2
ATOM      2  C   UNL A   1      34.353  32.644  28.029  1.00  0.00     0.261 C 
BRANCH   2   3
ATOM      3  O   UNL A   1      33.679  31.378  27.939  1.00  0.00    -0.460 OA
BRANCH   3   4
ATOM      4  C   UNL A   1      34.241  30.158  27.769  1.00  0.00     0.338 C 
ATOM      5  O   UNL A   1      33.536  29.237  27.359  1.00  0.00    -0.246 OA
BRANCH   4   6
ATOM      6  C   UNL A   1      35.687  29.875  28.012  1.00  0.00     0.060 A 
ATOM      7  C   UNL A   1      36.696  30.008  27.059  1.00  0.00     0.016 A 
ATOM      8  C   UNL A   1      36.063  29.543  29.323  1.00  0.00     0.016 A 
ATOM      9  C   UNL A   1      38.026  29.836  27.369  1.00  0.00     0.010 A 
ATOM     10  C   UNL A   1      37.409  29.362  29.654  1.00  0.00     0.010 A 
ATOM     11  C   UNL A   1      38.387  29.519  28.667  1.00  0.00    -0.014 A 
BRANCH  11  12
ATOM     12  C   UNL A   1      39.805  29.224  28.881  1.00  0.00     0.031 A 
ATOM     13  C   UNL A   1      40.620  30.252  29.591  1.00  0.00     0.074 A 
ATOM     14  C   UNL A   1      40.254  27.981  28.631  1.00  0.00     0.049 A 
ATOM     15  N   UNL A   1      41.894  30.255  29.854  1.00  0.00    -0.248 NA
ATOM     16  C   UNL A   1      39.894  31.434  30.096  1.00  0.00     0.031 C 
ATOM     17  C   UNL A   1      39.432  26.874  28.125  1.00  0.00     0.029 A 
ATOM     18  N   UNL A   1      41.486  27.423  28.811  1.00  0.00    -0.354 N 
ATOM     19  C   UNL A   1      42.133  31.452  30.514  1.00  0.00     0.074 A 
ATOM     20  C   UNL A   1      40.873  32.147  30.629  1.00  0.00     0.031 C 
ATOM     21  C   UNL A   1      40.185  25.766  28.052  1.00  0.00     0.029 A 
ATOM     22  C   UNL A   1      41.553  26.107  28.420  1.00  0.00     0.049 A 
ATOM     23  H   UNL A   1      42.253  27.916  29.184  1.00  0.00     0.167 HD
ATOM     24  C   UNL A   1      43.319  31.920  30.960  1.00  0.00     0.037 A 
ATOM     25  C   UNL A   1      42.624  25.299  28.327  1.00  0.00     0.037 A 
ATOM     26  C   UNL A   1      44.540  31.176  30.814  1.00  0.00     0.049 A 
ATOM     27  C   UNL A   1      43.955  25.887  28.712  1.00  0.00     0.074 A 
ATOM     28  C   UNL A   1      45.832  31.556  31.115  1.00  0.00     0.029 A 
ATOM     29  N   UNL A   1      44.604  29.877  30.316  1.00  0.00    -0.354 N 
ATOM     30  N   UNL A   1      44.213  27.076  29.212  1.00  0.00    -0.248 NA
ATOM     31  C   UNL A   1      45.139  25.052  28.495  1.00  0.00     0.031 C 
ATOM     32  C   UNL A   1      46.681  30.501  30.759  1.00  0.00     0.029 A 
ATOM     33  C   UNL A   1      45.914  29.443  30.288  1.00  0.00     0.049 A 
ATOM     34  H   UNL A   1      43.827  29.345  30.027  1.00  0.00     0.167 HD
ATOM     35  C   UNL A   1      45.587  27.129  29.385  1.00  0.00     0.074 A 
ATOM     36  C   UNL A   1      46.103  25.842  28.949  1.00  0.00     0.031 C 
ATOM     37  C   UNL A   1      46.362  28.141  29.851  1.00  0.00     0.037 A 
BRANCH  24  38
ATOM     38  C   UNL A   1      43.337  33.308  31.531  1.00  0.00     0.058 A 
ATOM     39  C   UNL A   1      43.546  34.445  30.734  1.00  0.00     0.135 A 
ATOM     40  C   UNL A   1      43.202  33.497  32.916  1.00  0.00     0.135 A 
ATOM     41  F   UNL A   1      43.725  34.320  29.409  1.00  0.00    -0.206 F 
ATOM     42  C   UNL A   1      43.647  35.716  31.294  1.00  0.00     0.059 A 
ATOM     43  C   UNL A   1      43.275  34.760  33.494  1.00  0.00     0.059 A 
ATOM     44  F   UNL A   1      43.024  32.443  33.727  1.00  0.00    -0.206 F 
ATOM     45  C   UNL A   1      43.515  35.863  32.676  1.00  0.00     0.060 A 
BRANCH  45  46
ATOM     46  S   UNL A   1      43.668  37.515  33.391  1.00  0.00     0.124 S 
ATOM     47  O   UNL A   1      43.759  38.344  32.193  1.00  0.00    -0.237 OA
ATOM     48  O   UNL A   1      42.431  37.640  34.155  1.00  0.00    -0.237 OA
ATOM     49  O   UNL A   1      44.888  37.428  34.188  1.00  0.00    -0.744 OA
ENDBRANCH  45  46
ENDBRANCH  24  38
BRANCH  25  50
ATOM     50  C   UNL A   1      42.490  23.920  27.783  1.00  0.00     0.058 A 
ATOM     51  C   UNL A   1      42.396  23.679  26.405  1.00  0.00     0.135 A 
ATOM     52  C   UNL A   1      42.461  22.802  28.637  1.00  0.00     0.135 A 
ATOM     53  F   UNL A   1      42.413  24.707  25.543  1.00  0.00    -0.206 F 
ATOM     54  C   UNL A   1      42.263  22.389  25.894  1.00  0.00     0.059 A 
ATOM     55  C   UNL A   1      42.359  21.502  28.149  1.00  0.00     0.059 A 
ATOM     56  F   UNL A   1      42.555  22.967  29.966  1.00  0.00    -0.206 F 
ATOM     57  C   UNL A   1      42.245  21.307  26.776  1.00  0.00     0.060 A 
BRANCH  57  58
ATOM     58  S   UNL A   1      42.092  19.637  26.105  1.00  0.00     0.124 S 
ATOM     59  O   UNL A   1      40.674  19.586  25.766  1.00  0.00    -0.237 OA
ATOM     60  O   UNL A   1      43.017  19.671  24.976  1.00  0.00    -0.237 OA
ATOM     61  O   UNL A   1      42.504  18.787  27.218  1.00  0.00    -0.744 OA
ENDBRANCH  57  58
ENDBRANCH  25  50
BRANCH  37  62
ATOM     62  C   UNL A   1      47.832  27.873  29.944  1.00  0.00     0.058 A 
ATOM     63  C   UNL A   1      48.696  28.140  28.873  1.00  0.00     0.135 A 
ATOM     64  C   UNL A   1      48.387  27.413  31.149  1.00  0.00     0.135 A 
ATOM     65  F   UNL A   1      48.207  28.573  27.700  1.00  0.00    -0.206 F 
ATOM     66  C   UNL A   1      50.066  27.947  28.989  1.00  0.00     0.059 A 
ATOM     67  C   UNL A   1      49.755  27.242  31.296  1.00  0.00     0.059 A 
ATOM     68  F   UNL A   1      47.596  27.156  32.203  1.00  0.00    -0.206 F 
ATOM     69  C   UNL A   1      50.586  27.504  30.207  1.00  0.00     0.060 A 
BRANCH  69  70
ATOM     70  S   UNL A   1      52.373  27.313  30.362  1.00  0.00     0.124 S 
ATOM     71  O   UNL A   1      52.486  25.905  30.724  1.00  0.00    -0.237 OA
ATOM     72  O   UNL A   1      52.841  27.666  29.026  1.00  0.00    -0.237 OA
ATOM     73  O   UNL A   1      52.725  28.262  31.414  1.00  0.00    -0.744 OA
ENDBRANCH  69  70
ENDBRANCH  37  62
ENDBRANCH  11  12
ENDBRANCH   4   6
ENDBRANCH   3   4
ENDBRANCH   2   3
ENDBRANCH   1   2
BRANCH   1  74
ATOM     74  O   UNL A   1      35.934  33.010  29.874  1.00  0.00    -0.374 OA
BRANCH  74  75
ATOM     75  C   UNL A   1      36.237  33.307  31.233  1.00  0.00     0.202 C 
BRANCH  75  76
ATOM     76  C   UNL A   1      35.761  32.138  32.076  1.00  0.00     0.261 C 
BRANCH  76  77
ATOM     77  O   UNL A   1      36.911  31.582  32.721  1.00  0.00    -0.462 OA
BRANCH  77  78
ATOM     78  C   UNL A   1      37.380  32.224  33.834  1.00  0.00     0.329 C 
ATOM     79  O   UNL A   1      36.727  32.514  34.831  1.00  0.00    -0.250 OA
BRANCH  78  80
ATOM     80  C   UNL A   1      38.886  32.493  33.717  1.00  0.00     0.206 C 
ATOM     81  C   UNL A   1      39.151  33.973  33.467  1.00  0.00     0.108 C 
ATOM     82  N   UNL A   1      39.624  32.040  34.905  1.00  0.00    -0.315 N 
ATOM     83  S   UNL A   1      39.776  34.646  35.029  1.00  0.00    -0.138 SA
ATOM     84  C   UNL A   1      40.393  33.050  35.590  1.00  0.00     0.191 C 
BRANCH  82  85
ATOM     85  C   UNL A   1      39.561  30.676  35.159  1.00  0.00     0.257 C 
ATOM     86  O   UNL A   1      38.987  30.247  36.161  1.00  0.00    -0.269 OA
BRANCH  85  87
ATOM     87  C   UNL A   1      40.238  29.702  34.288  1.00  0.00     0.066 A 
ATOM     88  C   UNL A   1      39.578  29.154  33.176  1.00  0.00     0.016 A 
ATOM     89  C   UNL A   1      41.605  29.512  34.512  1.00  0.00     0.083 A 
ATOM     90  C   UNL A   1      40.274  28.321  32.308  1.00  0.00     0.002 A 
ATOM     91  C   UNL A   1      42.308  28.719  33.586  1.00  0.00     0.001 A 
ATOM     92  N   UNL A   1      42.240  30.089  35.558  1.00  0.00    -0.255 NA
ATOM     93  C   UNL A   1      41.633  28.101  32.516  1.00  0.00     0.010 A 
ATOM     94  C   UNL A   1      43.698  28.601  33.747  1.00  0.00     0.012 A 
ATOM     95  C   UNL A   1      43.577  30.012  35.649  1.00  0.00     0.112 A 
ATOM     96  C   UNL A   1      44.345  29.281  34.774  1.00  0.00     0.021 A 
ENDBRANCH  85  87
ENDBRANCH  82  85
ENDBRANCH  78  80
ENDBRANCH  77  78
ENDBRANCH  76  77
ENDBRANCH  75  76
ENDBRANCH  74  75
ENDBRANCH   1  74
TORSDOF 19
ENDMDL
MODEL 2
REMARK VINA RESULT:      -8.5      4.198     11.208
REMARK SMILES O=C(OCCOCCOC(=O)[C@H]1CSCN1C(=O)c1cccc2cccnc12)c1ccc(-c2c3nc(c(-c4c(F)cc(S(=O)(=O)[O-])cc4F)c4ccc([nH]4)c(-c4c(F)cc(S(=O)(=O)[O-])cc4F)c4nc(c(-c5c(F)cc(S(=O)(=O)[O-])cc5F)c5ccc2[nH]5)C=C4)C=C3)cc1
REMARK SMILES IDX 5 1 4 2 3 3 2 4 1 5 29 6 30 7 94 8 31 9 93 10 32 11 33 12
REMARK SMILES IDX 34 13 87 14 35 15 92 16 86 17 88 18 36 19 91 20 85 21 84 22
REMARK SMILES IDX 37 24 71 25 50 26 70 27 51 28 54 29 69 30 89 31 52 32 53 33
REMARK SMILES IDX 68 35 90 36 55 37 38 38 39 39 48 40 40 41 41 42 47 43 49 44
REMARK SMILES IDX 42 45 43 46 44 47 45 48 46 49 72 50 73 51 82 52 74 53 75 54
REMARK SMILES IDX 81 55 83 56 76 57 77 58 78 59 79 60 80 61 56 62 57 63 66 64
REMARK SMILES IDX 58 65 59 66 65 67 67 68 60 69 61 70 62 71 63 72 64 73 6 74
REMARK SMILES IDX 7 75 8 76 9 77 10 78 11 79 12 80 13 81 16 82 14 83 15 84
REMARK SMILES IDX 17 85 18 86 19 87 20 88 28 89 21 90 23 91 27 92 22 93 24 94
REMARK SMILES IDX 26 95 25 96
REMARK H PARENT 88 23 54 34
REMARK Flexibility Score: inf
ROOT
ATOM      1  C   UNL A   1      35.989  21.330  25.599  1.00  0.00     0.202 C 
ENDROOT
BRANCH   1   2
ATOM      2  C   UNL A   1      36.791  22.041  24.510  1.00  0.00     0.261 C 
BRANCH   2   3
ATOM      3  O   UNL A   1      37.474  23.175  25.071  1.00  0.00    -0.460 OA
BRANCH   3   4
ATOM      4  C   UNL A   1      38.614  23.168  25.801  1.00  0.00     0.338 C 
ATOM      5  O   UNL A   1      39.367  22.199  25.709  1.00  0.00    -0.246 OA
BRANCH   4   6
ATOM      6  C   UNL A   1      39.035  24.296  26.684  1.00  0.00     0.060 A 
ATOM      7  C   UNL A   1      38.677  24.435  28.024  1.00  0.00     0.016 A 
ATOM      8  C   UNL A   1      39.934  25.230  26.145  1.00  0.00     0.016 A 
ATOM      9  C   UNL A   1      39.182  25.440  28.819  1.00  0.00     0.010 A 
ATOM     10  C   UNL A   1      40.454  26.257  26.938  1.00  0.00     0.010 A 
ATOM     11  C   UNL A   1      40.075  26.349  28.280  1.00  0.00    -0.014 A 
BRANCH  11  12
ATOM     12  C   UNL A   1      40.459  27.459  29.155  1.00  0.00     0.031 A 
ATOM     13  C   UNL A   1      41.831  27.429  29.739  1.00  0.00     0.074 A 
ATOM     14  C   UNL A   1      39.662  28.540  29.218  1.00  0.00     0.049 A 
ATOM     15  N   UNL A   1      42.388  28.255  30.576  1.00  0.00    -0.248 NA
ATOM     16  C   UNL A   1      42.708  26.325  29.303  1.00  0.00     0.031 C 
ATOM     17  C   UNL A   1      38.396  28.697  28.491  1.00  0.00     0.029 A 
ATOM     18  N   UNL A   1      39.813  29.724  29.880  1.00  0.00    -0.354 N 
ATOM     19  C   UNL A   1      43.661  27.751  30.802  1.00  0.00     0.074 A 
ATOM     20  C   UNL A   1      43.806  26.556  30.005  1.00  0.00     0.031 C 
ATOM     21  C   UNL A   1      37.897  29.919  28.737  1.00  0.00     0.029 A 
ATOM     22  C   UNL A   1      38.759  30.588  29.702  1.00  0.00     0.049 A 
ATOM     23  H   UNL A   1      40.600  29.938  30.431  1.00  0.00     0.167 HD
ATOM     24  C   UNL A   1      44.606  28.252  31.627  1.00  0.00     0.037 A 
ATOM     25  C   UNL A   1      38.511  31.765  30.304  1.00  0.00     0.037 A 
ATOM     26  C   UNL A   1      44.397  29.448  32.395  1.00  0.00     0.049 A 
ATOM     27  C   UNL A   1      39.521  32.238  31.315  1.00  0.00     0.074 A 
ATOM     28  C   UNL A   1      45.210  30.021  33.351  1.00  0.00     0.029 A 
ATOM     29  N   UNL A   1      43.271  30.259  32.279  1.00  0.00    -0.354 N 
ATOM     30  N   UNL A   1      40.674  31.694  31.639  1.00  0.00    -0.248 NA
ATOM     31  C   UNL A   1      39.195  33.456  32.062  1.00  0.00     0.031 C 
ATOM     32  C   UNL A   1      44.556  31.157  33.843  1.00  0.00     0.029 A 
ATOM     33  C   UNL A   1      43.360  31.322  33.155  1.00  0.00     0.049 A 
ATOM     34  H   UNL A   1      42.522  30.099  31.661  1.00  0.00     0.167 HD
ATOM     35  C   UNL A   1      41.220  32.509  32.619  1.00  0.00     0.074 A 
ATOM     36  C   UNL A   1      40.274  33.594  32.821  1.00  0.00     0.031 C 
ATOM     37  C   UNL A   1      42.386  32.379  33.300  1.00  0.00     0.037 A 
BRANCH  24  38
ATOM     38  C   UNL A   1      45.863  27.448  31.796  1.00  0.00     0.058 A 
ATOM     39  C   UNL A   1      45.977  26.424  32.751  1.00  0.00     0.135 A 
ATOM     40  C   UNL A   1      46.996  27.751  31.025  1.00  0.00     0.135 A 
ATOM     41  F   UNL A   1      44.939  26.122  33.546  1.00  0.00    -0.206 F 
ATOM     42  C   UNL A   1      47.179  25.750  32.953  1.00  0.00     0.059 A 
ATOM     43  C   UNL A   1      48.200  27.073  31.192  1.00  0.00     0.059 A 
ATOM     44  F   UNL A   1      46.950  28.735  30.114  1.00  0.00    -0.206 F 
ATOM     45  C   UNL A   1      48.286  26.084  32.172  1.00  0.00     0.060 A 
BRANCH  45  46
ATOM     46  S   UNL A   1      49.843  25.216  32.458  1.00  0.00     0.124 S 
ATOM     47  O   UNL A   1      50.675  26.281  33.010  1.00  0.00    -0.237 OA
ATOM     48  O   UNL A   1      49.449  24.170  33.397  1.00  0.00    -0.237 OA
ATOM     49  O   UNL A   1      50.222  24.750  31.128  1.00  0.00    -0.744 OA
ENDBRANCH  45  46
ENDBRANCH  24  38
BRANCH  25  50
ATOM     50  C   UNL A   1      37.247  32.505  30.035  1.00  0.00     0.058 A 
ATOM     51  C   UNL A   1      36.037  32.138  30.639  1.00  0.00     0.135 A 
ATOM     52  C   UNL A   1      37.225  33.610  29.163  1.00  0.00     0.135 A 
ATOM     53  F   UNL A   1      35.997  31.089  31.474  1.00  0.00    -0.206 F 
ATOM     54  C   UNL A   1      34.851  32.824  30.383  1.00  0.00     0.059 A 
ATOM     55  C   UNL A   1      36.060  34.330  28.914  1.00  0.00     0.059 A 
ATOM     56  F   UNL A   1      38.353  34.015  28.559  1.00  0.00    -0.206 F 
ATOM     57  C   UNL A   1      34.874  33.920  29.517  1.00  0.00     0.060 A 
BRANCH  57  58
ATOM     58  S   UNL A   1      33.338  34.817  29.204  1.00  0.00     0.124 S 
ATOM     59  O   UNL A   1      32.659  33.920  28.275  1.00  0.00    -0.237 OA
ATOM     60  O   UNL A   1      32.757  34.910  30.539  1.00  0.00    -0.237 OA
ATOM     61  O   UNL A   1      33.795  36.082  28.638  1.00  0.00    -0.744 OA
ENDBRANCH  57  58
ENDBRANCH  25  50
BRANCH  37  62
ATOM     62  C   UNL A   1      42.709  33.457  34.289  1.00  0.00     0.058 A 
ATOM     63  C   UNL A   1      43.266  34.679  33.888  1.00  0.00     0.135 A 
ATOM     64  C   UNL A   1      42.384  33.285  35.644  1.00  0.00     0.135 A 
ATOM     65  F   UNL A   1      43.601  34.881  32.603  1.00  0.00    -0.206 F 
ATOM     66  C   UNL A   1      43.504  35.695  34.803  1.00  0.00     0.059 A 
ATOM     67  C   UNL A   1      42.586  34.298  36.570  1.00  0.00     0.059 A 
ATOM     68  F   UNL A   1      41.838  32.134  36.068  1.00  0.00    -0.206 F 
ATOM     69  C   UNL A   1      43.154  35.497  36.140  1.00  0.00     0.060 A 
BRANCH  69  70
ATOM     70  S   UNL A   1      43.415  36.847  37.308  1.00  0.00     0.124 S 
ATOM     71  O   UNL A   1      42.047  37.151  37.712  1.00  0.00    -0.237 OA
ATOM     72  O   UNL A   1      44.254  36.221  38.325  1.00  0.00    -0.237 OA
ATOM     73  O   UNL A   1      44.074  37.870  36.502  1.00  0.00    -0.744 OA
ENDBRANCH  69  70
ENDBRANCH  37  62
ENDBRANCH  11  12
ENDBRANCH   4   6
ENDBRANCH   3   4
ENDBRANCH   2   3
ENDBRANCH   1   2
BRANCH   1  74
ATOM     74  O   UNL A   1      34.835  20.673  25.092  1.00  0.00    -0.374 OA
BRANCH  74  75
ATOM     75  C   UNL A   1      33.642  20.763  25.864  1.00  0.00     0.202 C 
BRANCH  75  76
ATOM     76  C   UNL A   1      33.771  21.974  26.771  1.00  0.00     0.261 C 
BRANCH  76  77
ATOM     77  O   UNL A   1      32.935  23.001  26.231  1.00  0.00    -0.462 OA
BRANCH  77  78
ATOM     78  C   UNL A   1      33.553  24.090  25.682  1.00  0.00     0.329 C 
ATOM     79  O   UNL A   1      34.497  24.707  26.165  1.00  0.00    -0.250 OA
BRANCH  78  80
ATOM     80  C   UNL A   1      32.953  24.427  24.309  1.00  0.00     0.206 C 
ATOM     81  C   UNL A   1      33.392  23.405  23.266  1.00  0.00     0.108 C 
ATOM     82  N   UNL A   1      31.487  24.510  24.351  1.00  0.00    -0.315 N 
ATOM     83  S   UNL A   1      31.951  22.351  22.953  1.00  0.00    -0.138 SA
ATOM     84  C   UNL A   1      30.781  23.624  23.458  1.00  0.00     0.191 C 
BRANCH  82  85
ATOM     85  C   UNL A   1      30.972  25.502  25.176  1.00  0.00     0.257 C 
ATOM     86  O   UNL A   1      30.496  25.221  26.278  1.00  0.00    -0.269 OA
BRANCH  85  87
ATOM     87  C   UNL A   1      30.904  26.905  24.738  1.00  0.00     0.066 A 
ATOM     88  C   UNL A   1      29.986  27.305  23.754  1.00  0.00     0.016 A 
ATOM     89  C   UNL A   1      31.647  27.826  25.483  1.00  0.00     0.083 A 
ATOM     90  C   UNL A   1      29.867  28.653  23.435  1.00  0.00     0.002 A 
ATOM     91  C   UNL A   1      31.465  29.191  25.193  1.00  0.00     0.001 A 
ATOM     92  N   UNL A   1      32.488  27.430  26.466  1.00  0.00    -0.255 NA
ATOM     93  C   UNL A   1      30.607  29.592  24.150  1.00  0.00     0.010 A 
ATOM     94  C   UNL A   1      32.132  30.126  25.998  1.00  0.00     0.012 A 
ATOM     95  C   UNL A   1      33.062  28.347  27.260  1.00  0.00     0.112 A 
ATOM     96  C   UNL A   1      32.917  29.701  27.065  1.00  0.00     0.021 A 
ENDBRANCH  85  87
ENDBRANCH  82  85
ENDBRANCH  78  80
ENDBRANCH  77  78
ENDBRANCH  76  77
ENDBRANCH  75  76
ENDBRANCH  74  75
ENDBRANCH   1  74
TORSDOF 19
ENDMDL
MODEL 3
REMARK VINA RESULT:      -8.5      4.852     12.289
REMARK SMILES O=C(OCCOCCOC(=O)[C@H]1CSCN1C(=O)c1cccc2cccnc12)c1ccc(-c2c3nc(c(-c4c(F)cc(S(=O)(=O)[O-])cc4F)c4ccc([nH]4)c(-c4c(F)cc(S(=O)(=O)[O-])cc4F)c4nc(c(-c5c(F)cc(S(=O)(=O)[O-])cc5F)c5ccc2[nH]5)C=C4)C=C3)cc1
REMARK SMILES IDX 5 1 4 2 3 3 2 4 1 5 29 6 30 7 94 8 31 9 93 10 32 11 33 12
REMARK SMILES IDX 34 13 87 14 35 15 92 16 86 17 88 18 36 19 91 20 85 21 84 22
REMARK SMILES IDX 37 24 71 25 50 26 70 27 51 28 54 29 69 30 89 31 52 32 53 33
REMARK SMILES IDX 68 35 90 36 55 37 38 38 39 39 48 40 40 41 41 42 47 43 49 44
REMARK SMILES IDX 42 45 43 46 44 47 45 48 46 49 72 50 73 51 82 52 74 53 75 54
REMARK SMILES IDX 81 55 83 56 76 57 77 58 78 59 79 60 80 61 56 62 57 63 66 64
REMARK SMILES IDX 58 65 59 66 65 67 67 68 60 69 61 70 62 71 63 72 64 73 6 74
REMARK SMILES IDX 7 75 8 76 9 77 10 78 11 79 12 80 13 81 16 82 14 83 15 84
REMARK SMILES IDX 17 85 18 86 19 87 20 88 28 89 21 90 23 91 27 92 22 93 24 94
REMARK SMILES IDX 26 95 25 96
REMARK H PARENT 88 23 54 34
REMARK Flexibility Score: inf
ROOT
ATOM      1  C   UNL A   1      38.023  22.087  25.361  1.00  0.00     0.202 C 
ENDROOT
BRANCH   1   2
ATOM      2  C   UNL A   1      39.032  22.519  26.424  1.00  0.00     0.261 C 
BRANCH   2   3
ATOM      3  O   UNL A   1      39.146  23.951  26.434  1.00  0.00    -0.460 OA
BRANCH   3   4
ATOM      4  C   UNL A   1      40.222  24.688  26.796  1.00  0.00     0.338 C 
ATOM      5  O   UNL A   1      41.283  24.512  26.199  1.00  0.00    -0.246 OA
BRANCH   4   6
ATOM      6  C   UNL A   1      40.184  25.738  27.857  1.00  0.00     0.060 A 
ATOM      7  C   UNL A   1      39.244  25.799  28.884  1.00  0.00     0.016 A 
ATOM      8  C   UNL A   1      41.232  26.672  27.870  1.00  0.00     0.016 A 
ATOM      9  C   UNL A   1      39.322  26.729  29.897  1.00  0.00     0.010 A 
ATOM     10  C   UNL A   1      41.324  27.624  28.890  1.00  0.00     0.010 A 
ATOM     11  C   UNL A   1      40.364  27.639  29.906  1.00  0.00    -0.014 A 
BRANCH  11  12
ATOM     12  C   UNL A   1      40.298  28.673  30.940  1.00  0.00     0.031 A 
ATOM     13  C   UNL A   1      41.358  28.661  31.990  1.00  0.00     0.074 A 
ATOM     14  C   UNL A   1      39.438  29.695  30.782  1.00  0.00     0.049 A 
ATOM     15  N   UNL A   1      41.491  29.427  33.033  1.00  0.00    -0.248 NA
ATOM     16  C   UNL A   1      42.430  27.660  31.832  1.00  0.00     0.031 C 
ATOM     17  C   UNL A   1      38.517  29.853  29.650  1.00  0.00     0.029 A 
ATOM     18  N   UNL A   1      39.228  30.811  31.540  1.00  0.00    -0.354 N 
ATOM     19  C   UNL A   1      42.634  28.976  33.680  1.00  0.00     0.074 A 
ATOM     20  C   UNL A   1      43.169  27.880  32.908  1.00  0.00     0.031 C 
ATOM     21  C   UNL A   1      37.854  31.013  29.782  1.00  0.00     0.029 A 
ATOM     22  C   UNL A   1      38.238  31.627  31.046  1.00  0.00     0.049 A 
ATOM     23  H   UNL A   1      39.735  31.011  32.359  1.00  0.00     0.167 HD
ATOM     24  C   UNL A   1      43.161  29.442  34.833  1.00  0.00     0.037 A 
ATOM     25  C   UNL A   1      37.680  32.719  31.598  1.00  0.00     0.037 A 
ATOM     26  C   UNL A   1      42.577  30.538  35.555  1.00  0.00     0.049 A 
ATOM     27  C   UNL A   1      38.202  33.142  32.945  1.00  0.00     0.074 A 
ATOM     28  C   UNL A   1      42.928  31.056  36.785  1.00  0.00     0.029 A 
ATOM     29  N   UNL A   1      41.503  31.292  35.088  1.00  0.00    -0.354 N 
ATOM     30  N   UNL A   1      39.201  32.634  33.634  1.00  0.00    -0.248 NA
ATOM     31  C   UNL A   1      37.515  34.256  33.605  1.00  0.00     0.031 C 
ATOM     32  C   UNL A   1      42.038  32.095  37.081  1.00  0.00     0.029 A 
ATOM     33  C   UNL A   1      41.167  32.262  36.011  1.00  0.00     0.049 A 
ATOM     34  H   UNL A   1      41.050  31.154  34.225  1.00  0.00     0.167 HD
ATOM     35  C   UNL A   1      39.273  33.374  34.805  1.00  0.00     0.074 A 
ATOM     36  C   UNL A   1      38.225  34.376  34.720  1.00  0.00     0.031 C 
ATOM     37  C   UNL A   1      40.116  33.241  35.860  1.00  0.00     0.037 A 
BRANCH  24  38
ATOM     38  C   UNL A   1      44.336  28.698  35.398  1.00  0.00     0.058 A 
ATOM     39  C   UNL A   1      45.661  29.019  35.060  1.00  0.00     0.135 A 
ATOM     40  C   UNL A   1      44.127  27.602  36.250  1.00  0.00     0.135 A 
ATOM     41  F   UNL A   1      45.918  30.030  34.215  1.00  0.00    -0.206 F 
ATOM     42  C   UNL A   1      46.733  28.261  35.525  1.00  0.00     0.059 A 
ATOM     43  C   UNL A   1      45.185  26.846  36.746  1.00  0.00     0.059 A 
ATOM     44  F   UNL A   1      42.881  27.236  36.587  1.00  0.00    -0.206 F 
ATOM     45  C   UNL A   1      46.485  27.173  36.364  1.00  0.00     0.060 A 
BRANCH  45  46
ATOM     46  S   UNL A   1      47.883  26.187  36.943  1.00  0.00     0.124 S 
ATOM     47  O   UNL A   1      47.789  25.014  36.081  1.00  0.00    -0.237 OA
ATOM     48  O   UNL A   1      49.015  27.072  36.687  1.00  0.00    -0.237 OA
ATOM     49  O   UNL A   1      47.576  25.958  38.351  1.00  0.00    -0.744 OA
ENDBRANCH  45  46
ENDBRANCH  24  38
BRANCH  25  50
ATOM     50  C   UNL A   1      36.541  33.410  30.933  1.00  0.00     0.058 A 
ATOM     51  C   UNL A   1      35.232  33.311  31.426  1.00  0.00     0.135 A 
ATOM     52  C   UNL A   1      36.740  34.196  29.783  1.00  0.00     0.135 A 
ATOM     53  F   UNL A   1      34.981  32.571  32.516  1.00  0.00    -0.206 F 
ATOM     54  C   UNL A   1      34.163  33.950  30.801  1.00  0.00     0.059 A 
ATOM     55  C   UNL A   1      35.694  34.868  29.158  1.00  0.00     0.059 A 
ATOM     56  F   UNL A   1      37.972  34.335  29.267  1.00  0.00    -0.206 F 
ATOM     57  C   UNL A   1      34.406  34.727  29.665  1.00  0.00     0.060 A 
BRANCH  57  58
ATOM     58  S   UNL A   1      33.018  35.568  28.871  1.00  0.00     0.124 S 
ATOM     59  O   UNL A   1      32.439  34.491  28.076  1.00  0.00    -0.237 OA
ATOM     60  O   UNL A   1      32.229  36.011  30.016  1.00  0.00    -0.237 OA
ATOM     61  O   UNL A   1      33.661  36.636  28.112  1.00  0.00    -0.744 OA
ENDBRANCH  57  58
ENDBRANCH  25  50
BRANCH  37  62
ATOM     62  C   UNL A   1      39.954  34.227  36.976  1.00  0.00     0.058 A 
ATOM     63  C   UNL A   1      40.511  35.512  36.907  1.00  0.00     0.135 A 
ATOM     64  C   UNL A   1      39.167  33.901  38.092  1.00  0.00     0.135 A 
ATOM     65  F   UNL A   1      41.278  35.862  35.862  1.00  0.00    -0.206 F 
ATOM     66  C   UNL A   1      40.304  36.441  37.918  1.00  0.00     0.059 A 
ATOM     67  C   UNL A   1      38.923  34.824  39.098  1.00  0.00     0.059 A 
ATOM     68  F   UNL A   1      38.606  32.686  38.191  1.00  0.00    -0.206 F 
ATOM     69  C   UNL A   1      39.503  36.089  39.006  1.00  0.00     0.060 A 
BRANCH  69  70
ATOM     70  S   UNL A   1      39.193  37.323  40.283  1.00  0.00     0.124 S 
ATOM     71  O   UNL A   1      38.572  36.515  41.327  1.00  0.00    -0.237 OA
ATOM     72  O   UNL A   1      40.537  37.813  40.574  1.00  0.00    -0.237 OA
ATOM     73  O   UNL A   1      38.313  38.282  39.622  1.00  0.00    -0.744 OA
ENDBRANCH  69  70
ENDBRANCH  37  62
ENDBRANCH  11  12
ENDBRANCH   4   6
ENDBRANCH   3   4
ENDBRANCH   2   3
ENDBRANCH   1   2
BRANCH   1  74
ATOM     74  O   UNL A   1      36.758  21.742  25.911  1.00  0.00    -0.374 OA
BRANCH  74  75
ATOM     75  C   UNL A   1      35.957  22.804  26.419  1.00  0.00     0.202 C 
BRANCH  75  76
ATOM     76  C   UNL A   1      35.770  23.815  25.302  1.00  0.00     0.261 C 
BRANCH  76  77
ATOM     77  O   UNL A   1      34.650  23.387  24.522  1.00  0.00    -0.462 OA
BRANCH  77  78
ATOM     78  C   UNL A   1      34.803  23.362  23.164  1.00  0.00     0.329 C 
ATOM     79  O   UNL A   1      35.862  23.244  22.556  1.00  0.00    -0.250 OA
BRANCH  78  80
ATOM     80  C   UNL A   1      33.441  23.434  22.458  1.00  0.00     0.206 C 
ATOM     81  C   UNL A   1      32.709  22.101  22.565  1.00  0.00     0.108 C 
ATOM     82  N   UNL A   1      32.600  24.518  22.985  1.00  0.00    -0.315 N 
ATOM     83  S   UNL A   1      31.396  22.343  23.791  1.00  0.00    -0.138 SA
ATOM     84  C   UNL A   1      31.317  24.119  23.509  1.00  0.00     0.191 C 
BRANCH  82  85
ATOM     85  C   UNL A   1      33.112  25.799  22.824  1.00  0.00     0.257 C 
ATOM     86  O   UNL A   1      33.766  26.095  21.823  1.00  0.00    -0.269 OA
BRANCH  85  87
ATOM     87  C   UNL A   1      32.960  26.823  23.870  1.00  0.00     0.066 A 
ATOM     88  C   UNL A   1      33.952  27.002  24.847  1.00  0.00     0.016 A 
ATOM     89  C   UNL A   1      31.894  27.714  23.718  1.00  0.00     0.083 A 
ATOM     90  C   UNL A   1      33.837  28.046  25.758  1.00  0.00     0.002 A 
ATOM     91  C   UNL A   1      31.829  28.803  24.606  1.00  0.00     0.001 A 
ATOM     92  N   UNL A   1      30.974  27.560  22.738  1.00  0.00    -0.255 NA
ATOM     93  C   UNL A   1      32.776  28.941  25.640  1.00  0.00     0.010 A 
ATOM     94  C   UNL A   1      30.819  29.756  24.402  1.00  0.00     0.012 A 
ATOM     95  C   UNL A   1      30.060  28.520  22.526  1.00  0.00     0.112 A 
ATOM     96  C   UNL A   1      29.942  29.630  23.330  1.00  0.00     0.021 A 
ENDBRANCH  85  87
ENDBRANCH  82  85
ENDBRANCH  78  80
ENDBRANCH  77  78
ENDBRANCH  76  77
ENDBRANCH  75  76
ENDBRANCH  74  75
ENDBRANCH   1  74
TORSDOF 19
ENDMDL
