MODEL 1
REMARK VINA RESULT:     -10.5      0.000      0.000
REMARK SMILES O=C(Cc1ccccc1C(=O)OCCOCCOC(=O)c1ccc(-c2c3nc(c(-c4c(F)cc(S(=O)(=O)[O-])cc4F)c4ccc([nH]4)c(-c4c(F)cc(S(=O)(=O)[O-])cc4F)c4nc(c(-c5c(F)cc(S(=O)(=O)[O-])cc5F)c5ccc2[nH]5)C=C4)C=C3)cc1)Nc1cccc(OC[C@@H]2CCCO2)c1
REMARK SMILES IDX 13 1 12 2 10 3 11 4 9 5 4 6 5 7 6 8 8 9 7 10 3 11 2 12 1 13
REMARK SMILES IDX 87 14 88 16 89 17 100 18 90 19 92 20 91 21 93 22 94 23 95 24
REMARK SMILES IDX 96 25 99 26 97 27 98 28 14 29 15 30 16 31 17 32 18 33 19 34
REMARK SMILES IDX 20 35 21 36 22 37 86 38 23 39 85 40 24 41 25 42 26 43 79 44
REMARK SMILES IDX 27 45 84 46 78 47 80 48 28 49 83 50 77 51 76 52 29 54 63 55
REMARK SMILES IDX 42 56 62 57 43 58 46 59 61 60 81 61 44 62 45 63 60 65 82 66
REMARK SMILES IDX 47 67 30 68 31 69 40 70 32 71 33 72 39 73 41 74 34 75 35 76
REMARK SMILES IDX 36 77 37 78 38 79 64 80 65 81 74 82 66 83 67 84 73 85 75 86
REMARK SMILES IDX 68 87 69 88 70 89 71 90 72 91 48 92 49 93 58 94 50 95 51 96
REMARK SMILES IDX 57 97 59 98 52 99 53 100 54 101 55 102 56 103
REMARK H PARENT 87 15 80 53 46 64
REMARK Flexibility Score: inf
ROOT
ATOM      1  C   UNL A   1      33.486  34.586  29.462  1.00  0.00     0.261 C 
ENDROOT
BRANCH   1   2
ATOM      2  O   UNL A   1      34.237  33.748  28.572  1.00  0.00    -0.460 OA
BRANCH   2   3
ATOM      3  C   UNL A   1      33.524  32.860  27.843  1.00  0.00     0.338 C 
ATOM      4  O   UNL A   1      32.468  33.076  27.270  1.00  0.00    -0.246 OA
BRANCH   3   5
ATOM      5  C   UNL A   1      34.283  31.586  27.673  1.00  0.00     0.063 A 
ATOM      6  C   UNL A   1      33.715  30.330  27.367  1.00  0.00    -0.024 A 
ATOM      7  C   UNL A   1      34.577  29.216  27.277  1.00  0.00     0.005 A 
ATOM      8  C   UNL A   1      35.956  29.347  27.448  1.00  0.00     0.000 A 
ATOM      9  C   UNL A   1      35.671  31.697  27.868  1.00  0.00     0.016 A 
ATOM     10  C   UNL A   1      36.504  30.585  27.753  1.00  0.00     0.001 A 
BRANCH   6  11
ATOM     11  C   UNL A   1      32.220  30.143  27.206  1.00  0.00     0.136 C 
BRANCH  11  12
ATOM     12  C   UNL A   1      31.765  28.740  26.876  1.00  0.00     0.228 C 
ATOM     13  O   UNL A   1      31.379  27.981  27.762  1.00  0.00    -0.274 OA
ATOM     14  N   UNL A   1      31.847  28.434  25.525  1.00  0.00    -0.326 N 
ATOM     15  H   UNL A   1      32.312  29.068  24.932  1.00  0.00     0.169 HD
BRANCH  14  16
ATOM     16  C   UNL A   1      31.304  27.269  24.956  1.00  0.00     0.044 A 
ATOM     17  C   UNL A   1      30.017  27.312  24.425  1.00  0.00     0.026 A 
ATOM     18  C   UNL A   1      32.041  26.086  24.904  1.00  0.00     0.072 A 
ATOM     19  C   UNL A   1      29.513  26.196  23.754  1.00  0.00     0.006 A 
ATOM     20  C   UNL A   1      31.568  24.986  24.200  1.00  0.00     0.121 A 
ATOM     21  C   UNL A   1      30.295  25.045  23.631  1.00  0.00     0.046 A 
BRANCH  20  22
ATOM     22  O   UNL A   1      32.270  23.841  23.956  1.00  0.00    -0.491 OA
BRANCH  22  23
ATOM     23  C   UNL A   1      33.335  23.866  22.995  1.00  0.00     0.261 C 
BRANCH  23  24
ATOM     24  C   UNL A   1      34.423  22.793  23.184  1.00  0.00     0.156 C 
ATOM     25  C   UNL A   1      34.720  22.381  24.615  1.00  0.00     0.038 C 
ATOM     26  O   UNL A   1      35.682  23.236  22.635  1.00  0.00    -0.375 OA
ATOM     27  C   UNL A   1      36.102  21.796  24.475  1.00  0.00     0.031 C 
ATOM     28  C   UNL A   1      36.736  22.722  23.461  1.00  0.00     0.161 C 
ENDBRANCH  23  24
ENDBRANCH  22  23
ENDBRANCH  20  22
ENDBRANCH  14  16
ENDBRANCH  11  12
ENDBRANCH   6  11
ENDBRANCH   3   5
ENDBRANCH   2   3
ENDBRANCH   1   2
BRANCH   1  29
ATOM     29  C   UNL A   1      34.012  34.456  30.894  1.00  0.00     0.202 C 
BRANCH  29  30
ATOM     30  O   UNL A   1      33.962  33.152  31.476  1.00  0.00    -0.374 OA
BRANCH  30  31
ATOM     31  C   UNL A   1      35.176  32.619  32.007  1.00  0.00     0.202 C 
BRANCH  31  32
ATOM     32  C   UNL A   1      36.136  31.926  31.031  1.00  0.00     0.261 C 
BRANCH  32  33
ATOM     33  O   UNL A   1      36.519  30.606  31.454  1.00  0.00    -0.460 OA
BRANCH  33  34
ATOM     34  C   UNL A   1      37.515  30.569  32.373  1.00  0.00     0.338 C 
ATOM     35  O   UNL A   1      37.396  30.532  33.590  1.00  0.00    -0.246 OA
BRANCH  34  36
ATOM     36  C   UNL A   1      38.809  30.390  31.693  1.00  0.00     0.060 A 
ATOM     37  C   UNL A   1      38.879  30.681  30.324  1.00  0.00     0.016 A 
ATOM     38  C   UNL A   1      39.922  29.894  32.373  1.00  0.00     0.016 A 
ATOM     39  C   UNL A   1      40.066  30.465  29.625  1.00  0.00     0.010 A 
ATOM     40  C   UNL A   1      41.108  29.667  31.667  1.00  0.00     0.010 A 
ATOM     41  C   UNL A   1      41.181  29.935  30.287  1.00  0.00    -0.014 A 
BRANCH  41  42
ATOM     42  C   UNL A   1      42.409  29.593  29.531  1.00  0.00     0.031 A 
ATOM     43  C   UNL A   1      42.578  28.205  28.982  1.00  0.00     0.074 A 
ATOM     44  C   UNL A   1      43.372  30.516  29.354  1.00  0.00     0.049 A 
ATOM     45  N   UNL A   1      43.606  27.674  28.373  1.00  0.00    -0.248 NA
ATOM     46  C   UNL A   1      41.434  27.294  29.141  1.00  0.00     0.031 C 
ATOM     47  C   UNL A   1      43.298  31.905  29.803  1.00  0.00     0.029 A 
ATOM     48  N   UNL A   1      44.605  30.417  28.762  1.00  0.00    -0.354 N 
ATOM     49  C   UNL A   1      43.241  26.365  28.083  1.00  0.00     0.074 A 
ATOM     50  C   UNL A   1      41.904  26.176  28.607  1.00  0.00     0.031 C 
ATOM     51  C   UNL A   1      44.446  32.527  29.484  1.00  0.00     0.029 A 
ATOM     52  C   UNL A   1      45.349  31.569  28.849  1.00  0.00     0.049 A 
ATOM     53  H   UNL A   1      44.926  29.599  28.317  1.00  0.00     0.167 HD
ATOM     54  C   UNL A   1      43.954  25.413  27.436  1.00  0.00     0.037 A 
ATOM     55  C   UNL A   1      46.625  31.812  28.490  1.00  0.00     0.037 A 
ATOM     56  C   UNL A   1      45.290  25.610  26.934  1.00  0.00     0.049 A 
ATOM     57  C   UNL A   1      47.437  30.708  27.865  1.00  0.00     0.074 A 
ATOM     58  C   UNL A   1      46.093  24.716  26.247  1.00  0.00     0.029 A 
ATOM     59  N   UNL A   1      46.030  26.776  27.084  1.00  0.00    -0.354 N 
ATOM     60  N   UNL A   1      47.072  29.484  27.565  1.00  0.00    -0.248 NA
ATOM     61  C   UNL A   1      48.835  31.016  27.534  1.00  0.00     0.031 C 
ATOM     62  C   UNL A   1      47.338  25.320  26.034  1.00  0.00     0.029 A 
ATOM     63  C   UNL A   1      47.292  26.611  26.535  1.00  0.00     0.049 A 
ATOM     64  H   UNL A   1      45.706  27.598  27.516  1.00  0.00     0.167 HD
ATOM     65  C   UNL A   1      48.188  28.881  26.994  1.00  0.00     0.074 A 
ATOM     66  C   UNL A   1      49.236  29.881  26.977  1.00  0.00     0.031 C 
ATOM     67  C   UNL A   1      48.331  27.616  26.527  1.00  0.00     0.037 A 
BRANCH  54  68
ATOM     68  C   UNL A   1      43.314  24.061  27.267  1.00  0.00     0.058 A 
ATOM     69  C   UNL A   1      43.238  23.140  28.325  1.00  0.00     0.135 A 
ATOM     70  C   UNL A   1      42.759  23.683  26.034  1.00  0.00     0.135 A 
ATOM     71  F   UNL A   1      43.762  23.441  29.524  1.00  0.00    -0.206 F 
ATOM     72  C   UNL A   1      42.672  21.879  28.154  1.00  0.00     0.059 A 
ATOM     73  C   UNL A   1      42.162  22.440  25.848  1.00  0.00     0.059 A 
ATOM     74  F   UNL A   1      42.801  24.524  24.988  1.00  0.00    -0.206 F 
ATOM     75  C   UNL A   1      42.142  21.536  26.910  1.00  0.00     0.060 A 
BRANCH  75  76
ATOM     76  S   UNL A   1      41.436  19.888  26.697  1.00  0.00     0.124 S 
ATOM     77  O   UNL A   1      42.061  19.160  27.797  1.00  0.00    -0.237 OA
ATOM     78  O   UNL A   1      40.006  20.141  26.839  1.00  0.00    -0.237 OA
ATOM     79  O   UNL A   1      41.872  19.499  25.360  1.00  0.00    -0.744 OA
ENDBRANCH  75  76
ENDBRANCH  54  68
BRANCH  55  80
ATOM     80  C   UNL A   1      47.211  33.159  28.721  1.00  0.00     0.058 A 
ATOM     81  C   UNL A   1      47.855  33.464  29.928  1.00  0.00     0.135 A 
ATOM     82  C   UNL A   1      47.170  34.156  27.732  1.00  0.00     0.135 A 
ATOM     83  F   UNL A   1      47.909  32.549  30.909  1.00  0.00    -0.206 F 
ATOM     84  C   UNL A   1      48.438  34.707  30.149  1.00  0.00     0.059 A 
ATOM     85  C   UNL A   1      47.768  35.398  27.919  1.00  0.00     0.059 A 
ATOM     86  F   UNL A   1      46.575  33.912  26.554  1.00  0.00    -0.206 F 
ATOM     87  C   UNL A   1      48.399  35.665  29.134  1.00  0.00     0.060 A 
BRANCH  87  88
ATOM     88  S   UNL A   1      49.232  37.244  29.407  1.00  0.00     0.124 S 
ATOM     89  O   UNL A   1      48.684  38.057  28.328  1.00  0.00    -0.237 OA
ATOM     90  O   UNL A   1      48.792  37.590  30.755  1.00  0.00    -0.237 OA
ATOM     91  O   UNL A   1      50.647  36.903  29.286  1.00  0.00    -0.744 OA
ENDBRANCH  87  88
ENDBRANCH  55  80
BRANCH  67  92
ATOM     92  C   UNL A   1      49.663  27.235  25.938  1.00  0.00     0.058 A 
ATOM     93  C   UNL A   1      50.689  26.691  26.726  1.00  0.00     0.135 A 
ATOM     94  C   UNL A   1      49.890  27.347  24.556  1.00  0.00     0.135 A 
ATOM     95  F   UNL A   1      50.529  26.571  28.053  1.00  0.00    -0.206 F 
ATOM     96  C   UNL A   1      51.896  26.281  26.168  1.00  0.00     0.059 A 
ATOM     97  C   UNL A   1      51.078  26.917  23.973  1.00  0.00     0.059 A 
ATOM     98  F   UNL A   1      48.941  27.855  23.754  1.00  0.00    -0.206 F 
ATOM     99  C   UNL A   1      52.079  26.391  24.788  1.00  0.00     0.060 A 
BRANCH  99 100
ATOM    100  S   UNL A   1      53.627  25.800  24.071  1.00  0.00     0.124 S 
ATOM    101  O   UNL A   1      54.603  26.673  24.717  1.00  0.00    -0.237 OA
ATOM    102  O   UNL A   1      53.652  24.402  24.491  1.00  0.00    -0.237 OA
ATOM    103  O   UNL A   1      53.445  26.014  22.639  1.00  0.00    -0.744 OA
ENDBRANCH  99 100
ENDBRANCH  67  92
ENDBRANCH  41  42
ENDBRANCH  34  36
ENDBRANCH  33  34
ENDBRANCH  32  33
ENDBRANCH  31  32
ENDBRANCH  30  31
ENDBRANCH  29  30
ENDBRANCH   1  29
TORSDOF 23
ENDMDL
MODEL 2
REMARK VINA RESULT:      -9.7      2.094      3.314
REMARK SMILES O=C(Cc1ccccc1C(=O)OCCOCCOC(=O)c1ccc(-c2c3nc(c(-c4c(F)cc(S(=O)(=O)[O-])cc4F)c4ccc([nH]4)c(-c4c(F)cc(S(=O)(=O)[O-])cc4F)c4nc(c(-c5c(F)cc(S(=O)(=O)[O-])cc5F)c5ccc2[nH]5)C=C4)C=C3)cc1)Nc1cccc(OC[C@@H]2CCCO2)c1
REMARK SMILES IDX 13 1 12 2 10 3 11 4 9 5 4 6 5 7 6 8 8 9 7 10 3 11 2 12 1 13
REMARK SMILES IDX 87 14 88 16 89 17 100 18 90 19 92 20 91 21 93 22 94 23 95 24
REMARK SMILES IDX 96 25 99 26 97 27 98 28 14 29 15 30 16 31 17 32 18 33 19 34
REMARK SMILES IDX 20 35 21 36 22 37 86 38 23 39 85 40 24 41 25 42 26 43 79 44
REMARK SMILES IDX 27 45 84 46 78 47 80 48 28 49 83 50 77 51 76 52 29 54 63 55
REMARK SMILES IDX 42 56 62 57 43 58 46 59 61 60 81 61 44 62 45 63 60 65 82 66
REMARK SMILES IDX 47 67 30 68 31 69 40 70 32 71 33 72 39 73 41 74 34 75 35 76
REMARK SMILES IDX 36 77 37 78 38 79 64 80 65 81 74 82 66 83 67 84 73 85 75 86
REMARK SMILES IDX 68 87 69 88 70 89 71 90 72 91 48 92 49 93 58 94 50 95 51 96
REMARK SMILES IDX 57 97 59 98 52 99 53 100 54 101 55 102 56 103
REMARK H PARENT 87 15 80 53 46 64
REMARK Flexibility Score: inf
ROOT
ATOM      1  C   UNL A   1      35.080  32.254  31.617  1.00  0.00     0.261 C 
ENDROOT
BRANCH   1   2
ATOM      2  O   UNL A   1      35.986  31.148  31.727  1.00  0.00    -0.460 OA
BRANCH   2   3
ATOM      3  C   UNL A   1      37.168  31.276  31.081  1.00  0.00     0.338 C 
ATOM      4  O   UNL A   1      37.788  32.313  30.907  1.00  0.00    -0.246 OA
BRANCH   3   5
ATOM      5  C   UNL A   1      37.731  29.937  30.739  1.00  0.00     0.063 A 
ATOM      6  C   UNL A   1      38.014  29.478  29.434  1.00  0.00    -0.024 A 
ATOM      7  C   UNL A   1      38.513  28.166  29.286  1.00  0.00     0.005 A 
ATOM      8  C   UNL A   1      38.755  27.350  30.392  1.00  0.00     0.000 A 
ATOM      9  C   UNL A   1      37.957  29.094  31.842  1.00  0.00     0.016 A 
ATOM     10  C   UNL A   1      38.469  27.809  31.671  1.00  0.00     0.001 A 
BRANCH   6  11
ATOM     11  C   UNL A   1      37.735  30.322  28.207  1.00  0.00     0.136 C 
BRANCH  11  12
ATOM     12  C   UNL A   1      36.277  30.516  27.861  1.00  0.00     0.228 C 
ATOM     13  O   UNL A   1      35.766  31.633  27.894  1.00  0.00    -0.274 OA
ATOM     14  N   UNL A   1      35.624  29.335  27.533  1.00  0.00    -0.326 N 
ATOM     15  H   UNL A   1      36.095  28.485  27.687  1.00  0.00     0.169 HD
BRANCH  14  16
ATOM     16  C   UNL A   1      34.327  29.287  26.994  1.00  0.00     0.044 A 
ATOM     17  C   UNL A   1      33.416  30.287  27.331  1.00  0.00     0.026 A 
ATOM     18  C   UNL A   1      33.950  28.267  26.120  1.00  0.00     0.072 A 
ATOM     19  C   UNL A   1      32.166  30.314  26.712  1.00  0.00     0.006 A 
ATOM     20  C   UNL A   1      32.727  28.311  25.464  1.00  0.00     0.121 A 
ATOM     21  C   UNL A   1      31.832  29.337  25.770  1.00  0.00     0.046 A 
BRANCH  20  22
ATOM     22  O   UNL A   1      32.326  27.455  24.480  1.00  0.00    -0.491 OA
BRANCH  22  23
ATOM     23  C   UNL A   1      33.089  26.264  24.235  1.00  0.00     0.261 C 
BRANCH  23  24
ATOM     24  C   UNL A   1      32.649  25.020  25.028  1.00  0.00     0.156 C 
ATOM     25  C   UNL A   1      33.610  24.530  26.098  1.00  0.00     0.038 C 
ATOM     26  O   UNL A   1      32.438  23.897  24.147  1.00  0.00    -0.375 OA
ATOM     27  C   UNL A   1      33.168  23.098  26.261  1.00  0.00     0.031 C 
ATOM     28  C   UNL A   1      32.839  22.705  24.837  1.00  0.00     0.161 C 
ENDBRANCH  23  24
ENDBRANCH  22  23
ENDBRANCH  20  22
ENDBRANCH  14  16
ENDBRANCH  11  12
ENDBRANCH   6  11
ENDBRANCH   3   5
ENDBRANCH   2   3
ENDBRANCH   1   2
BRANCH   1  29
ATOM     29  C   UNL A   1      35.085  33.083  32.905  1.00  0.00     0.202 C 
BRANCH  29  30
ATOM     30  O   UNL A   1      35.864  32.572  33.988  1.00  0.00    -0.374 OA
BRANCH  30  31
ATOM     31  C   UNL A   1      36.855  33.432  34.552  1.00  0.00     0.202 C 
BRANCH  31  32
ATOM     32  C   UNL A   1      37.806  32.833  35.596  1.00  0.00     0.261 C 
BRANCH  32  33
ATOM     33  O   UNL A   1      39.066  32.416  35.042  1.00  0.00    -0.460 OA
BRANCH  33  34
ATOM     34  C   UNL A   1      39.180  31.082  34.828  1.00  0.00     0.338 C 
ATOM     35  O   UNL A   1      38.357  30.217  35.096  1.00  0.00    -0.246 OA
BRANCH  34  36
ATOM     36  C   UNL A   1      40.392  30.810  34.035  1.00  0.00     0.060 A 
ATOM     37  C   UNL A   1      40.503  31.413  32.776  1.00  0.00     0.016 A 
ATOM     38  C   UNL A   1      41.378  29.938  34.496  1.00  0.00     0.016 A 
ATOM     39  C   UNL A   1      41.601  31.134  31.963  1.00  0.00     0.010 A 
ATOM     40  C   UNL A   1      42.473  29.650  33.674  1.00  0.00     0.010 A 
ATOM     41  C   UNL A   1      42.581  30.233  32.398  1.00  0.00    -0.014 A 
BRANCH  41  42
ATOM     42  C   UNL A   1      43.691  29.840  31.498  1.00  0.00     0.031 A 
ATOM     43  C   UNL A   1      43.563  28.599  30.663  1.00  0.00     0.074 A 
ATOM     44  C   UNL A   1      44.811  30.583  31.443  1.00  0.00     0.049 A 
ATOM     45  N   UNL A   1      44.444  28.030  29.881  1.00  0.00    -0.248 NA
ATOM     46  C   UNL A   1      42.266  27.905  30.715  1.00  0.00     0.031 C 
ATOM     47  C   UNL A   1      45.030  31.830  32.174  1.00  0.00     0.029 A 
ATOM     48  N   UNL A   1      45.980  30.386  30.753  1.00  0.00    -0.354 N 
ATOM     49  C   UNL A   1      43.817  26.907  29.355  1.00  0.00     0.074 A 
ATOM     50  C   UNL A   1      42.487  26.862  29.928  1.00  0.00     0.031 C 
ATOM     51  C   UNL A   1      46.267  32.280  31.905  1.00  0.00     0.029 A 
ATOM     52  C   UNL A   1      46.941  31.332  31.020  1.00  0.00     0.049 A 
ATOM     53  H   UNL A   1      46.117  29.640  30.125  1.00  0.00     0.167 HD
ATOM     54  C   UNL A   1      44.304  26.002  28.473  1.00  0.00     0.037 A 
ATOM     55  C   UNL A   1      48.226  31.404  30.624  1.00  0.00     0.037 A 
ATOM     56  C   UNL A   1      45.636  26.051  27.924  1.00  0.00     0.049 A 
ATOM     57  C   UNL A   1      48.782  30.331  29.725  1.00  0.00     0.074 A 
ATOM     58  C   UNL A   1      46.221  25.194  27.009  1.00  0.00     0.029 A 
ATOM     59  N   UNL A   1      46.597  26.997  28.256  1.00  0.00    -0.354 N 
ATOM     60  N   UNL A   1      48.171  29.291  29.207  1.00  0.00    -0.248 NA
ATOM     61  C   UNL A   1      50.201  30.437  29.361  1.00  0.00     0.031 C 
ATOM     62  C   UNL A   1      47.553  25.586  26.833  1.00  0.00     0.029 A 
ATOM     63  C   UNL A   1      47.782  26.723  27.592  1.00  0.00     0.049 A 
ATOM     64  H   UNL A   1      46.457  27.751  28.872  1.00  0.00     0.167 HD
ATOM     65  C   UNL A   1      49.126  28.630  28.441  1.00  0.00     0.074 A 
ATOM     66  C   UNL A   1      50.350  29.395  28.553  1.00  0.00     0.031 C 
ATOM     67  C   UNL A   1      48.999  27.492  27.713  1.00  0.00     0.037 A 
BRANCH  54  68
ATOM     68  C   UNL A   1      43.403  24.863  28.078  1.00  0.00     0.058 A 
ATOM     69  C   UNL A   1      43.324  23.683  28.836  1.00  0.00     0.135 A 
ATOM     70  C   UNL A   1      42.599  24.955  26.930  1.00  0.00     0.135 A 
ATOM     71  F   UNL A   1      44.077  23.533  29.937  1.00  0.00    -0.206 F 
ATOM     72  C   UNL A   1      42.511  22.621  28.447  1.00  0.00     0.059 A 
ATOM     73  C   UNL A   1      41.757  23.918  26.539  1.00  0.00     0.059 A 
ATOM     74  F   UNL A   1      42.633  26.061  26.168  1.00  0.00    -0.206 F 
ATOM     75  C   UNL A   1      41.736  22.746  27.294  1.00  0.00     0.060 A 
BRANCH  75  76
ATOM     76  S   UNL A   1      40.708  21.351  26.789  1.00  0.00     0.124 S 
ATOM     77  O   UNL A   1      39.451  22.019  26.466  1.00  0.00    -0.237 OA
ATOM     78  O   UNL A   1      41.448  20.814  25.651  1.00  0.00    -0.237 OA
ATOM     79  O   UNL A   1      40.679  20.500  27.973  1.00  0.00    -0.744 OA
ENDBRANCH  75  76
ENDBRANCH  54  68
BRANCH  55  80
ATOM     80  C   UNL A   1      49.075  32.535  31.083  1.00  0.00     0.058 A 
ATOM     81  C   UNL A   1      49.171  33.713  30.330  1.00  0.00     0.135 A 
ATOM     82  C   UNL A   1      49.781  32.477  32.297  1.00  0.00     0.135 A 
ATOM     83  F   UNL A   1      48.526  33.814  29.157  1.00  0.00    -0.206 F 
ATOM     84  C   UNL A   1      49.933  34.794  30.760  1.00  0.00     0.059 A 
ATOM     85  C   UNL A   1      50.529  33.554  32.761  1.00  0.00     0.059 A 
ATOM     86  F   UNL A   1      49.715  31.376  33.062  1.00  0.00    -0.206 F 
ATOM     87  C   UNL A   1      50.601  34.709  31.983  1.00  0.00     0.060 A 
BRANCH  87  88
ATOM     88  S   UNL A   1      51.519  36.151  32.566  1.00  0.00     0.124 S 
ATOM     89  O   UNL A   1      50.472  37.165  32.620  1.00  0.00    -0.237 OA
ATOM     90  O   UNL A   1      52.028  35.688  33.852  1.00  0.00    -0.237 OA
ATOM     91  O   UNL A   1      52.533  36.345  31.533  1.00  0.00    -0.744 OA
ENDBRANCH  87  88
ENDBRANCH  55  80
BRANCH  67  92
ATOM     92  C   UNL A   1      50.208  27.007  26.960  1.00  0.00     0.058 A 
ATOM     93  C   UNL A   1      51.116  26.100  27.528  1.00  0.00     0.135 A 
ATOM     94  C   UNL A   1      50.423  27.397  25.627  1.00  0.00     0.135 A 
ATOM     95  F   UNL A   1      50.965  25.702  28.802  1.00  0.00    -0.206 F 
ATOM     96  C   UNL A   1      52.198  25.604  26.807  1.00  0.00     0.059 A 
ATOM     97  C   UNL A   1      51.481  26.892  24.878  1.00  0.00     0.059 A 
ATOM     98  F   UNL A   1      49.582  28.257  25.031  1.00  0.00    -0.206 F 
ATOM     99  C   UNL A   1      52.367  26.000  25.479  1.00  0.00     0.060 A 
BRANCH  99 100
ATOM    100  S   UNL A   1      53.742  25.302  24.539  1.00  0.00     0.124 S 
ATOM    101  O   UNL A   1      53.594  23.877  24.812  1.00  0.00    -0.237 OA
ATOM    102  O   UNL A   1      53.431  25.721  23.175  1.00  0.00    -0.237 OA
ATOM    103  O   UNL A   1      54.917  25.936  25.129  1.00  0.00    -0.744 OA
ENDBRANCH  99 100
ENDBRANCH  67  92
ENDBRANCH  41  42
ENDBRANCH  34  36
ENDBRANCH  33  34
ENDBRANCH  32  33
ENDBRANCH  31  32
ENDBRANCH  30  31
ENDBRANCH  29  30
ENDBRANCH   1  29
TORSDOF 23
ENDMDL
MODEL 3
REMARK VINA RESULT:      -9.4      4.464      6.722
REMARK SMILES O=C(Cc1ccccc1C(=O)OCCOCCOC(=O)c1ccc(-c2c3nc(c(-c4c(F)cc(S(=O)(=O)[O-])cc4F)c4ccc([nH]4)c(-c4c(F)cc(S(=O)(=O)[O-])cc4F)c4nc(c(-c5c(F)cc(S(=O)(=O)[O-])cc5F)c5ccc2[nH]5)C=C4)C=C3)cc1)Nc1cccc(OC[C@@H]2CCCO2)c1
REMARK SMILES IDX 13 1 12 2 10 3 11 4 9 5 4 6 5 7 6 8 8 9 7 10 3 11 2 12 1 13
REMARK SMILES IDX 87 14 88 16 89 17 100 18 90 19 92 20 91 21 93 22 94 23 95 24
REMARK SMILES IDX 96 25 99 26 97 27 98 28 14 29 15 30 16 31 17 32 18 33 19 34
REMARK SMILES IDX 20 35 21 36 22 37 86 38 23 39 85 40 24 41 25 42 26 43 79 44
REMARK SMILES IDX 27 45 84 46 78 47 80 48 28 49 83 50 77 51 76 52 29 54 63 55
REMARK SMILES IDX 42 56 62 57 43 58 46 59 61 60 81 61 44 62 45 63 60 65 82 66
REMARK SMILES IDX 47 67 30 68 31 69 40 70 32 71 33 72 39 73 41 74 34 75 35 76
REMARK SMILES IDX 36 77 37 78 38 79 64 80 65 81 74 82 66 83 67 84 73 85 75 86
REMARK SMILES IDX 68 87 69 88 70 89 71 90 72 91 48 92 49 93 58 94 50 95 51 96
REMARK SMILES IDX 57 97 59 98 52 99 53 100 54 101 55 102 56 103
REMARK H PARENT 87 15 80 53 46 64
REMARK Flexibility Score: inf
ROOT
ATOM      1  C   UNL A   1      35.795  32.531  28.451  1.00  0.00     0.261 C 
ENDROOT
BRANCH   1   2
ATOM      2  O   UNL A   1      36.890  31.633  28.679  1.00  0.00    -0.460 OA
BRANCH   2   3
ATOM      3  C   UNL A   1      36.650  30.325  28.435  1.00  0.00     0.338 C 
ATOM      4  O   UNL A   1      35.901  29.872  27.583  1.00  0.00    -0.246 OA
BRANCH   3   5
ATOM      5  C   UNL A   1      37.563  29.461  29.241  1.00  0.00     0.063 A 
ATOM      6  C   UNL A   1      38.832  29.000  28.825  1.00  0.00    -0.024 A 
ATOM      7  C   UNL A   1      39.551  28.159  29.700  1.00  0.00     0.005 A 
ATOM      8  C   UNL A   1      39.048  27.814  30.956  1.00  0.00     0.000 A 
ATOM      9  C   UNL A   1      37.059  29.084  30.498  1.00  0.00     0.016 A 
ATOM     10  C   UNL A   1      37.798  28.268  31.353  1.00  0.00     0.001 A 
BRANCH   6  11
ATOM     11  C   UNL A   1      39.396  29.327  27.458  1.00  0.00     0.136 C 
BRANCH  11  12
ATOM     12  C   UNL A   1      40.785  28.802  27.177  1.00  0.00     0.228 C 
ATOM     13  O   UNL A   1      41.735  29.130  27.884  1.00  0.00    -0.274 OA
ATOM     14  N   UNL A   1      40.848  27.962  26.074  1.00  0.00    -0.326 N 
ATOM     15  H   UNL A   1      40.053  27.893  25.496  1.00  0.00     0.169 HD
BRANCH  14  16
ATOM     16  C   UNL A   1      41.982  27.206  25.734  1.00  0.00     0.044 A 
ATOM     17  C   UNL A   1      43.221  27.841  25.656  1.00  0.00     0.026 A 
ATOM     18  C   UNL A   1      41.885  25.835  25.493  1.00  0.00     0.072 A 
ATOM     19  C   UNL A   1      44.370  27.081  25.436  1.00  0.00     0.006 A 
ATOM     20  C   UNL A   1      43.027  25.063  25.319  1.00  0.00     0.121 A 
ATOM     21  C   UNL A   1      44.271  25.695  25.284  1.00  0.00     0.046 A 
BRANCH  20  22
ATOM     22  O   UNL A   1      43.055  23.702  25.232  1.00  0.00    -0.491 OA
BRANCH  22  23
ATOM     23  C   UNL A   1      42.674  22.921  26.374  1.00  0.00     0.261 C 
BRANCH  23  24
ATOM     24  C   UNL A   1      42.169  21.499  26.066  1.00  0.00     0.156 C 
ATOM     25  C   UNL A   1      41.924  20.599  27.265  1.00  0.00     0.038 C 
ATOM     26  O   UNL A   1      43.108  20.790  25.230  1.00  0.00    -0.375 OA
ATOM     27  C   UNL A   1      41.986  19.233  26.628  1.00  0.00     0.031 C 
ATOM     28  C   UNL A   1      43.095  19.409  25.613  1.00  0.00     0.161 C 
ENDBRANCH  23  24
ENDBRANCH  22  23
ENDBRANCH  20  22
ENDBRANCH  14  16
ENDBRANCH  11  12
ENDBRANCH   6  11
ENDBRANCH   3   5
ENDBRANCH   2   3
ENDBRANCH   1   2
BRANCH   1  29
ATOM     29  C   UNL A   1      34.921  32.642  29.703  1.00  0.00     0.202 C 
BRANCH  29  30
ATOM     30  O   UNL A   1      35.232  33.705  30.606  1.00  0.00    -0.374 OA
BRANCH  30  31
ATOM     31  C   UNL A   1      34.167  34.232  31.397  1.00  0.00     0.202 C 
BRANCH  31  32
ATOM     32  C   UNL A   1      34.050  33.747  32.848  1.00  0.00     0.261 C 
BRANCH  32  33
ATOM     33  O   UNL A   1      34.986  32.706  33.175  1.00  0.00    -0.460 OA
BRANCH  33  34
ATOM     34  C   UNL A   1      35.957  33.066  34.049  1.00  0.00     0.338 C 
ATOM     35  O   UNL A   1      35.810  33.436  35.206  1.00  0.00    -0.246 OA
BRANCH  34  36
ATOM     36  C   UNL A   1      37.279  32.773  33.469  1.00  0.00     0.060 A 
ATOM     37  C   UNL A   1      38.413  33.222  34.157  1.00  0.00     0.016 A 
ATOM     38  C   UNL A   1      37.403  32.116  32.244  1.00  0.00     0.016 A 
ATOM     39  C   UNL A   1      39.682  33.025  33.613  1.00  0.00     0.010 A 
ATOM     40  C   UNL A   1      38.675  31.930  31.695  1.00  0.00     0.010 A 
ATOM     41  C   UNL A   1      39.819  32.397  32.368  1.00  0.00    -0.014 A 
BRANCH  41  42
ATOM     42  C   UNL A   1      41.151  32.287  31.727  1.00  0.00     0.031 A 
ATOM     43  C   UNL A   1      41.988  31.063  31.966  1.00  0.00     0.074 A 
ATOM     44  C   UNL A   1      41.613  33.285  30.952  1.00  0.00     0.049 A 
ATOM     45  N   UNL A   1      43.210  30.805  31.577  1.00  0.00    -0.248 NA
ATOM     46  C   UNL A   1      41.363  29.984  32.747  1.00  0.00     0.031 C 
ATOM     47  C   UNL A   1      40.872  34.499  30.615  1.00  0.00     0.029 A 
ATOM     48  N   UNL A   1      42.821  33.440  30.322  1.00  0.00    -0.354 N 
ATOM     49  C   UNL A   1      43.507  29.541  32.072  1.00  0.00     0.074 A 
ATOM     50  C   UNL A   1      42.344  29.095  32.812  1.00  0.00     0.031 C 
ATOM     51  C   UNL A   1      41.649  35.284  29.850  1.00  0.00     0.029 A 
ATOM     52  C   UNL A   1      42.954  34.648  29.681  1.00  0.00     0.049 A 
ATOM     53  H   UNL A   1      43.525  32.751  30.327  1.00  0.00     0.167 HD
ATOM     54  C   UNL A   1      44.643  28.819  31.919  1.00  0.00     0.037 A 
ATOM     55  C   UNL A   1      44.019  35.193  29.062  1.00  0.00     0.037 A 
ATOM     56  C   UNL A   1      45.799  29.282  31.195  1.00  0.00     0.049 A 
ATOM     57  C   UNL A   1      45.308  34.417  28.991  1.00  0.00     0.074 A 
ATOM     58  C   UNL A   1      46.993  28.621  30.964  1.00  0.00     0.029 A 
ATOM     59  N   UNL A   1      45.915  30.532  30.600  1.00  0.00    -0.354 N 
ATOM     60  N   UNL A   1      45.569  33.209  29.434  1.00  0.00    -0.248 NA
ATOM     61  C   UNL A   1      46.449  35.078  28.343  1.00  0.00     0.031 C 
ATOM     62  C   UNL A   1      47.851  29.492  30.283  1.00  0.00     0.029 A 
ATOM     63  C   UNL A   1      47.173  30.675  30.036  1.00  0.00     0.049 A 
ATOM     64  H   UNL A   1      45.207  31.216  30.583  1.00  0.00     0.167 HD
ATOM     65  C   UNL A   1      46.896  32.958  29.101  1.00  0.00     0.074 A 
ATOM     66  C   UNL A   1      47.379  34.135  28.408  1.00  0.00     0.031 C 
ATOM     67  C   UNL A   1      47.645  31.855  29.349  1.00  0.00     0.037 A 
BRANCH  54  68
ATOM     68  C   UNL A   1      44.701  27.468  32.580  1.00  0.00     0.058 A 
ATOM     69  C   UNL A   1      44.372  26.290  31.889  1.00  0.00     0.135 A 
ATOM     70  C   UNL A   1      45.103  27.345  33.920  1.00  0.00     0.135 A 
ATOM     71  F   UNL A   1      43.970  26.345  30.609  1.00  0.00    -0.206 F 
ATOM     72  C   UNL A   1      44.398  25.047  32.515  1.00  0.00     0.059 A 
ATOM     73  C   UNL A   1      45.165  26.110  34.558  1.00  0.00     0.059 A 
ATOM     74  F   UNL A   1      45.432  28.437  34.629  1.00  0.00    -0.206 F 
ATOM     75  C   UNL A   1      44.790  24.968  33.852  1.00  0.00     0.060 A 
BRANCH  75  76
ATOM     76  S   UNL A   1      44.794  23.352  34.657  1.00  0.00     0.124 S 
ATOM     77  O   UNL A   1      44.389  22.480  33.558  1.00  0.00    -0.237 OA
ATOM     78  O   UNL A   1      46.182  23.221  35.088  1.00  0.00    -0.237 OA
ATOM     79  O   UNL A   1      43.817  23.502  35.730  1.00  0.00    -0.744 OA
ENDBRANCH  75  76
ENDBRANCH  54  68
BRANCH  55  80
ATOM     80  C   UNL A   1      43.908  36.550  28.464  1.00  0.00     0.058 A 
ATOM     81  C   UNL A   1      43.323  36.733  27.203  1.00  0.00     0.135 A 
ATOM     82  C   UNL A   1      44.351  37.693  29.150  1.00  0.00     0.135 A 
ATOM     83  F   UNL A   1      42.895  35.672  26.501  1.00  0.00    -0.206 F 
ATOM     84  C   UNL A   1      43.179  37.998  26.642  1.00  0.00     0.059 A 
ATOM     85  C   UNL A   1      44.196  38.971  28.622  1.00  0.00     0.059 A 
ATOM     86  F   UNL A   1      44.909  37.574  30.366  1.00  0.00    -0.206 F 
ATOM     87  C   UNL A   1      43.610  39.113  27.365  1.00  0.00     0.060 A 
BRANCH  87  88
ATOM     88  S   UNL A   1      43.341  40.753  26.658  1.00  0.00     0.124 S 
ATOM     89  O   UNL A   1      41.885  40.833  26.645  1.00  0.00    -0.237 OA
ATOM     90  O   UNL A   1      44.020  41.613  27.622  1.00  0.00    -0.237 OA
ATOM     91  O   UNL A   1      43.982  40.665  25.349  1.00  0.00    -0.744 OA
ENDBRANCH  87  88
ENDBRANCH  55  80
BRANCH  67  92
ATOM     92  C   UNL A   1      49.066  31.850  28.853  1.00  0.00     0.058 A 
ATOM     93  C   UNL A   1      50.121  32.348  29.634  1.00  0.00     0.135 A 
ATOM     94  C   UNL A   1      49.387  31.275  27.612  1.00  0.00     0.135 A 
ATOM     95  F   UNL A   1      49.870  32.917  30.824  1.00  0.00    -0.206 F 
ATOM     96  C   UNL A   1      51.442  32.284  29.200  1.00  0.00     0.059 A 
ATOM     97  C   UNL A   1      50.703  31.175  27.170  1.00  0.00     0.059 A 
ATOM     98  F   UNL A   1      48.419  30.778  26.827  1.00  0.00    -0.206 F 
ATOM     99  C   UNL A   1      51.723  31.688  27.969  1.00  0.00     0.060 A 
BRANCH  99 100
ATOM    100  S   UNL A   1      53.447  31.560  27.446  1.00  0.00     0.124 S 
ATOM    101  O   UNL A   1      53.748  30.168  27.761  1.00  0.00    -0.237 OA
ATOM    102  O   UNL A   1      53.366  31.885  26.025  1.00  0.00    -0.237 OA
ATOM    103  O   UNL A   1      54.129  32.552  28.271  1.00  0.00    -0.744 OA
ENDBRANCH  99 100
ENDBRANCH  67  92
ENDBRANCH  41  42
ENDBRANCH  34  36
ENDBRANCH  33  34
ENDBRANCH  32  33
ENDBRANCH  31  32
ENDBRANCH  30  31
ENDBRANCH  29  30
ENDBRANCH   1  29
TORSDOF 23
ENDMDL
