MODEL 1
REMARK VINA RESULT:     -11.9      0.000      0.000
REMARK SMILES COc1cc2c(cc1OC)[C@H](C(=O)OCCOCCOC(=O)c1ccc(-c3c4nc(c(-c5c(F)cc(S(=O)(=O)[O-])cc5F)c5ccc([nH]5)c(-c5c(F)cc(S(=O)(=O)[O-])cc5F)c5nc(c(-c6c(F)cc(S(=O)(=O)[O-])cc6F)c6ccc3[nH]6)C=C5)C=C4)cc1)[C@@H](c1ccc(SC)cc1)N(C)C2=O
REMARK SMILES IDX 18 1 17 2 16 3 15 4 14 5 12 6 13 7 11 8 3 9 4 10 8 11 5 12
REMARK SMILES IDX 7 13 6 14 100 15 98 16 101 17 89 18 99 19 2 20 1 21 9 22
REMARK SMILES IDX 10 23 90 24 91 25 97 26 92 27 96 28 93 29 94 30 95 31 19 32
REMARK SMILES IDX 20 33 21 34 22 35 23 36 24 37 88 38 25 39 87 40 26 41 27 42
REMARK SMILES IDX 28 43 81 44 29 45 86 46 80 47 82 48 30 49 85 50 79 51 78 52
REMARK SMILES IDX 31 54 65 55 44 56 64 57 45 58 48 59 63 60 83 61 46 62 47 63
REMARK SMILES IDX 62 65 84 66 49 67 32 68 33 69 42 70 34 71 35 72 41 73 43 74
REMARK SMILES IDX 36 75 37 76 38 77 39 78 40 79 66 80 67 81 76 82 68 83 69 84
REMARK SMILES IDX 75 85 77 86 70 87 71 88 72 89 73 90 74 91 50 92 51 93 60 94
REMARK SMILES IDX 52 95 53 96 59 97 61 98 54 99 55 100 56 101 57 102 58 103
REMARK H PARENT 82 53 48 64
REMARK Flexibility Score: inf
ROOT
ATOM      1  C   UNL A   1      39.013  22.215  26.158  1.00  0.00     0.202 C 
ENDROOT
BRANCH   1   2
ATOM      2  O   UNL A   1      37.672  22.555  25.824  1.00  0.00    -0.374 OA
BRANCH   2   3
ATOM      3  C   UNL A   1      37.203  22.452  24.495  1.00  0.00     0.202 C 
BRANCH   3   4
ATOM      4  C   UNL A   1      36.107  23.443  24.081  1.00  0.00     0.261 C 
BRANCH   4   5
ATOM      5  O   UNL A   1      35.397  23.191  22.848  1.00  0.00    -0.463 OA
BRANCH   5   6
ATOM      6  C   UNL A   1      34.112  23.645  22.808  1.00  0.00     0.316 C 
ATOM      7  O   UNL A   1      33.518  23.945  21.778  1.00  0.00    -0.251 OA
BRANCH   6   8
ATOM      8  C   UNL A   1      33.479  23.843  24.189  1.00  0.00     0.157 C 
ATOM      9  C   UNL A   1      31.776  27.806  24.666  1.00  0.00     0.161 A 
ATOM     10  C   UNL A   1      31.100  26.685  25.149  1.00  0.00     0.064 A 
ATOM     11  C   UNL A   1      33.084  27.674  24.198  1.00  0.00     0.161 A 
ATOM     12  C   UNL A   1      31.698  25.418  25.081  1.00  0.00     0.048 A 
ATOM     13  C   UNL A   1      33.680  26.400  24.171  1.00  0.00     0.056 A 
ATOM     14  C   UNL A   1      32.942  25.244  24.461  1.00  0.00    -0.015 A 
ATOM     15  C   UNL A   1      31.090  24.294  25.840  1.00  0.00     0.254 C 
ATOM     16  N   UNL A   1      31.650  23.033  25.644  1.00  0.00    -0.333 N 
ATOM     17  O   UNL A   1      30.212  24.526  26.665  1.00  0.00    -0.269 OA
ATOM     18  C   UNL A   1      32.370  22.761  24.379  1.00  0.00     0.134 C 
ATOM     19  C   UNL A   1      31.257  21.983  26.571  1.00  0.00     0.147 C 
BRANCH   9  20
ATOM     20  O   UNL A   1      31.103  28.995  24.610  1.00  0.00    -0.493 OA
ATOM     21  C   UNL A   1      30.342  29.107  23.410  1.00  0.00     0.278 C 
ENDBRANCH   9  20
BRANCH  11  22
ATOM     22  O   UNL A   1      33.891  28.686  23.750  1.00  0.00    -0.493 OA
ATOM     23  C   UNL A   1      34.207  28.660  22.357  1.00  0.00     0.278 C 
ENDBRANCH  11  22
BRANCH  18  24
ATOM     24  C   UNL A   1      32.810  21.301  24.201  1.00  0.00    -0.024 A 
ATOM     25  C   UNL A   1      32.149  20.397  23.358  1.00  0.00     0.007 A 
ATOM     26  C   UNL A   1      33.914  20.818  24.931  1.00  0.00     0.007 A 
ATOM     27  C   UNL A   1      32.533  19.053  23.296  1.00  0.00     0.015 A 
ATOM     28  C   UNL A   1      34.325  19.480  24.832  1.00  0.00     0.015 A 
ATOM     29  C   UNL A   1      33.630  18.583  24.021  1.00  0.00     0.007 A 
BRANCH  29  30
ATOM     30  S   UNL A   1      34.014  16.844  23.905  1.00  0.00    -0.130 SA
ATOM     31  C   UNL A   1      32.844  16.132  25.088  1.00  0.00     0.091 C 
ENDBRANCH  29  30
ENDBRANCH  18  24
ENDBRANCH   6   8
ENDBRANCH   5   6
ENDBRANCH   4   5
ENDBRANCH   3   4
ENDBRANCH   2   3
ENDBRANCH   1   2
BRANCH   1  32
ATOM     32  C   UNL A   1      40.052  23.257  26.560  1.00  0.00     0.261 C 
BRANCH  32  33
ATOM     33  O   UNL A   1      39.596  24.589  26.644  1.00  0.00    -0.460 OA
BRANCH  33  34
ATOM     34  C   UNL A   1      40.477  25.561  26.360  1.00  0.00     0.338 C 
ATOM     35  O   UNL A   1      41.108  25.753  25.353  1.00  0.00    -0.246 OA
BRANCH  34  36
ATOM     36  C   UNL A   1      40.515  26.320  27.610  1.00  0.00     0.060 A 
ATOM     37  C   UNL A   1      39.566  26.051  28.595  1.00  0.00     0.016 A 
ATOM     38  C   UNL A   1      41.562  27.226  27.810  1.00  0.00     0.016 A 
ATOM     39  C   UNL A   1      39.602  26.787  29.770  1.00  0.00     0.010 A 
ATOM     40  C   UNL A   1      41.610  27.944  28.995  1.00  0.00     0.010 A 
ATOM     41  C   UNL A   1      40.591  27.769  29.944  1.00  0.00    -0.014 A 
BRANCH  41  42
ATOM     42  C   UNL A   1      40.420  28.771  31.012  1.00  0.00     0.031 A 
ATOM     43  C   UNL A   1      41.323  28.671  32.208  1.00  0.00     0.074 A 
ATOM     44  C   UNL A   1      39.516  29.755  30.878  1.00  0.00     0.049 A 
ATOM     45  N   UNL A   1      41.373  29.422  33.274  1.00  0.00    -0.248 NA
ATOM     46  C   UNL A   1      42.303  27.567  32.207  1.00  0.00     0.031 C 
ATOM     47  C   UNL A   1      38.623  29.931  29.732  1.00  0.00     0.029 A 
ATOM     48  N   UNL A   1      39.208  30.795  31.711  1.00  0.00    -0.354 N 
ATOM     49  C   UNL A   1      42.382  28.883  34.064  1.00  0.00     0.074 A 
ATOM     50  C   UNL A   1      42.887  27.715  33.385  1.00  0.00     0.031 C 
ATOM     51  C   UNL A   1      37.867  31.023  29.934  1.00  0.00     0.029 A 
ATOM     52  C   UNL A   1      38.205  31.601  31.232  1.00  0.00     0.049 A 
ATOM     53  H   UNL A   1      39.661  30.951  32.571  1.00  0.00     0.167 HD
ATOM     54  C   UNL A   1      42.855  29.342  35.245  1.00  0.00     0.037 A 
ATOM     55  C   UNL A   1      37.626  32.678  31.796  1.00  0.00     0.037 A 
ATOM     56  C   UNL A   1      42.333  30.513  35.895  1.00  0.00     0.049 A 
ATOM     57  C   UNL A   1      38.135  33.141  33.135  1.00  0.00     0.074 A 
ATOM     58  C   UNL A   1      42.721  31.081  37.094  1.00  0.00     0.029 A 
ATOM     59  N   UNL A   1      41.303  31.297  35.390  1.00  0.00    -0.354 N 
ATOM     60  N   UNL A   1      39.099  32.633  33.870  1.00  0.00    -0.248 NA
ATOM     61  C   UNL A   1      37.491  34.322  33.721  1.00  0.00     0.031 C 
ATOM     62  C   UNL A   1      41.895  32.184  37.335  1.00  0.00     0.029 A 
ATOM     63  C   UNL A   1      41.030  32.335  36.261  1.00  0.00     0.049 A 
ATOM     64  H   UNL A   1      40.835  31.135  34.540  1.00  0.00     0.167 HD
ATOM     65  C   UNL A   1      39.199  33.451  34.989  1.00  0.00     0.074 A 
ATOM     66  C   UNL A   1      38.200  34.492  34.828  1.00  0.00     0.031 C 
ATOM     67  C   UNL A   1      40.036  33.361  36.052  1.00  0.00     0.037 A 
BRANCH  54  68
ATOM     68  C   UNL A   1      43.966  28.569  35.902  1.00  0.00     0.058 A 
ATOM     69  C   UNL A   1      45.318  28.862  35.654  1.00  0.00     0.135 A 
ATOM     70  C   UNL A   1      43.678  27.527  36.797  1.00  0.00     0.135 A 
ATOM     71  F   UNL A   1      45.653  29.829  34.786  1.00  0.00    -0.206 F 
ATOM     72  C   UNL A   1      46.343  28.134  36.253  1.00  0.00     0.059 A 
ATOM     73  C   UNL A   1      44.686  26.805  37.430  1.00  0.00     0.059 A 
ATOM     74  F   UNL A   1      42.404  27.197  37.062  1.00  0.00    -0.206 F 
ATOM     75  C   UNL A   1      46.016  27.109  37.140  1.00  0.00     0.060 A 
BRANCH  75  76
ATOM     76  S   UNL A   1      47.357  26.181  37.918  1.00  0.00     0.124 S 
ATOM     77  O   UNL A   1      48.335  26.120  36.836  1.00  0.00    -0.237 OA
ATOM     78  O   UNL A   1      47.712  27.036  39.046  1.00  0.00    -0.237 OA
ATOM     79  O   UNL A   1      46.732  24.910  38.270  1.00  0.00    -0.744 OA
ENDBRANCH  75  76
ENDBRANCH  54  68
BRANCH  55  80
ATOM     80  C   UNL A   1      36.519  33.383  31.096  1.00  0.00     0.058 A 
ATOM     81  C   UNL A   1      36.758  34.160  29.954  1.00  0.00     0.135 A 
ATOM     82  C   UNL A   1      35.193  33.278  31.547  1.00  0.00     0.135 A 
ATOM     83  F   UNL A   1      38.007  34.292  29.482  1.00  0.00    -0.206 F 
ATOM     84  C   UNL A   1      35.728  34.825  29.294  1.00  0.00     0.059 A 
ATOM     85  C   UNL A   1      34.142  33.912  30.890  1.00  0.00     0.059 A 
ATOM     86  F   UNL A   1      34.906  32.532  32.625  1.00  0.00    -0.206 F 
ATOM     87  C   UNL A   1      34.422  34.694  29.770  1.00  0.00     0.060 A 
BRANCH  87  88
ATOM     88  S   UNL A   1      33.087  35.530  28.886  1.00  0.00     0.124 S 
ATOM     89  O   UNL A   1      33.828  36.491  28.078  1.00  0.00    -0.237 OA
ATOM     90  O   UNL A   1      32.465  34.428  28.161  1.00  0.00    -0.237 OA
ATOM     91  O   UNL A   1      32.278  36.098  29.961  1.00  0.00    -0.744 OA
ENDBRANCH  87  88
ENDBRANCH  55  80
BRANCH  67  92
ATOM     92  C   UNL A   1      39.942  34.437  37.095  1.00  0.00     0.058 A 
ATOM     93  C   UNL A   1      40.725  35.599  37.029  1.00  0.00     0.135 A 
ATOM     94  C   UNL A   1      38.999  34.332  38.130  1.00  0.00     0.135 A 
ATOM     95  F   UNL A   1      41.643  35.742  36.059  1.00  0.00    -0.206 F 
ATOM     96  C   UNL A   1      40.592  36.612  37.970  1.00  0.00     0.059 A 
ATOM     97  C   UNL A   1      38.829  35.348  39.063  1.00  0.00     0.059 A 
ATOM     98  F   UNL A   1      38.218  33.245  38.226  1.00  0.00    -0.206 F 
ATOM     99  C   UNL A   1      39.638  36.480  38.980  1.00  0.00     0.060 A 
BRANCH  99 100
ATOM    100  S   UNL A   1      39.445  37.824  40.168  1.00  0.00     0.124 S 
ATOM    101  O   UNL A   1      40.710  38.535  40.013  1.00  0.00    -0.237 OA
ATOM    102  O   UNL A   1      38.263  38.517  39.664  1.00  0.00    -0.237 OA
ATOM    103  O   UNL A   1      39.264  37.132  41.440  1.00  0.00    -0.744 OA
ENDBRANCH  99 100
ENDBRANCH  67  92
ENDBRANCH  41  42
ENDBRANCH  34  36
ENDBRANCH  33  34
ENDBRANCH  32  33
ENDBRANCH   1  32
TORSDOF 21
ENDMDL
MODEL 2
REMARK VINA RESULT:     -11.2      0.659      7.924
REMARK SMILES COc1cc2c(cc1OC)[C@H](C(=O)OCCOCCOC(=O)c1ccc(-c3c4nc(c(-c5c(F)cc(S(=O)(=O)[O-])cc5F)c5ccc([nH]5)c(-c5c(F)cc(S(=O)(=O)[O-])cc5F)c5nc(c(-c6c(F)cc(S(=O)(=O)[O-])cc6F)c6ccc3[nH]6)C=C5)C=C4)cc1)[C@@H](c1ccc(SC)cc1)N(C)C2=O
REMARK SMILES IDX 18 1 17 2 16 3 15 4 14 5 12 6 13 7 11 8 3 9 4 10 8 11 5 12
REMARK SMILES IDX 7 13 6 14 100 15 98 16 101 17 89 18 99 19 2 20 1 21 9 22
REMARK SMILES IDX 10 23 90 24 91 25 97 26 92 27 96 28 93 29 94 30 95 31 19 32
REMARK SMILES IDX 20 33 21 34 22 35 23 36 24 37 88 38 25 39 87 40 26 41 27 42
REMARK SMILES IDX 28 43 81 44 29 45 86 46 80 47 82 48 30 49 85 50 79 51 78 52
REMARK SMILES IDX 31 54 65 55 44 56 64 57 45 58 48 59 63 60 83 61 46 62 47 63
REMARK SMILES IDX 62 65 84 66 49 67 32 68 33 69 42 70 34 71 35 72 41 73 43 74
REMARK SMILES IDX 36 75 37 76 38 77 39 78 40 79 66 80 67 81 76 82 68 83 69 84
REMARK SMILES IDX 75 85 77 86 70 87 71 88 72 89 73 90 74 91 50 92 51 93 60 94
REMARK SMILES IDX 52 95 53 96 59 97 61 98 54 99 55 100 56 101 57 102 58 103
REMARK H PARENT 82 53 48 64
REMARK Flexibility Score: inf
ROOT
ATOM      1  C   UNL A   1      38.456  23.270  26.421  1.00  0.00     0.202 C 
ENDROOT
BRANCH   1   2
ATOM      2  O   UNL A   1      37.701  22.633  25.397  1.00  0.00    -0.374 OA
BRANCH   2   3
ATOM      3  C   UNL A   1      37.155  23.374  24.325  1.00  0.00     0.202 C 
BRANCH   3   4
ATOM      4  C   UNL A   1      35.635  23.279  24.135  1.00  0.00     0.261 C 
BRANCH   4   5
ATOM      5  O   UNL A   1      35.107  23.448  22.801  1.00  0.00    -0.463 OA
BRANCH   5   6
ATOM      6  C   UNL A   1      33.800  23.828  22.731  1.00  0.00     0.316 C 
ATOM      7  O   UNL A   1      33.209  24.078  21.686  1.00  0.00    -0.251 OA
BRANCH   6   8
ATOM      8  C   UNL A   1      33.132  24.012  24.097  1.00  0.00     0.157 C 
ATOM      9  C   UNL A   1      31.558  28.020  24.635  1.00  0.00     0.161 A 
ATOM     10  C   UNL A   1      30.828  26.913  25.065  1.00  0.00     0.064 A 
ATOM     11  C   UNL A   1      32.875  27.853  24.203  1.00  0.00     0.161 A 
ATOM     12  C   UNL A   1      31.382  25.626  24.979  1.00  0.00     0.048 A 
ATOM     13  C   UNL A   1      33.426  26.560  24.158  1.00  0.00     0.056 A 
ATOM     14  C   UNL A   1      32.637  25.424  24.393  1.00  0.00    -0.015 A 
ATOM     15  C   UNL A   1      30.710  24.505  25.687  1.00  0.00     0.254 C 
ATOM     16  N   UNL A   1      31.231  23.231  25.473  1.00  0.00    -0.333 N 
ATOM     17  O   UNL A   1      29.815  24.747  26.492  1.00  0.00    -0.269 OA
ATOM     18  C   UNL A   1      31.979  22.967  24.223  1.00  0.00     0.134 C 
ATOM     19  C   UNL A   1      30.771  22.171  26.357  1.00  0.00     0.147 C 
BRANCH   9  20
ATOM     20  O   UNL A   1      30.931  29.234  24.592  1.00  0.00    -0.493 OA
ATOM     21  C   UNL A   1      30.210  29.406  23.375  1.00  0.00     0.278 C 
ENDBRANCH   9  20
BRANCH  11  22
ATOM     22  O   UNL A   1      33.731  28.847  23.809  1.00  0.00    -0.493 OA
ATOM     23  C   UNL A   1      34.230  28.746  22.473  1.00  0.00     0.278 C 
ENDBRANCH  11  22
BRANCH  18  24
ATOM     24  C   UNL A   1      32.371  21.497  24.017  1.00  0.00    -0.024 A 
ATOM     25  C   UNL A   1      31.953  20.737  22.916  1.00  0.00     0.007 A 
ATOM     26  C   UNL A   1      33.170  20.853  24.983  1.00  0.00     0.007 A 
ATOM     27  C   UNL A   1      32.263  19.377  22.818  1.00  0.00     0.015 A 
ATOM     28  C   UNL A   1      33.517  19.499  24.858  1.00  0.00     0.015 A 
ATOM     29  C   UNL A   1      33.056  18.746  23.778  1.00  0.00     0.007 A 
BRANCH  29  30
ATOM     30  S   UNL A   1      33.362  16.999  23.582  1.00  0.00    -0.130 SA
ATOM     31  C   UNL A   1      34.756  16.744  24.709  1.00  0.00     0.091 C 
ENDBRANCH  29  30
ENDBRANCH  18  24
ENDBRANCH   6   8
ENDBRANCH   5   6
ENDBRANCH   4   5
ENDBRANCH   3   4
ENDBRANCH   2   3
ENDBRANCH   1   2
BRANCH   1  32
ATOM     32  C   UNL A   1      39.840  22.787  26.845  1.00  0.00     0.261 C 
BRANCH  32  33
ATOM     33  O   UNL A   1      40.570  23.655  27.685  1.00  0.00    -0.460 OA
BRANCH  33  34
ATOM     34  C   UNL A   1      41.279  24.630  27.096  1.00  0.00     0.338 C 
ATOM     35  O   UNL A   1      41.945  24.595  26.094  1.00  0.00    -0.246 OA
BRANCH  34  36
ATOM     36  C   UNL A   1      41.075  25.756  28.008  1.00  0.00     0.060 A 
ATOM     37  C   UNL A   1      42.039  26.761  28.070  1.00  0.00     0.016 A 
ATOM     38  C   UNL A   1      39.872  25.831  28.720  1.00  0.00     0.016 A 
ATOM     39  C   UNL A   1      41.843  27.815  28.949  1.00  0.00     0.010 A 
ATOM     40  C   UNL A   1      39.668  26.898  29.581  1.00  0.00     0.010 A 
ATOM     41  C   UNL A   1      40.684  27.854  29.740  1.00  0.00    -0.014 A 
BRANCH  41  42
ATOM     42  C   UNL A   1      40.643  28.761  30.901  1.00  0.00     0.031 A 
ATOM     43  C   UNL A   1      39.624  29.865  30.883  1.00  0.00     0.074 A 
ATOM     44  C   UNL A   1      41.463  28.562  31.945  1.00  0.00     0.049 A 
ATOM     45  N   UNL A   1      39.388  30.789  31.774  1.00  0.00    -0.248 NA
ATOM     46  C   UNL A   1      38.755  29.943  29.693  1.00  0.00     0.031 C 
ATOM     47  C   UNL A   1      42.460  27.495  32.045  1.00  0.00     0.029 A 
ATOM     48  N   UNL A   1      41.581  29.246  33.124  1.00  0.00    -0.354 N 
ATOM     49  C   UNL A   1      38.350  31.554  31.253  1.00  0.00     0.074 A 
ATOM     50  C   UNL A   1      38.032  31.021  29.950  1.00  0.00     0.031 C 
ATOM     51  C   UNL A   1      43.086  27.594  33.230  1.00  0.00     0.029 A 
ATOM     52  C   UNL A   1      42.555  28.745  33.953  1.00  0.00     0.049 A 
ATOM     53  H   UNL A   1      41.023  30.023  33.355  1.00  0.00     0.167 HD
ATOM     54  C   UNL A   1      37.708  32.596  31.827  1.00  0.00     0.037 A 
ATOM     55  C   UNL A   1      42.967  29.186  35.156  1.00  0.00     0.037 A 
ATOM     56  C   UNL A   1      38.046  33.101  33.130  1.00  0.00     0.049 A 
ATOM     57  C   UNL A   1      42.272  30.380  35.754  1.00  0.00     0.074 A 
ATOM     58  C   UNL A   1      37.477  34.152  33.824  1.00  0.00     0.029 A 
ATOM     59  N   UNL A   1      39.051  32.580  33.936  1.00  0.00    -0.354 N 
ATOM     60  N   UNL A   1      41.281  31.089  35.260  1.00  0.00    -0.248 NA
ATOM     61  C   UNL A   1      42.737  30.831  37.071  1.00  0.00     0.031 C 
ATOM     62  C   UNL A   1      38.168  34.294  35.031  1.00  0.00     0.029 A 
ATOM     63  C   UNL A   1      39.130  33.298  35.115  1.00  0.00     0.049 A 
ATOM     64  H   UNL A   1      39.623  31.815  33.702  1.00  0.00     0.167 HD
ATOM     65  C   UNL A   1      40.984  32.050  36.220  1.00  0.00     0.074 A 
ATOM     66  C   UNL A   1      41.896  31.824  37.325  1.00  0.00     0.031 C 
ATOM     67  C   UNL A   1      40.044  33.028  36.198  1.00  0.00     0.037 A 
BRANCH  54  68
ATOM     68  C   UNL A   1      36.605  33.255  31.046  1.00  0.00     0.058 A 
ATOM     69  C   UNL A   1      35.250  32.998  31.316  1.00  0.00     0.135 A 
ATOM     70  C   UNL A   1      36.904  34.163  30.017  1.00  0.00     0.135 A 
ATOM     71  F   UNL A   1      34.905  32.118  32.269  1.00  0.00    -0.206 F 
ATOM     72  C   UNL A   1      34.233  33.600  30.580  1.00  0.00     0.059 A 
ATOM     73  C   UNL A   1      35.903  34.799  29.288  1.00  0.00     0.059 A 
ATOM     74  F   UNL A   1      38.180  34.438  29.709  1.00  0.00    -0.206 F 
ATOM     75  C   UNL A   1      34.570  34.500  29.569  1.00  0.00     0.060 A 
BRANCH  75  76
ATOM     76  S   UNL A   1      33.239  35.282  28.631  1.00  0.00     0.124 S 
ATOM     77  O   UNL A   1      33.990  36.111  27.695  1.00  0.00    -0.237 OA
ATOM     78  O   UNL A   1      32.552  34.132  28.050  1.00  0.00    -0.237 OA
ATOM     79  O   UNL A   1      32.486  36.009  29.648  1.00  0.00    -0.744 OA
ENDBRANCH  75  76
ENDBRANCH  54  68
BRANCH  55  80
ATOM     80  C   UNL A   1      44.078  28.494  35.864  1.00  0.00     0.058 A 
ATOM     81  C   UNL A   1      45.416  28.847  35.638  1.00  0.00     0.135 A 
ATOM     82  C   UNL A   1      43.820  27.477  36.798  1.00  0.00     0.135 A 
ATOM     83  F   UNL A   1      45.715  29.812  34.756  1.00  0.00    -0.206 F 
ATOM     84  C   UNL A   1      46.461  28.202  36.295  1.00  0.00     0.059 A 
ATOM     85  C   UNL A   1      44.846  26.837  37.487  1.00  0.00     0.059 A 
ATOM     86  F   UNL A   1      42.556  27.114  37.065  1.00  0.00    -0.206 F 
ATOM     87  C   UNL A   1      46.165  27.199  37.219  1.00  0.00     0.060 A 
BRANCH  87  88
ATOM     88  S   UNL A   1      47.525  26.395  38.094  1.00  0.00     0.124 S 
ATOM     89  O   UNL A   1      48.275  27.544  38.589  1.00  0.00    -0.237 OA
ATOM     90  O   UNL A   1      46.819  25.609  39.100  1.00  0.00    -0.237 OA
ATOM     91  O   UNL A   1      48.183  25.616  37.049  1.00  0.00    -0.744 OA
ENDBRANCH  87  88
ENDBRANCH  55  80
BRANCH  67  92
ATOM     92  C   UNL A   1      39.924  33.892  37.420  1.00  0.00     0.058 A 
ATOM     93  C   UNL A   1      40.647  35.086  37.553  1.00  0.00     0.135 A 
ATOM     94  C   UNL A   1      39.015  33.552  38.434  1.00  0.00     0.135 A 
ATOM     95  F   UNL A   1      41.531  35.451  36.611  1.00  0.00    -0.206 F 
ATOM     96  C   UNL A   1      40.489  35.905  38.665  1.00  0.00     0.059 A 
ATOM     97  C   UNL A   1      38.820  34.371  39.540  1.00  0.00     0.059 A 
ATOM     98  F   UNL A   1      38.291  32.425  38.345  1.00  0.00    -0.206 F 
ATOM     99  C   UNL A   1      39.569  35.541  39.651  1.00  0.00     0.060 A 
BRANCH  99 100
ATOM    100  S   UNL A   1      39.341  36.637  41.066  1.00  0.00     0.124 S 
ATOM    101  O   UNL A   1      40.717  36.823  41.516  1.00  0.00    -0.237 OA
ATOM    102  O   UNL A   1      38.709  37.803  40.458  1.00  0.00    -0.237 OA
ATOM    103  O   UNL A   1      38.486  35.863  41.961  1.00  0.00    -0.744 OA
ENDBRANCH  99 100
ENDBRANCH  67  92
ENDBRANCH  41  42
ENDBRANCH  34  36
ENDBRANCH  33  34
ENDBRANCH  32  33
ENDBRANCH   1  32
TORSDOF 21
ENDMDL
MODEL 3
REMARK VINA RESULT:     -11.0      6.180     11.906
REMARK SMILES COc1cc2c(cc1OC)[C@H](C(=O)OCCOCCOC(=O)c1ccc(-c3c4nc(c(-c5c(F)cc(S(=O)(=O)[O-])cc5F)c5ccc([nH]5)c(-c5c(F)cc(S(=O)(=O)[O-])cc5F)c5nc(c(-c6c(F)cc(S(=O)(=O)[O-])cc6F)c6ccc3[nH]6)C=C5)C=C4)cc1)[C@@H](c1ccc(SC)cc1)N(C)C2=O
REMARK SMILES IDX 18 1 17 2 16 3 15 4 14 5 12 6 13 7 11 8 3 9 4 10 8 11 5 12
REMARK SMILES IDX 7 13 6 14 100 15 98 16 101 17 89 18 99 19 2 20 1 21 9 22
REMARK SMILES IDX 10 23 90 24 91 25 97 26 92 27 96 28 93 29 94 30 95 31 19 32
REMARK SMILES IDX 20 33 21 34 22 35 23 36 24 37 88 38 25 39 87 40 26 41 27 42
REMARK SMILES IDX 28 43 81 44 29 45 86 46 80 47 82 48 30 49 85 50 79 51 78 52
REMARK SMILES IDX 31 54 65 55 44 56 64 57 45 58 48 59 63 60 83 61 46 62 47 63
REMARK SMILES IDX 62 65 84 66 49 67 32 68 33 69 42 70 34 71 35 72 41 73 43 74
REMARK SMILES IDX 36 75 37 76 38 77 39 78 40 79 66 80 67 81 76 82 68 83 69 84
REMARK SMILES IDX 75 85 77 86 70 87 71 88 72 89 73 90 74 91 50 92 51 93 60 94
REMARK SMILES IDX 52 95 53 96 59 97 61 98 54 99 55 100 56 101 57 102 58 103
REMARK H PARENT 82 53 48 64
REMARK Flexibility Score: inf
ROOT
ATOM      1  C   UNL A   1      34.598  32.328  28.222  1.00  0.00     0.202 C 
ENDROOT
BRANCH   1   2
ATOM      2  O   UNL A   1      34.967  31.250  27.371  1.00  0.00    -0.374 OA
BRANCH   2   3
ATOM      3  C   UNL A   1      34.203  30.062  27.325  1.00  0.00     0.202 C 
BRANCH   3   4
ATOM      4  C   UNL A   1      33.587  29.700  25.966  1.00  0.00     0.261 C 
BRANCH   4   5
ATOM      5  O   UNL A   1      34.041  28.491  25.318  1.00  0.00    -0.463 OA
BRANCH   5   6
ATOM      6  C   UNL A   1      33.534  28.268  24.072  1.00  0.00     0.316 C 
ATOM      7  O   UNL A   1      33.739  28.994  23.105  1.00  0.00    -0.251 OA
BRANCH   6   8
ATOM      8  C   UNL A   1      32.593  27.063  23.989  1.00  0.00     0.157 C 
ATOM      9  C   UNL A   1      34.063  23.666  26.254  1.00  0.00     0.161 A 
ATOM     10  C   UNL A   1      32.708  23.997  26.281  1.00  0.00     0.064 A 
ATOM     11  C   UNL A   1      34.913  24.309  25.354  1.00  0.00     0.161 A 
ATOM     12  C   UNL A   1      32.221  25.035  25.471  1.00  0.00     0.048 A 
ATOM     13  C   UNL A   1      34.399  25.321  24.524  1.00  0.00     0.056 A 
ATOM     14  C   UNL A   1      33.091  25.801  24.686  1.00  0.00    -0.015 A 
ATOM     15  C   UNL A   1      30.752  25.190  25.307  1.00  0.00     0.254 C 
ATOM     16  N   UNL A   1      30.318  26.304  24.592  1.00  0.00    -0.333 N 
ATOM     17  O   UNL A   1      30.002  24.303  25.705  1.00  0.00    -0.269 OA
ATOM     18  C   UNL A   1      31.194  27.496  24.528  1.00  0.00     0.134 C 
ATOM     19  C   UNL A   1      28.921  26.328  24.188  1.00  0.00     0.147 C 
BRANCH   9  20
ATOM     20  O   UNL A   1      34.525  22.757  27.165  1.00  0.00    -0.493 OA
ATOM     21  C   UNL A   1      33.982  21.460  26.929  1.00  0.00     0.278 C 
ENDBRANCH   9  20
BRANCH  11  22
ATOM     22  O   UNL A   1      36.246  24.051  25.172  1.00  0.00    -0.493 OA
ATOM     23  C   UNL A   1      36.556  22.903  24.378  1.00  0.00     0.278 C 
ENDBRANCH  11  22
BRANCH  18  24
ATOM     24  C   UNL A   1      30.555  28.717  23.851  1.00  0.00    -0.024 A 
ATOM     25  C   UNL A   1      30.304  29.922  24.520  1.00  0.00     0.007 A 
ATOM     26  C   UNL A   1      30.171  28.634  22.498  1.00  0.00     0.007 A 
ATOM     27  C   UNL A   1      29.638  30.976  23.884  1.00  0.00     0.015 A 
ATOM     28  C   UNL A   1      29.545  29.710  21.850  1.00  0.00     0.015 A 
ATOM     29  C   UNL A   1      29.263  30.888  22.543  1.00  0.00     0.007 A 
BRANCH  29  30
ATOM     30  S   UNL A   1      28.385  32.271  21.835  1.00  0.00    -0.130 SA
ATOM     31  C   UNL A   1      28.027  31.662  20.168  1.00  0.00     0.091 C 
ENDBRANCH  29  30
ENDBRANCH  18  24
ENDBRANCH   6   8
ENDBRANCH   5   6
ENDBRANCH   4   5
ENDBRANCH   3   4
ENDBRANCH   2   3
ENDBRANCH   1   2
BRANCH   1  32
ATOM     32  C   UNL A   1      34.983  32.381  29.698  1.00  0.00     0.261 C 
BRANCH  32  33
ATOM     33  O   UNL A   1      35.936  31.433  30.126  1.00  0.00    -0.460 OA
BRANCH  33  34
ATOM     34  C   UNL A   1      36.916  31.867  30.933  1.00  0.00     0.338 C 
ATOM     35  O   UNL A   1      36.879  32.689  31.813  1.00  0.00    -0.246 OA
BRANCH  34  36
ATOM     36  C   UNL A   1      38.073  31.114  30.448  1.00  0.00     0.060 A 
ATOM     37  C   UNL A   1      39.003  30.634  31.368  1.00  0.00     0.016 A 
ATOM     38  C   UNL A   1      38.156  30.821  29.082  1.00  0.00     0.016 A 
ATOM     39  C   UNL A   1      40.104  29.934  30.896  1.00  0.00     0.010 A 
ATOM     40  C   UNL A   1      39.245  30.102  28.615  1.00  0.00     0.010 A 
ATOM     41  C   UNL A   1      40.249  29.717  29.516  1.00  0.00    -0.014 A 
BRANCH  41  42
ATOM     42  C   UNL A   1      41.562  29.296  28.995  1.00  0.00     0.031 A 
ATOM     43  C   UNL A   1      42.654  30.327  28.954  1.00  0.00     0.074 A 
ATOM     44  C   UNL A   1      41.766  28.024  28.620  1.00  0.00     0.049 A 
ATOM     45  N   UNL A   1      43.888  30.212  28.542  1.00  0.00    -0.248 NA
ATOM     46  C   UNL A   1      42.308  31.677  29.439  1.00  0.00     0.031 C 
ATOM     47  C   UNL A   1      40.760  26.961  28.656  1.00  0.00     0.029 A 
ATOM     48  N   UNL A   1      42.890  27.408  28.142  1.00  0.00    -0.354 N 
ATOM     49  C   UNL A   1      44.458  31.468  28.717  1.00  0.00     0.074 A 
ATOM     50  C   UNL A   1      43.431  32.344  29.224  1.00  0.00     0.031 C 
ATOM     51  C   UNL A   1      41.318  25.819  28.222  1.00  0.00     0.029 A 
ATOM     52  C   UNL A   1      42.706  26.079  27.851  1.00  0.00     0.049 A 
ATOM     53  H   UNL A   1      43.748  27.874  28.017  1.00  0.00     0.167 HD
ATOM     54  C   UNL A   1      45.738  31.844  28.491  1.00  0.00     0.037 A 
ATOM     55  C   UNL A   1      43.570  25.185  27.334  1.00  0.00     0.037 A 
ATOM     56  C   UNL A   1      46.741  30.945  27.989  1.00  0.00     0.049 A 
ATOM     57  C   UNL A   1      44.975  25.641  27.043  1.00  0.00     0.074 A 
ATOM     58  C   UNL A   1      48.070  31.201  27.713  1.00  0.00     0.029 A 
ATOM     59  N   UNL A   1      46.515  29.607  27.688  1.00  0.00    -0.354 N 
ATOM     60  N   UNL A   1      45.511  26.827  27.223  1.00  0.00    -0.248 NA
ATOM     61  C   UNL A   1      45.897  24.642  26.488  1.00  0.00     0.031 C 
ATOM     62  C   UNL A   1      48.638  30.028  27.204  1.00  0.00     0.029 A 
ATOM     63  C   UNL A   1      47.677  29.028  27.214  1.00  0.00     0.049 A 
ATOM     64  H   UNL A   1      45.655  29.142  27.794  1.00  0.00     0.167 HD
ATOM     65  C   UNL A   1      46.840  26.710  26.835  1.00  0.00     0.074 A 
ATOM     66  C   UNL A   1      47.027  25.333  26.417  1.00  0.00     0.031 C 
ATOM     67  C   UNL A   1      47.822  27.646  26.824  1.00  0.00     0.037 A 
BRANCH  54  68
ATOM     68  C   UNL A   1      46.105  33.276  28.766  1.00  0.00     0.058 A 
ATOM     69  C   UNL A   1      46.597  33.687  30.017  1.00  0.00     0.135 A 
ATOM     70  C   UNL A   1      45.971  34.252  27.765  1.00  0.00     0.135 A 
ATOM     71  F   UNL A   1      46.719  32.803  31.019  1.00  0.00    -0.206 F 
ATOM     72  C   UNL A   1      46.921  35.017  30.271  1.00  0.00     0.059 A 
ATOM     73  C   UNL A   1      46.317  35.582  27.988  1.00  0.00     0.059 A 
ATOM     74  F   UNL A   1      45.496  33.918  26.556  1.00  0.00    -0.206 F 
ATOM     75  C   UNL A   1      46.779  35.956  29.250  1.00  0.00     0.060 A 
BRANCH  75  76
ATOM     76  S   UNL A   1      47.215  37.675  29.592  1.00  0.00     0.124 S 
ATOM     77  O   UNL A   1      48.604  37.544  30.021  1.00  0.00    -0.237 OA
ATOM     78  O   UNL A   1      47.009  38.312  28.295  1.00  0.00    -0.237 OA
ATOM     79  O   UNL A   1      46.272  38.065  30.635  1.00  0.00    -0.744 OA
ENDBRANCH  75  76
ENDBRANCH  54  68
BRANCH  55  80
ATOM     80  C   UNL A   1      43.132  23.789  27.071  1.00  0.00     0.058 A 
ATOM     81  C   UNL A   1      42.948  22.874  28.118  1.00  0.00     0.135 A 
ATOM     82  C   UNL A   1      42.870  23.345  25.764  1.00  0.00     0.135 A 
ATOM     83  F   UNL A   1      43.185  23.249  29.384  1.00  0.00    -0.206 F 
ATOM     84  C   UNL A   1      42.540  21.564  27.880  1.00  0.00     0.059 A 
ATOM     85  C   UNL A   1      42.437  22.049  25.503  1.00  0.00     0.059 A 
ATOM     86  F   UNL A   1      43.012  24.185  24.727  1.00  0.00    -0.206 F 
ATOM     87  C   UNL A   1      42.286  21.162  26.568  1.00  0.00     0.060 A 
BRANCH  87  88
ATOM     88  S   UNL A   1      41.722  19.472  26.272  1.00  0.00     0.124 S 
ATOM     89  O   UNL A   1      42.246  18.778  27.443  1.00  0.00    -0.237 OA
ATOM     90  O   UNL A   1      40.273  19.638  26.221  1.00  0.00    -0.237 OA
ATOM     91  O   UNL A   1      42.350  19.126  25.000  1.00  0.00    -0.744 OA
ENDBRANCH  87  88
ENDBRANCH  55  80
BRANCH  67  92
ATOM     92  C   UNL A   1      49.191  27.202  26.395  1.00  0.00     0.058 A 
ATOM     93  C   UNL A   1      50.100  26.636  27.300  1.00  0.00     0.135 A 
ATOM     94  C   UNL A   1      49.562  27.277  25.043  1.00  0.00     0.135 A 
ATOM     95  F   UNL A   1      49.792  26.548  28.604  1.00  0.00    -0.206 F 
ATOM     96  C   UNL A   1      51.345  26.181  26.882  1.00  0.00     0.059 A 
ATOM     97  C   UNL A   1      50.789  26.799  24.598  1.00  0.00     0.059 A 
ATOM     98  F   UNL A   1      48.718  27.798  24.137  1.00  0.00    -0.206 F 
ATOM     99  C   UNL A   1      51.678  26.262  25.528  1.00  0.00     0.060 A 
BRANCH  99 100
ATOM    100  S   UNL A   1      53.278  25.623  24.992  1.00  0.00     0.124 S 
ATOM    101  O   UNL A   1      53.133  25.652  23.540  1.00  0.00    -0.237 OA
ATOM    102  O   UNL A   1      54.207  26.597  25.556  1.00  0.00    -0.237 OA
ATOM    103  O   UNL A   1      53.332  24.294  25.592  1.00  0.00    -0.744 OA
ENDBRANCH  99 100
ENDBRANCH  67  92
ENDBRANCH  41  42
ENDBRANCH  34  36
ENDBRANCH  33  34
ENDBRANCH  32  33
ENDBRANCH   1  32
TORSDOF 21
ENDMDL
