MODEL 1
REMARK VINA RESULT:     -10.7      0.000      0.000
REMARK SMILES CC[NH+](CC)[C@](C)(C(=O)OCCOCCOC(=O)c1ccc(-c2c3nc(c(-c4c(F)cc(S(=O)(=O)[O-])cc4F)c4ccc([nH]4)c(-c4c(F)cc(S(=O)(=O)[O-])cc4F)c4nc(c(-c5c(F)cc(S(=O)(=O)[O-])cc5F)c5ccc2[nH]5)C=C4)C=C3)cc1)c1cc(F)c(C)cc1F
REMARK SMILES IDX 14 1 13 2 12 3 11 4 10 5 8 6 9 7 6 8 7 9 3 10 2 12 1 13 4 14
REMARK SMILES IDX 5 15 85 16 86 17 92 18 87 19 91 20 93 21 88 22 89 23 90 24
REMARK SMILES IDX 15 25 16 26 17 27 18 28 19 29 20 30 84 31 21 32 83 33 22 34
REMARK SMILES IDX 23 35 24 36 77 37 25 38 82 39 76 40 78 41 26 42 81 43 75 44
REMARK SMILES IDX 74 45 27 47 61 48 40 49 60 50 41 51 44 52 59 53 79 54 42 55
REMARK SMILES IDX 43 56 58 58 80 59 45 60 28 61 29 62 38 63 30 64 31 65 37 66
REMARK SMILES IDX 39 67 32 68 33 69 34 70 35 71 36 72 62 73 63 74 72 75 64 76
REMARK SMILES IDX 65 77 71 78 73 79 66 80 67 81 68 82 69 83 70 84 46 85 47 86
REMARK SMILES IDX 56 87 48 88 49 89 55 90 57 91 50 92 51 93 52 94 53 95 54 96
REMARK H PARENT 3 11 78 46 44 57
REMARK Flexibility Score: inf
ROOT
ATOM      1  C   UNL A   1      38.799  22.951  26.380  1.00  0.00     0.202 C 
ENDROOT
BRANCH   1   2
ATOM      2  O   UNL A   1      37.809  22.009  25.969  1.00  0.00    -0.374 OA
BRANCH   2   3
ATOM      3  C   UNL A   1      37.445  21.988  24.587  1.00  0.00     0.202 C 
BRANCH   3   4
ATOM      4  C   UNL A   1      36.477  23.082  24.140  1.00  0.00     0.261 C 
BRANCH   4   5
ATOM      5  O   UNL A   1      35.164  22.544  23.918  1.00  0.00    -0.458 OA
BRANCH   5   6
ATOM      6  C   UNL A   1      34.236  23.459  23.521  1.00  0.00     0.372 C 
ATOM      7  O   UNL A   1      34.455  24.300  22.649  1.00  0.00    -0.244 OA
BRANCH   6   8
ATOM      8  C   UNL A   1      32.835  23.281  24.251  1.00  0.00     0.221 C 
ATOM      9  C   UNL A   1      31.665  23.162  23.239  1.00  0.00     0.098 C 
BRANCH   8  10
ATOM     10  N   UNL A   1      33.018  21.991  25.050  1.00  0.00    -0.318 N 
ATOM     11  H   UNL A   1      33.993  21.778  24.842  1.00  0.00     0.349 HD
BRANCH  10  12
ATOM     12  C   UNL A   1      32.200  20.837  24.584  1.00  0.00     0.259 C 
ATOM     13  C   UNL A   1      32.707  19.417  24.826  1.00  0.00     0.071 C 
ENDBRANCH  10  12
BRANCH  10  14
ATOM     14  C   UNL A   1      32.912  22.128  26.512  1.00  0.00     0.259 C 
ATOM     15  C   UNL A   1      34.221  21.962  27.288  1.00  0.00     0.071 C 
ENDBRANCH  10  14
ENDBRANCH   8  10
BRANCH   8  16
ATOM     16  C   UNL A   1      32.574  24.597  25.086  1.00  0.00     0.062 A 
ATOM     17  C   UNL A   1      33.600  25.531  25.364  1.00  0.00     0.053 A 
ATOM     18  C   UNL A   1      31.288  24.985  25.512  1.00  0.00     0.133 A 
ATOM     19  C   UNL A   1      33.356  26.710  26.077  1.00  0.00     0.126 A 
ATOM     20  C   UNL A   1      31.051  26.146  26.262  1.00  0.00     0.046 A 
ATOM     21  F   UNL A   1      30.213  24.248  25.202  1.00  0.00    -0.206 F 
ATOM     22  F   UNL A   1      34.370  27.565  26.273  1.00  0.00    -0.207 F 
ATOM     23  C   UNL A   1      32.095  27.014  26.575  1.00  0.00    -0.012 A 
ATOM     24  C   UNL A   1      31.863  28.270  27.356  1.00  0.00     0.047 C 
ENDBRANCH   8  16
ENDBRANCH   6   8
ENDBRANCH   5   6
ENDBRANCH   4   5
ENDBRANCH   3   4
ENDBRANCH   2   3
ENDBRANCH   1   2
BRANCH   1  25
ATOM     25  C   UNL A   1      40.158  22.389  26.820  1.00  0.00     0.261 C 
BRANCH  25  26
ATOM     26  O   UNL A   1      40.804  23.160  27.853  1.00  0.00    -0.460 OA
BRANCH  26  27
ATOM     27  C   UNL A   1      41.502  24.228  27.394  1.00  0.00     0.338 C 
ATOM     28  O   UNL A   1      42.313  24.233  26.474  1.00  0.00    -0.246 OA
BRANCH  27  29
ATOM     29  C   UNL A   1      41.078  25.480  28.044  1.00  0.00     0.060 A 
ATOM     30  C   UNL A   1      42.072  26.426  28.326  1.00  0.00     0.016 A 
ATOM     31  C   UNL A   1      39.780  25.650  28.534  1.00  0.00     0.016 A 
ATOM     32  C   UNL A   1      41.792  27.506  29.161  1.00  0.00     0.010 A 
ATOM     33  C   UNL A   1      39.503  26.735  29.377  1.00  0.00     0.010 A 
ATOM     34  C   UNL A   1      40.520  27.638  29.736  1.00  0.00    -0.014 A 
BRANCH  34  35
ATOM     35  C   UNL A   1      40.334  28.615  30.841  1.00  0.00     0.031 A 
ATOM     36  C   UNL A   1      41.206  28.509  32.066  1.00  0.00     0.074 A 
ATOM     37  C   UNL A   1      39.452  29.624  30.727  1.00  0.00     0.049 A 
ATOM     38  N   UNL A   1      41.248  29.280  33.122  1.00  0.00    -0.248 NA
ATOM     39  C   UNL A   1      42.156  27.385  32.106  1.00  0.00     0.031 C 
ATOM     40  C   UNL A   1      38.568  29.848  29.585  1.00  0.00     0.029 A 
ATOM     41  N   UNL A   1      39.159  30.653  31.587  1.00  0.00    -0.354 N 
ATOM     42  C   UNL A   1      42.224  28.736  33.951  1.00  0.00     0.074 A 
ATOM     43  C   UNL A   1      42.729  27.552  33.289  1.00  0.00     0.031 C 
ATOM     44  C   UNL A   1      37.825  30.945  29.817  1.00  0.00     0.029 A 
ATOM     45  C   UNL A   1      38.173  31.492  31.128  1.00  0.00     0.049 A 
ATOM     46  H   UNL A   1      39.615  30.780  32.450  1.00  0.00     0.167 HD
ATOM     47  C   UNL A   1      42.667  29.185  35.151  1.00  0.00     0.037 A 
ATOM     48  C   UNL A   1      37.610  32.574  31.702  1.00  0.00     0.037 A 
ATOM     49  C   UNL A   1      42.175  30.369  35.805  1.00  0.00     0.049 A 
ATOM     50  C   UNL A   1      38.111  33.048  33.041  1.00  0.00     0.074 A 
ATOM     51  C   UNL A   1      42.576  30.916  37.012  1.00  0.00     0.029 A 
ATOM     52  N   UNL A   1      41.175  31.191  35.308  1.00  0.00    -0.354 N 
ATOM     53  N   UNL A   1      39.055  32.538  33.797  1.00  0.00    -0.248 NA
ATOM     54  C   UNL A   1      37.485  34.256  33.597  1.00  0.00     0.031 C 
ATOM     55  C   UNL A   1      41.795  32.051  37.260  1.00  0.00     0.029 A 
ATOM     56  C   UNL A   1      40.936  32.233  36.188  1.00  0.00     0.049 A 
ATOM     57  H   UNL A   1      40.705  31.054  34.454  1.00  0.00     0.167 HD
ATOM     58  C   UNL A   1      39.151  33.376  34.904  1.00  0.00     0.074 A 
ATOM     59  C   UNL A   1      38.179  34.433  34.713  1.00  0.00     0.031 C 
ATOM     60  C   UNL A   1      39.971  33.282  35.980  1.00  0.00     0.037 A 
BRANCH  47  61
ATOM     61  C   UNL A   1      43.730  28.382  35.845  1.00  0.00     0.058 A 
ATOM     62  C   UNL A   1      43.410  27.343  36.733  1.00  0.00     0.135 A 
ATOM     63  C   UNL A   1      45.089  28.626  35.586  1.00  0.00     0.135 A 
ATOM     64  F   UNL A   1      42.127  27.080  37.029  1.00  0.00    -0.206 F 
ATOM     65  C   UNL A   1      44.398  26.587  37.355  1.00  0.00     0.059 A 
ATOM     66  C   UNL A   1      46.094  27.869  36.179  1.00  0.00     0.059 A 
ATOM     67  F   UNL A   1      45.450  29.610  34.747  1.00  0.00    -0.206 F 
ATOM     68  C   UNL A   1      45.738  26.859  37.073  1.00  0.00     0.060 A 
BRANCH  68  69
ATOM     69  S   UNL A   1      47.013  25.863  37.876  1.00  0.00     0.124 S 
ATOM     70  O   UNL A   1      46.207  24.864  38.570  1.00  0.00    -0.237 OA
ATOM     71  O   UNL A   1      47.790  25.373  36.742  1.00  0.00    -0.237 OA
ATOM     72  O   UNL A   1      47.702  26.822  38.735  1.00  0.00    -0.744 OA
ENDBRANCH  68  69
ENDBRANCH  47  61
BRANCH  48  73
ATOM     73  C   UNL A   1      36.502  33.286  31.014  1.00  0.00     0.058 A 
ATOM     74  C   UNL A   1      36.741  34.100  29.896  1.00  0.00     0.135 A 
ATOM     75  C   UNL A   1      35.179  33.172  31.470  1.00  0.00     0.135 A 
ATOM     76  F   UNL A   1      37.990  34.248  29.429  1.00  0.00    -0.206 F 
ATOM     77  C   UNL A   1      35.711  34.790  29.265  1.00  0.00     0.059 A 
ATOM     78  C   UNL A   1      34.130  33.834  30.841  1.00  0.00     0.059 A 
ATOM     79  F   UNL A   1      34.898  32.396  32.529  1.00  0.00    -0.206 F 
ATOM     80  C   UNL A   1      34.408  34.651  29.746  1.00  0.00     0.060 A 
BRANCH  80  81
ATOM     81  S   UNL A   1      33.067  35.513  28.897  1.00  0.00     0.124 S 
ATOM     82  O   UNL A   1      32.290  36.024  30.020  1.00  0.00    -0.237 OA
ATOM     83  O   UNL A   1      33.789  36.511  28.114  1.00  0.00    -0.237 OA
ATOM     84  O   UNL A   1      32.433  34.455  28.117  1.00  0.00    -0.744 OA
ENDBRANCH  80  81
ENDBRANCH  48  73
BRANCH  60  85
ATOM     85  C   UNL A   1      39.879  34.370  37.013  1.00  0.00     0.058 A 
ATOM     86  C   UNL A   1      40.583  35.576  36.881  1.00  0.00     0.135 A 
ATOM     87  C   UNL A   1      39.054  34.210  38.138  1.00  0.00     0.135 A 
ATOM     88  F   UNL A   1      41.386  35.777  35.825  1.00  0.00    -0.206 F 
ATOM     89  C   UNL A   1      40.501  36.574  37.847  1.00  0.00     0.059 A 
ATOM     90  C   UNL A   1      38.938  35.205  39.105  1.00  0.00     0.059 A 
ATOM     91  F   UNL A   1      38.347  33.082  38.306  1.00  0.00    -0.206 F 
ATOM     92  C   UNL A   1      39.681  36.376  38.960  1.00  0.00     0.060 A 
BRANCH  92  93
ATOM     93  S   UNL A   1      39.578  37.676  40.209  1.00  0.00     0.124 S 
ATOM     94  O   UNL A   1      40.971  38.095  40.311  1.00  0.00    -0.237 OA
ATOM     95  O   UNL A   1      38.670  38.638  39.591  1.00  0.00    -0.237 OA
ATOM     96  O   UNL A   1      39.043  36.982  41.375  1.00  0.00    -0.744 OA
ENDBRANCH  92  93
ENDBRANCH  60  85
ENDBRANCH  34  35
ENDBRANCH  27  29
ENDBRANCH  26  27
ENDBRANCH  25  26
ENDBRANCH   1  25
TORSDOF 21
ENDMDL
MODEL 2
REMARK VINA RESULT:     -10.4      2.366      8.867
REMARK SMILES CC[NH+](CC)[C@](C)(C(=O)OCCOCCOC(=O)c1ccc(-c2c3nc(c(-c4c(F)cc(S(=O)(=O)[O-])cc4F)c4ccc([nH]4)c(-c4c(F)cc(S(=O)(=O)[O-])cc4F)c4nc(c(-c5c(F)cc(S(=O)(=O)[O-])cc5F)c5ccc2[nH]5)C=C4)C=C3)cc1)c1cc(F)c(C)cc1F
REMARK SMILES IDX 14 1 13 2 12 3 11 4 10 5 8 6 9 7 6 8 7 9 3 10 2 12 1 13 4 14
REMARK SMILES IDX 5 15 85 16 86 17 92 18 87 19 91 20 93 21 88 22 89 23 90 24
REMARK SMILES IDX 15 25 16 26 17 27 18 28 19 29 20 30 84 31 21 32 83 33 22 34
REMARK SMILES IDX 23 35 24 36 77 37 25 38 82 39 76 40 78 41 26 42 81 43 75 44
REMARK SMILES IDX 74 45 27 47 61 48 40 49 60 50 41 51 44 52 59 53 79 54 42 55
REMARK SMILES IDX 43 56 58 58 80 59 45 60 28 61 29 62 38 63 30 64 31 65 37 66
REMARK SMILES IDX 39 67 32 68 33 69 34 70 35 71 36 72 62 73 63 74 72 75 64 76
REMARK SMILES IDX 65 77 71 78 73 79 66 80 67 81 68 82 69 83 70 84 46 85 47 86
REMARK SMILES IDX 56 87 48 88 49 89 55 90 57 91 50 92 51 93 52 94 53 95 54 96
REMARK H PARENT 3 11 78 46 44 57
REMARK Flexibility Score: inf
ROOT
ATOM      1  C   UNL A   1      33.637  30.948  27.548  1.00  0.00     0.202 C 
ENDROOT
BRANCH   1   2
ATOM      2  O   UNL A   1      32.406  30.895  26.826  1.00  0.00    -0.374 OA
BRANCH   2   3
ATOM      3  C   UNL A   1      31.798  29.615  26.644  1.00  0.00     0.202 C 
BRANCH   3   4
ATOM      4  C   UNL A   1      32.596  28.421  27.164  1.00  0.00     0.261 C 
BRANCH   4   5
ATOM      5  O   UNL A   1      32.980  27.554  26.086  1.00  0.00    -0.458 OA
BRANCH   5   6
ATOM      6  C   UNL A   1      32.172  26.470  25.915  1.00  0.00     0.372 C 
ATOM      7  O   UNL A   1      31.479  26.002  26.817  1.00  0.00    -0.244 OA
BRANCH   6   8
ATOM      8  C   UNL A   1      32.173  25.925  24.421  1.00  0.00     0.221 C 
ATOM      9  C   UNL A   1      30.931  25.043  24.125  1.00  0.00     0.098 C 
BRANCH   8  10
ATOM     10  N   UNL A   1      32.167  27.201  23.582  1.00  0.00    -0.318 N 
ATOM     11  H   UNL A   1      32.304  27.904  24.308  1.00  0.00     0.349 HD
BRANCH  10  12
ATOM     12  C   UNL A   1      30.877  27.506  22.903  1.00  0.00     0.259 C 
ATOM     13  C   UNL A   1      30.008  28.647  23.429  1.00  0.00     0.071 C 
ENDBRANCH  10  12
BRANCH  10  14
ATOM     14  C   UNL A   1      33.283  27.344  22.631  1.00  0.00     0.259 C 
ATOM     15  C   UNL A   1      34.092  28.637  22.752  1.00  0.00     0.071 C 
ENDBRANCH  10  14
ENDBRANCH   8  10
BRANCH   8  16
ATOM     16  C   UNL A   1      33.435  24.986  24.269  1.00  0.00     0.062 A 
ATOM     17  C   UNL A   1      34.456  24.928  25.247  1.00  0.00     0.053 A 
ATOM     18  C   UNL A   1      33.575  24.066  23.211  1.00  0.00     0.133 A 
ATOM     19  C   UNL A   1      35.556  24.072  25.122  1.00  0.00     0.126 A 
ATOM     20  C   UNL A   1      34.698  23.238  23.064  1.00  0.00     0.046 A 
ATOM     21  F   UNL A   1      32.615  23.934  22.286  1.00  0.00    -0.206 F 
ATOM     22  F   UNL A   1      36.467  24.046  26.105  1.00  0.00    -0.207 F 
ATOM     23  C   UNL A   1      35.718  23.250  24.013  1.00  0.00    -0.012 A 
ATOM     24  C   UNL A   1      36.915  22.360  23.889  1.00  0.00     0.047 C 
ENDBRANCH   8  16
ENDBRANCH   6   8
ENDBRANCH   5   6
ENDBRANCH   4   5
ENDBRANCH   3   4
ENDBRANCH   2   3
ENDBRANCH   1   2
BRANCH   1  25
ATOM     25  C   UNL A   1      34.119  32.331  28.007  1.00  0.00     0.261 C 
BRANCH  25  26
ATOM     26  O   UNL A   1      33.158  33.385  27.797  1.00  0.00    -0.460 OA
BRANCH  26  27
ATOM     27  C   UNL A   1      33.315  34.450  28.622  1.00  0.00     0.338 C 
ATOM     28  O   UNL A   1      32.591  35.438  28.688  1.00  0.00    -0.246 OA
BRANCH  27  29
ATOM     29  C   UNL A   1      34.414  34.245  29.580  1.00  0.00     0.060 A 
ATOM     30  C   UNL A   1      35.719  34.458  29.117  1.00  0.00     0.016 A 
ATOM     31  C   UNL A   1      34.194  33.680  30.840  1.00  0.00     0.016 A 
ATOM     32  C   UNL A   1      36.808  34.039  29.878  1.00  0.00     0.010 A 
ATOM     33  C   UNL A   1      35.292  33.255  31.601  1.00  0.00     0.010 A 
ATOM     34  C   UNL A   1      36.601  33.385  31.101  1.00  0.00    -0.014 A 
BRANCH  34  35
ATOM     35  C   UNL A   1      37.748  32.693  31.744  1.00  0.00     0.031 A 
ATOM     36  C   UNL A   1      38.234  33.174  33.088  1.00  0.00     0.074 A 
ATOM     37  C   UNL A   1      38.304  31.608  31.176  1.00  0.00     0.049 A 
ATOM     38  N   UNL A   1      39.182  32.689  33.848  1.00  0.00    -0.248 NA
ATOM     39  C   UNL A   1      37.562  34.358  33.648  1.00  0.00     0.031 C 
ATOM     40  C   UNL A   1      37.911  31.031  29.891  1.00  0.00     0.029 A 
ATOM     41  N   UNL A   1      39.321  30.795  31.612  1.00  0.00    -0.354 N 
ATOM     42  C   UNL A   1      39.222  33.508  34.973  1.00  0.00     0.074 A 
ATOM     43  C   UNL A   1      38.223  34.537  34.782  1.00  0.00     0.031 C 
ATOM     44  C   UNL A   1      38.683  29.959  29.640  1.00  0.00     0.029 A 
ATOM     45  C   UNL A   1      39.631  29.782  30.738  1.00  0.00     0.049 A 
ATOM     46  H   UNL A   1      39.783  30.925  32.472  1.00  0.00     0.167 HD
ATOM     47  C   UNL A   1      40.012  33.406  36.069  1.00  0.00     0.037 A 
ATOM     48  C   UNL A   1      40.577  28.824  30.813  1.00  0.00     0.037 A 
ATOM     49  C   UNL A   1      40.997  32.376  36.266  1.00  0.00     0.049 A 
ATOM     50  C   UNL A   1      41.451  28.738  32.037  1.00  0.00     0.074 A 
ATOM     51  C   UNL A   1      41.831  32.178  37.353  1.00  0.00     0.029 A 
ATOM     52  N   UNL A   1      41.282  31.368  35.358  1.00  0.00    -0.354 N 
ATOM     53  N   UNL A   1      41.455  29.502  33.103  1.00  0.00    -0.248 NA
ATOM     54  C   UNL A   1      42.436  27.647  32.076  1.00  0.00     0.031 C 
ATOM     55  C   UNL A   1      42.643  31.069  37.087  1.00  0.00     0.029 A 
ATOM     56  C   UNL A   1      42.286  30.553  35.852  1.00  0.00     0.049 A 
ATOM     57  H   UNL A   1      40.834  31.249  34.489  1.00  0.00     0.167 HD
ATOM     58  C   UNL A   1      42.424  28.970  33.949  1.00  0.00     0.074 A 
ATOM     59  C   UNL A   1      42.975  27.813  33.276  1.00  0.00     0.031 C 
ATOM     60  C   UNL A   1      42.819  29.400  35.174  1.00  0.00     0.037 A 
BRANCH  47  61
ATOM     61  C   UNL A   1      39.854  34.450  37.139  1.00  0.00     0.058 A 
ATOM     62  C   UNL A   1      40.507  35.691  37.062  1.00  0.00     0.135 A 
ATOM     63  C   UNL A   1      39.006  34.223  38.234  1.00  0.00     0.135 A 
ATOM     64  F   UNL A   1      41.343  35.952  36.044  1.00  0.00    -0.206 F 
ATOM     65  C   UNL A   1      40.338  36.663  38.043  1.00  0.00     0.059 A 
ATOM     66  C   UNL A   1      38.806  35.188  39.216  1.00  0.00     0.059 A 
ATOM     67  F   UNL A   1      38.361  33.052  38.357  1.00  0.00    -0.206 F 
ATOM     68  C   UNL A   1      39.487  36.401  39.118  1.00  0.00     0.060 A 
BRANCH  68  69
ATOM     69  S   UNL A   1      39.267  37.674  40.379  1.00  0.00     0.124 S 
ATOM     70  O   UNL A   1      38.165  38.451  39.819  1.00  0.00    -0.237 OA
ATOM     71  O   UNL A   1      38.948  36.888  41.567  1.00  0.00    -0.237 OA
ATOM     72  O   UNL A   1      40.560  38.350  40.409  1.00  0.00    -0.744 OA
ENDBRANCH  68  69
ENDBRANCH  47  61
BRANCH  48  73
ATOM     73  C   UNL A   1      40.750  27.865  29.691  1.00  0.00     0.058 A 
ATOM     74  C   UNL A   1      39.861  26.796  29.500  1.00  0.00     0.135 A 
ATOM     75  C   UNL A   1      41.819  27.996  28.790  1.00  0.00     0.135 A 
ATOM     76  F   UNL A   1      38.831  26.623  30.341  1.00  0.00    -0.206 F 
ATOM     77  C   UNL A   1      40.036  25.880  28.467  1.00  0.00     0.059 A 
ATOM     78  C   UNL A   1      42.000  27.107  27.736  1.00  0.00     0.059 A 
ATOM     79  F   UNL A   1      42.689  29.010  28.923  1.00  0.00    -0.206 F 
ATOM     80  C   UNL A   1      41.110  26.045  27.590  1.00  0.00     0.060 A 
BRANCH  80  81
ATOM     81  S   UNL A   1      41.307  24.880  26.224  1.00  0.00     0.124 S 
ATOM     82  O   UNL A   1      40.031  24.173  26.255  1.00  0.00    -0.237 OA
ATOM     83  O   UNL A   1      41.517  25.770  25.086  1.00  0.00    -0.237 OA
ATOM     84  O   UNL A   1      42.474  24.098  26.620  1.00  0.00    -0.744 OA
ENDBRANCH  80  81
ENDBRANCH  48  73
BRANCH  60  85
ATOM     85  C   UNL A   1      43.872  28.591  35.879  1.00  0.00     0.058 A 
ATOM     86  C   UNL A   1      43.539  27.515  36.716  1.00  0.00     0.135 A 
ATOM     87  C   UNL A   1      45.233  28.883  35.694  1.00  0.00     0.135 A 
ATOM     88  F   UNL A   1      42.253  27.196  36.928  1.00  0.00    -0.206 F 
ATOM     89  C   UNL A   1      44.519  26.779  37.375  1.00  0.00     0.059 A 
ATOM     90  C   UNL A   1      46.230  28.145  36.324  1.00  0.00     0.059 A 
ATOM     91  F   UNL A   1      45.605  29.893  34.892  1.00  0.00    -0.206 F 
ATOM     92  C   UNL A   1      45.862  27.106  37.178  1.00  0.00     0.060 A 
BRANCH  92  93
ATOM     93  S   UNL A   1      47.128  26.144  38.034  1.00  0.00     0.124 S 
ATOM     94  O   UNL A   1      46.336  25.452  39.044  1.00  0.00    -0.237 OA
ATOM     95  O   UNL A   1      47.666  25.306  36.966  1.00  0.00    -0.237 OA
ATOM     96  O   UNL A   1      48.042  27.164  38.539  1.00  0.00    -0.744 OA
ENDBRANCH  92  93
ENDBRANCH  60  85
ENDBRANCH  34  35
ENDBRANCH  27  29
ENDBRANCH  26  27
ENDBRANCH  25  26
ENDBRANCH   1  25
TORSDOF 21
ENDMDL
MODEL 3
REMARK VINA RESULT:     -10.4      4.975      6.345
REMARK SMILES CC[NH+](CC)[C@](C)(C(=O)OCCOCCOC(=O)c1ccc(-c2c3nc(c(-c4c(F)cc(S(=O)(=O)[O-])cc4F)c4ccc([nH]4)c(-c4c(F)cc(S(=O)(=O)[O-])cc4F)c4nc(c(-c5c(F)cc(S(=O)(=O)[O-])cc5F)c5ccc2[nH]5)C=C4)C=C3)cc1)c1cc(F)c(C)cc1F
REMARK SMILES IDX 14 1 13 2 12 3 11 4 10 5 8 6 9 7 6 8 7 9 3 10 2 12 1 13 4 14
REMARK SMILES IDX 5 15 85 16 86 17 92 18 87 19 91 20 93 21 88 22 89 23 90 24
REMARK SMILES IDX 15 25 16 26 17 27 18 28 19 29 20 30 84 31 21 32 83 33 22 34
REMARK SMILES IDX 23 35 24 36 77 37 25 38 82 39 76 40 78 41 26 42 81 43 75 44
REMARK SMILES IDX 74 45 27 47 61 48 40 49 60 50 41 51 44 52 59 53 79 54 42 55
REMARK SMILES IDX 43 56 58 58 80 59 45 60 28 61 29 62 38 63 30 64 31 65 37 66
REMARK SMILES IDX 39 67 32 68 33 69 34 70 35 71 36 72 62 73 63 74 72 75 64 76
REMARK SMILES IDX 65 77 71 78 73 79 66 80 67 81 68 82 69 83 70 84 46 85 47 86
REMARK SMILES IDX 56 87 48 88 49 89 55 90 57 91 50 92 51 93 52 94 53 95 54 96
REMARK H PARENT 3 11 78 46 44 57
REMARK Flexibility Score: inf
ROOT
ATOM      1  C   UNL A   1      36.056  21.670  25.657  1.00  0.00     0.202 C 
ENDROOT
BRANCH   1   2
ATOM      2  O   UNL A   1      34.959  21.746  26.568  1.00  0.00    -0.374 OA
BRANCH   2   3
ATOM      3  C   UNL A   1      33.642  21.597  26.034  1.00  0.00     0.202 C 
BRANCH   3   4
ATOM      4  C   UNL A   1      32.562  22.462  26.680  1.00  0.00     0.261 C 
BRANCH   4   5
ATOM      5  O   UNL A   1      33.029  23.807  26.871  1.00  0.00    -0.458 OA
BRANCH   5   6
ATOM      6  C   UNL A   1      32.228  24.768  26.331  1.00  0.00     0.372 C 
ATOM      7  O   UNL A   1      31.059  24.937  26.677  1.00  0.00    -0.244 OA
BRANCH   6   8
ATOM      8  C   UNL A   1      32.980  25.677  25.266  1.00  0.00     0.221 C 
ATOM      9  C   UNL A   1      34.434  25.197  25.017  1.00  0.00     0.098 C 
BRANCH   8  10
ATOM     10  N   UNL A   1      32.120  25.531  24.011  1.00  0.00    -0.318 N 
ATOM     11  H   UNL A   1      31.201  25.766  24.385  1.00  0.00     0.349 HD
BRANCH  10  12
ATOM     12  C   UNL A   1      32.039  24.152  23.457  1.00  0.00     0.259 C 
ATOM     13  C   UNL A   1      30.697  23.422  23.466  1.00  0.00     0.071 C 
ENDBRANCH  10  12
BRANCH  10  14
ATOM     14  C   UNL A   1      32.401  26.493  22.932  1.00  0.00     0.259 C 
ATOM     15  C   UNL A   1      31.926  26.079  21.537  1.00  0.00     0.071 C 
ENDBRANCH  10  14
ENDBRANCH   8  10
BRANCH   8  16
ATOM     16  C   UNL A   1      33.086  27.128  25.884  1.00  0.00     0.062 A 
ATOM     17  C   UNL A   1      34.319  27.685  26.296  1.00  0.00     0.053 A 
ATOM     18  C   UNL A   1      31.984  28.002  25.965  1.00  0.00     0.133 A 
ATOM     19  C   UNL A   1      34.412  28.981  26.816  1.00  0.00     0.126 A 
ATOM     20  C   UNL A   1      32.069  29.286  26.524  1.00  0.00     0.046 A 
ATOM     21  F   UNL A   1      30.784  27.638  25.492  1.00  0.00    -0.206 F 
ATOM     22  F   UNL A   1      35.620  29.455  27.153  1.00  0.00    -0.207 F 
ATOM     23  C   UNL A   1      33.289  29.783  26.979  1.00  0.00    -0.012 A 
ATOM     24  C   UNL A   1      33.408  31.158  27.559  1.00  0.00     0.047 C 
ENDBRANCH   8  16
ENDBRANCH   6   8
ENDBRANCH   5   6
ENDBRANCH   4   5
ENDBRANCH   3   4
ENDBRANCH   2   3
ENDBRANCH   1   2
BRANCH   1  25
ATOM     25  C   UNL A   1      37.095  22.798  25.719  1.00  0.00     0.261 C 
BRANCH  25  26
ATOM     26  O   UNL A   1      38.440  22.373  25.425  1.00  0.00    -0.460 OA
BRANCH  26  27
ATOM     27  C   UNL A   1      39.305  22.512  26.460  1.00  0.00     0.338 C 
ATOM     28  O   UNL A   1      40.019  21.639  26.942  1.00  0.00    -0.246 OA
BRANCH  27  29
ATOM     29  C   UNL A   1      39.418  23.915  26.894  1.00  0.00     0.060 A 
ATOM     30  C   UNL A   1      40.017  24.817  26.005  1.00  0.00     0.016 A 
ATOM     31  C   UNL A   1      39.121  24.305  28.204  1.00  0.00     0.016 A 
ATOM     32  C   UNL A   1      40.389  26.086  26.442  1.00  0.00     0.010 A 
ATOM     33  C   UNL A   1      39.501  25.581  28.642  1.00  0.00     0.010 A 
ATOM     34  C   UNL A   1      40.183  26.458  27.778  1.00  0.00    -0.014 A 
BRANCH  34  35
ATOM     35  C   UNL A   1      40.847  27.686  28.288  1.00  0.00     0.031 A 
ATOM     36  C   UNL A   1      42.347  27.802  28.188  1.00  0.00     0.074 A 
ATOM     37  C   UNL A   1      40.123  28.712  28.768  1.00  0.00     0.049 A 
ATOM     38  N   UNL A   1      43.125  28.799  28.524  1.00  0.00    -0.248 NA
ATOM     39  C   UNL A   1      43.064  26.641  27.637  1.00  0.00     0.031 C 
ATOM     40  C   UNL A   1      38.666  28.732  28.896  1.00  0.00     0.029 A 
ATOM     41  N   UNL A   1      40.518  29.941  29.235  1.00  0.00    -0.354 N 
ATOM     42  C   UNL A   1      44.420  28.387  28.228  1.00  0.00     0.074 A 
ATOM     43  C   UNL A   1      44.327  27.038  27.713  1.00  0.00     0.031 C 
ATOM     44  C   UNL A   1      38.290  29.914  29.414  1.00  0.00     0.029 A 
ATOM     45  C   UNL A   1      39.477  30.729  29.666  1.00  0.00     0.049 A 
ATOM     46  H   UNL A   1      41.458  30.232  29.257  1.00  0.00     0.167 HD
ATOM     47  C   UNL A   1      45.582  29.072  28.364  1.00  0.00     0.037 A 
ATOM     48  C   UNL A   1      39.483  31.964  30.207  1.00  0.00     0.037 A 
ATOM     49  C   UNL A   1      45.676  30.418  28.864  1.00  0.00     0.049 A 
ATOM     50  C   UNL A   1      40.788  32.701  30.357  1.00  0.00     0.074 A 
ATOM     51  C   UNL A   1      46.805  31.203  29.018  1.00  0.00     0.029 A 
ATOM     52  N   UNL A   1      44.600  31.182  29.289  1.00  0.00    -0.354 N 
ATOM     53  N   UNL A   1      42.000  32.307  30.045  1.00  0.00    -0.248 NA
ATOM     54  C   UNL A   1      40.725  34.059  30.917  1.00  0.00     0.031 C 
ATOM     55  C   UNL A   1      46.415  32.430  29.568  1.00  0.00     0.029 A 
ATOM     56  C   UNL A   1      45.038  32.423  29.718  1.00  0.00     0.049 A 
ATOM     57  H   UNL A   1      43.661  30.884  29.286  1.00  0.00     0.167 HD
ATOM     58  C   UNL A   1      42.838  33.376  30.347  1.00  0.00     0.074 A 
ATOM     59  C   UNL A   1      41.993  34.438  30.854  1.00  0.00     0.031 C 
ATOM     60  C   UNL A   1      44.185  33.472  30.213  1.00  0.00     0.037 A 
BRANCH  47  61
ATOM     61  C   UNL A   1      46.853  28.369  27.978  1.00  0.00     0.058 A 
ATOM     62  C   UNL A   1      47.577  27.596  28.900  1.00  0.00     0.135 A 
ATOM     63  C   UNL A   1      47.330  28.434  26.659  1.00  0.00     0.135 A 
ATOM     64  F   UNL A   1      47.174  27.515  30.178  1.00  0.00    -0.206 F 
ATOM     65  C   UNL A   1      48.741  26.927  28.532  1.00  0.00     0.059 A 
ATOM     66  C   UNL A   1      48.480  27.757  26.264  1.00  0.00     0.059 A 
ATOM     67  F   UNL A   1      46.677  29.161  25.740  1.00  0.00    -0.206 F 
ATOM     68  C   UNL A   1      49.185  27.015  27.211  1.00  0.00     0.060 A 
BRANCH  68  69
ATOM     69  S   UNL A   1      50.690  26.134  26.742  1.00  0.00     0.124 S 
ATOM     70  O   UNL A   1      50.629  26.210  25.286  1.00  0.00    -0.237 OA
ATOM     71  O   UNL A   1      51.733  26.934  27.376  1.00  0.00    -0.237 OA
ATOM     72  O   UNL A   1      50.495  24.803  27.310  1.00  0.00    -0.744 OA
ENDBRANCH  68  69
ENDBRANCH  47  61
BRANCH  48  73
ATOM     73  C   UNL A   1      38.208  32.585  30.649  1.00  0.00     0.058 A 
ATOM     74  C   UNL A   1      37.775  32.493  31.980  1.00  0.00     0.135 A 
ATOM     75  C   UNL A   1      37.392  33.278  29.741  1.00  0.00     0.135 A 
ATOM     76  F   UNL A   1      38.515  31.832  32.882  1.00  0.00    -0.206 F 
ATOM     77  C   UNL A   1      36.568  33.049  32.392  1.00  0.00     0.059 A 
ATOM     78  C   UNL A   1      36.194  33.863  30.135  1.00  0.00     0.059 A 
ATOM     79  F   UNL A   1      37.770  33.404  28.459  1.00  0.00    -0.206 F 
ATOM     80  C   UNL A   1      35.784  33.733  31.461  1.00  0.00     0.060 A 
BRANCH  80  81
ATOM     81  S   UNL A   1      34.240  34.493  32.010  1.00  0.00     0.124 S 
ATOM     82  O   UNL A   1      34.727  35.688  32.689  1.00  0.00    -0.237 OA
ATOM     83  O   UNL A   1      33.539  34.715  30.750  1.00  0.00    -0.237 OA
ATOM     84  O   UNL A   1      33.654  33.470  32.871  1.00  0.00    -0.744 OA
ENDBRANCH  80  81
ENDBRANCH  48  73
BRANCH  60  85
ATOM     85  C   UNL A   1      44.821  34.782  30.586  1.00  0.00     0.058 A 
ATOM     86  C   UNL A   1      44.976  35.819  29.655  1.00  0.00     0.135 A 
ATOM     87  C   UNL A   1      45.259  35.008  31.901  1.00  0.00     0.135 A 
ATOM     88  F   UNL A   1      44.576  35.653  28.385  1.00  0.00    -0.206 F 
ATOM     89  C   UNL A   1      45.577  37.025  30.005  1.00  0.00     0.059 A 
ATOM     90  C   UNL A   1      45.841  36.214  32.279  1.00  0.00     0.059 A 
ATOM     91  F   UNL A   1      45.121  34.053  32.835  1.00  0.00    -0.206 F 
ATOM     92  C   UNL A   1      46.013  37.210  31.319  1.00  0.00     0.060 A 
BRANCH  92  93
ATOM     93  S   UNL A   1      46.789  38.778  31.766  1.00  0.00     0.124 S 
ATOM     94  O   UNL A   1      47.684  38.994  30.635  1.00  0.00    -0.237 OA
ATOM     95  O   UNL A   1      45.648  39.683  31.854  1.00  0.00    -0.237 OA
ATOM     96  O   UNL A   1      47.443  38.480  33.037  1.00  0.00    -0.744 OA
ENDBRANCH  92  93
ENDBRANCH  60  85
ENDBRANCH  34  35
ENDBRANCH  27  29
ENDBRANCH  26  27
ENDBRANCH  25  26
ENDBRANCH   1  25
TORSDOF 21
ENDMDL
