MODEL 1
REMARK VINA RESULT:      -8.4      0.000      0.000
REMARK SMILES COc1ccc(CCN2C(=O)CC[C@@H](C(=O)OCCOCCOC(=O)c3ccc(-c4c5nc(c(-c6c(F)cc(S(=O)(=O)[O-])cc6F)c6ccc([nH]6)c(-c6c(F)cc(S(=O)(=O)[O-])cc6F)c6nc(c(-c7c(F)cc(S(=O)(=O)[O-])cc7F)c7ccc4[nH]7)C=C6)C=C5)cc3)[C@@H]2c2ccc(Cl)cc2)cc1OC
REMARK SMILES IDX 19 1 18 2 17 3 15 4 16 5 14 6 9 7 10 8 92 9 11 10 12 11
REMARK SMILES IDX 13 12 8 13 7 14 6 15 3 16 4 17 101 18 5 19 100 20 2 21 1 22
REMARK SMILES IDX 102 23 103 24 93 25 94 26 99 27 95 28 98 29 96 30 97 31
REMARK SMILES IDX 20 32 21 33 22 34 23 35 24 36 25 37 26 38 27 39 91 40 28 41
REMARK SMILES IDX 90 42 29 43 30 44 31 45 84 46 32 47 89 48 83 49 85 50 33 51
REMARK SMILES IDX 88 52 82 53 81 54 34 56 68 57 47 58 67 59 48 60 51 61 66 62
REMARK SMILES IDX 86 63 49 64 50 65 65 67 87 68 52 69 35 70 36 71 45 72 37 73
REMARK SMILES IDX 38 74 44 75 46 76 39 77 40 78 41 79 42 80 43 81 69 82 70 83
REMARK SMILES IDX 79 84 71 85 72 86 78 87 80 88 73 89 74 90 75 91 76 92 77 93
REMARK SMILES IDX 53 94 54 95 63 96 55 97 56 98 62 99 64 100 57 101 58 102
REMARK SMILES IDX 59 103 60 104 61 105
REMARK H PARENT 85 55 51 66
REMARK Flexibility Score: inf
ROOT
ATOM      1  C   UNL A   1      41.863  35.787  28.081  1.00  0.00     0.202 C 
ENDROOT
BRANCH   1   2
ATOM      2  C   UNL A   1      40.530  35.199  28.637  1.00  0.00     0.261 C 
BRANCH   2   3
ATOM      3  O   UNL A   1      40.451  34.975  30.057  1.00  0.00    -0.463 OA
BRANCH   3   4
ATOM      4  C   UNL A   1      39.342  34.328  30.463  1.00  0.00     0.311 C 
ATOM      5  O   UNL A   1      38.221  34.570  30.026  1.00  0.00    -0.252 OA
BRANCH   4   6
ATOM      6  C   UNL A   1      39.547  33.321  31.591  1.00  0.00     0.127 C 
ATOM      7  N   UNL A   1      40.419  34.496  33.687  1.00  0.00    -0.334 N 
ATOM      8  C   UNL A   1      39.112  34.694  34.148  1.00  0.00     0.223 C 
ATOM      9  C   UNL A   1      40.688  33.496  32.629  1.00  0.00     0.129 C 
ATOM     10  O   UNL A   1      38.861  35.234  35.226  1.00  0.00    -0.275 OA
ATOM     11  C   UNL A   1      37.962  34.312  33.237  1.00  0.00     0.101 C 
ATOM     12  C   UNL A   1      38.223  33.141  32.315  1.00  0.00     0.028 C 
BRANCH   7  13
ATOM     13  C   UNL A   1      41.488  35.034  34.590  1.00  0.00     0.125 C 
BRANCH  13  14
ATOM     14  C   UNL A   1      42.945  35.305  34.120  1.00  0.00     0.057 C 
BRANCH  14  15
ATOM     15  C   UNL A   1      43.419  36.733  34.242  1.00  0.00    -0.042 A 
ATOM     16  C   UNL A   1      44.125  39.510  34.257  1.00  0.00     0.160 A 
ATOM     17  C   UNL A   1      43.733  38.849  33.134  1.00  0.00     0.051 A 
ATOM     18  C   UNL A   1      44.506  38.673  35.296  1.00  0.00     0.160 A 
ATOM     19  C   UNL A   1      43.527  37.481  33.104  1.00  0.00     0.008 A 
ATOM     20  C   UNL A   1      43.931  37.353  35.379  1.00  0.00     0.054 A 
BRANCH  16  21
ATOM     21  O   UNL A   1      44.133  40.871  34.326  1.00  0.00    -0.493 OA
ATOM     22  C   UNL A   1      44.712  41.503  35.472  1.00  0.00     0.278 C 
ENDBRANCH  16  21
BRANCH  18  23
ATOM     23  O   UNL A   1      45.802  38.707  35.912  1.00  0.00    -0.493 OA
ATOM     24  C   UNL A   1      47.411  38.359  37.033  1.00  0.00     0.278 C 
ENDBRANCH  18  23
ENDBRANCH  14  15
ENDBRANCH  13  14
ENDBRANCH   7  13
BRANCH   9  25
ATOM     25  C   UNL A   1      41.123  32.119  33.155  1.00  0.00    -0.024 A 
ATOM     26  C   UNL A   1      40.249  31.188  33.731  1.00  0.00     0.007 A 
ATOM     27  C   UNL A   1      42.488  31.773  33.040  1.00  0.00     0.007 A 
ATOM     28  C   UNL A   1      40.731  29.960  34.201  1.00  0.00     0.021 A 
ATOM     29  C   UNL A   1      42.964  30.542  33.490  1.00  0.00     0.021 A 
ATOM     30  C   UNL A   1      42.082  29.643  34.078  1.00  0.00     0.041 A 
ATOM     31  Cl  UNL A   1      42.669  28.133  34.655  1.00  0.00    -0.084 Cl
ENDBRANCH   9  25
ENDBRANCH   4   6
ENDBRANCH   3   4
ENDBRANCH   2   3
ENDBRANCH   1   2
BRANCH   1  32
ATOM     32  O   UNL A   1      42.048  37.184  27.876  1.00  0.00    -0.374 OA
BRANCH  32  33
ATOM     33  C   UNL A   1      43.315  37.809  28.131  1.00  0.00     0.202 C 
BRANCH  33  34
ATOM     34  C   UNL A   1      44.125  37.458  29.428  1.00  0.00     0.261 C 
BRANCH  34  35
ATOM     35  O   UNL A   1      45.484  37.987  29.449  1.00  0.00    -0.460 OA
BRANCH  35  36
ATOM     36  C   UNL A   1      46.425  37.436  28.617  1.00  0.00     0.338 C 
ATOM     37  O   UNL A   1      47.302  38.037  28.038  1.00  0.00    -0.246 OA
BRANCH  36  38
ATOM     38  C   UNL A   1      46.285  35.945  28.564  1.00  0.00     0.060 A 
ATOM     39  C   UNL A   1      45.621  35.124  27.077  1.00  0.00     0.016 A 
ATOM     40  C   UNL A   1      46.820  34.940  29.956  1.00  0.00     0.016 A 
ATOM     41  C   UNL A   1      45.619  33.321  26.941  1.00  0.00     0.010 A 
ATOM     42  C   UNL A   1      46.750  33.129  29.856  1.00  0.00     0.010 A 
ATOM     43  C   UNL A   1      46.172  32.322  28.345  1.00  0.00    -0.014 A 
BRANCH  43  44
ATOM     44  C   UNL A   1      45.916  30.875  28.272  1.00  0.00     0.031 A 
ATOM     45  C   UNL A   1      44.515  30.439  28.551  1.00  0.00     0.074 A 
ATOM     46  C   UNL A   1      46.832  30.031  27.764  1.00  0.00     0.049 A 
ATOM     47  N   UNL A   1      43.863  29.419  28.074  1.00  0.00    -0.248 NA
ATOM     48  C   UNL A   1      43.690  31.343  29.366  1.00  0.00     0.031 C 
ATOM     49  C   UNL A   1      48.203  30.376  27.387  1.00  0.00     0.029 A 
ATOM     50  N   UNL A   1      46.733  28.698  27.463  1.00  0.00    -0.354 N 
ATOM     51  C   UNL A   1      42.537  29.647  28.414  1.00  0.00     0.074 A 
ATOM     52  C   UNL A   1      42.470  30.904  29.117  1.00  0.00     0.031 C 
ATOM     53  C   UNL A   1      48.825  29.274  26.924  1.00  0.00     0.029 A 
ATOM     54  C   UNL A   1      47.895  28.150  26.969  1.00  0.00     0.049 A 
ATOM     55  H   UNL A   1      45.906  28.178  27.589  1.00  0.00     0.167 HD
ATOM     56  C   UNL A   1      41.474  28.839  28.231  1.00  0.00     0.037 A 
ATOM     57  C   UNL A   1      48.153  26.875  26.608  1.00  0.00     0.037 A 
ATOM     58  C   UNL A   1      41.635  27.462  27.869  1.00  0.00     0.049 A 
ATOM     59  C   UNL A   1      47.001  25.899  26.666  1.00  0.00     0.074 A 
ATOM     60  C   UNL A   1      40.705  26.445  27.900  1.00  0.00     0.029 A 
ATOM     61  N   UNL A   1      42.856  26.894  27.520  1.00  0.00    -0.354 N 
ATOM     62  N   UNL A   1      45.735  26.136  26.941  1.00  0.00    -0.248 NA
ATOM     63  C   UNL A   1      47.297  24.492  26.375  1.00  0.00     0.031 C 
ATOM     64  C   UNL A   1      41.386  25.245  27.667  1.00  0.00     0.029 A 
ATOM     65  C   UNL A   1      42.719  25.528  27.395  1.00  0.00     0.049 A 
ATOM     66  H   UNL A   1      43.693  27.393  27.382  1.00  0.00     0.167 HD
ATOM     67  C   UNL A   1      45.082  24.913  26.838  1.00  0.00     0.074 A 
ATOM     68  C   UNL A   1      46.092  23.942  26.460  1.00  0.00     0.031 C 
ATOM     69  C   UNL A   1      43.773  24.610  27.033  1.00  0.00     0.037 A 
BRANCH  56  70
ATOM     70  C   UNL A   1      40.138  29.390  28.629  1.00  0.00     0.058 A 
ATOM     71  C   UNL A   1      39.787  29.553  29.981  1.00  0.00     0.135 A 
ATOM     72  C   UNL A   1      39.158  29.654  27.660  1.00  0.00     0.135 A 
ATOM     73  F   UNL A   1      40.669  29.257  30.949  1.00  0.00    -0.206 F 
ATOM     74  C   UNL A   1      38.508  29.956  30.356  1.00  0.00     0.059 A 
ATOM     75  C   UNL A   1      37.878  30.069  28.013  1.00  0.00     0.059 A 
ATOM     76  F   UNL A   1      39.426  29.459  26.360  1.00  0.00    -0.206 F 
ATOM     77  C   UNL A   1      37.560  30.208  29.363  1.00  0.00     0.060 A 
BRANCH  77  78
ATOM     78  S   UNL A   1      35.897  30.706  29.863  1.00  0.00     0.124 S 
ATOM     79  O   UNL A   1      36.094  32.119  30.170  1.00  0.00    -0.237 OA
ATOM     80  O   UNL A   1      35.115  30.419  28.664  1.00  0.00    -0.237 OA
ATOM     81  O   UNL A   1      35.617  29.848  31.011  1.00  0.00    -0.744 OA
ENDBRANCH  77  78
ENDBRANCH  56  70
BRANCH  57  82
ATOM     82  C   UNL A   1      49.532  26.444  26.224  1.00  0.00     0.058 A 
ATOM     83  C   UNL A   1      50.451  25.943  27.159  1.00  0.00     0.135 A 
ATOM     84  C   UNL A   1      49.972  26.561  24.893  1.00  0.00     0.135 A 
ATOM     85  F   UNL A   1      50.098  25.822  28.447  1.00  0.00    -0.206 F 
ATOM     86  C   UNL A   1      51.751  25.587  26.795  1.00  0.00     0.059 A 
ATOM     87  C   UNL A   1      51.256  26.187  24.500  1.00  0.00     0.059 A 
ATOM     88  F   UNL A   1      49.145  27.041  23.951  1.00  0.00    -0.206 F 
ATOM     89  C   UNL A   1      52.144  25.713  25.462  1.00  0.00     0.060 A 
BRANCH  89  90
ATOM     90  S   UNL A   1      53.823  25.229  24.994  1.00  0.00     0.124 S 
ATOM     91  O   UNL A   1      53.976  25.898  23.707  1.00  0.00    -0.237 OA
ATOM     92  O   UNL A   1      54.616  25.771  26.093  1.00  0.00    -0.237 OA
ATOM     93  O   UNL A   1      53.752  23.771  24.940  1.00  0.00    -0.744 OA
ENDBRANCH  89  90
ENDBRANCH  57  82
BRANCH  69  94
ATOM     94  C   UNL A   1      43.364  23.183  26.822  1.00  0.00     0.058 A 
ATOM     95  C   UNL A   1      43.264  22.624  25.540  1.00  0.00     0.135 A 
ATOM     96  C   UNL A   1      43.161  22.347  27.931  1.00  0.00     0.135 A 
ATOM     97  F   UNL A   1      43.455  23.386  24.452  1.00  0.00    -0.206 F 
ATOM     98  C   UNL A   1      42.946  21.284  25.363  1.00  0.00     0.059 A 
ATOM     99  C   UNL A   1      42.876  20.997  27.777  1.00  0.00     0.059 A 
ATOM    100  F   UNL A   1      43.269  22.834  29.177  1.00  0.00    -0.206 F 
ATOM    101  C   UNL A   1      42.756  20.479  26.489  1.00  0.00     0.060 A 
BRANCH 101 102
ATOM    102  S   UNL A   1      42.380  18.733  26.249  1.00  0.00     0.124 S 
ATOM    103  O   UNL A   1      42.548  18.210  27.601  1.00  0.00    -0.237 OA
ATOM    104  O   UNL A   1      41.009  18.774  25.749  1.00  0.00    -0.237 OA
ATOM    105  O   UNL A   1      43.381  18.300  25.278  1.00  0.00    -0.744 OA
ENDBRANCH 101 102
ENDBRANCH  69  94
ENDBRANCH  43  44
ENDBRANCH  36  38
ENDBRANCH  35  36
ENDBRANCH  34  35
ENDBRANCH  33  34
ENDBRANCH  32  33
ENDBRANCH   1  32
TORSDOF 23
ENDMDL
MODEL 2
REMARK VINA RESULT:      -8.3      5.897      9.604
REMARK SMILES COc1ccc(CCN2C(=O)CC[C@@H](C(=O)OCCOCCOC(=O)c3ccc(-c4c5nc(c(-c6c(F)cc(S(=O)(=O)[O-])cc6F)c6ccc([nH]6)c(-c6c(F)cc(S(=O)(=O)[O-])cc6F)c6nc(c(-c7c(F)cc(S(=O)(=O)[O-])cc7F)c7ccc4[nH]7)C=C6)C=C5)cc3)[C@@H]2c2ccc(Cl)cc2)cc1OC
REMARK SMILES IDX 19 1 18 2 17 3 15 4 16 5 14 6 9 7 10 8 92 9 11 10 12 11
REMARK SMILES IDX 13 12 8 13 7 14 6 15 3 16 4 17 101 18 5 19 100 20 2 21 1 22
REMARK SMILES IDX 102 23 103 24 93 25 94 26 99 27 95 28 98 29 96 30 97 31
REMARK SMILES IDX 20 32 21 33 22 34 23 35 24 36 25 37 26 38 27 39 91 40 28 41
REMARK SMILES IDX 90 42 29 43 30 44 31 45 84 46 32 47 89 48 83 49 85 50 33 51
REMARK SMILES IDX 88 52 82 53 81 54 34 56 68 57 47 58 67 59 48 60 51 61 66 62
REMARK SMILES IDX 86 63 49 64 50 65 65 67 87 68 52 69 35 70 36 71 45 72 37 73
REMARK SMILES IDX 38 74 44 75 46 76 39 77 40 78 41 79 42 80 43 81 69 82 70 83
REMARK SMILES IDX 79 84 71 85 72 86 78 87 80 88 73 89 74 90 75 91 76 92 77 93
REMARK SMILES IDX 53 94 54 95 63 96 55 97 56 98 62 99 64 100 57 101 58 102
REMARK SMILES IDX 59 103 60 104 61 105
REMARK H PARENT 85 55 51 66
REMARK Flexibility Score: inf
ROOT
ATOM      1  C   UNL A   1      36.935  34.008  31.226  1.00  0.00     0.202 C 
ENDROOT
BRANCH   1   2
ATOM      2  C   UNL A   1      36.435  33.780  29.766  1.00  0.00     0.261 C 
BRANCH   2   3
ATOM      3  O   UNL A   1      37.257  32.968  28.908  1.00  0.00    -0.463 OA
BRANCH   3   4
ATOM      4  C   UNL A   1      36.635  31.893  28.386  1.00  0.00     0.311 C 
ATOM      5  O   UNL A   1      35.597  31.964  27.735  1.00  0.00    -0.252 OA
BRANCH   4   6
ATOM      6  C   UNL A   1      37.253  30.543  28.738  1.00  0.00     0.127 C 
ATOM      7  N   UNL A   1      38.548  30.702  30.936  1.00  0.00    -0.334 N 
ATOM      8  C   UNL A   1      37.409  30.332  31.661  1.00  0.00     0.223 C 
ATOM      9  C   UNL A   1      38.613  30.448  29.479  1.00  0.00     0.129 C 
ATOM     10  O   UNL A   1      37.414  30.193  32.885  1.00  0.00    -0.275 OA
ATOM     11  C   UNL A   1      36.097  30.188  30.916  1.00  0.00     0.101 C 
ATOM     12  C   UNL A   1      36.211  29.722  29.481  1.00  0.00     0.028 C 
BRANCH   7  13
ATOM     13  C   UNL A   1      39.764  30.961  31.773  1.00  0.00     0.125 C 
BRANCH  13  14
ATOM     14  C   UNL A   1      40.274  32.389  32.120  1.00  0.00     0.057 C 
BRANCH  14  15
ATOM     15  C   UNL A   1      41.066  33.084  31.039  1.00  0.00    -0.042 A 
ATOM     16  C   UNL A   1      42.414  34.650  29.054  1.00  0.00     0.160 A 
ATOM     17  C   UNL A   1      41.116  34.856  29.408  1.00  0.00     0.051 A 
ATOM     18  C   UNL A   1      42.914  33.417  29.449  1.00  0.00     0.160 A 
ATOM     19  C   UNL A   1      40.430  34.013  30.264  1.00  0.00     0.008 A 
ATOM     20  C   UNL A   1      42.354  32.775  30.612  1.00  0.00     0.054 A 
BRANCH  16  21
ATOM     21  O   UNL A   1      43.133  35.587  28.374  1.00  0.00    -0.493 OA
ATOM     22  C   UNL A   1      42.463  36.415  27.418  1.00  0.00     0.278 C 
ENDBRANCH  16  21
BRANCH  18  23
ATOM     23  O   UNL A   1      43.454  32.448  28.537  1.00  0.00    -0.493 OA
ATOM     24  C   UNL A   1      43.905  30.783  27.542  1.00  0.00     0.278 C 
ENDBRANCH  18  23
ENDBRANCH  14  15
ENDBRANCH  13  14
ENDBRANCH   7  13
BRANCH   9  25
ATOM     25  C   UNL A   1      39.321  29.140  29.095  1.00  0.00    -0.024 A 
ATOM     26  C   UNL A   1      38.921  27.873  29.539  1.00  0.00     0.007 A 
ATOM     27  C   UNL A   1      40.438  29.224  28.233  1.00  0.00     0.007 A 
ATOM     28  C   UNL A   1      39.632  26.730  29.154  1.00  0.00     0.021 A 
ATOM     29  C   UNL A   1      41.133  28.084  27.835  1.00  0.00     0.021 A 
ATOM     30  C   UNL A   1      40.732  26.840  28.305  1.00  0.00     0.041 A 
ATOM     31  Cl  UNL A   1      41.600  25.433  27.834  1.00  0.00    -0.084 Cl
ENDBRANCH   9  25
ENDBRANCH   4   6
ENDBRANCH   3   4
ENDBRANCH   2   3
ENDBRANCH   1   2
BRANCH   1  32
ATOM     32  O   UNL A   1      36.225  33.512  32.356  1.00  0.00    -0.374 OA
BRANCH  32  33
ATOM     33  C   UNL A   1      35.859  34.378  33.440  1.00  0.00     0.202 C 
BRANCH  33  34
ATOM     34  C   UNL A   1      35.997  33.890  34.925  1.00  0.00     0.261 C 
BRANCH  34  35
ATOM     35  O   UNL A   1      37.042  32.896  35.136  1.00  0.00    -0.460 OA
BRANCH  35  36
ATOM     36  C   UNL A   1      37.956  33.093  36.139  1.00  0.00     0.338 C 
ATOM     37  O   UNL A   1      37.762  33.699  37.169  1.00  0.00    -0.246 OA
BRANCH  36  38
ATOM     38  C   UNL A   1      39.243  32.387  35.837  1.00  0.00     0.060 A 
ATOM     39  C   UNL A   1      39.310  30.567  35.751  1.00  0.00     0.016 A 
ATOM     40  C   UNL A   1      40.734  33.336  35.504  1.00  0.00     0.016 A 
ATOM     41  C   UNL A   1      40.814  29.722  35.211  1.00  0.00     0.010 A 
ATOM     42  C   UNL A   1      42.270  32.490  35.035  1.00  0.00     0.010 A 
ATOM     43  C   UNL A   1      42.304  30.690  34.868  1.00  0.00    -0.014 A 
BRANCH  43  44
ATOM     44  C   UNL A   1      43.555  29.939  34.677  1.00  0.00     0.031 A 
ATOM     45  C   UNL A   1      44.298  29.572  35.919  1.00  0.00     0.074 A 
ATOM     46  C   UNL A   1      43.881  29.424  33.478  1.00  0.00     0.049 A 
ATOM     47  N   UNL A   1      45.053  28.537  36.147  1.00  0.00    -0.248 NA
ATOM     48  C   UNL A   1      44.053  30.402  37.107  1.00  0.00     0.031 C 
ATOM     49  C   UNL A   1      43.174  29.662  32.219  1.00  0.00     0.029 A 
ATOM     50  N   UNL A   1      44.898  28.574  33.129  1.00  0.00    -0.354 N 
ATOM     51  C   UNL A   1      45.242  28.524  37.521  1.00  0.00     0.074 A 
ATOM     52  C   UNL A   1      44.514  29.636  38.079  1.00  0.00     0.031 C 
ATOM     53  C   UNL A   1      43.792  28.988  31.230  1.00  0.00     0.029 A 
ATOM     54  C   UNL A   1      44.936  28.270  31.787  1.00  0.00     0.049 A 
ATOM     55  H   UNL A   1      45.543  28.213  33.779  1.00  0.00     0.167 HD
ATOM     56  C   UNL A   1      46.026  27.705  38.251  1.00  0.00     0.037 A 
ATOM     57  C   UNL A   1      45.813  27.502  31.109  1.00  0.00     0.037 A 
ATOM     58  C   UNL A   1      47.007  26.863  37.635  1.00  0.00     0.049 A 
ATOM     59  C   UNL A   1      46.873  26.791  31.920  1.00  0.00     0.074 A 
ATOM     60  C   UNL A   1      48.051  26.180  38.221  1.00  0.00     0.029 A 
ATOM     61  N   UNL A   1      47.123  26.693  36.259  1.00  0.00    -0.354 N 
ATOM     62  N   UNL A   1      47.013  26.745  33.228  1.00  0.00    -0.248 NA
ATOM     63  C   UNL A   1      47.891  26.037  31.181  1.00  0.00     0.031 C 
ATOM     64  C   UNL A   1      48.856  25.678  37.191  1.00  0.00     0.029 A 
ATOM     65  C   UNL A   1      48.259  25.968  35.970  1.00  0.00     0.049 A 
ATOM     66  H   UNL A   1      46.487  27.038  35.591  1.00  0.00     0.167 HD
ATOM     67  C   UNL A   1      48.122  25.943  33.469  1.00  0.00     0.074 A 
ATOM     68  C   UNL A   1      48.606  25.515  32.170  1.00  0.00     0.031 C 
ATOM     69  C   UNL A   1      48.696  25.587  34.648  1.00  0.00     0.037 A 
BRANCH  56  70
ATOM     70  C   UNL A   1      45.968  27.876  39.739  1.00  0.00     0.058 A 
ATOM     71  C   UNL A   1      45.047  27.160  40.524  1.00  0.00     0.135 A 
ATOM     72  C   UNL A   1      46.761  28.843  40.377  1.00  0.00     0.135 A 
ATOM     73  F   UNL A   1      44.224  26.266  39.953  1.00  0.00    -0.206 F 
ATOM     74  C   UNL A   1      44.913  27.400  41.889  1.00  0.00     0.059 A 
ATOM     75  C   UNL A   1      46.651  29.091  41.742  1.00  0.00     0.059 A 
ATOM     76  F   UNL A   1      47.615  29.592  39.664  1.00  0.00    -0.206 F 
ATOM     77  C   UNL A   1      45.719  28.371  42.487  1.00  0.00     0.060 A 
BRANCH  77  78
ATOM     78  S   UNL A   1      45.518  28.691  44.254  1.00  0.00     0.124 S 
ATOM     79  O   UNL A   1      44.078  28.912  44.349  1.00  0.00    -0.237 OA
ATOM     80  O   UNL A   1      46.012  27.455  44.850  1.00  0.00    -0.237 OA
ATOM     81  O   UNL A   1      46.348  29.870  44.481  1.00  0.00    -0.744 OA
ENDBRANCH  77  78
ENDBRANCH  56  70
BRANCH  57  82
ATOM     82  C   UNL A   1      45.767  27.406  29.618  1.00  0.00     0.058 A 
ATOM     83  C   UNL A   1      44.963  26.469  28.950  1.00  0.00     0.135 A 
ATOM     84  C   UNL A   1      46.567  28.245  28.823  1.00  0.00     0.135 A 
ATOM     85  F   UNL A   1      44.189  25.628  29.652  1.00  0.00    -0.206 F 
ATOM     86  C   UNL A   1      44.964  26.359  27.558  1.00  0.00     0.059 A 
ATOM     87  C   UNL A   1      46.565  28.174  27.431  1.00  0.00     0.059 A 
ATOM     88  F   UNL A   1      47.364  29.159  29.399  1.00  0.00    -0.206 F 
ATOM     89  C   UNL A   1      45.768  27.217  26.806  1.00  0.00     0.060 A 
BRANCH  89  90
ATOM     90  S   UNL A   1      45.746  27.084  25.003  1.00  0.00     0.124 S 
ATOM     91  O   UNL A   1      46.771  28.050  24.622  1.00  0.00    -0.237 OA
ATOM     92  O   UNL A   1      46.086  25.679  24.795  1.00  0.00    -0.237 OA
ATOM     93  O   UNL A   1      44.377  27.450  24.654  1.00  0.00    -0.744 OA
ENDBRANCH  89  90
ENDBRANCH  57  82
BRANCH  69  94
ATOM     94  C   UNL A   1      49.889  24.681  34.580  1.00  0.00     0.058 A 
ATOM     95  C   UNL A   1      49.756  23.296  34.407  1.00  0.00     0.135 A 
ATOM     96  C   UNL A   1      51.181  25.229  34.598  1.00  0.00     0.135 A 
ATOM     97  F   UNL A   1      48.539  22.730  34.379  1.00  0.00    -0.206 F 
ATOM     98  C   UNL A   1      50.871  22.478  34.283  1.00  0.00     0.059 A 
ATOM     99  C   UNL A   1      52.307  24.434  34.441  1.00  0.00     0.059 A 
ATOM    100  F   UNL A   1      51.354  26.553  34.739  1.00  0.00    -0.206 F 
ATOM    101  C   UNL A   1      52.142  23.057  34.299  1.00  0.00     0.060 A 
BRANCH 101 102
ATOM    102  S   UNL A   1      53.581  21.990  34.100  1.00  0.00     0.124 S 
ATOM    103  O   UNL A   1      53.165  21.147  32.984  1.00  0.00    -0.237 OA
ATOM    104  O   UNL A   1      54.644  22.947  33.812  1.00  0.00    -0.237 OA
ATOM    105  O   UNL A   1      53.684  21.317  35.392  1.00  0.00    -0.744 OA
ENDBRANCH 101 102
ENDBRANCH  69  94
ENDBRANCH  43  44
ENDBRANCH  36  38
ENDBRANCH  35  36
ENDBRANCH  34  35
ENDBRANCH  33  34
ENDBRANCH  32  33
ENDBRANCH   1  32
TORSDOF 23
ENDMDL
MODEL 3
REMARK VINA RESULT:      -8.3      1.501      2.158
REMARK SMILES COc1ccc(CCN2C(=O)CC[C@@H](C(=O)OCCOCCOC(=O)c3ccc(-c4c5nc(c(-c6c(F)cc(S(=O)(=O)[O-])cc6F)c6ccc([nH]6)c(-c6c(F)cc(S(=O)(=O)[O-])cc6F)c6nc(c(-c7c(F)cc(S(=O)(=O)[O-])cc7F)c7ccc4[nH]7)C=C6)C=C5)cc3)[C@@H]2c2ccc(Cl)cc2)cc1OC
REMARK SMILES IDX 19 1 18 2 17 3 15 4 16 5 14 6 9 7 10 8 92 9 11 10 12 11
REMARK SMILES IDX 13 12 8 13 7 14 6 15 3 16 4 17 101 18 5 19 100 20 2 21 1 22
REMARK SMILES IDX 102 23 103 24 93 25 94 26 99 27 95 28 98 29 96 30 97 31
REMARK SMILES IDX 20 32 21 33 22 34 23 35 24 36 25 37 26 38 27 39 91 40 28 41
REMARK SMILES IDX 90 42 29 43 30 44 31 45 84 46 32 47 89 48 83 49 85 50 33 51
REMARK SMILES IDX 88 52 82 53 81 54 34 56 68 57 47 58 67 59 48 60 51 61 66 62
REMARK SMILES IDX 86 63 49 64 50 65 65 67 87 68 52 69 35 70 36 71 45 72 37 73
REMARK SMILES IDX 38 74 44 75 46 76 39 77 40 78 41 79 42 80 43 81 69 82 70 83
REMARK SMILES IDX 79 84 71 85 72 86 78 87 80 88 73 89 74 90 75 91 76 92 77 93
REMARK SMILES IDX 53 94 54 95 63 96 55 97 56 98 62 99 64 100 57 101 58 102
REMARK SMILES IDX 59 103 60 104 61 105
REMARK H PARENT 85 55 51 66
REMARK Flexibility Score: inf
ROOT
ATOM      1  C   UNL A   1      41.792  35.754  28.013  1.00  0.00     0.202 C 
ENDROOT
BRANCH   1   2
ATOM      2  C   UNL A   1      40.445  35.124  28.483  1.00  0.00     0.261 C 
BRANCH   2   3
ATOM      3  O   UNL A   1      40.277  34.907  29.896  1.00  0.00    -0.463 OA
BRANCH   3   4
ATOM      4  C   UNL A   1      39.184  34.194  30.230  1.00  0.00     0.311 C 
ATOM      5  O   UNL A   1      38.086  34.357  29.705  1.00  0.00    -0.252 OA
BRANCH   4   6
ATOM      6  C   UNL A   1      39.366  33.218  31.388  1.00  0.00     0.127 C 
ATOM      7  N   UNL A   1      40.171  34.454  33.476  1.00  0.00    -0.334 N 
ATOM      8  C   UNL A   1      38.851  34.653  33.896  1.00  0.00     0.223 C 
ATOM      9  C   UNL A   1      40.476  33.429  32.452  1.00  0.00     0.129 C 
ATOM     10  O   UNL A   1      38.566  35.218  34.953  1.00  0.00    -0.275 OA
ATOM     11  C   UNL A   1      37.729  34.238  32.965  1.00  0.00     0.101 C 
ATOM     12  C   UNL A   1      38.024  33.046  32.081  1.00  0.00     0.028 C 
BRANCH   7  13
ATOM     13  C   UNL A   1      41.211  35.023  34.393  1.00  0.00     0.125 C 
BRANCH  13  14
ATOM     14  C   UNL A   1      41.719  34.291  35.668  1.00  0.00     0.057 C 
BRANCH  14  15
ATOM     15  C   UNL A   1      43.217  34.189  35.814  1.00  0.00    -0.042 A 
ATOM     16  C   UNL A   1      46.077  34.016  35.793  1.00  0.00     0.160 A 
ATOM     17  C   UNL A   1      45.296  33.522  34.796  1.00  0.00     0.051 A 
ATOM     18  C   UNL A   1      45.388  34.274  36.970  1.00  0.00     0.160 A 
ATOM     19  C   UNL A   1      43.915  33.485  34.874  1.00  0.00     0.008 A 
ATOM     20  C   UNL A   1      43.984  34.596  36.903  1.00  0.00     0.054 A 
BRANCH  16  21
ATOM     21  O   UNL A   1      47.413  34.229  35.625  1.00  0.00    -0.493 OA
ATOM     22  C   UNL A   1      48.305  33.111  35.682  1.00  0.00     0.278 C 
ENDBRANCH  16  21
BRANCH  18  23
ATOM     23  O   UNL A   1      45.718  33.676  38.233  1.00  0.00    -0.493 OA
ATOM     24  C   UNL A   1      45.887  33.231  40.167  1.00  0.00     0.278 C 
ENDBRANCH  18  23
ENDBRANCH  14  15
ENDBRANCH  13  14
ENDBRANCH   7  13
BRANCH   9  25
ATOM     25  C   UNL A   1      40.908  32.070  33.025  1.00  0.00    -0.024 A 
ATOM     26  C   UNL A   1      40.128  31.307  33.904  1.00  0.00     0.007 A 
ATOM     27  C   UNL A   1      42.165  31.559  32.631  1.00  0.00     0.007 A 
ATOM     28  C   UNL A   1      40.603  30.084  34.393  1.00  0.00     0.021 A 
ATOM     29  C   UNL A   1      42.629  30.332  33.103  1.00  0.00     0.021 A 
ATOM     30  C   UNL A   1      41.848  29.603  33.991  1.00  0.00     0.041 A 
ATOM     31  Cl  UNL A   1      42.426  28.100  34.593  1.00  0.00    -0.084 Cl
ENDBRANCH   9  25
ENDBRANCH   4   6
ENDBRANCH   3   4
ENDBRANCH   2   3
ENDBRANCH   1   2
BRANCH   1  32
ATOM     32  O   UNL A   1      41.943  37.156  27.815  1.00  0.00    -0.374 OA
BRANCH  32  33
ATOM     33  C   UNL A   1      43.193  37.812  28.077  1.00  0.00     0.202 C 
BRANCH  33  34
ATOM     34  C   UNL A   1      43.993  37.494  29.389  1.00  0.00     0.261 C 
BRANCH  34  35
ATOM     35  O   UNL A   1      45.342  38.047  29.418  1.00  0.00    -0.460 OA
BRANCH  35  36
ATOM     36  C   UNL A   1      46.294  37.525  28.580  1.00  0.00     0.338 C 
ATOM     37  O   UNL A   1      47.145  38.153  27.991  1.00  0.00    -0.246 OA
BRANCH  36  38
ATOM     38  C   UNL A   1      46.203  36.031  28.533  1.00  0.00     0.060 A 
ATOM     39  C   UNL A   1      45.535  35.183  27.063  1.00  0.00     0.016 A 
ATOM     40  C   UNL A   1      46.801  35.047  29.915  1.00  0.00     0.016 A 
ATOM     41  C   UNL A   1      45.591  33.381  26.930  1.00  0.00     0.010 A 
ATOM     42  C   UNL A   1      46.790  33.235  29.820  1.00  0.00     0.010 A 
ATOM     43  C   UNL A   1      46.207  32.405  28.324  1.00  0.00    -0.014 A 
BRANCH  43  44
ATOM     44  C   UNL A   1      45.998  30.950  28.260  1.00  0.00     0.031 A 
ATOM     45  C   UNL A   1      44.611  30.471  28.535  1.00  0.00     0.074 A 
ATOM     46  C   UNL A   1      46.943  30.133  27.761  1.00  0.00     0.049 A 
ATOM     47  N   UNL A   1      43.995  29.427  28.062  1.00  0.00    -0.248 NA
ATOM     48  C   UNL A   1      43.754  31.353  29.340  1.00  0.00     0.031 C 
ATOM     49  C   UNL A   1      48.305  30.519  27.389  1.00  0.00     0.029 A 
ATOM     50  N   UNL A   1      46.889  28.795  27.469  1.00  0.00    -0.354 N 
ATOM     51  C   UNL A   1      42.661  29.614  28.394  1.00  0.00     0.074 A 
ATOM     52  C   UNL A   1      42.549  30.873  29.089  1.00  0.00     0.031 C 
ATOM     53  C   UNL A   1      48.964  29.436  26.936  1.00  0.00     0.029 A 
ATOM     54  C   UNL A   1      48.071  28.282  26.984  1.00  0.00     0.049 A 
ATOM     55  H   UNL A   1      46.079  28.250  27.594  1.00  0.00     0.167 HD
ATOM     56  C   UNL A   1      41.625  28.771  28.212  1.00  0.00     0.037 A 
ATOM     57  C   UNL A   1      48.372  27.014  26.633  1.00  0.00     0.037 A 
ATOM     58  C   UNL A   1      41.832  27.397  27.859  1.00  0.00     0.049 A 
ATOM     59  C   UNL A   1      47.251  26.001  26.693  1.00  0.00     0.074 A 
ATOM     60  C   UNL A   1      40.935  26.351  27.894  1.00  0.00     0.029 A 
ATOM     61  N   UNL A   1      43.073  26.867  27.521  1.00  0.00    -0.354 N 
ATOM     62  N   UNL A   1      45.978  26.199  26.960  1.00  0.00    -0.248 NA
ATOM     63  C   UNL A   1      47.595  24.603  26.412  1.00  0.00     0.031 C 
ATOM     64  C   UNL A   1      41.656  25.172  27.671  1.00  0.00     0.029 A 
ATOM     65  C   UNL A   1      42.981  25.496  27.404  1.00  0.00     0.049 A 
ATOM     66  H   UNL A   1      43.894  27.392  27.383  1.00  0.00     0.167 HD
ATOM     67  C   UNL A   1      45.365  24.955  26.862  1.00  0.00     0.074 A 
ATOM     68  C   UNL A   1      46.408  24.015  26.495  1.00  0.00     0.031 C 
ATOM     69  C   UNL A   1      44.065  24.611  27.053  1.00  0.00     0.037 A 
BRANCH  56  70
ATOM     70  C   UNL A   1      40.270  29.281  28.600  1.00  0.00     0.058 A 
ATOM     71  C   UNL A   1      39.881  29.371  29.948  1.00  0.00     0.135 A 
ATOM     72  C   UNL A   1      39.312  29.577  27.619  1.00  0.00     0.135 A 
ATOM     73  F   UNL A   1      40.741  29.042  30.924  1.00  0.00    -0.206 F 
ATOM     74  C   UNL A   1      38.586  29.736  30.307  1.00  0.00     0.059 A 
ATOM     75  C   UNL A   1      38.015  29.954  27.956  1.00  0.00     0.059 A 
ATOM     76  F   UNL A   1      39.617  29.451  26.319  1.00  0.00    -0.206 F 
ATOM     77  C   UNL A   1      37.660  30.022  29.302  1.00  0.00     0.060 A 
BRANCH  77  78
ATOM     78  S   UNL A   1      35.976  30.469  29.781  1.00  0.00     0.124 S 
ATOM     79  O   UNL A   1      35.186  29.675  28.845  1.00  0.00    -0.237 OA
ATOM     80  O   UNL A   1      35.927  30.041  31.175  1.00  0.00    -0.237 OA
ATOM     81  O   UNL A   1      35.935  31.912  29.568  1.00  0.00    -0.744 OA
ENDBRANCH  77  78
ENDBRANCH  56  70
BRANCH  57  82
ATOM     82  C   UNL A   1      49.765  26.625  26.258  1.00  0.00     0.058 A 
ATOM     83  C   UNL A   1      50.697  26.163  27.201  1.00  0.00     0.135 A 
ATOM     84  C   UNL A   1      50.207  26.744  24.928  1.00  0.00     0.135 A 
ATOM     85  F   UNL A   1      50.343  26.043  28.490  1.00  0.00    -0.206 F 
ATOM     86  C   UNL A   1      52.009  25.848  26.846  1.00  0.00     0.059 A 
ATOM     87  C   UNL A   1      51.504  26.409  24.544  1.00  0.00     0.059 A 
ATOM     88  F   UNL A   1      49.369  27.187  23.978  1.00  0.00    -0.206 F 
ATOM     89  C   UNL A   1      52.404  25.974  25.513  1.00  0.00     0.060 A 
BRANCH  89  90
ATOM     90  S   UNL A   1      54.100  25.541  25.056  1.00  0.00     0.124 S 
ATOM     91  O   UNL A   1      54.037  24.084  25.029  1.00  0.00    -0.237 OA
ATOM     92  O   UNL A   1      54.245  26.196  23.760  1.00  0.00    -0.237 OA
ATOM     93  O   UNL A   1      54.898  26.116  26.135  1.00  0.00    -0.744 OA
ENDBRANCH  89  90
ENDBRANCH  57  82
BRANCH  69  94
ATOM     94  C   UNL A   1      43.704  23.170  26.850  1.00  0.00     0.058 A 
ATOM     95  C   UNL A   1      43.343  22.340  27.921  1.00  0.00     0.135 A 
ATOM     96  C   UNL A   1      43.636  22.646  25.550  1.00  0.00     0.135 A 
ATOM     97  F   UNL A   1      43.389  22.801  29.181  1.00  0.00    -0.206 F 
ATOM     98  C   UNL A   1      42.950  21.025  27.711  1.00  0.00     0.059 A 
ATOM     99  C   UNL A   1      43.213  21.345  25.314  1.00  0.00     0.059 A 
ATOM    100  F   UNL A   1      43.952  23.412  24.493  1.00  0.00    -0.206 F 
ATOM    101  C   UNL A   1      42.887  20.538  26.403  1.00  0.00     0.060 A 
BRANCH 101 102
ATOM    102  S   UNL A   1      42.342  18.841  26.138  1.00  0.00     0.124 S 
ATOM    103  O   UNL A   1      43.241  18.409  25.073  1.00  0.00    -0.237 OA
ATOM    104  O   UNL A   1      42.567  18.232  27.445  1.00  0.00    -0.237 OA
ATOM    105  O   UNL A   1      40.941  18.990  25.756  1.00  0.00    -0.744 OA
ENDBRANCH 101 102
ENDBRANCH  69  94
ENDBRANCH  43  44
ENDBRANCH  36  38
ENDBRANCH  35  36
ENDBRANCH  34  35
ENDBRANCH  33  34
ENDBRANCH  32  33
ENDBRANCH   1  32
TORSDOF 23
ENDMDL
