MODEL 1
REMARK VINA RESULT:     -11.2      0.000      0.000
REMARK SMILES CCOC(=O)c1c(NC(=O)[C@@H]2[C@@H](C(=O)OCCOCCOC(=O)c3ccc(-c4c5nc(c(-c6c(F)cc(S(=O)(=O)[O-])cc6F)c6ccc([nH]6)c(-c6c(F)cc(S(=O)(=O)[O-])cc6F)c6nc(c(-c7c(F)cc(S(=O)(=O)[O-])cc7F)c7ccc4[nH]7)C=C6)C=C5)cc3)[C@@H]3C=C[C@H]2CC3)sc2c1CCC2
REMARK SMILES IDX 17 1 16 2 15 3 13 4 14 5 12 6 11 7 93 8 90 9 92 10 94 11
REMARK SMILES IDX 91 12 95 13 9 14 8 15 10 17 7 18 6 19 98 20 96 21 97 22
REMARK SMILES IDX 99 23 101 24 100 25 4 26 5 27 3 28 2 29 1 30 18 31 19 32
REMARK SMILES IDX 20 33 21 34 22 35 23 36 24 37 25 38 89 39 26 40 88 41 27 42
REMARK SMILES IDX 28 43 29 44 82 45 30 46 87 47 81 48 83 49 31 50 86 51 80 52
REMARK SMILES IDX 79 53 32 55 66 56 45 57 65 58 46 59 49 60 64 61 84 62 47 63
REMARK SMILES IDX 48 64 63 66 85 67 50 68 33 69 34 70 43 71 35 72 36 73 42 74
REMARK SMILES IDX 44 75 37 76 38 77 39 78 40 79 41 80 67 81 68 82 77 83 69 84
REMARK SMILES IDX 70 85 76 86 78 87 71 88 72 89 73 90 74 91 75 92 51 93 52 94
REMARK SMILES IDX 61 95 53 96 54 97 60 98 62 99 55 100 56 101 57 102 58 103
REMARK SMILES IDX 59 104
REMARK H PARENT 8 16 83 54 49 65
REMARK Flexibility Score: inf
ROOT
ATOM      1  C   UNL A   1      32.478  30.841  26.950  1.00  0.00     0.202 C 
ENDROOT
BRANCH   1   2
ATOM      2  C   UNL A   1      32.250  29.347  27.213  1.00  0.00     0.261 C 
BRANCH   2   3
ATOM      3  O   UNL A   1      33.085  28.432  26.471  1.00  0.00    -0.463 OA
BRANCH   3   4
ATOM      4  C   UNL A   1      32.742  28.285  25.164  1.00  0.00     0.310 C 
ATOM      5  O   UNL A   1      33.377  28.773  24.233  1.00  0.00    -0.252 OA
BRANCH   4   6
ATOM      6  C   UNL A   1      31.479  27.474  24.904  1.00  0.00     0.119 C 
ATOM      7  C   UNL A   1      31.664  25.950  24.766  1.00  0.00     0.100 C 
ATOM      8  C   UNL A   1      30.920  25.467  23.478  1.00  0.00     0.025 C 
ATOM      9  C   UNL A   1      30.523  28.025  23.786  1.00  0.00     0.026 C 
ATOM     10  C   UNL A   1      29.466  25.854  23.556  1.00  0.00    -0.027 C 
ATOM     11  C   UNL A   1      31.461  26.284  22.264  1.00  0.00     0.009 C 
ATOM     12  C   UNL A   1      29.258  27.177  23.689  1.00  0.00    -0.027 C 
ATOM     13  C   UNL A   1      31.080  27.776  22.387  1.00  0.00     0.009 C 
BRANCH   7  14
ATOM     14  C   UNL A   1      31.458  25.028  26.017  1.00  0.00     0.229 C 
ATOM     15  N   UNL A   1      32.053  23.820  26.297  1.00  0.00    -0.317 N 
ATOM     16  H   UNL A   1      31.555  23.256  26.931  1.00  0.00     0.170 HD
ATOM     17  O   UNL A   1      30.549  25.357  26.801  1.00  0.00    -0.274 OA
BRANCH  15  18
ATOM     18  C   UNL A   1      33.227  23.266  25.840  1.00  0.00     0.110 A 
ATOM     19  C   UNL A   1      33.654  22.595  24.689  1.00  0.00     0.098 A 
ATOM     20  C   UNL A   1      35.091  22.662  24.667  1.00  0.00    -0.017 A 
ATOM     21  S   UNL A   1      34.393  22.763  27.003  1.00  0.00    -0.122 S 
ATOM     22  C   UNL A   1      35.554  23.147  25.859  1.00  0.00     0.011 A 
ATOM     23  C   UNL A   1      36.249  22.289  23.810  1.00  0.00     0.038 C 
ATOM     24  C   UNL A   1      36.991  23.437  25.913  1.00  0.00     0.047 C 
ATOM     25  C   UNL A   1      37.476  22.495  24.786  1.00  0.00     0.010 C 
BRANCH  19  26
ATOM     26  C   UNL A   1      32.794  21.878  23.787  1.00  0.00     0.341 C 
ATOM     27  O   UNL A   1      32.643  22.142  22.599  1.00  0.00    -0.246 OA
BRANCH  26  28
ATOM     28  O   UNL A   1      32.048  20.998  24.510  1.00  0.00    -0.462 OA
BRANCH  28  29
ATOM     29  C   UNL A   1      32.649  19.752  24.871  1.00  0.00     0.230 C 
ATOM     30  C   UNL A   1      32.708  18.787  23.697  1.00  0.00     0.049 C 
ENDBRANCH  28  29
ENDBRANCH  26  28
ENDBRANCH  19  26
ENDBRANCH  15  18
ENDBRANCH   7  14
ENDBRANCH   4   6
ENDBRANCH   3   4
ENDBRANCH   2   3
ENDBRANCH   1   2
BRANCH   1  31
ATOM     31  O   UNL A   1      33.673  31.451  27.423  1.00  0.00    -0.374 OA
BRANCH  31  32
ATOM     32  C   UNL A   1      33.670  32.848  27.691  1.00  0.00     0.202 C 
BRANCH  32  33
ATOM     33  C   UNL A   1      34.821  33.418  28.506  1.00  0.00     0.261 C 
BRANCH  33  34
ATOM     34  O   UNL A   1      35.697  32.402  28.979  1.00  0.00    -0.460 OA
BRANCH  34  35
ATOM     35  C   UNL A   1      35.407  31.964  30.229  1.00  0.00     0.338 C 
ATOM     36  O   UNL A   1      34.506  32.353  30.952  1.00  0.00    -0.246 OA
BRANCH  35  37
ATOM     37  C   UNL A   1      36.535  31.147  30.682  1.00  0.00     0.060 A 
ATOM     38  C   UNL A   1      37.661  31.854  31.091  1.00  0.00     0.016 A 
ATOM     39  C   UNL A   1      36.589  29.787  30.354  1.00  0.00     0.016 A 
ATOM     40  C   UNL A   1      38.884  31.251  30.934  1.00  0.00     0.010 A 
ATOM     41  C   UNL A   1      37.810  29.194  30.156  1.00  0.00     0.010 A 
ATOM     42  C   UNL A   1      38.942  29.963  30.383  1.00  0.00    -0.014 A 
BRANCH  42  43
ATOM     43  C   UNL A   1      40.240  29.350  30.273  1.00  0.00     0.031 A 
ATOM     44  C   UNL A   1      40.849  29.178  31.608  1.00  0.00     0.074 A 
ATOM     45  C   UNL A   1      40.786  28.956  29.113  1.00  0.00     0.049 A 
ATOM     46  N   UNL A   1      41.760  29.929  32.127  1.00  0.00    -0.248 NA
ATOM     47  C   UNL A   1      40.185  28.281  32.568  1.00  0.00     0.031 C 
ATOM     48  C   UNL A   1      40.187  28.890  27.782  1.00  0.00     0.029 A 
ATOM     49  N   UNL A   1      42.030  28.449  28.917  1.00  0.00    -0.354 N 
ATOM     50  C   UNL A   1      41.964  29.423  33.400  1.00  0.00     0.074 A 
ATOM     51  C   UNL A   1      40.823  28.598  33.695  1.00  0.00     0.031 C 
ATOM     52  C   UNL A   1      40.996  28.172  26.968  1.00  0.00     0.029 A 
ATOM     53  C   UNL A   1      42.213  27.831  27.686  1.00  0.00     0.049 A 
ATOM     54  H   UNL A   1      42.745  28.515  29.591  1.00  0.00     0.167 HD
ATOM     55  C   UNL A   1      43.192  29.495  33.979  1.00  0.00     0.037 A 
ATOM     56  C   UNL A   1      43.262  27.028  27.363  1.00  0.00     0.037 A 
ATOM     57  C   UNL A   1      44.027  30.458  33.301  1.00  0.00     0.049 A 
ATOM     58  C   UNL A   1      44.380  27.401  28.284  1.00  0.00     0.074 A 
ATOM     59  C   UNL A   1      43.923  31.814  33.053  1.00  0.00     0.029 A 
ATOM     60  N   UNL A   1      44.944  29.976  32.394  1.00  0.00    -0.354 N 
ATOM     61  N   UNL A   1      44.978  28.563  28.240  1.00  0.00    -0.248 NA
ATOM     62  C   UNL A   1      44.474  26.711  29.565  1.00  0.00     0.031 C 
ATOM     63  C   UNL A   1      44.412  31.988  31.725  1.00  0.00     0.029 A 
ATOM     64  C   UNL A   1      44.862  30.752  31.263  1.00  0.00     0.049 A 
ATOM     65  H   UNL A   1      45.549  29.212  32.531  1.00  0.00     0.167 HD
ATOM     66  C   UNL A   1      45.128  28.943  29.567  1.00  0.00     0.074 A 
ATOM     67  C   UNL A   1      44.867  27.728  30.341  1.00  0.00     0.031 C 
ATOM     68  C   UNL A   1      45.145  30.262  29.930  1.00  0.00     0.037 A 
BRANCH  55  69
ATOM     69  C   UNL A   1      43.747  28.418  34.873  1.00  0.00     0.058 A 
ATOM     70  C   UNL A   1      44.268  28.779  36.130  1.00  0.00     0.135 A 
ATOM     71  C   UNL A   1      44.042  27.104  34.440  1.00  0.00     0.135 A 
ATOM     72  F   UNL A   1      44.054  30.005  36.632  1.00  0.00    -0.206 F 
ATOM     73  C   UNL A   1      45.084  27.922  36.867  1.00  0.00     0.059 A 
ATOM     74  C   UNL A   1      44.803  26.217  35.185  1.00  0.00     0.059 A 
ATOM     75  F   UNL A   1      43.698  26.645  33.232  1.00  0.00    -0.206 F 
ATOM     76  C   UNL A   1      45.356  26.648  36.377  1.00  0.00     0.060 A 
BRANCH  76  77
ATOM     77  S   UNL A   1      46.487  25.576  37.275  1.00  0.00     0.124 S 
ATOM     78  O   UNL A   1      45.564  24.623  37.880  1.00  0.00    -0.237 OA
ATOM     79  O   UNL A   1      47.328  25.061  36.199  1.00  0.00    -0.237 OA
ATOM     80  O   UNL A   1      47.151  26.489  38.200  1.00  0.00    -0.744 OA
ENDBRANCH  76  77
ENDBRANCH  55  69
BRANCH  56  81
ATOM     81  C   UNL A   1      43.201  25.728  26.634  1.00  0.00     0.058 A 
ATOM     82  C   UNL A   1      43.893  25.535  25.423  1.00  0.00     0.135 A 
ATOM     83  C   UNL A   1      42.695  24.559  27.242  1.00  0.00     0.135 A 
ATOM     84  F   UNL A   1      44.417  26.585  24.771  1.00  0.00    -0.206 F 
ATOM     85  C   UNL A   1      44.130  24.261  24.888  1.00  0.00     0.059 A 
ATOM     86  C   UNL A   1      42.909  23.284  26.724  1.00  0.00     0.059 A 
ATOM     87  F   UNL A   1      42.055  24.602  28.418  1.00  0.00    -0.206 F 
ATOM     88  C   UNL A   1      43.656  23.137  25.564  1.00  0.00     0.060 A 
BRANCH  88  89
ATOM     89  S   UNL A   1      44.138  21.482  25.015  1.00  0.00     0.124 S 
ATOM     90  O   UNL A   1      42.983  20.684  25.410  1.00  0.00    -0.237 OA
ATOM     91  O   UNL A   1      44.322  21.673  23.581  1.00  0.00    -0.237 OA
ATOM     92  O   UNL A   1      45.363  21.221  25.766  1.00  0.00    -0.744 OA
ENDBRANCH  88  89
ENDBRANCH  56  81
BRANCH  68  93
ATOM     93  C   UNL A   1      45.257  31.294  28.833  1.00  0.00     0.058 A 
ATOM     94  C   UNL A   1      44.161  31.846  28.142  1.00  0.00     0.135 A 
ATOM     95  C   UNL A   1      46.518  31.841  28.559  1.00  0.00     0.135 A 
ATOM     96  F   UNL A   1      42.907  31.473  28.429  1.00  0.00    -0.206 F 
ATOM     97  C   UNL A   1      44.321  32.840  27.174  1.00  0.00     0.059 A 
ATOM     98  C   UNL A   1      46.698  32.858  27.625  1.00  0.00     0.059 A 
ATOM     99  F   UNL A   1      47.596  31.416  29.238  1.00  0.00    -0.206 F 
ATOM    100  C   UNL A   1      45.597  33.334  26.916  1.00  0.00     0.060 A 
BRANCH 100 101
ATOM    101  S   UNL A   1      45.806  34.636  25.682  1.00  0.00     0.124 S 
ATOM    102  O   UNL A   1      44.868  34.225  24.644  1.00  0.00    -0.237 OA
ATOM    103  O   UNL A   1      45.444  35.840  26.424  1.00  0.00    -0.237 OA
ATOM    104  O   UNL A   1      47.219  34.539  25.320  1.00  0.00    -0.744 OA
ENDBRANCH 100 101
ENDBRANCH  68  93
ENDBRANCH  42  43
ENDBRANCH  35  37
ENDBRANCH  34  35
ENDBRANCH  33  34
ENDBRANCH  32  33
ENDBRANCH  31  32
ENDBRANCH   1  31
TORSDOF 22
ENDMDL
MODEL 2
REMARK VINA RESULT:     -10.9      1.304      2.173
REMARK SMILES CCOC(=O)c1c(NC(=O)[C@@H]2[C@@H](C(=O)OCCOCCOC(=O)c3ccc(-c4c5nc(c(-c6c(F)cc(S(=O)(=O)[O-])cc6F)c6ccc([nH]6)c(-c6c(F)cc(S(=O)(=O)[O-])cc6F)c6nc(c(-c7c(F)cc(S(=O)(=O)[O-])cc7F)c7ccc4[nH]7)C=C6)C=C5)cc3)[C@@H]3C=C[C@H]2CC3)sc2c1CCC2
REMARK SMILES IDX 17 1 16 2 15 3 13 4 14 5 12 6 11 7 93 8 90 9 92 10 94 11
REMARK SMILES IDX 91 12 95 13 9 14 8 15 10 17 7 18 6 19 98 20 96 21 97 22
REMARK SMILES IDX 99 23 101 24 100 25 4 26 5 27 3 28 2 29 1 30 18 31 19 32
REMARK SMILES IDX 20 33 21 34 22 35 23 36 24 37 25 38 89 39 26 40 88 41 27 42
REMARK SMILES IDX 28 43 29 44 82 45 30 46 87 47 81 48 83 49 31 50 86 51 80 52
REMARK SMILES IDX 79 53 32 55 66 56 45 57 65 58 46 59 49 60 64 61 84 62 47 63
REMARK SMILES IDX 48 64 63 66 85 67 50 68 33 69 34 70 43 71 35 72 36 73 42 74
REMARK SMILES IDX 44 75 37 76 38 77 39 78 40 79 41 80 67 81 68 82 77 83 69 84
REMARK SMILES IDX 70 85 76 86 78 87 71 88 72 89 73 90 74 91 75 92 51 93 52 94
REMARK SMILES IDX 61 95 53 96 54 97 60 98 62 99 55 100 56 101 57 102 58 103
REMARK SMILES IDX 59 104
REMARK H PARENT 8 16 83 54 49 65
REMARK Flexibility Score: inf
ROOT
ATOM      1  C   UNL A   1      33.010  30.186  26.933  1.00  0.00     0.202 C 
ENDROOT
BRANCH   1   2
ATOM      2  C   UNL A   1      32.839  28.688  27.217  1.00  0.00     0.261 C 
BRANCH   2   3
ATOM      3  O   UNL A   1      33.739  27.799  26.519  1.00  0.00    -0.463 OA
BRANCH   3   4
ATOM      4  C   UNL A   1      33.546  27.739  25.175  1.00  0.00     0.310 C 
ATOM      5  O   UNL A   1      34.031  28.542  24.381  1.00  0.00    -0.252 OA
BRANCH   4   6
ATOM      6  C   UNL A   1      32.657  26.603  24.688  1.00  0.00     0.119 C 
ATOM      7  C   UNL A   1      32.528  26.446  23.160  1.00  0.00     0.100 C 
ATOM      8  C   UNL A   1      31.013  26.323  22.793  1.00  0.00     0.025 C 
ATOM      9  C   UNL A   1      31.254  26.477  25.384  1.00  0.00     0.026 C 
ATOM     10  C   UNL A   1      30.403  25.161  23.532  1.00  0.00    -0.027 C 
ATOM     11  C   UNL A   1      30.267  27.567  23.368  1.00  0.00     0.009 C 
ATOM     12  C   UNL A   1      30.504  25.250  24.872  1.00  0.00    -0.027 C 
ATOM     13  C   UNL A   1      30.286  27.558  24.913  1.00  0.00     0.009 C 
BRANCH   7  14
ATOM     14  C   UNL A   1      33.461  25.440  22.403  1.00  0.00     0.229 C 
ATOM     15  N   UNL A   1      34.263  24.454  22.931  1.00  0.00    -0.317 N 
ATOM     16  H   UNL A   1      35.003  24.173  22.346  1.00  0.00     0.170 HD
ATOM     17  O   UNL A   1      33.601  25.629  21.181  1.00  0.00    -0.274 OA
BRANCH  15  18
ATOM     18  C   UNL A   1      34.206  23.795  24.137  1.00  0.00     0.110 A 
ATOM     19  C   UNL A   1      35.059  23.596  25.228  1.00  0.00     0.098 A 
ATOM     20  C   UNL A   1      34.242  23.174  26.334  1.00  0.00    -0.017 A 
ATOM     21  S   UNL A   1      33.116  22.471  24.287  1.00  0.00    -0.122 S 
ATOM     22  C   UNL A   1      32.975  22.897  25.900  1.00  0.00     0.011 A 
ATOM     23  C   UNL A   1      34.342  22.846  27.782  1.00  0.00     0.038 C 
ATOM     24  C   UNL A   1      31.987  22.628  26.950  1.00  0.00     0.047 C 
ATOM     25  C   UNL A   1      32.942  22.172  28.078  1.00  0.00     0.010 C 
BRANCH  19  26
ATOM     26  C   UNL A   1      36.493  23.687  25.179  1.00  0.00     0.341 C 
ATOM     27  O   UNL A   1      37.186  24.310  25.976  1.00  0.00    -0.246 OA
BRANCH  26  28
ATOM     28  O   UNL A   1      36.921  23.133  24.012  1.00  0.00    -0.462 OA
BRANCH  28  29
ATOM     29  C   UNL A   1      37.109  21.717  23.974  1.00  0.00     0.230 C 
ATOM     30  C   UNL A   1      37.877  21.211  25.184  1.00  0.00     0.049 C 
ENDBRANCH  28  29
ENDBRANCH  26  28
ENDBRANCH  19  26
ENDBRANCH  15  18
ENDBRANCH   7  14
ENDBRANCH   4   6
ENDBRANCH   3   4
ENDBRANCH   2   3
ENDBRANCH   1   2
BRANCH   1  31
ATOM     31  O   UNL A   1      34.132  30.869  27.479  1.00  0.00    -0.374 OA
BRANCH  31  32
ATOM     32  C   UNL A   1      33.995  32.240  27.832  1.00  0.00     0.202 C 
BRANCH  32  33
ATOM     33  C   UNL A   1      34.900  32.786  28.927  1.00  0.00     0.261 C 
BRANCH  33  34
ATOM     34  O   UNL A   1      35.825  31.811  29.392  1.00  0.00    -0.460 OA
BRANCH  34  35
ATOM     35  C   UNL A   1      35.741  31.563  30.722  1.00  0.00     0.338 C 
ATOM     36  O   UNL A   1      34.956  32.060  31.512  1.00  0.00    -0.246 OA
BRANCH  35  37
ATOM     37  C   UNL A   1      36.939  30.815  31.108  1.00  0.00     0.060 A 
ATOM     38  C   UNL A   1      38.066  31.585  31.373  1.00  0.00     0.016 A 
ATOM     39  C   UNL A   1      37.019  29.442  30.847  1.00  0.00     0.016 A 
ATOM     40  C   UNL A   1      39.294  31.019  31.133  1.00  0.00     0.010 A 
ATOM     41  C   UNL A   1      38.240  28.884  30.564  1.00  0.00     0.010 A 
ATOM     42  C   UNL A   1      39.355  29.707  30.645  1.00  0.00    -0.014 A 
BRANCH  42  43
ATOM     43  C   UNL A   1      40.662  29.137  30.445  1.00  0.00     0.031 A 
ATOM     44  C   UNL A   1      41.361  28.973  31.736  1.00  0.00     0.074 A 
ATOM     45  C   UNL A   1      41.144  28.771  29.247  1.00  0.00     0.049 A 
ATOM     46  N   UNL A   1      42.280  29.748  32.203  1.00  0.00    -0.248 NA
ATOM     47  C   UNL A   1      40.790  28.046  32.726  1.00  0.00     0.031 C 
ATOM     48  C   UNL A   1      40.463  28.698  27.957  1.00  0.00     0.029 A 
ATOM     49  N   UNL A   1      42.388  28.307  28.966  1.00  0.00    -0.354 N 
ATOM     50  C   UNL A   1      42.582  29.237  33.454  1.00  0.00     0.074 A 
ATOM     51  C   UNL A   1      41.489  28.374  33.814  1.00  0.00     0.031 C 
ATOM     52  C   UNL A   1      41.239  28.013  27.085  1.00  0.00     0.029 A 
ATOM     53  C   UNL A   1      42.511  27.706  27.719  1.00  0.00     0.049 A 
ATOM     54  H   UNL A   1      43.143  28.389  29.593  1.00  0.00     0.167 HD
ATOM     55  C   UNL A   1      43.842  29.344  33.954  1.00  0.00     0.037 A 
ATOM     56  C   UNL A   1      43.561  26.940  27.320  1.00  0.00     0.037 A 
ATOM     57  C   UNL A   1      44.600  30.340  33.234  1.00  0.00     0.049 A 
ATOM     58  C   UNL A   1      44.724  27.341  28.171  1.00  0.00     0.074 A 
ATOM     59  C   UNL A   1      44.438  31.694  33.008  1.00  0.00     0.029 A 
ATOM     60  N   UNL A   1      45.471  29.896  32.264  1.00  0.00    -0.354 N 
ATOM     61  N   UNL A   1      45.281  28.523  28.102  1.00  0.00    -0.248 NA
ATOM     62  C   UNL A   1      44.924  26.643  29.436  1.00  0.00     0.031 C 
ATOM     63  C   UNL A   1      44.834  31.896  31.654  1.00  0.00     0.029 A 
ATOM     64  C   UNL A   1      45.292  30.679  31.149  1.00  0.00     0.049 A 
ATOM     65  H   UNL A   1      46.108  29.151  32.354  1.00  0.00     0.167 HD
ATOM     66  C   UNL A   1      45.504  28.895  29.421  1.00  0.00     0.074 A 
ATOM     67  C   UNL A   1      45.333  27.666  30.196  1.00  0.00     0.031 C 
ATOM     68  C   UNL A   1      45.503  30.211  29.796  1.00  0.00     0.037 A 
BRANCH  55  69
ATOM     69  C   UNL A   1      44.488  28.278  34.798  1.00  0.00     0.058 A 
ATOM     70  C   UNL A   1      44.578  26.969  34.290  1.00  0.00     0.135 A 
ATOM     71  C   UNL A   1      44.765  28.422  36.178  1.00  0.00     0.135 A 
ATOM     72  F   UNL A   1      44.328  26.719  32.996  1.00  0.00    -0.206 F 
ATOM     73  C   UNL A   1      44.851  25.874  35.109  1.00  0.00     0.059 A 
ATOM     74  C   UNL A   1      45.094  27.354  36.997  1.00  0.00     0.059 A 
ATOM     75  F   UNL A   1      44.631  29.584  36.827  1.00  0.00    -0.206 F 
ATOM     76  C   UNL A   1      45.094  26.078  36.465  1.00  0.00     0.060 A 
BRANCH  76  77
ATOM     77  S   UNL A   1      45.347  24.660  37.542  1.00  0.00     0.124 S 
ATOM     78  O   UNL A   1      44.400  24.939  38.615  1.00  0.00    -0.237 OA
ATOM     79  O   UNL A   1      45.009  23.549  36.658  1.00  0.00    -0.237 OA
ATOM     80  O   UNL A   1      46.758  24.761  37.902  1.00  0.00    -0.744 OA
ENDBRANCH  76  77
ENDBRANCH  55  69
BRANCH  56  81
ATOM     81  C   UNL A   1      43.495  25.646  26.583  1.00  0.00     0.058 A 
ATOM     82  C   UNL A   1      44.207  25.449  25.384  1.00  0.00     0.135 A 
ATOM     83  C   UNL A   1      42.960  24.481  27.173  1.00  0.00     0.135 A 
ATOM     84  F   UNL A   1      44.759  26.495  24.749  1.00  0.00    -0.206 F 
ATOM     85  C   UNL A   1      44.434  24.175  24.846  1.00  0.00     0.059 A 
ATOM     86  C   UNL A   1      43.164  23.206  26.652  1.00  0.00     0.059 A 
ATOM     87  F   UNL A   1      42.299  24.527  28.338  1.00  0.00    -0.206 F 
ATOM     88  C   UNL A   1      43.931  23.054  25.506  1.00  0.00     0.060 A 
BRANCH  88  89
ATOM     89  S   UNL A   1      44.398  21.395  24.957  1.00  0.00     0.124 S 
ATOM     90  O   UNL A   1      44.525  21.578  23.515  1.00  0.00    -0.237 OA
ATOM     91  O   UNL A   1      45.643  21.167  25.683  1.00  0.00    -0.237 OA
ATOM     92  O   UNL A   1      43.273  20.569  25.385  1.00  0.00    -0.744 OA
ENDBRANCH  88  89
ENDBRANCH  56  81
BRANCH  68  93
ATOM     93  C   UNL A   1      45.510  31.256  28.705  1.00  0.00     0.058 A 
ATOM     94  C   UNL A   1      44.356  31.764  28.080  1.00  0.00     0.135 A 
ATOM     95  C   UNL A   1      46.731  31.859  28.370  1.00  0.00     0.135 A 
ATOM     96  F   UNL A   1      43.137  31.335  28.431  1.00  0.00    -0.206 F 
ATOM     97  C   UNL A   1      44.420  32.773  27.116  1.00  0.00     0.059 A 
ATOM     98  C   UNL A   1      46.816  32.890  27.438  1.00  0.00     0.059 A 
ATOM     99  F   UNL A   1      47.861  31.476  28.985  1.00  0.00    -0.206 F 
ATOM    100  C   UNL A   1      45.659  33.324  26.795  1.00  0.00     0.060 A 
BRANCH 100 101
ATOM    101  S   UNL A   1      45.744  34.644  25.564  1.00  0.00     0.124 S 
ATOM    102  O   UNL A   1      44.820  34.167  24.542  1.00  0.00    -0.237 OA
ATOM    103  O   UNL A   1      45.304  35.813  26.320  1.00  0.00    -0.237 OA
ATOM    104  O   UNL A   1      47.153  34.658  25.177  1.00  0.00    -0.744 OA
ENDBRANCH 100 101
ENDBRANCH  68  93
ENDBRANCH  42  43
ENDBRANCH  35  37
ENDBRANCH  34  35
ENDBRANCH  33  34
ENDBRANCH  32  33
ENDBRANCH  31  32
ENDBRANCH   1  31
TORSDOF 22
ENDMDL
MODEL 3
REMARK VINA RESULT:     -10.9      4.450      9.300
REMARK SMILES CCOC(=O)c1c(NC(=O)[C@@H]2[C@@H](C(=O)OCCOCCOC(=O)c3ccc(-c4c5nc(c(-c6c(F)cc(S(=O)(=O)[O-])cc6F)c6ccc([nH]6)c(-c6c(F)cc(S(=O)(=O)[O-])cc6F)c6nc(c(-c7c(F)cc(S(=O)(=O)[O-])cc7F)c7ccc4[nH]7)C=C6)C=C5)cc3)[C@@H]3C=C[C@H]2CC3)sc2c1CCC2
REMARK SMILES IDX 17 1 16 2 15 3 13 4 14 5 12 6 11 7 93 8 90 9 92 10 94 11
REMARK SMILES IDX 91 12 95 13 9 14 8 15 10 17 7 18 6 19 98 20 96 21 97 22
REMARK SMILES IDX 99 23 101 24 100 25 4 26 5 27 3 28 2 29 1 30 18 31 19 32
REMARK SMILES IDX 20 33 21 34 22 35 23 36 24 37 25 38 89 39 26 40 88 41 27 42
REMARK SMILES IDX 28 43 29 44 82 45 30 46 87 47 81 48 83 49 31 50 86 51 80 52
REMARK SMILES IDX 79 53 32 55 66 56 45 57 65 58 46 59 49 60 64 61 84 62 47 63
REMARK SMILES IDX 48 64 63 66 85 67 50 68 33 69 34 70 43 71 35 72 36 73 42 74
REMARK SMILES IDX 44 75 37 76 38 77 39 78 40 79 41 80 67 81 68 82 77 83 69 84
REMARK SMILES IDX 70 85 76 86 78 87 71 88 72 89 73 90 74 91 75 92 51 93 52 94
REMARK SMILES IDX 61 95 53 96 54 97 60 98 62 99 55 100 56 101 57 102 58 103
REMARK SMILES IDX 59 104
REMARK H PARENT 8 16 83 54 49 65
REMARK Flexibility Score: inf
ROOT
ATOM      1  C   UNL A   1      34.109  34.561  32.327  1.00  0.00     0.202 C 
ENDROOT
BRANCH   1   2
ATOM      2  C   UNL A   1      35.597  34.920  32.440  1.00  0.00     0.261 C 
BRANCH   2   3
ATOM      3  O   UNL A   1      36.466  33.887  32.953  1.00  0.00    -0.463 OA
BRANCH   3   4
ATOM      4  C   UNL A   1      37.689  34.324  33.354  1.00  0.00     0.310 C 
ATOM      5  O   UNL A   1      38.516  34.825  32.596  1.00  0.00    -0.252 OA
BRANCH   4   6
ATOM      6  C   UNL A   1      38.001  34.140  34.834  1.00  0.00     0.119 C 
ATOM      7  C   UNL A   1      39.493  34.143  35.220  1.00  0.00     0.100 C 
ATOM      8  C   UNL A   1      39.778  32.905  36.132  1.00  0.00     0.025 C 
ATOM      9  C   UNL A   1      37.236  32.976  35.561  1.00  0.00     0.026 C 
ATOM     10  C   UNL A   1      38.882  32.947  37.342  1.00  0.00    -0.027 C 
ATOM     11  C   UNL A   1      39.323  31.621  35.373  1.00  0.00     0.009 C 
ATOM     12  C   UNL A   1      37.568  32.959  37.050  1.00  0.00    -0.027 C 
ATOM     13  C   UNL A   1      37.790  31.606  35.180  1.00  0.00     0.009 C 
BRANCH   7  14
ATOM     14  C   UNL A   1      40.165  35.473  35.706  1.00  0.00     0.229 C 
ATOM     15  N   UNL A   1      41.239  35.630  36.552  1.00  0.00    -0.317 N 
ATOM     16  H   UNL A   1      41.289  36.510  36.990  1.00  0.00     0.170 HD
ATOM     17  O   UNL A   1      39.585  36.530  35.396  1.00  0.00    -0.274 OA
BRANCH  15  18
ATOM     18  C   UNL A   1      42.255  34.766  36.888  1.00  0.00     0.110 A 
ATOM     19  C   UNL A   1      42.607  33.995  38.002  1.00  0.00     0.098 A 
ATOM     20  C   UNL A   1      43.544  33.001  37.552  1.00  0.00    -0.017 A 
ATOM     21  S   UNL A   1      43.763  34.931  36.074  1.00  0.00    -0.122 S 
ATOM     22  C   UNL A   1      43.938  33.277  36.271  1.00  0.00     0.011 A 
ATOM     23  C   UNL A   1      44.301  31.821  38.050  1.00  0.00     0.038 C 
ATOM     24  C   UNL A   1      44.754  32.246  35.620  1.00  0.00     0.047 C 
ATOM     25  C   UNL A   1      45.330  31.556  36.879  1.00  0.00     0.010 C 
BRANCH  19  26
ATOM     26  C   UNL A   1      42.185  34.258  39.351  1.00  0.00     0.341 C 
ATOM     27  O   UNL A   1      42.318  33.484  40.293  1.00  0.00    -0.246 OA
BRANCH  26  28
ATOM     28  O   UNL A   1      41.459  35.409  39.360  1.00  0.00    -0.462 OA
BRANCH  28  29
ATOM     29  C   UNL A   1      40.156  35.373  39.947  1.00  0.00     0.230 C 
ATOM     30  C   UNL A   1      39.182  36.296  39.231  1.00  0.00     0.049 C 
ENDBRANCH  28  29
ENDBRANCH  26  28
ENDBRANCH  19  26
ENDBRANCH  15  18
ENDBRANCH   7  14
ENDBRANCH   4   6
ENDBRANCH   3   4
ENDBRANCH   2   3
ENDBRANCH   1   2
BRANCH   1  31
ATOM     31  O   UNL A   1      33.492  34.574  31.046  1.00  0.00    -0.374 OA
BRANCH  31  32
ATOM     32  C   UNL A   1      34.298  34.812  29.898  1.00  0.00     0.202 C 
BRANCH  32  33
ATOM     33  C   UNL A   1      34.069  33.937  28.675  1.00  0.00     0.261 C 
BRANCH  33  34
ATOM     34  O   UNL A   1      35.256  33.271  28.263  1.00  0.00    -0.460 OA
BRANCH  34  35
ATOM     35  C   UNL A   1      35.083  31.952  28.001  1.00  0.00     0.338 C 
ATOM     36  O   UNL A   1      34.122  31.432  27.459  1.00  0.00    -0.246 OA
BRANCH  35  37
ATOM     37  C   UNL A   1      36.114  31.218  28.737  1.00  0.00     0.060 A 
ATOM     38  C   UNL A   1      37.166  31.987  29.222  1.00  0.00     0.016 A 
ATOM     39  C   UNL A   1      36.207  29.826  28.611  1.00  0.00     0.016 A 
ATOM     40  C   UNL A   1      38.392  31.382  29.348  1.00  0.00     0.010 A 
ATOM     41  C   UNL A   1      37.437  29.226  28.695  1.00  0.00     0.010 A 
ATOM     42  C   UNL A   1      38.525  30.033  28.995  1.00  0.00    -0.014 A 
BRANCH  42  43
ATOM     43  C   UNL A   1      39.818  29.426  29.181  1.00  0.00     0.031 A 
ATOM     44  C   UNL A   1      40.136  29.311  30.618  1.00  0.00     0.074 A 
ATOM     45  C   UNL A   1      40.592  28.991  28.175  1.00  0.00     0.049 A 
ATOM     46  N   UNL A   1      40.920  30.088  31.285  1.00  0.00    -0.248 NA
ATOM     47  C   UNL A   1      39.287  28.446  31.454  1.00  0.00     0.031 C 
ATOM     48  C   UNL A   1      40.282  28.869  26.753  1.00  0.00     0.029 A 
ATOM     49  N   UNL A   1      41.849  28.487  28.261  1.00  0.00    -0.354 N 
ATOM     50  C   UNL A   1      40.856  29.633  32.591  1.00  0.00     0.074 A 
ATOM     51  C   UNL A   1      39.678  28.812  32.676  1.00  0.00     0.031 C 
ATOM     52  C   UNL A   1      41.242  28.126  26.153  1.00  0.00     0.029 A 
ATOM     53  C   UNL A   1      42.283  27.823  27.121  1.00  0.00     0.049 A 
ATOM     54  H   UNL A   1      42.409  28.584  29.066  1.00  0.00     0.167 HD
ATOM     55  C   UNL A   1      41.937  29.737  33.409  1.00  0.00     0.037 A 
ATOM     56  C   UNL A   1      43.376  27.016  27.054  1.00  0.00     0.037 A 
ATOM     57  C   UNL A   1      42.895  30.680  32.881  1.00  0.00     0.049 A 
ATOM     58  C   UNL A   1      44.279  27.433  28.171  1.00  0.00     0.074 A 
ATOM     59  C   UNL A   1      42.846  32.024  32.563  1.00  0.00     0.029 A 
ATOM     60  N   UNL A   1      43.980  30.170  32.204  1.00  0.00    -0.354 N 
ATOM     61  N   UNL A   1      44.874  28.597  28.206  1.00  0.00    -0.248 NA
ATOM     62  C   UNL A   1      44.105  26.794  29.470  1.00  0.00     0.031 C 
ATOM     63  C   UNL A   1      43.599  32.150  31.360  1.00  0.00     0.029 A 
ATOM     64  C   UNL A   1      44.135  30.900  31.050  1.00  0.00     0.049 A 
ATOM     65  H   UNL A   1      44.543  29.416  32.494  1.00  0.00     0.167 HD
ATOM     66  C   UNL A   1      44.745  29.029  29.519  1.00  0.00     0.074 A 
ATOM     67  C   UNL A   1      44.329  27.843  30.270  1.00  0.00     0.031 C 
ATOM     68  C   UNL A   1      44.688  30.361  29.826  1.00  0.00     0.037 A 
BRANCH  55  69
ATOM     69  C   UNL A   1      42.294  28.700  34.441  1.00  0.00     0.058 A 
ATOM     70  C   UNL A   1      42.463  29.102  35.779  1.00  0.00     0.135 A 
ATOM     71  C   UNL A   1      42.747  27.397  34.129  1.00  0.00     0.135 A 
ATOM     72  F   UNL A   1      42.076  30.322  36.181  1.00  0.00    -0.206 F 
ATOM     73  C   UNL A   1      43.102  28.295  36.719  1.00  0.00     0.059 A 
ATOM     74  C   UNL A   1      43.333  26.557  35.063  1.00  0.00     0.059 A 
ATOM     75  F   UNL A   1      42.740  26.906  32.884  1.00  0.00    -0.206 F 
ATOM     76  C   UNL A   1      43.546  27.029  36.345  1.00  0.00     0.060 A 
BRANCH  76  77
ATOM     77  S   UNL A   1      44.458  26.025  37.526  1.00  0.00     0.124 S 
ATOM     78  O   UNL A   1      43.818  26.401  38.781  1.00  0.00    -0.237 OA
ATOM     79  O   UNL A   1      44.184  24.675  37.044  1.00  0.00    -0.237 OA
ATOM     80  O   UNL A   1      45.835  26.478  37.357  1.00  0.00    -0.744 OA
ENDBRANCH  76  77
ENDBRANCH  55  69
BRANCH  56  81
ATOM     81  C   UNL A   1      43.466  25.688  26.380  1.00  0.00     0.058 A 
ATOM     82  C   UNL A   1      44.375  25.462  25.328  1.00  0.00     0.135 A 
ATOM     83  C   UNL A   1      42.869  24.534  26.930  1.00  0.00     0.135 A 
ATOM     84  F   UNL A   1      45.001  26.496  24.744  1.00  0.00    -0.206 F 
ATOM     85  C   UNL A   1      44.722  24.173  24.900  1.00  0.00     0.059 A 
ATOM     86  C   UNL A   1      43.190  23.245  26.513  1.00  0.00     0.059 A 
ATOM     87  F   UNL A   1      42.020  24.610  27.964  1.00  0.00    -0.206 F 
ATOM     88  C   UNL A   1      44.143  23.067  25.521  1.00  0.00     0.060 A 
BRANCH  88  89
ATOM     89  S   UNL A   1      44.737  21.402  25.140  1.00  0.00     0.124 S 
ATOM     90  O   UNL A   1      43.737  20.566  25.795  1.00  0.00    -0.237 OA
ATOM     91  O   UNL A   1      44.720  21.393  23.681  1.00  0.00    -0.237 OA
ATOM     92  O   UNL A   1      46.067  21.372  25.742  1.00  0.00    -0.744 OA
ENDBRANCH  88  89
ENDBRANCH  56  81
BRANCH  68  93
ATOM     93  C   UNL A   1      45.025  31.351  28.735  1.00  0.00     0.058 A 
ATOM     94  C   UNL A   1      44.166  31.690  27.672  1.00  0.00     0.135 A 
ATOM     95  C   UNL A   1      46.217  32.081  28.844  1.00  0.00     0.135 A 
ATOM     96  F   UNL A   1      42.953  31.133  27.563  1.00  0.00    -0.206 F 
ATOM     97  C   UNL A   1      44.510  32.655  26.723  1.00  0.00     0.059 A 
ATOM     98  C   UNL A   1      46.564  33.073  27.931  1.00  0.00     0.059 A 
ATOM     99  F   UNL A   1      47.046  31.864  29.878  1.00  0.00    -0.206 F 
ATOM    100  C   UNL A   1      45.717  33.337  26.857  1.00  0.00     0.060 A 
BRANCH 100 101
ATOM    101  S   UNL A   1      46.155  34.602  25.645  1.00  0.00     0.124 S 
ATOM    102  O   UNL A   1      47.572  34.338  25.427  1.00  0.00    -0.237 OA
ATOM    103  O   UNL A   1      45.272  34.289  24.524  1.00  0.00    -0.237 OA
ATOM    104  O   UNL A   1      45.851  35.854  26.335  1.00  0.00    -0.744 OA
ENDBRANCH 100 101
ENDBRANCH  68  93
ENDBRANCH  42  43
ENDBRANCH  35  37
ENDBRANCH  34  35
ENDBRANCH  33  34
ENDBRANCH  32  33
ENDBRANCH  31  32
ENDBRANCH   1  31
TORSDOF 22
ENDMDL
