MODEL 1
REMARK VINA RESULT:     -12.0      0.000      0.000
REMARK SMILES Cc1ccc(Nc2c(F)cccc2I)c(CC(=O)OCCOCCOC(=O)c2ccc(-c3c4nc(c(-c5c(F)cc(S(=O)(=O)[O-])cc5F)c5ccc([nH]5)c(-c5c(F)cc(S(=O)(=O)[O-])cc5F)c5nc(c(-c6c(F)cc(S(=O)(=O)[O-])cc6F)c6ccc3[nH]6)C=C5)C=C4)cc2)c1
REMARK SMILES IDX 22 1 21 2 20 3 19 4 17 5 18 6 16 7 15 8 1 9 2 10 3 11 94 12
REMARK SMILES IDX 4 13 5 14 6 15 7 17 8 18 13 19 9 20 10 21 12 22 14 23 11 24
REMARK SMILES IDX 23 25 24 26 25 27 26 28 27 29 28 30 29 31 93 32 30 33 92 34
REMARK SMILES IDX 31 35 32 36 33 37 86 38 34 39 91 40 85 41 87 42 35 43 90 44
REMARK SMILES IDX 84 45 83 46 36 48 70 49 49 50 69 51 50 52 53 53 68 54 88 55
REMARK SMILES IDX 51 56 52 57 67 59 89 60 54 61 37 62 38 63 47 64 39 65 40 66
REMARK SMILES IDX 46 67 48 68 41 69 42 70 43 71 44 72 45 73 71 74 72 75 81 76
REMARK SMILES IDX 73 77 74 78 80 79 82 80 75 81 76 82 77 83 78 84 79 85 55 86
REMARK SMILES IDX 56 87 65 88 57 89 58 90 64 91 66 92 59 93 60 94 61 95 62 96
REMARK SMILES IDX 63 97
REMARK H PARENT 6 16 87 47 53 58
REMARK Flexibility Score: inf
ROOT
ATOM      1  O   UNL A   1      33.395  27.875  25.845  1.00  0.00    -0.374 OA
ENDROOT
BRANCH   1   2
ATOM      2  C   UNL A   1      33.492  26.479  25.644  1.00  0.00     0.202 C 
BRANCH   2   3
ATOM      3  C   UNL A   1      33.926  26.280  24.209  1.00  0.00     0.261 C 
BRANCH   3   4
ATOM      4  O   UNL A   1      33.955  24.915  23.825  1.00  0.00    -0.463 OA
BRANCH   4   5
ATOM      5  C   UNL A   1      33.338  24.550  22.656  1.00  0.00     0.310 C 
ATOM      6  O   UNL A   1      33.476  25.050  21.559  1.00  0.00    -0.252 OA
BRANCH   5   7
ATOM      7  C   UNL A   1      32.381  23.396  22.924  1.00  0.00     0.160 C 
BRANCH   7   8
ATOM      8  C   UNL A   1      31.280  23.852  23.867  1.00  0.00    -0.013 A 
ATOM      9  C   UNL A   1      29.506  27.237  24.049  1.00  0.00     0.044 C 
ATOM     10  C   UNL A   1      29.982  25.863  24.414  1.00  0.00    -0.051 A 
ATOM     11  C   UNL A   1      29.879  25.401  25.720  1.00  0.00     0.005 A 
ATOM     12  C   UNL A   1      30.620  25.052  23.479  1.00  0.00     0.009 A 
ATOM     13  C   UNL A   1      30.457  24.178  26.090  1.00  0.00     0.026 A 
ATOM     14  C   UNL A   1      31.194  23.381  25.193  1.00  0.00     0.042 A 
BRANCH  14  15
ATOM     15  N   UNL A   1      31.861  22.199  25.623  1.00  0.00    -0.352 N 
ATOM     16  H   UNL A   1      31.275  21.441  25.852  1.00  0.00     0.167 HD
BRANCH  15  17
ATOM     17  C   UNL A   1      33.254  21.959  25.772  1.00  0.00     0.088 A 
ATOM     18  C   UNL A   1      34.078  22.846  26.482  1.00  0.00     0.147 A 
ATOM     19  C   UNL A   1      33.915  20.918  25.088  1.00  0.00     0.040 A 
ATOM     20  F   UNL A   1      33.536  23.749  27.315  1.00  0.00    -0.205 F 
ATOM     21  C   UNL A   1      35.466  22.834  26.367  1.00  0.00     0.041 A 
ATOM     22  C   UNL A   1      35.309  20.942  24.900  1.00  0.00     0.017 A 
ATOM     23  I   UNL A   1      32.927  19.151  24.516  1.00  0.00    -0.042 I 
ATOM     24  C   UNL A   1      36.081  21.922  25.520  1.00  0.00     0.004 A 
ENDBRANCH  15  17
ENDBRANCH  14  15
ENDBRANCH   7   8
ENDBRANCH   5   7
ENDBRANCH   4   5
ENDBRANCH   3   4
ENDBRANCH   2   3
ENDBRANCH   1   2
BRANCH   1  25
ATOM     25  C   UNL A   1      32.247  28.312  26.528  1.00  0.00     0.202 C 
BRANCH  25  26
ATOM     26  C   UNL A   1      32.405  29.766  26.951  1.00  0.00     0.261 C 
BRANCH  26  27
ATOM     27  O   UNL A   1      33.700  30.321  26.602  1.00  0.00    -0.460 OA
BRANCH  27  28
ATOM     28  C   UNL A   1      34.383  30.995  27.578  1.00  0.00     0.338 C 
ATOM     29  O   UNL A   1      33.992  32.040  28.073  1.00  0.00    -0.246 OA
BRANCH  28  30
ATOM     30  C   UNL A   1      35.503  30.195  28.135  1.00  0.00     0.060 A 
ATOM     31  C   UNL A   1      35.531  29.815  29.486  1.00  0.00     0.016 A 
ATOM     32  C   UNL A   1      36.607  29.962  27.322  1.00  0.00     0.016 A 
ATOM     33  C   UNL A   1      36.731  29.374  30.065  1.00  0.00     0.010 A 
ATOM     34  C   UNL A   1      37.809  29.640  27.917  1.00  0.00     0.010 A 
ATOM     35  C   UNL A   1      37.888  29.368  29.293  1.00  0.00    -0.014 A 
BRANCH  35  36
ATOM     36  C   UNL A   1      39.253  29.135  29.764  1.00  0.00     0.031 A 
ATOM     37  C   UNL A   1      39.916  27.874  29.363  1.00  0.00     0.074 A 
ATOM     38  C   UNL A   1      39.992  30.147  30.275  1.00  0.00     0.049 A 
ATOM     39  N   UNL A   1      41.132  27.585  29.653  1.00  0.00    -0.248 NA
ATOM     40  C   UNL A   1      39.253  26.802  28.618  1.00  0.00     0.031 C 
ATOM     41  C   UNL A   1      41.445  30.327  30.227  1.00  0.00     0.029 A 
ATOM     42  N   UNL A   1      39.586  31.271  30.967  1.00  0.00    -0.354 N 
ATOM     43  C   UNL A   1      41.512  26.522  28.877  1.00  0.00     0.074 A 
ATOM     44  C   UNL A   1      40.284  25.993  28.344  1.00  0.00     0.031 C 
ATOM     45  C   UNL A   1      41.803  31.324  31.057  1.00  0.00     0.029 A 
ATOM     46  C   UNL A   1      40.614  31.717  31.793  1.00  0.00     0.049 A 
ATOM     47  H   UNL A   1      38.700  31.695  30.887  1.00  0.00     0.167 HD
ATOM     48  C   UNL A   1      42.847  26.311  28.713  1.00  0.00     0.037 A 
ATOM     49  C   UNL A   1      40.450  31.695  33.149  1.00  0.00     0.037 A 
ATOM     50  C   UNL A   1      43.609  27.114  29.684  1.00  0.00     0.049 A 
ATOM     51  C   UNL A   1      41.272  30.560  33.752  1.00  0.00     0.074 A 
ATOM     52  C   UNL A   1      44.410  28.241  29.635  1.00  0.00     0.029 A 
ATOM     53  N   UNL A   1      43.323  26.922  31.028  1.00  0.00    -0.354 N 
ATOM     54  N   UNL A   1      42.043  29.787  33.031  1.00  0.00    -0.248 NA
ATOM     55  C   UNL A   1      41.305  30.172  35.160  1.00  0.00     0.031 C 
ATOM     56  C   UNL A   1      44.504  28.768  30.971  1.00  0.00     0.029 A 
ATOM     57  C   UNL A   1      43.800  27.937  31.831  1.00  0.00     0.049 A 
ATOM     58  H   UNL A   1      42.832  26.141  31.373  1.00  0.00     0.167 HD
ATOM     59  C   UNL A   1      42.631  28.830  33.788  1.00  0.00     0.074 A 
ATOM     60  C   UNL A   1      42.115  29.094  35.126  1.00  0.00     0.031 C 
ATOM     61  C   UNL A   1      43.487  27.902  33.261  1.00  0.00     0.037 A 
BRANCH  48  62
ATOM     62  C   UNL A   1      43.479  25.463  27.633  1.00  0.00     0.058 A 
ATOM     63  C   UNL A   1      43.417  24.056  27.726  1.00  0.00     0.135 A 
ATOM     64  C   UNL A   1      44.245  25.947  26.546  1.00  0.00     0.135 A 
ATOM     65  F   UNL A   1      42.738  23.458  28.716  1.00  0.00    -0.206 F 
ATOM     66  C   UNL A   1      44.064  23.204  26.827  1.00  0.00     0.059 A 
ATOM     67  C   UNL A   1      44.862  25.114  25.608  1.00  0.00     0.059 A 
ATOM     68  F   UNL A   1      44.487  27.251  26.367  1.00  0.00    -0.206 F 
ATOM     69  C   UNL A   1      44.784  23.739  25.768  1.00  0.00     0.060 A 
BRANCH  69  70
ATOM     70  S   UNL A   1      45.631  22.627  24.631  1.00  0.00     0.124 S 
ATOM     71  O   UNL A   1      46.512  23.543  23.915  1.00  0.00    -0.237 OA
ATOM     72  O   UNL A   1      46.288  21.695  25.541  1.00  0.00    -0.237 OA
ATOM     73  O   UNL A   1      44.546  22.057  23.836  1.00  0.00    -0.744 OA
ENDBRANCH  69  70
ENDBRANCH  48  62
BRANCH  49  74
ATOM     74  C   UNL A   1      39.078  32.191  33.504  1.00  0.00     0.058 A 
ATOM     75  C   UNL A   1      38.828  33.558  33.216  1.00  0.00     0.135 A 
ATOM     76  C   UNL A   1      37.965  31.333  33.498  1.00  0.00     0.135 A 
ATOM     77  F   UNL A   1      39.850  34.431  33.192  1.00  0.00    -0.206 F 
ATOM     78  C   UNL A   1      37.588  34.009  32.762  1.00  0.00     0.059 A 
ATOM     79  C   UNL A   1      36.708  31.773  33.048  1.00  0.00     0.059 A 
ATOM     80  F   UNL A   1      38.129  30.021  33.717  1.00  0.00    -0.206 F 
ATOM     81  C   UNL A   1      36.542  33.100  32.638  1.00  0.00     0.060 A 
BRANCH  81  82
ATOM     82  S   UNL A   1      35.034  33.637  31.774  1.00  0.00     0.124 S 
ATOM     83  O   UNL A   1      35.553  33.980  30.457  1.00  0.00    -0.237 OA
ATOM     84  O   UNL A   1      34.196  32.441  31.828  1.00  0.00    -0.237 OA
ATOM     85  O   UNL A   1      34.573  34.754  32.588  1.00  0.00    -0.744 OA
ENDBRANCH  81  82
ENDBRANCH  49  74
BRANCH  61  86
ATOM     86  C   UNL A   1      44.090  26.838  34.122  1.00  0.00     0.058 A 
ATOM     87  C   UNL A   1      45.465  26.808  34.393  1.00  0.00     0.135 A 
ATOM     88  C   UNL A   1      43.314  25.791  34.662  1.00  0.00     0.135 A 
ATOM     89  F   UNL A   1      46.295  27.706  33.840  1.00  0.00    -0.206 F 
ATOM     90  C   UNL A   1      46.018  25.868  35.254  1.00  0.00     0.059 A 
ATOM     91  C   UNL A   1      43.860  24.796  35.456  1.00  0.00     0.059 A 
ATOM     92  F   UNL A   1      41.988  25.725  34.483  1.00  0.00    -0.206 F 
ATOM     93  C   UNL A   1      45.203  24.874  35.791  1.00  0.00     0.060 A 
BRANCH  93  94
ATOM     94  S   UNL A   1      45.902  23.697  36.952  1.00  0.00     0.124 S 
ATOM     95  O   UNL A   1      47.338  23.904  36.789  1.00  0.00    -0.237 OA
ATOM     96  O   UNL A   1      45.334  24.166  38.212  1.00  0.00    -0.237 OA
ATOM     97  O   UNL A   1      45.402  22.412  36.474  1.00  0.00    -0.744 OA
ENDBRANCH  93  94
ENDBRANCH  61  86
ENDBRANCH  35  36
ENDBRANCH  28  30
ENDBRANCH  27  28
ENDBRANCH  26  27
ENDBRANCH  25  26
ENDBRANCH   1  25
TORSDOF 20
ENDMDL
MODEL 2
REMARK VINA RESULT:     -11.9      1.339      2.658
REMARK SMILES Cc1ccc(Nc2c(F)cccc2I)c(CC(=O)OCCOCCOC(=O)c2ccc(-c3c4nc(c(-c5c(F)cc(S(=O)(=O)[O-])cc5F)c5ccc([nH]5)c(-c5c(F)cc(S(=O)(=O)[O-])cc5F)c5nc(c(-c6c(F)cc(S(=O)(=O)[O-])cc6F)c6ccc3[nH]6)C=C5)C=C4)cc2)c1
REMARK SMILES IDX 22 1 21 2 20 3 19 4 17 5 18 6 16 7 15 8 1 9 2 10 3 11 94 12
REMARK SMILES IDX 4 13 5 14 6 15 7 17 8 18 13 19 9 20 10 21 12 22 14 23 11 24
REMARK SMILES IDX 23 25 24 26 25 27 26 28 27 29 28 30 29 31 93 32 30 33 92 34
REMARK SMILES IDX 31 35 32 36 33 37 86 38 34 39 91 40 85 41 87 42 35 43 90 44
REMARK SMILES IDX 84 45 83 46 36 48 70 49 49 50 69 51 50 52 53 53 68 54 88 55
REMARK SMILES IDX 51 56 52 57 67 59 89 60 54 61 37 62 38 63 47 64 39 65 40 66
REMARK SMILES IDX 46 67 48 68 41 69 42 70 43 71 44 72 45 73 71 74 72 75 81 76
REMARK SMILES IDX 73 77 74 78 80 79 82 80 75 81 76 82 77 83 78 84 79 85 55 86
REMARK SMILES IDX 56 87 65 88 57 89 58 90 64 91 66 92 59 93 60 94 61 95 62 96
REMARK SMILES IDX 63 97
REMARK H PARENT 6 16 87 47 53 58
REMARK Flexibility Score: inf
ROOT
ATOM      1  O   UNL A   1      32.759  27.735  26.235  1.00  0.00    -0.374 OA
ENDROOT
BRANCH   1   2
ATOM      2  C   UNL A   1      31.758  27.529  25.258  1.00  0.00     0.202 C 
BRANCH   2   3
ATOM      3  C   UNL A   1      31.502  26.039  25.210  1.00  0.00     0.261 C 
BRANCH   3   4
ATOM      4  O   UNL A   1      31.335  25.465  26.496  1.00  0.00    -0.463 OA
BRANCH   4   5
ATOM      5  C   UNL A   1      31.817  24.201  26.716  1.00  0.00     0.310 C 
ATOM      6  O   UNL A   1      31.703  23.529  27.721  1.00  0.00    -0.252 OA
BRANCH   5   7
ATOM      7  C   UNL A   1      32.582  23.726  25.488  1.00  0.00     0.160 C 
BRANCH   7   8
ATOM      8  C   UNL A   1      33.825  22.965  25.921  1.00  0.00    -0.013 A 
ATOM      9  C   UNL A   1      37.485  24.074  25.842  1.00  0.00     0.044 C 
ATOM     10  C   UNL A   1      36.268  23.205  25.945  1.00  0.00    -0.051 A 
ATOM     11  C   UNL A   1      36.372  21.824  25.838  1.00  0.00     0.005 A 
ATOM     12  C   UNL A   1      34.996  23.761  26.058  1.00  0.00     0.009 A 
ATOM     13  C   UNL A   1      35.220  21.026  25.785  1.00  0.00     0.026 A 
ATOM     14  C   UNL A   1      33.919  21.563  25.797  1.00  0.00     0.042 A 
BRANCH  14  15
ATOM     15  N   UNL A   1      32.771  20.737  25.633  1.00  0.00    -0.352 N 
ATOM     16  H   UNL A   1      31.981  21.001  26.159  1.00  0.00     0.167 HD
BRANCH  15  17
ATOM     17  C   UNL A   1      32.604  19.584  24.819  1.00  0.00     0.088 A 
ATOM     18  C   UNL A   1      32.631  18.292  25.367  1.00  0.00     0.147 A 
ATOM     19  C   UNL A   1      32.567  19.655  23.412  1.00  0.00     0.040 A 
ATOM     20  F   UNL A   1      32.475  18.117  26.689  1.00  0.00    -0.205 F 
ATOM     21  C   UNL A   1      32.811  17.152  24.587  1.00  0.00     0.041 A 
ATOM     22  C   UNL A   1      32.826  18.523  22.619  1.00  0.00     0.017 A 
ATOM     23  I   UNL A   1      31.890  21.369  22.397  1.00  0.00    -0.042 I 
ATOM     24  C   UNL A   1      32.977  17.273  23.214  1.00  0.00     0.004 A 
ENDBRANCH  15  17
ENDBRANCH  14  15
ENDBRANCH   7   8
ENDBRANCH   5   7
ENDBRANCH   4   5
ENDBRANCH   3   4
ENDBRANCH   2   3
ENDBRANCH   1   2
BRANCH   1  25
ATOM     25  C   UNL A   1      32.360  28.465  27.367  1.00  0.00     0.202 C 
BRANCH  25  26
ATOM     26  C   UNL A   1      32.389  29.958  27.070  1.00  0.00     0.261 C 
BRANCH  26  27
ATOM     27  O   UNL A   1      33.705  30.436  26.688  1.00  0.00    -0.460 OA
BRANCH  27  28
ATOM     28  C   UNL A   1      34.434  31.104  27.634  1.00  0.00     0.338 C 
ATOM     29  O   UNL A   1      34.090  32.170  28.119  1.00  0.00    -0.246 OA
BRANCH  28  30
ATOM     30  C   UNL A   1      35.541  30.277  28.179  1.00  0.00     0.060 A 
ATOM     31  C   UNL A   1      35.546  29.849  29.516  1.00  0.00     0.016 A 
ATOM     32  C   UNL A   1      36.655  30.065  27.374  1.00  0.00     0.016 A 
ATOM     33  C   UNL A   1      36.734  29.380  30.096  1.00  0.00     0.010 A 
ATOM     34  C   UNL A   1      37.846  29.713  27.975  1.00  0.00     0.010 A 
ATOM     35  C   UNL A   1      37.902  29.393  29.342  1.00  0.00    -0.014 A 
BRANCH  35  36
ATOM     36  C   UNL A   1      39.259  29.134  29.824  1.00  0.00     0.031 A 
ATOM     37  C   UNL A   1      39.907  27.868  29.414  1.00  0.00     0.074 A 
ATOM     38  C   UNL A   1      40.008  30.129  30.355  1.00  0.00     0.049 A 
ATOM     39  N   UNL A   1      41.116  27.557  29.713  1.00  0.00    -0.248 NA
ATOM     40  C   UNL A   1      39.237  26.815  28.649  1.00  0.00     0.031 C 
ATOM     41  C   UNL A   1      41.463  30.287  30.325  1.00  0.00     0.029 A 
ATOM     42  N   UNL A   1      39.610  31.250  31.056  1.00  0.00    -0.354 N 
ATOM     43  C   UNL A   1      41.488  26.498  28.928  1.00  0.00     0.074 A 
ATOM     44  C   UNL A   1      40.258  25.994  28.376  1.00  0.00     0.031 C 
ATOM     45  C   UNL A   1      41.827  31.268  31.171  1.00  0.00     0.029 A 
ATOM     46  C   UNL A   1      40.636  31.670  31.899  1.00  0.00     0.049 A 
ATOM     47  H   UNL A   1      38.732  31.687  30.973  1.00  0.00     0.167 HD
ATOM     48  C   UNL A   1      42.821  26.269  28.776  1.00  0.00     0.037 A 
ATOM     49  C   UNL A   1      40.458  31.634  33.253  1.00  0.00     0.037 A 
ATOM     50  C   UNL A   1      43.585  27.049  29.764  1.00  0.00     0.049 A 
ATOM     51  C   UNL A   1      41.256  30.480  33.850  1.00  0.00     0.074 A 
ATOM     52  C   UNL A   1      44.403  28.165  29.738  1.00  0.00     0.029 A 
ATOM     53  N   UNL A   1      43.282  26.845  31.103  1.00  0.00    -0.354 N 
ATOM     54  N   UNL A   1      42.023  29.704  33.128  1.00  0.00    -0.248 NA
ATOM     55  C   UNL A   1      41.269  30.074  35.254  1.00  0.00     0.031 C 
ATOM     56  C   UNL A   1      44.490  28.673  31.081  1.00  0.00     0.029 A 
ATOM     57  C   UNL A   1      43.766  27.843  31.923  1.00  0.00     0.049 A 
ATOM     58  H   UNL A   1      42.776  26.067  31.433  1.00  0.00     0.167 HD
ATOM     59  C   UNL A   1      42.589  28.729  33.879  1.00  0.00     0.074 A 
ATOM     60  C   UNL A   1      42.063  28.984  35.214  1.00  0.00     0.031 C 
ATOM     61  C   UNL A   1      43.437  27.795  33.349  1.00  0.00     0.037 A 
BRANCH  48  62
ATOM     62  C   UNL A   1      43.453  25.425  27.692  1.00  0.00     0.058 A 
ATOM     63  C   UNL A   1      43.200  24.037  27.654  1.00  0.00     0.135 A 
ATOM     64  C   UNL A   1      44.387  25.878  26.732  1.00  0.00     0.135 A 
ATOM     65  F   UNL A   1      42.346  23.466  28.517  1.00  0.00    -0.206 F 
ATOM     66  C   UNL A   1      43.826  23.173  26.751  1.00  0.00     0.059 A 
ATOM     67  C   UNL A   1      44.990  25.040  25.789  1.00  0.00     0.059 A 
ATOM     68  F   UNL A   1      44.814  27.147  26.693  1.00  0.00    -0.206 F 
ATOM     69  C   UNL A   1      44.719  23.682  25.819  1.00  0.00     0.060 A 
BRANCH  69  70
ATOM     70  S   UNL A   1      45.534  22.551  24.676  1.00  0.00     0.124 S 
ATOM     71  O   UNL A   1      46.314  21.717  25.584  1.00  0.00    -0.237 OA
ATOM     72  O   UNL A   1      44.404  21.898  24.026  1.00  0.00    -0.237 OA
ATOM     73  O   UNL A   1      46.317  23.437  23.817  1.00  0.00    -0.744 OA
ENDBRANCH  69  70
ENDBRANCH  48  62
BRANCH  49  74
ATOM     74  C   UNL A   1      39.089  32.146  33.600  1.00  0.00     0.058 A 
ATOM     75  C   UNL A   1      38.863  33.520  33.326  1.00  0.00     0.135 A 
ATOM     76  C   UNL A   1      37.964  31.305  33.570  1.00  0.00     0.135 A 
ATOM     77  F   UNL A   1      39.897  34.378  33.323  1.00  0.00    -0.206 F 
ATOM     78  C   UNL A   1      37.635  33.995  32.864  1.00  0.00     0.059 A 
ATOM     79  C   UNL A   1      36.718  31.769  33.114  1.00  0.00     0.059 A 
ATOM     80  F   UNL A   1      38.106  29.988  33.775  1.00  0.00    -0.206 F 
ATOM     81  C   UNL A   1      36.577  33.104  32.718  1.00  0.00     0.060 A 
BRANCH  81  82
ATOM     82  S   UNL A   1      35.086  33.674  31.845  1.00  0.00     0.124 S 
ATOM     83  O   UNL A   1      34.709  34.840  32.633  1.00  0.00    -0.237 OA
ATOM     84  O   UNL A   1      35.594  33.959  30.504  1.00  0.00    -0.237 OA
ATOM     85  O   UNL A   1      34.195  32.526  31.938  1.00  0.00    -0.744 OA
ENDBRANCH  81  82
ENDBRANCH  49  74
BRANCH  61  86
ATOM     86  C   UNL A   1      44.015  26.712  34.204  1.00  0.00     0.058 A 
ATOM     87  C   UNL A   1      43.211  25.705  34.753  1.00  0.00     0.135 A 
ATOM     88  C   UNL A   1      45.386  26.680  34.536  1.00  0.00     0.135 A 
ATOM     89  F   UNL A   1      41.880  25.712  34.573  1.00  0.00    -0.206 F 
ATOM     90  C   UNL A   1      43.753  24.655  35.483  1.00  0.00     0.059 A 
ATOM     91  C   UNL A   1      45.935  25.687  35.330  1.00  0.00     0.059 A 
ATOM     92  F   UNL A   1      46.253  27.582  34.056  1.00  0.00    -0.206 F 
ATOM     93  C   UNL A   1      45.120  24.649  35.754  1.00  0.00     0.060 A 
BRANCH  93  94
ATOM     94  S   UNL A   1      45.833  23.261  36.643  1.00  0.00     0.124 S 
ATOM     95  O   UNL A   1      45.416  23.518  38.018  1.00  0.00    -0.237 OA
ATOM     96  O   UNL A   1      45.182  22.135  35.983  1.00  0.00    -0.237 OA
ATOM     97  O   UNL A   1      47.264  23.398  36.392  1.00  0.00    -0.744 OA
ENDBRANCH  93  94
ENDBRANCH  61  86
ENDBRANCH  35  36
ENDBRANCH  28  30
ENDBRANCH  27  28
ENDBRANCH  26  27
ENDBRANCH  25  26
ENDBRANCH   1  25
TORSDOF 20
ENDMDL
MODEL 3
REMARK VINA RESULT:     -11.6      1.096      2.132
REMARK SMILES Cc1ccc(Nc2c(F)cccc2I)c(CC(=O)OCCOCCOC(=O)c2ccc(-c3c4nc(c(-c5c(F)cc(S(=O)(=O)[O-])cc5F)c5ccc([nH]5)c(-c5c(F)cc(S(=O)(=O)[O-])cc5F)c5nc(c(-c6c(F)cc(S(=O)(=O)[O-])cc6F)c6ccc3[nH]6)C=C5)C=C4)cc2)c1
REMARK SMILES IDX 22 1 21 2 20 3 19 4 17 5 18 6 16 7 15 8 1 9 2 10 3 11 94 12
REMARK SMILES IDX 4 13 5 14 6 15 7 17 8 18 13 19 9 20 10 21 12 22 14 23 11 24
REMARK SMILES IDX 23 25 24 26 25 27 26 28 27 29 28 30 29 31 93 32 30 33 92 34
REMARK SMILES IDX 31 35 32 36 33 37 86 38 34 39 91 40 85 41 87 42 35 43 90 44
REMARK SMILES IDX 84 45 83 46 36 48 70 49 49 50 69 51 50 52 53 53 68 54 88 55
REMARK SMILES IDX 51 56 52 57 67 59 89 60 54 61 37 62 38 63 47 64 39 65 40 66
REMARK SMILES IDX 46 67 48 68 41 69 42 70 43 71 44 72 45 73 71 74 72 75 81 76
REMARK SMILES IDX 73 77 74 78 80 79 82 80 75 81 76 82 77 83 78 84 79 85 55 86
REMARK SMILES IDX 56 87 65 88 57 89 58 90 64 91 66 92 59 93 60 94 61 95 62 96
REMARK SMILES IDX 63 97
REMARK H PARENT 6 16 87 47 53 58
REMARK Flexibility Score: inf
ROOT
ATOM      1  O   UNL A   1      31.983  28.332  25.296  1.00  0.00    -0.374 OA
ENDROOT
BRANCH   1   2
ATOM      2  C   UNL A   1      32.379  27.227  26.083  1.00  0.00     0.202 C 
BRANCH   2   3
ATOM      3  C   UNL A   1      31.171  26.825  26.900  1.00  0.00     0.261 C 
BRANCH   3   4
ATOM      4  O   UNL A   1      30.415  25.789  26.297  1.00  0.00    -0.463 OA
BRANCH   4   5
ATOM      5  C   UNL A   1      30.879  24.502  26.385  1.00  0.00     0.310 C 
ATOM      6  O   UNL A   1      31.318  23.939  27.366  1.00  0.00    -0.252 OA
BRANCH   5   7
ATOM      7  C   UNL A   1      30.799  23.837  25.018  1.00  0.00     0.160 C 
BRANCH   7   8
ATOM      8  C   UNL A   1      31.972  24.283  24.161  1.00  0.00    -0.013 A 
ATOM      9  C   UNL A   1      31.952  25.908  20.698  1.00  0.00     0.044 C 
ATOM     10  C   UNL A   1      32.433  25.217  21.938  1.00  0.00    -0.051 A 
ATOM     11  C   UNL A   1      33.660  24.566  21.955  1.00  0.00     0.005 A 
ATOM     12  C   UNL A   1      31.627  25.130  23.070  1.00  0.00     0.009 A 
ATOM     13  C   UNL A   1      34.041  23.796  23.063  1.00  0.00     0.026 A 
ATOM     14  C   UNL A   1      33.209  23.607  24.183  1.00  0.00     0.042 A 
BRANCH  14  15
ATOM     15  N   UNL A   1      33.577  22.732  25.245  1.00  0.00    -0.352 N 
ATOM     16  H   UNL A   1      32.926  22.662  25.980  1.00  0.00     0.167 HD
BRANCH  15  17
ATOM     17  C   UNL A   1      34.753  21.948  25.394  1.00  0.00     0.088 A 
ATOM     18  C   UNL A   1      35.976  22.527  25.767  1.00  0.00     0.147 A 
ATOM     19  C   UNL A   1      34.802  20.588  25.025  1.00  0.00     0.040 A 
ATOM     20  F   UNL A   1      36.002  23.752  26.315  1.00  0.00    -0.205 F 
ATOM     21  C   UNL A   1      37.195  21.875  25.597  1.00  0.00     0.041 A 
ATOM     22  C   UNL A   1      36.029  19.947  24.775  1.00  0.00     0.017 A 
ATOM     23  I   UNL A   1      33.096  19.359  25.054  1.00  0.00    -0.042 I 
ATOM     24  C   UNL A   1      37.228  20.606  25.036  1.00  0.00     0.004 A 
ENDBRANCH  15  17
ENDBRANCH  14  15
ENDBRANCH   7   8
ENDBRANCH   5   7
ENDBRANCH   4   5
ENDBRANCH   3   4
ENDBRANCH   2   3
ENDBRANCH   1   2
BRANCH   1  25
ATOM     25  C   UNL A   1      32.924  29.370  25.190  1.00  0.00     0.202 C 
BRANCH  25  26
ATOM     26  C   UNL A   1      32.639  30.448  26.227  1.00  0.00     0.261 C 
BRANCH  26  27
ATOM     27  O   UNL A   1      33.421  30.291  27.440  1.00  0.00    -0.460 OA
BRANCH  27  28
ATOM     28  C   UNL A   1      34.579  31.013  27.544  1.00  0.00     0.338 C 
ATOM     29  O   UNL A   1      34.635  32.222  27.379  1.00  0.00    -0.246 OA
BRANCH  28  30
ATOM     30  C   UNL A   1      35.691  30.215  28.119  1.00  0.00     0.060 A 
ATOM     31  C   UNL A   1      35.649  29.746  29.442  1.00  0.00     0.016 A 
ATOM     32  C   UNL A   1      36.851  30.073  27.366  1.00  0.00     0.016 A 
ATOM     33  C   UNL A   1      36.826  29.307  30.067  1.00  0.00     0.010 A 
ATOM     34  C   UNL A   1      38.025  29.750  28.015  1.00  0.00     0.010 A 
ATOM     35  C   UNL A   1      38.027  29.390  29.373  1.00  0.00    -0.014 A 
BRANCH  35  36
ATOM     36  C   UNL A   1      39.368  29.171  29.915  1.00  0.00     0.031 A 
ATOM     37  C   UNL A   1      40.053  27.905  29.570  1.00  0.00     0.074 A 
ATOM     38  C   UNL A   1      40.080  30.195  30.441  1.00  0.00     0.049 A 
ATOM     39  N   UNL A   1      41.255  27.625  29.925  1.00  0.00    -0.248 NA
ATOM     40  C   UNL A   1      39.431  26.816  28.815  1.00  0.00     0.031 C 
ATOM     41  C   UNL A   1      41.533  30.379  30.462  1.00  0.00     0.029 A 
ATOM     42  N   UNL A   1      39.637  31.330  31.091  1.00  0.00    -0.354 N 
ATOM     43  C   UNL A   1      41.675  26.548  29.190  1.00  0.00     0.074 A 
ATOM     44  C   UNL A   1      40.475  26.006  28.607  1.00  0.00     0.031 C 
ATOM     45  C   UNL A   1      41.847  31.392  31.289  1.00  0.00     0.029 A 
ATOM     46  C   UNL A   1      40.622  31.795  31.958  1.00  0.00     0.049 A 
ATOM     47  H   UNL A   1      38.755  31.749  30.960  1.00  0.00     0.167 HD
ATOM     48  C   UNL A   1      43.017  26.339  29.095  1.00  0.00     0.037 A 
ATOM     49  C   UNL A   1      40.392  31.798  33.305  1.00  0.00     0.037 A 
ATOM     50  C   UNL A   1      43.728  27.163  30.087  1.00  0.00     0.049 A 
ATOM     51  C   UNL A   1      41.186  30.678  33.969  1.00  0.00     0.074 A 
ATOM     52  C   UNL A   1      44.527  28.292  30.056  1.00  0.00     0.029 A 
ATOM     53  N   UNL A   1      43.377  26.995  31.419  1.00  0.00    -0.354 N 
ATOM     54  N   UNL A   1      41.993  29.894  33.301  1.00  0.00    -0.248 NA
ATOM     55  C   UNL A   1      41.150  30.317  35.384  1.00  0.00     0.031 C 
ATOM     56  C   UNL A   1      44.555  28.843  31.385  1.00  0.00     0.029 A 
ATOM     57  C   UNL A   1      43.812  28.027  32.225  1.00  0.00     0.049 A 
ATOM     58  H   UNL A   1      42.872  26.220  31.754  1.00  0.00     0.167 HD
ATOM     59  C   UNL A   1      42.545  28.953  34.105  1.00  0.00     0.074 A 
ATOM     60  C   UNL A   1      41.964  29.241  35.410  1.00  0.00     0.031 C 
ATOM     61  C   UNL A   1      43.429  28.018  33.638  1.00  0.00     0.037 A 
BRANCH  48  62
ATOM     62  C   UNL A   1      43.703  25.473  28.064  1.00  0.00     0.058 A 
ATOM     63  C   UNL A   1      43.888  25.963  26.754  1.00  0.00     0.135 A 
ATOM     64  C   UNL A   1      44.108  24.130  28.251  1.00  0.00     0.135 A 
ATOM     65  F   UNL A   1      43.535  27.216  26.428  1.00  0.00    -0.206 F 
ATOM     66  C   UNL A   1      44.418  25.189  25.718  1.00  0.00     0.059 A 
ATOM     67  C   UNL A   1      44.683  23.352  27.242  1.00  0.00     0.059 A 
ATOM     68  F   UNL A   1      43.913  23.479  29.405  1.00  0.00    -0.206 F 
ATOM     69  C   UNL A   1      44.816  23.884  25.970  1.00  0.00     0.060 A 
BRANCH  69  70
ATOM     70  S   UNL A   1      45.476  22.891  24.618  1.00  0.00     0.124 S 
ATOM     71  O   UNL A   1      46.148  21.813  25.336  1.00  0.00    -0.237 OA
ATOM     72  O   UNL A   1      44.269  22.516  23.891  1.00  0.00    -0.237 OA
ATOM     73  O   UNL A   1      46.362  23.816  23.914  1.00  0.00    -0.744 OA
ENDBRANCH  69  70
ENDBRANCH  48  62
BRANCH  49  74
ATOM     74  C   UNL A   1      39.002  32.297  33.582  1.00  0.00     0.058 A 
ATOM     75  C   UNL A   1      38.759  33.651  33.240  1.00  0.00     0.135 A 
ATOM     76  C   UNL A   1      37.895  31.431  33.554  1.00  0.00     0.135 A 
ATOM     77  F   UNL A   1      39.776  34.530  33.233  1.00  0.00    -0.206 F 
ATOM     78  C   UNL A   1      37.538  34.080  32.716  1.00  0.00     0.059 A 
ATOM     79  C   UNL A   1      36.657  31.849  33.035  1.00  0.00     0.059 A 
ATOM     80  F   UNL A   1      38.057  30.128  33.822  1.00  0.00    -0.206 F 
ATOM     81  C   UNL A   1      36.503  33.161  32.576  1.00  0.00     0.060 A 
BRANCH  81  82
ATOM     82  S   UNL A   1      35.033  33.660  31.629  1.00  0.00     0.124 S 
ATOM     83  O   UNL A   1      34.079  32.620  31.992  1.00  0.00    -0.237 OA
ATOM     84  O   UNL A   1      34.747  34.990  32.165  1.00  0.00    -0.237 OA
ATOM     85  O   UNL A   1      35.509  33.638  30.252  1.00  0.00    -0.744 OA
ENDBRANCH  81  82
ENDBRANCH  49  74
BRANCH  61  86
ATOM     86  C   UNL A   1      43.991  26.973  34.548  1.00  0.00     0.058 A 
ATOM     87  C   UNL A   1      43.233  25.864  34.947  1.00  0.00     0.135 A 
ATOM     88  C   UNL A   1      45.292  27.078  35.085  1.00  0.00     0.135 A 
ATOM     89  F   UNL A   1      41.953  25.734  34.565  1.00  0.00    -0.206 F 
ATOM     90  C   UNL A   1      43.776  24.852  35.729  1.00  0.00     0.059 A 
ATOM     91  C   UNL A   1      45.824  26.121  35.934  1.00  0.00     0.059 A 
ATOM     92  F   UNL A   1      46.113  28.086  34.763  1.00  0.00    -0.206 F 
ATOM     93  C   UNL A   1      45.078  24.985  36.206  1.00  0.00     0.060 A 
BRANCH  93  94
ATOM     94  S   UNL A   1      45.803  23.651  37.165  1.00  0.00     0.124 S 
ATOM     95  O   UNL A   1      45.305  23.921  38.510  1.00  0.00    -0.237 OA
ATOM     96  O   UNL A   1      45.235  22.482  36.502  1.00  0.00    -0.237 OA
ATOM     97  O   UNL A   1      47.238  23.845  36.983  1.00  0.00    -0.744 OA
ENDBRANCH  93  94
ENDBRANCH  61  86
ENDBRANCH  35  36
ENDBRANCH  28  30
ENDBRANCH  27  28
ENDBRANCH  26  27
ENDBRANCH  25  26
ENDBRANCH   1  25
TORSDOF 20
ENDMDL
