MODEL 1
REMARK VINA RESULT:     -12.3      0.000      0.000
REMARK SMILES Cc1cc(C(=O)OCCOCCOC(=O)c2ccc(-c3c4nc(c(-c5c(F)cc(S(=O)(=O)[O-])cc5F)c5ccc([nH]5)c(-c5c(F)cc(S(=O)(=O)[O-])cc5F)c5nc(c(-c6c(F)cc(S(=O)(=O)[O-])cc6F)c6ccc3[nH]6)C=C5)C=C4)cc2)ccc1NC(=O)N1C[C@@H](C)[C@H](C)C1
REMARK SMILES IDX 11 1 10 2 9 3 8 4 7 5 5 6 6 7 4 8 1 9 2 10 3 11 84 12 83 13
REMARK SMILES IDX 82 14 85 15 86 16 87 18 88 19 89 20 94 21 90 22 92 23 91 24
REMARK SMILES IDX 93 25 12 26 13 27 14 28 15 29 16 30 17 31 81 32 18 33 80 34
REMARK SMILES IDX 19 35 20 36 21 37 74 38 22 39 79 40 73 41 75 42 23 43 78 44
REMARK SMILES IDX 72 45 71 46 24 48 58 49 37 50 57 51 38 52 41 53 56 54 76 55
REMARK SMILES IDX 39 56 40 57 55 59 77 60 42 61 25 62 26 63 35 64 27 65 28 66
REMARK SMILES IDX 34 67 36 68 29 69 30 70 31 71 32 72 33 73 59 74 60 75 69 76
REMARK SMILES IDX 61 77 62 78 68 79 70 80 63 81 64 82 65 83 66 84 67 85 43 86
REMARK SMILES IDX 44 87 53 88 45 89 46 90 52 91 54 92 47 93 48 94 49 95 50 96
REMARK SMILES IDX 51 97
REMARK H PARENT 85 17 75 47 41 58
REMARK Flexibility Score: inf
ROOT
ATOM      1  C   UNL A   1      33.512  28.299  25.933  1.00  0.00     0.202 C 
ENDROOT
BRANCH   1   2
ATOM      2  O   UNL A   1      33.653  27.830  24.611  1.00  0.00    -0.374 OA
BRANCH   2   3
ATOM      3  C   UNL A   1      33.794  28.830  23.613  1.00  0.00     0.202 C 
BRANCH   3   4
ATOM      4  C   UNL A   1      33.598  28.140  22.296  1.00  0.00     0.261 C 
BRANCH   4   5
ATOM      5  O   UNL A   1      32.588  27.103  22.294  1.00  0.00    -0.460 OA
BRANCH   5   6
ATOM      6  C   UNL A   1      32.822  25.904  21.701  1.00  0.00     0.338 C 
ATOM      7  O   UNL A   1      33.211  25.680  20.575  1.00  0.00    -0.246 OA
BRANCH   6   8
ATOM      8  C   UNL A   1      32.341  24.878  22.640  1.00  0.00     0.060 A 
ATOM      9  C   UNL A   1      30.516  24.646  25.932  1.00  0.00     0.046 C 
ATOM     10  C   UNL A   1      31.397  24.252  24.782  1.00  0.00    -0.027 A 
ATOM     11  C   UNL A   1      31.683  25.234  23.817  1.00  0.00     0.021 A 
ATOM     12  C   UNL A   1      31.888  22.952  24.566  1.00  0.00     0.045 A 
ATOM     13  C   UNL A   1      32.275  22.581  23.280  1.00  0.00     0.027 A 
ATOM     14  C   UNL A   1      32.543  23.536  22.334  1.00  0.00     0.018 A 
BRANCH  12  15
ATOM     15  N   UNL A   1      32.049  22.026  25.613  1.00  0.00    -0.308 N 
ATOM     16  C   UNL A   1      33.164  21.281  25.911  1.00  0.00     0.321 C 
ATOM     17  H   UNL A   1      31.271  21.896  26.200  1.00  0.00     0.171 HD
ATOM     18  O   UNL A   1      33.022  20.194  26.473  1.00  0.00    -0.248 OA
ATOM     19  N   UNL A   1      34.405  21.765  25.564  1.00  0.00    -0.324 N 
ATOM     20  C   UNL A   1      35.459  20.882  25.111  1.00  0.00     0.125 C 
ATOM     21  C   UNL A   1      34.930  23.094  25.892  1.00  0.00     0.125 C 
ATOM     22  C   UNL A   1      36.757  21.550  25.547  1.00  0.00     0.010 C 
ATOM     23  C   UNL A   1      36.418  23.052  25.502  1.00  0.00     0.010 C 
ATOM     24  C   UNL A   1      37.935  21.170  24.661  1.00  0.00     0.010 C 
ATOM     25  C   UNL A   1      37.312  23.886  26.418  1.00  0.00     0.010 C 
ENDBRANCH  12  15
ENDBRANCH   6   8
ENDBRANCH   5   6
ENDBRANCH   4   5
ENDBRANCH   3   4
ENDBRANCH   2   3
ENDBRANCH   1   2
BRANCH   1  26
ATOM     26  C   UNL A   1      33.164  29.788  25.986  1.00  0.00     0.261 C 
BRANCH  26  27
ATOM     27  O   UNL A   1      33.326  30.299  27.327  1.00  0.00    -0.460 OA
BRANCH  27  28
ATOM     28  C   UNL A   1      34.433  31.069  27.546  1.00  0.00     0.338 C 
ATOM     29  O   UNL A   1      34.473  32.269  27.340  1.00  0.00    -0.246 OA
BRANCH  28  30
ATOM     30  C   UNL A   1      35.544  30.247  28.110  1.00  0.00     0.060 A 
ATOM     31  C   UNL A   1      35.527  29.794  29.443  1.00  0.00     0.016 A 
ATOM     32  C   UNL A   1      36.693  30.080  27.344  1.00  0.00     0.016 A 
ATOM     33  C   UNL A   1      36.703  29.296  30.042  1.00  0.00     0.010 A 
ATOM     34  C   UNL A   1      37.859  29.681  27.960  1.00  0.00     0.010 A 
ATOM     35  C   UNL A   1      37.890  29.304  29.313  1.00  0.00    -0.014 A 
BRANCH  35  36
ATOM     36  C   UNL A   1      39.248  29.036  29.808  1.00  0.00     0.031 A 
ATOM     37  C   UNL A   1      39.914  27.788  29.361  1.00  0.00     0.074 A 
ATOM     38  C   UNL A   1      40.004  30.046  30.309  1.00  0.00     0.049 A 
ATOM     39  N   UNL A   1      41.114  27.465  29.685  1.00  0.00    -0.248 NA
ATOM     40  C   UNL A   1      39.276  26.767  28.527  1.00  0.00     0.031 C 
ATOM     41  C   UNL A   1      41.456  30.232  30.207  1.00  0.00     0.029 A 
ATOM     42  N   UNL A   1      39.602  31.195  30.992  1.00  0.00    -0.354 N 
ATOM     43  C   UNL A   1      41.519  26.443  28.863  1.00  0.00     0.074 A 
ATOM     44  C   UNL A   1      40.306  25.954  28.264  1.00  0.00     0.031 C 
ATOM     45  C   UNL A   1      41.844  31.244  31.003  1.00  0.00     0.029 A 
ATOM     46  C   UNL A   1      40.678  31.676  31.754  1.00  0.00     0.049 A 
ATOM     47  H   UNL A   1      38.708  31.602  30.947  1.00  0.00     0.167 HD
ATOM     48  C   UNL A   1      42.860  26.241  28.719  1.00  0.00     0.037 A 
ATOM     49  C   UNL A   1      40.554  31.798  33.102  1.00  0.00     0.037 A 
ATOM     50  C   UNL A   1      43.597  27.047  29.706  1.00  0.00     0.049 A 
ATOM     51  C   UNL A   1      41.452  30.770  33.725  1.00  0.00     0.074 A 
ATOM     52  C   UNL A   1      44.402  28.170  29.624  1.00  0.00     0.029 A 
ATOM     53  N   UNL A   1      43.286  26.892  31.061  1.00  0.00    -0.354 N 
ATOM     54  N   UNL A   1      41.847  29.711  33.068  1.00  0.00    -0.248 NA
ATOM     55  C   UNL A   1      42.100  30.894  35.025  1.00  0.00     0.031 C 
ATOM     56  C   UNL A   1      44.460  28.754  30.928  1.00  0.00     0.029 A 
ATOM     57  C   UNL A   1      43.732  27.966  31.809  1.00  0.00     0.049 A 
ATOM     58  H   UNL A   1      42.809  26.116  31.434  1.00  0.00     0.167 HD
ATOM     59  C   UNL A   1      42.832  29.086  33.757  1.00  0.00     0.074 A 
ATOM     60  C   UNL A   1      42.923  29.828  35.004  1.00  0.00     0.031 C 
ATOM     61  C   UNL A   1      43.508  28.015  33.255  1.00  0.00     0.037 A 
BRANCH  48  62
ATOM     62  C   UNL A   1      43.529  25.436  27.615  1.00  0.00     0.058 A 
ATOM     63  C   UNL A   1      43.542  24.025  27.676  1.00  0.00     0.135 A 
ATOM     64  C   UNL A   1      44.244  25.973  26.519  1.00  0.00     0.135 A 
ATOM     65  F   UNL A   1      42.941  23.369  28.681  1.00  0.00    -0.206 F 
ATOM     66  C   UNL A   1      44.189  23.220  26.729  1.00  0.00     0.059 A 
ATOM     67  C   UNL A   1      44.858  25.189  25.535  1.00  0.00     0.059 A 
ATOM     68  F   UNL A   1      44.445  27.287  26.370  1.00  0.00    -0.206 F 
ATOM     69  C   UNL A   1      44.836  23.810  25.653  1.00  0.00     0.060 A 
BRANCH  69  70
ATOM     70  S   UNL A   1      45.657  22.770  24.430  1.00  0.00     0.124 S 
ATOM     71  O   UNL A   1      46.634  23.689  23.855  1.00  0.00    -0.237 OA
ATOM     72  O   UNL A   1      46.202  21.694  25.252  1.00  0.00    -0.237 OA
ATOM     73  O   UNL A   1      44.573  22.375  23.533  1.00  0.00    -0.744 OA
ENDBRANCH  69  70
ENDBRANCH  48  62
BRANCH  49  74
ATOM     74  C   UNL A   1      39.196  32.299  33.494  1.00  0.00     0.058 A 
ATOM     75  C   UNL A   1      38.915  33.650  33.180  1.00  0.00     0.135 A 
ATOM     76  C   UNL A   1      38.087  31.440  33.603  1.00  0.00     0.135 A 
ATOM     77  F   UNL A   1      39.925  34.527  33.044  1.00  0.00    -0.206 F 
ATOM     78  C   UNL A   1      37.635  34.091  32.834  1.00  0.00     0.059 A 
ATOM     79  C   UNL A   1      36.797  31.857  33.235  1.00  0.00     0.059 A 
ATOM     80  F   UNL A   1      38.267  30.144  33.897  1.00  0.00    -0.206 F 
ATOM     81  C   UNL A   1      36.592  33.169  32.798  1.00  0.00     0.060 A 
BRANCH  81  82
ATOM     82  S   UNL A   1      35.068  33.618  31.903  1.00  0.00     0.124 S 
ATOM     83  O   UNL A   1      35.588  34.072  30.620  1.00  0.00    -0.237 OA
ATOM     84  O   UNL A   1      34.328  32.356  31.871  1.00  0.00    -0.237 OA
ATOM     85  O   UNL A   1      34.477  34.640  32.759  1.00  0.00    -0.744 OA
ENDBRANCH  81  82
ENDBRANCH  49  74
BRANCH  61  86
ATOM     86  C   UNL A   1      44.065  26.951  34.151  1.00  0.00     0.058 A 
ATOM     87  C   UNL A   1      43.243  26.039  34.840  1.00  0.00     0.135 A 
ATOM     88  C   UNL A   1      45.452  26.697  34.205  1.00  0.00     0.135 A 
ATOM     89  F   UNL A   1      41.906  26.079  34.746  1.00  0.00    -0.206 F 
ATOM     90  C   UNL A   1      43.763  25.024  35.629  1.00  0.00     0.059 A 
ATOM     91  C   UNL A   1      45.988  25.641  34.928  1.00  0.00     0.059 A 
ATOM     92  F   UNL A   1      46.334  27.458  33.541  1.00  0.00    -0.206 F 
ATOM     93  C   UNL A   1      45.138  24.841  35.677  1.00  0.00     0.060 A 
BRANCH  93  94
ATOM     94  S   UNL A   1      45.804  23.544  36.725  1.00  0.00     0.124 S 
ATOM     95  O   UNL A   1      47.238  23.769  36.573  1.00  0.00    -0.237 OA
ATOM     96  O   UNL A   1      45.247  23.873  38.033  1.00  0.00    -0.237 OA
ATOM     97  O   UNL A   1      45.284  22.324  36.118  1.00  0.00    -0.744 OA
ENDBRANCH  93  94
ENDBRANCH  61  86
ENDBRANCH  35  36
ENDBRANCH  28  30
ENDBRANCH  27  28
ENDBRANCH  26  27
ENDBRANCH   1  26
TORSDOF 18
ENDMDL
MODEL 2
REMARK VINA RESULT:     -12.2      3.462      9.923
REMARK SMILES Cc1cc(C(=O)OCCOCCOC(=O)c2ccc(-c3c4nc(c(-c5c(F)cc(S(=O)(=O)[O-])cc5F)c5ccc([nH]5)c(-c5c(F)cc(S(=O)(=O)[O-])cc5F)c5nc(c(-c6c(F)cc(S(=O)(=O)[O-])cc6F)c6ccc3[nH]6)C=C5)C=C4)cc2)ccc1NC(=O)N1C[C@@H](C)[C@H](C)C1
REMARK SMILES IDX 11 1 10 2 9 3 8 4 7 5 5 6 6 7 4 8 1 9 2 10 3 11 84 12 83 13
REMARK SMILES IDX 82 14 85 15 86 16 87 18 88 19 89 20 94 21 90 22 92 23 91 24
REMARK SMILES IDX 93 25 12 26 13 27 14 28 15 29 16 30 17 31 81 32 18 33 80 34
REMARK SMILES IDX 19 35 20 36 21 37 74 38 22 39 79 40 73 41 75 42 23 43 78 44
REMARK SMILES IDX 72 45 71 46 24 48 58 49 37 50 57 51 38 52 41 53 56 54 76 55
REMARK SMILES IDX 39 56 40 57 55 59 77 60 42 61 25 62 26 63 35 64 27 65 28 66
REMARK SMILES IDX 34 67 36 68 29 69 30 70 31 71 32 72 33 73 59 74 60 75 69 76
REMARK SMILES IDX 61 77 62 78 68 79 70 80 63 81 64 82 65 83 66 84 67 85 43 86
REMARK SMILES IDX 44 87 53 88 45 89 46 90 52 91 54 92 47 93 48 94 49 95 50 96
REMARK SMILES IDX 51 97
REMARK H PARENT 85 17 75 47 41 58
REMARK Flexibility Score: inf
ROOT
ATOM      1  C   UNL A   1      36.866  22.666  24.412  1.00  0.00     0.202 C 
ENDROOT
BRANCH   1   2
ATOM      2  O   UNL A   1      35.953  21.600  24.290  1.00  0.00    -0.374 OA
BRANCH   2   3
ATOM      3  C   UNL A   1      36.297  20.409  24.983  1.00  0.00     0.202 C 
BRANCH   3   4
ATOM      4  C   UNL A   1      35.060  19.561  25.004  1.00  0.00     0.261 C 
BRANCH   4   5
ATOM      5  O   UNL A   1      33.957  20.072  24.219  1.00  0.00    -0.460 OA
BRANCH   5   6
ATOM      6  C   UNL A   1      32.694  20.086  24.718  1.00  0.00     0.338 C 
ATOM      7  O   UNL A   1      32.029  19.155  25.117  1.00  0.00    -0.246 OA
BRANCH   6   8
ATOM      8  C   UNL A   1      32.189  21.454  24.528  1.00  0.00     0.060 A 
ATOM      9  C   UNL A   1      30.440  24.155  26.496  1.00  0.00     0.046 C 
ATOM     10  C   UNL A   1      30.925  23.367  25.314  1.00  0.00    -0.027 A 
ATOM     11  C   UNL A   1      31.560  22.138  25.568  1.00  0.00     0.021 A 
ATOM     12  C   UNL A   1      30.858  23.811  23.981  1.00  0.00     0.045 A 
ATOM     13  C   UNL A   1      31.727  23.262  23.041  1.00  0.00     0.027 A 
ATOM     14  C   UNL A   1      32.356  22.070  23.292  1.00  0.00     0.018 A 
BRANCH  12  15
ATOM     15  N   UNL A   1      29.909  24.757  23.551  1.00  0.00    -0.308 N 
ATOM     16  C   UNL A   1      29.895  26.107  23.802  1.00  0.00     0.321 C 
ATOM     17  H   UNL A   1      29.168  24.409  23.007  1.00  0.00     0.171 HD
ATOM     18  O   UNL A   1      28.814  26.698  23.830  1.00  0.00    -0.248 OA
ATOM     19  N   UNL A   1      31.087  26.759  24.026  1.00  0.00    -0.324 N 
ATOM     20  C   UNL A   1      31.187  27.839  24.986  1.00  0.00     0.125 C 
ATOM     21  C   UNL A   1      32.270  26.705  23.162  1.00  0.00     0.125 C 
ATOM     22  C   UNL A   1      32.286  28.749  24.451  1.00  0.00     0.010 C 
ATOM     23  C   UNL A   1      33.226  27.778  23.712  1.00  0.00     0.010 C 
ATOM     24  C   UNL A   1      32.977  29.537  25.554  1.00  0.00     0.010 C 
ATOM     25  C   UNL A   1      34.055  28.468  22.631  1.00  0.00     0.010 C 
ENDBRANCH  12  15
ENDBRANCH   6   8
ENDBRANCH   5   6
ENDBRANCH   4   5
ENDBRANCH   3   4
ENDBRANCH   2   3
ENDBRANCH   1   2
BRANCH   1  26
ATOM     26  C   UNL A   1      37.523  22.711  25.793  1.00  0.00     0.261 C 
BRANCH  26  27
ATOM     27  O   UNL A   1      38.902  22.287  25.713  1.00  0.00    -0.460 OA
BRANCH  27  28
ATOM     28  C   UNL A   1      39.681  22.570  26.799  1.00  0.00     0.338 C 
ATOM     29  O   UNL A   1      40.231  21.720  27.475  1.00  0.00    -0.246 OA
BRANCH  28  30
ATOM     30  C   UNL A   1      39.794  24.045  26.996  1.00  0.00     0.060 A 
ATOM     31  C   UNL A   1      40.548  24.853  26.125  1.00  0.00     0.016 A 
ATOM     32  C   UNL A   1      39.281  24.593  28.168  1.00  0.00     0.016 A 
ATOM     33  C   UNL A   1      40.897  26.168  26.494  1.00  0.00     0.010 A 
ATOM     34  C   UNL A   1      39.701  25.844  28.565  1.00  0.00     0.010 A 
ATOM     35  C   UNL A   1      40.526  26.640  27.752  1.00  0.00    -0.014 A 
BRANCH  35  36
ATOM     36  C   UNL A   1      40.964  27.879  28.410  1.00  0.00     0.031 A 
ATOM     37  C   UNL A   1      39.978  28.980  28.538  1.00  0.00     0.074 A 
ATOM     38  C   UNL A   1      42.060  27.878  29.210  1.00  0.00     0.049 A 
ATOM     39  N   UNL A   1      40.223  30.091  29.132  1.00  0.00    -0.248 NA
ATOM     40  C   UNL A   1      38.625  28.944  27.978  1.00  0.00     0.031 C 
ATOM     41  C   UNL A   1      42.296  28.656  30.432  1.00  0.00     0.029 A 
ATOM     42  N   UNL A   1      43.216  27.100  29.123  1.00  0.00    -0.354 N 
ATOM     43  C   UNL A   1      39.030  30.735  29.347  1.00  0.00     0.074 A 
ATOM     44  C   UNL A   1      38.092  30.057  28.493  1.00  0.00     0.031 C 
ATOM     45  C   UNL A   1      43.577  28.521  30.819  1.00  0.00     0.029 A 
ATOM     46  C   UNL A   1      44.261  27.754  29.792  1.00  0.00     0.049 A 
ATOM     47  H   UNL A   1      43.287  26.233  28.664  1.00  0.00     0.167 HD
ATOM     48  C   UNL A   1      38.991  31.685  30.324  1.00  0.00     0.037 A 
ATOM     49  C   UNL A   1      45.395  28.086  29.121  1.00  0.00     0.037 A 
ATOM     50  C   UNL A   1      40.356  31.985  30.787  1.00  0.00     0.049 A 
ATOM     51  C   UNL A   1      45.428  29.583  29.021  1.00  0.00     0.074 A 
ATOM     52  C   UNL A   1      41.058  31.726  31.951  1.00  0.00     0.029 A 
ATOM     53  N   UNL A   1      41.308  32.385  29.842  1.00  0.00    -0.354 N 
ATOM     54  N   UNL A   1      44.344  30.306  29.132  1.00  0.00    -0.248 NA
ATOM     55  C   UNL A   1      46.636  30.397  28.950  1.00  0.00     0.031 C 
ATOM     56  C   UNL A   1      42.451  31.851  31.652  1.00  0.00     0.029 A 
ATOM     57  C   UNL A   1      42.595  32.230  30.323  1.00  0.00     0.049 A 
ATOM     58  H   UNL A   1      41.089  32.731  28.948  1.00  0.00     0.167 HD
ATOM     59  C   UNL A   1      44.676  31.613  29.253  1.00  0.00     0.074 A 
ATOM     60  C   UNL A   1      46.120  31.634  29.079  1.00  0.00     0.031 C 
ATOM     61  C   UNL A   1      43.751  32.582  29.497  1.00  0.00     0.037 A 
BRANCH  48  62
ATOM     62  C   UNL A   1      37.736  32.251  30.971  1.00  0.00     0.058 A 
ATOM     63  C   UNL A   1      36.971  33.229  30.296  1.00  0.00     0.135 A 
ATOM     64  C   UNL A   1      37.270  31.951  32.272  1.00  0.00     0.135 A 
ATOM     65  F   UNL A   1      37.311  33.648  29.068  1.00  0.00    -0.206 F 
ATOM     66  C   UNL A   1      35.839  33.837  30.852  1.00  0.00     0.059 A 
ATOM     67  C   UNL A   1      36.115  32.511  32.830  1.00  0.00     0.059 A 
ATOM     68  F   UNL A   1      37.938  31.144  33.103  1.00  0.00    -0.206 F 
ATOM     69  C   UNL A   1      35.408  33.464  32.118  1.00  0.00     0.060 A 
BRANCH  69  70
ATOM     70  S   UNL A   1      33.944  34.243  32.824  1.00  0.00     0.124 S 
ATOM     71  O   UNL A   1      34.521  35.093  33.860  1.00  0.00    -0.237 OA
ATOM     72  O   UNL A   1      33.375  34.937  31.674  1.00  0.00    -0.237 OA
ATOM     73  O   UNL A   1      33.158  33.112  33.316  1.00  0.00    -0.744 OA
ENDBRANCH  69  70
ENDBRANCH  48  62
BRANCH  49  74
ATOM     74  C   UNL A   1      45.803  27.016  28.153  1.00  0.00     0.058 A 
ATOM     75  C   UNL A   1      46.223  25.790  28.720  1.00  0.00     0.135 A 
ATOM     76  C   UNL A   1      45.286  26.955  26.847  1.00  0.00     0.135 A 
ATOM     77  F   UNL A   1      46.715  25.767  29.971  1.00  0.00    -0.206 F 
ATOM     78  C   UNL A   1      45.994  24.558  28.101  1.00  0.00     0.059 A 
ATOM     79  C   UNL A   1      45.025  25.726  26.218  1.00  0.00     0.059 A 
ATOM     80  F   UNL A   1      44.865  28.073  26.237  1.00  0.00    -0.206 F 
ATOM     81  C   UNL A   1      45.330  24.532  26.877  1.00  0.00     0.060 A 
BRANCH  81  82
ATOM     82  S   UNL A   1      44.614  22.954  26.312  1.00  0.00     0.124 S 
ATOM     83  O   UNL A   1      44.011  23.328  25.040  1.00  0.00    -0.237 OA
ATOM     84  O   UNL A   1      45.786  22.082  26.220  1.00  0.00    -0.237 OA
ATOM     85  O   UNL A   1      43.692  22.611  27.388  1.00  0.00    -0.744 OA
ENDBRANCH  81  82
ENDBRANCH  49  74
BRANCH  61  86
ATOM     86  C   UNL A   1      43.932  33.983  28.995  1.00  0.00     0.058 A 
ATOM     87  C   UNL A   1      43.889  34.305  27.625  1.00  0.00     0.135 A 
ATOM     88  C   UNL A   1      43.977  35.076  29.887  1.00  0.00     0.135 A 
ATOM     89  F   UNL A   1      43.695  33.370  26.683  1.00  0.00    -0.206 F 
ATOM     90  C   UNL A   1      44.008  35.608  27.167  1.00  0.00     0.059 A 
ATOM     91  C   UNL A   1      44.020  36.392  29.450  1.00  0.00     0.059 A 
ATOM     92  F   UNL A   1      43.961  34.901  31.216  1.00  0.00    -0.206 F 
ATOM     93  C   UNL A   1      44.086  36.645  28.087  1.00  0.00     0.060 A 
BRANCH  93  94
ATOM     94  S   UNL A   1      44.270  38.325  27.486  1.00  0.00     0.124 S 
ATOM     95  O   UNL A   1      43.093  38.448  26.631  1.00  0.00    -0.237 OA
ATOM     96  O   UNL A   1      44.242  39.110  28.716  1.00  0.00    -0.237 OA
ATOM     97  O   UNL A   1      45.555  38.296  26.797  1.00  0.00    -0.744 OA
ENDBRANCH  93  94
ENDBRANCH  61  86
ENDBRANCH  35  36
ENDBRANCH  28  30
ENDBRANCH  27  28
ENDBRANCH  26  27
ENDBRANCH   1  26
TORSDOF 18
ENDMDL
MODEL 3
REMARK VINA RESULT:     -12.0      3.577      9.953
REMARK SMILES Cc1cc(C(=O)OCCOCCOC(=O)c2ccc(-c3c4nc(c(-c5c(F)cc(S(=O)(=O)[O-])cc5F)c5ccc([nH]5)c(-c5c(F)cc(S(=O)(=O)[O-])cc5F)c5nc(c(-c6c(F)cc(S(=O)(=O)[O-])cc6F)c6ccc3[nH]6)C=C5)C=C4)cc2)ccc1NC(=O)N1C[C@@H](C)[C@H](C)C1
REMARK SMILES IDX 11 1 10 2 9 3 8 4 7 5 5 6 6 7 4 8 1 9 2 10 3 11 84 12 83 13
REMARK SMILES IDX 82 14 85 15 86 16 87 18 88 19 89 20 94 21 90 22 92 23 91 24
REMARK SMILES IDX 93 25 12 26 13 27 14 28 15 29 16 30 17 31 81 32 18 33 80 34
REMARK SMILES IDX 19 35 20 36 21 37 74 38 22 39 79 40 73 41 75 42 23 43 78 44
REMARK SMILES IDX 72 45 71 46 24 48 58 49 37 50 57 51 38 52 41 53 56 54 76 55
REMARK SMILES IDX 39 56 40 57 55 59 77 60 42 61 25 62 26 63 35 64 27 65 28 66
REMARK SMILES IDX 34 67 36 68 29 69 30 70 31 71 32 72 33 73 59 74 60 75 69 76
REMARK SMILES IDX 61 77 62 78 68 79 70 80 63 81 64 82 65 83 66 84 67 85 43 86
REMARK SMILES IDX 44 87 53 88 45 89 46 90 52 91 54 92 47 93 48 94 49 95 50 96
REMARK SMILES IDX 51 97
REMARK H PARENT 85 17 75 47 41 58
REMARK Flexibility Score: inf
ROOT
ATOM      1  C   UNL A   1      35.738  21.404  25.313  1.00  0.00     0.202 C 
ENDROOT
BRANCH   1   2
ATOM      2  O   UNL A   1      34.490  21.515  25.958  1.00  0.00    -0.374 OA
BRANCH   2   3
ATOM      3  C   UNL A   1      34.520  22.050  27.273  1.00  0.00     0.202 C 
BRANCH   3   4
ATOM      4  C   UNL A   1      33.118  22.483  27.583  1.00  0.00     0.261 C 
BRANCH   4   5
ATOM      5  O   UNL A   1      32.246  22.596  26.433  1.00  0.00    -0.460 OA
BRANCH   5   6
ATOM      6  C   UNL A   1      31.081  23.290  26.508  1.00  0.00     0.338 C 
ATOM      7  O   UNL A   1      30.191  23.188  27.324  1.00  0.00    -0.246 OA
BRANCH   6   8
ATOM      8  C   UNL A   1      31.003  24.101  25.282  1.00  0.00     0.060 A 
ATOM      9  C   UNL A   1      32.781  24.460  21.976  1.00  0.00     0.046 C 
ATOM     10  C   UNL A   1      31.933  24.817  23.162  1.00  0.00    -0.027 A 
ATOM     11  C   UNL A   1      31.910  23.913  24.239  1.00  0.00     0.021 A 
ATOM     12  C   UNL A   1      31.101  25.948  23.233  1.00  0.00     0.045 A 
ATOM     13  C   UNL A   1      30.032  25.946  24.125  1.00  0.00     0.027 A 
ATOM     14  C   UNL A   1      30.002  25.058  25.169  1.00  0.00     0.018 A 
BRANCH  12  15
ATOM     15  N   UNL A   1      31.341  27.105  22.469  1.00  0.00    -0.308 N 
ATOM     16  C   UNL A   1      31.470  28.397  22.918  1.00  0.00     0.321 C 
ATOM     17  H   UNL A   1      31.425  26.974  21.498  1.00  0.00     0.171 HD
ATOM     18  O   UNL A   1      31.161  29.323  22.167  1.00  0.00    -0.248 OA
ATOM     19  N   UNL A   1      31.928  28.618  24.197  1.00  0.00    -0.324 N 
ATOM     20  C   UNL A   1      31.412  29.702  25.007  1.00  0.00     0.125 C 
ATOM     21  C   UNL A   1      33.150  28.056  24.780  1.00  0.00     0.125 C 
ATOM     22  C   UNL A   1      32.564  30.106  25.917  1.00  0.00     0.010 C 
ATOM     23  C   UNL A   1      33.338  28.789  26.119  1.00  0.00     0.010 C 
ATOM     24  C   UNL A   1      32.086  30.731  27.220  1.00  0.00     0.010 C 
ATOM     25  C   UNL A   1      34.802  29.017  26.490  1.00  0.00     0.010 C 
ENDBRANCH  12  15
ENDBRANCH   6   8
ENDBRANCH   5   6
ENDBRANCH   4   5
ENDBRANCH   3   4
ENDBRANCH   2   3
ENDBRANCH   1   2
BRANCH   1  26
ATOM     26  C   UNL A   1      36.699  22.526  25.713  1.00  0.00     0.261 C 
BRANCH  26  27
ATOM     27  O   UNL A   1      38.055  22.188  25.344  1.00  0.00    -0.460 OA
BRANCH  27  28
ATOM     28  C   UNL A   1      38.998  22.338  26.321  1.00  0.00     0.338 C 
ATOM     29  O   UNL A   1      39.568  21.406  26.857  1.00  0.00    -0.246 OA
BRANCH  28  30
ATOM     30  C   UNL A   1      39.252  23.784  26.591  1.00  0.00     0.060 A 
ATOM     31  C   UNL A   1      39.981  24.588  25.694  1.00  0.00     0.016 A 
ATOM     32  C   UNL A   1      38.906  24.292  27.839  1.00  0.00     0.016 A 
ATOM     33  C   UNL A   1      40.473  25.845  26.100  1.00  0.00     0.010 A 
ATOM     34  C   UNL A   1      39.465  25.477  28.262  1.00  0.00     0.010 A 
ATOM     35  C   UNL A   1      40.269  26.259  27.415  1.00  0.00    -0.014 A 
BRANCH  35  36
ATOM     36  C   UNL A   1      40.871  27.415  28.095  1.00  0.00     0.031 A 
ATOM     37  C   UNL A   1      39.995  28.572  28.399  1.00  0.00     0.074 A 
ATOM     38  C   UNL A   1      42.043  27.279  28.765  1.00  0.00     0.049 A 
ATOM     39  N   UNL A   1      40.390  29.619  29.030  1.00  0.00    -0.248 NA
ATOM     40  C   UNL A   1      38.591  28.673  27.993  1.00  0.00     0.031 C 
ATOM     41  C   UNL A   1      42.470  27.951  29.998  1.00  0.00     0.029 A 
ATOM     42  N   UNL A   1      43.118  26.429  28.501  1.00  0.00    -0.354 N 
ATOM     43  C   UNL A   1      39.281  30.330  29.416  1.00  0.00     0.074 A 
ATOM     44  C   UNL A   1      38.206  29.783  28.633  1.00  0.00     0.031 C 
ATOM     45  C   UNL A   1      43.770  27.699  30.230  1.00  0.00     0.029 A 
ATOM     46  C   UNL A   1      44.277  26.958  29.088  1.00  0.00     0.049 A 
ATOM     47  H   UNL A   1      43.071  25.593  27.985  1.00  0.00     0.167 HD
ATOM     48  C   UNL A   1      39.422  31.210  30.448  1.00  0.00     0.037 A 
ATOM     49  C   UNL A   1      45.356  27.254  28.315  1.00  0.00     0.037 A 
ATOM     50  C   UNL A   1      40.849  31.379  30.772  1.00  0.00     0.049 A 
ATOM     51  C   UNL A   1      45.496  28.748  28.304  1.00  0.00     0.074 A 
ATOM     52  C   UNL A   1      41.648  30.989  31.832  1.00  0.00     0.029 A 
ATOM     53  N   UNL A   1      41.722  31.774  29.753  1.00  0.00    -0.354 N 
ATOM     54  N   UNL A   1      44.491  29.537  28.580  1.00  0.00    -0.248 NA
ATOM     55  C   UNL A   1      46.749  29.476  28.148  1.00  0.00     0.031 C 
ATOM     56  C   UNL A   1      43.006  31.035  31.387  1.00  0.00     0.029 A 
ATOM     57  C   UNL A   1      43.037  31.494  30.076  1.00  0.00     0.049 A 
ATOM     58  H   UNL A   1      41.436  32.197  28.912  1.00  0.00     0.167 HD
ATOM     59  C   UNL A   1      44.936  30.806  28.744  1.00  0.00     0.074 A 
ATOM     60  C   UNL A   1      46.350  30.734  28.410  1.00  0.00     0.031 C 
ATOM     61  C   UNL A   1      44.121  31.819  29.149  1.00  0.00     0.037 A 
BRANCH  48  62
ATOM     62  C   UNL A   1      38.292  31.819  31.265  1.00  0.00     0.058 A 
ATOM     63  C   UNL A   1      37.693  33.030  30.853  1.00  0.00     0.135 A 
ATOM     64  C   UNL A   1      37.803  31.323  32.496  1.00  0.00     0.135 A 
ATOM     65  F   UNL A   1      38.080  33.645  29.725  1.00  0.00    -0.206 F 
ATOM     66  C   UNL A   1      36.690  33.679  31.584  1.00  0.00     0.059 A 
ATOM     67  C   UNL A   1      36.769  31.928  33.220  1.00  0.00     0.059 A 
ATOM     68  F   UNL A   1      38.339  30.258  33.102  1.00  0.00    -0.206 F 
ATOM     69  C   UNL A   1      36.224  33.115  32.763  1.00  0.00     0.060 A 
BRANCH  69  70
ATOM     70  S   UNL A   1      34.925  33.949  33.694  1.00  0.00     0.124 S 
ATOM     71  O   UNL A   1      35.009  35.312  33.180  1.00  0.00    -0.237 OA
ATOM     72  O   UNL A   1      33.735  33.196  33.312  1.00  0.00    -0.237 OA
ATOM     73  O   UNL A   1      35.340  33.784  35.086  1.00  0.00    -0.744 OA
ENDBRANCH  69  70
ENDBRANCH  48  62
BRANCH  49  74
ATOM     74  C   UNL A   1      45.572  26.227  27.243  1.00  0.00     0.058 A 
ATOM     75  C   UNL A   1      45.996  24.950  27.680  1.00  0.00     0.135 A 
ATOM     76  C   UNL A   1      44.882  26.271  26.019  1.00  0.00     0.135 A 
ATOM     77  F   UNL A   1      46.649  24.828  28.850  1.00  0.00    -0.206 F 
ATOM     78  C   UNL A   1      45.620  23.770  27.032  1.00  0.00     0.059 A 
ATOM     79  C   UNL A   1      44.472  25.096  25.366  1.00  0.00     0.059 A 
ATOM     80  F   UNL A   1      44.445  27.442  25.534  1.00  0.00    -0.206 F 
ATOM     81  C   UNL A   1      44.798  23.851  25.911  1.00  0.00     0.060 A 
BRANCH  81  82
ATOM     82  S   UNL A   1      43.928  22.346  25.364  1.00  0.00     0.124 S 
ATOM     83  O   UNL A   1      42.732  22.362  26.196  1.00  0.00    -0.237 OA
ATOM     84  O   UNL A   1      43.706  22.600  23.940  1.00  0.00    -0.237 OA
ATOM     85  O   UNL A   1      44.895  21.291  25.643  1.00  0.00    -0.744 OA
ENDBRANCH  81  82
ENDBRANCH  49  74
BRANCH  61  86
ATOM     86  C   UNL A   1      44.358  33.235  28.716  1.00  0.00     0.058 A 
ATOM     87  C   UNL A   1      44.194  33.654  27.383  1.00  0.00     0.135 A 
ATOM     88  C   UNL A   1      44.584  34.257  29.662  1.00  0.00     0.135 A 
ATOM     89  F   UNL A   1      43.827  32.803  26.412  1.00  0.00    -0.206 F 
ATOM     90  C   UNL A   1      44.365  34.974  26.994  1.00  0.00     0.059 A 
ATOM     91  C   UNL A   1      44.684  35.594  29.305  1.00  0.00     0.059 A 
ATOM     92  F   UNL A   1      44.698  33.992  30.972  1.00  0.00    -0.206 F 
ATOM     93  C   UNL A   1      44.623  35.935  27.962  1.00  0.00     0.060 A 
BRANCH  93  94
ATOM     94  S   UNL A   1      44.874  37.636  27.448  1.00  0.00     0.124 S 
ATOM     95  O   UNL A   1      45.981  37.485  26.508  1.00  0.00    -0.237 OA
ATOM     96  O   UNL A   1      43.586  37.985  26.856  1.00  0.00    -0.237 OA
ATOM     97  O   UNL A   1      45.190  38.321  28.696  1.00  0.00    -0.744 OA
ENDBRANCH  93  94
ENDBRANCH  61  86
ENDBRANCH  35  36
ENDBRANCH  28  30
ENDBRANCH  27  28
ENDBRANCH  26  27
ENDBRANCH   1  26
TORSDOF 18
ENDMDL
