MODEL 1
REMARK VINA RESULT:     -10.6      0.000      0.000
REMARK SMILES C[C@@H]1CN(S(=O)(=O)[C@@H](C)C(=O)OCCOCCOC(=O)c2ccc(-c3c4nc(c(-c5c(F)cc(S(=O)(=O)[O-])cc5F)c5ccc([nH]5)c(-c5c(F)cc(S(=O)(=O)[O-])cc5F)c5nc(c(-c6c(F)cc(S(=O)(=O)[O-])cc6F)c6ccc3[nH]6)C=C5)C=C4)cc2)CC[C@@H]1[NH3+]
REMARK SMILES IDX 15 1 14 2 13 3 12 4 10 5 11 6 8 7 9 8 5 9 6 10 7 11 4 12
REMARK SMILES IDX 1 13 2 14 3 15 89 16 88 17 87 18 90 19 16 23 17 24 18 25
REMARK SMILES IDX 19 26 20 27 21 28 22 29 86 30 23 31 85 32 24 33 25 34 26 35
REMARK SMILES IDX 79 36 27 37 84 38 78 39 80 40 28 41 83 42 77 43 76 44 29 46
REMARK SMILES IDX 63 47 42 48 62 49 43 50 46 51 61 52 81 53 44 54 45 55 60 57
REMARK SMILES IDX 82 58 47 59 30 60 31 61 40 62 32 63 33 64 39 65 41 66 34 67
REMARK SMILES IDX 35 68 36 69 37 70 38 71 64 72 65 73 74 74 66 75 67 76 73 77
REMARK SMILES IDX 75 78 68 79 69 80 70 81 71 82 72 83 48 84 49 85 58 86 50 87
REMARK SMILES IDX 51 88 57 89 59 90 52 91 53 92 54 93 55 94 56 95
REMARK H PARENT 90 20 90 21 90 22 80 45 46 56
REMARK Flexibility Score: inf
ROOT
ATOM      1  O   UNL A   1      38.293  22.168  25.764  1.00  0.00    -0.374 OA
ENDROOT
BRANCH   1   2
ATOM      2  C   UNL A   1      37.375  21.652  24.799  1.00  0.00     0.202 C 
BRANCH   2   3
ATOM      3  C   UNL A   1      36.565  22.718  24.043  1.00  0.00     0.261 C 
BRANCH   3   4
ATOM      4  O   UNL A   1      35.146  22.424  24.000  1.00  0.00    -0.462 OA
BRANCH   4   5
ATOM      5  C   UNL A   1      34.312  23.373  23.512  1.00  0.00     0.325 C 
ATOM      6  O   UNL A   1      34.660  24.234  22.710  1.00  0.00    -0.251 OA
BRANCH   5   7
ATOM      7  C   UNL A   1      32.941  23.337  24.114  1.00  0.00     0.230 C 
ATOM      8  C   UNL A   1      31.869  22.854  23.157  1.00  0.00     0.039 C 
BRANCH   7   9
ATOM      9  S   UNL A   1      32.487  24.772  25.078  1.00  0.00     0.227 S 
ATOM     10  O   UNL A   1      33.544  25.115  26.005  1.00  0.00    -0.211 OA
ATOM     11  O   UNL A   1      31.172  24.468  25.616  1.00  0.00    -0.211 OA
BRANCH   9  12
ATOM     12  N   UNL A   1      32.273  26.108  24.033  1.00  0.00    -0.200 NA
ATOM     13  C   UNL A   1      33.800  27.967  22.224  1.00  0.00     0.015 C 
ATOM     14  C   UNL A   1      32.866  28.417  23.356  1.00  0.00     0.059 C 
ATOM     15  C   UNL A   1      32.820  27.408  24.506  1.00  0.00     0.111 C 
ATOM     16  C   UNL A   1      31.417  28.697  22.923  1.00  0.00     0.186 C 
ATOM     17  C   UNL A   1      30.698  27.394  22.556  1.00  0.00     0.082 C 
ATOM     18  C   UNL A   1      30.830  26.325  23.648  1.00  0.00     0.108 C 
BRANCH  16  19
ATOM     19  N   UNL A   1      31.349  29.648  21.818  1.00  0.00    -0.355 N 
ATOM     20  H   UNL A   1      30.771  29.261  21.072  1.00  0.00     0.344 HD
ATOM     21  H   UNL A   1      32.288  29.826  21.464  1.00  0.00     0.344 HD
ATOM     22  H   UNL A   1      30.938  30.523  22.148  1.00  0.00     0.344 HD
ENDBRANCH  16  19
ENDBRANCH   9  12
ENDBRANCH   7   9
ENDBRANCH   5   7
ENDBRANCH   4   5
ENDBRANCH   3   4
ENDBRANCH   2   3
ENDBRANCH   1   2
BRANCH   1  23
ATOM     23  C   UNL A   1      39.407  21.322  26.052  1.00  0.00     0.202 C 
BRANCH  23  24
ATOM     24  C   UNL A   1      40.392  21.879  27.085  1.00  0.00     0.261 C 
BRANCH  24  25
ATOM     25  O   UNL A   1      40.047  23.226  27.464  1.00  0.00    -0.460 OA
BRANCH  25  26
ATOM     26  C   UNL A   1      40.948  24.179  27.130  1.00  0.00     0.338 C 
ATOM     27  O   UNL A   1      41.702  24.180  26.171  1.00  0.00    -0.246 OA
BRANCH  26  28
ATOM     28  C   UNL A   1      40.754  25.348  28.014  1.00  0.00     0.060 A 
ATOM     29  C   UNL A   1      41.832  26.221  28.203  1.00  0.00     0.016 A 
ATOM     30  C   UNL A   1      39.536  25.592  28.651  1.00  0.00     0.016 A 
ATOM     31  C   UNL A   1      41.703  27.332  29.044  1.00  0.00     0.010 A 
ATOM     32  C   UNL A   1      39.409  26.714  29.482  1.00  0.00     0.010 A 
ATOM     33  C   UNL A   1      40.495  27.585  29.707  1.00  0.00    -0.014 A 
BRANCH  33  34
ATOM     34  C   UNL A   1      40.395  28.654  30.748  1.00  0.00     0.031 A 
ATOM     35  C   UNL A   1      41.278  28.551  31.969  1.00  0.00     0.074 A 
ATOM     36  C   UNL A   1      39.540  29.693  30.642  1.00  0.00     0.049 A 
ATOM     37  N   UNL A   1      41.282  29.280  33.054  1.00  0.00    -0.248 NA
ATOM     38  C   UNL A   1      42.270  27.463  31.976  1.00  0.00     0.031 C 
ATOM     39  C   UNL A   1      38.630  29.941  29.523  1.00  0.00     0.029 A 
ATOM     40  N   UNL A   1      39.285  30.735  31.506  1.00  0.00    -0.354 N 
ATOM     41  C   UNL A   1      42.239  28.711  33.887  1.00  0.00     0.074 A 
ATOM     42  C   UNL A   1      42.768  27.555  33.200  1.00  0.00     0.031 C 
ATOM     43  C   UNL A   1      37.915  31.053  29.772  1.00  0.00     0.029 A 
ATOM     44  C   UNL A   1      38.288  31.587  31.081  1.00  0.00     0.049 A 
ATOM     45  H   UNL A   1      39.772  30.861  32.352  1.00  0.00     0.167 HD
ATOM     46  C   UNL A   1      42.661  29.123  35.104  1.00  0.00     0.037 A 
ATOM     47  C   UNL A   1      37.728  32.661  31.682  1.00  0.00     0.037 A 
ATOM     48  C   UNL A   1      42.206  30.318  35.760  1.00  0.00     0.049 A 
ATOM     49  C   UNL A   1      38.218  33.097  33.046  1.00  0.00     0.074 A 
ATOM     50  C   UNL A   1      42.651  30.855  36.957  1.00  0.00     0.029 A 
ATOM     51  N   UNL A   1      41.222  31.164  35.280  1.00  0.00    -0.354 N 
ATOM     52  N   UNL A   1      39.167  32.578  33.788  1.00  0.00    -0.248 NA
ATOM     53  C   UNL A   1      37.564  34.269  33.653  1.00  0.00     0.031 C 
ATOM     54  C   UNL A   1      41.894  31.997  37.229  1.00  0.00     0.029 A 
ATOM     55  C   UNL A   1      41.024  32.205  36.171  1.00  0.00     0.049 A 
ATOM     56  H   UNL A   1      40.735  31.043  34.433  1.00  0.00     0.167 HD
ATOM     57  C   UNL A   1      39.251  33.386  34.921  1.00  0.00     0.074 A 
ATOM     58  C   UNL A   1      38.264  34.431  34.767  1.00  0.00     0.031 C 
ATOM     59  C   UNL A   1      40.074  33.271  35.991  1.00  0.00     0.037 A 
BRANCH  46  60
ATOM     60  C   UNL A   1      43.676  28.281  35.823  1.00  0.00     0.058 A 
ATOM     61  C   UNL A   1      45.055  28.492  35.674  1.00  0.00     0.135 A 
ATOM     62  C   UNL A   1      43.253  27.305  36.739  1.00  0.00     0.135 A 
ATOM     63  F   UNL A   1      45.511  29.397  34.793  1.00  0.00    -0.206 F 
ATOM     64  C   UNL A   1      45.982  27.758  36.404  1.00  0.00     0.059 A 
ATOM     65  C   UNL A   1      44.161  26.580  37.503  1.00  0.00     0.059 A 
ATOM     66  F   UNL A   1      41.945  27.062  36.913  1.00  0.00    -0.206 F 
ATOM     67  C   UNL A   1      45.524  26.812  37.324  1.00  0.00     0.060 A 
BRANCH  67  68
ATOM     68  S   UNL A   1      46.741  25.909  38.304  1.00  0.00     0.124 S 
ATOM     69  O   UNL A   1      47.799  25.691  37.323  1.00  0.00    -0.237 OA
ATOM     70  O   UNL A   1      47.048  26.858  39.368  1.00  0.00    -0.237 OA
ATOM     71  O   UNL A   1      46.020  24.711  38.723  1.00  0.00    -0.744 OA
ENDBRANCH  67  68
ENDBRANCH  46  60
BRANCH  47  72
ATOM     72  C   UNL A   1      36.614  33.411  31.030  1.00  0.00     0.058 A 
ATOM     73  C   UNL A   1      35.284  33.259  31.457  1.00  0.00     0.135 A 
ATOM     74  C   UNL A   1      36.844  34.228  29.911  1.00  0.00     0.135 A 
ATOM     75  F   UNL A   1      35.005  32.479  32.512  1.00  0.00    -0.206 F 
ATOM     76  C   UNL A   1      34.222  33.845  30.772  1.00  0.00     0.059 A 
ATOM     77  C   UNL A   1      35.802  34.851  29.230  1.00  0.00     0.059 A 
ATOM     78  F   UNL A   1      38.095  34.419  29.464  1.00  0.00    -0.206 F 
ATOM     79  C   UNL A   1      34.491  34.635  29.654  1.00  0.00     0.060 A 
BRANCH  79  80
ATOM     80  S   UNL A   1      33.108  35.383  28.765  1.00  0.00     0.124 S 
ATOM     81  O   UNL A   1      33.788  36.385  27.955  1.00  0.00    -0.237 OA
ATOM     82  O   UNL A   1      32.557  34.242  28.041  1.00  0.00    -0.237 OA
ATOM     83  O   UNL A   1      32.263  35.903  29.837  1.00  0.00    -0.744 OA
ENDBRANCH  79  80
ENDBRANCH  47  72
BRANCH  59  84
ATOM     84  C   UNL A   1      40.014  34.329  37.061  1.00  0.00     0.058 A 
ATOM     85  C   UNL A   1      40.727  35.532  36.960  1.00  0.00     0.135 A 
ATOM     86  C   UNL A   1      39.143  34.175  38.154  1.00  0.00     0.135 A 
ATOM     87  F   UNL A   1      41.575  35.731  35.939  1.00  0.00    -0.206 F 
ATOM     88  C   UNL A   1      40.586  36.543  37.907  1.00  0.00     0.059 A 
ATOM     89  C   UNL A   1      38.964  35.182  39.097  1.00  0.00     0.059 A 
ATOM     90  F   UNL A   1      38.427  33.048  38.293  1.00  0.00    -0.206 F 
ATOM     91  C   UNL A   1      39.695  36.362  38.967  1.00  0.00     0.060 A 
BRANCH  91  92
ATOM     92  S   UNL A   1      39.470  37.708  40.150  1.00  0.00     0.124 S 
ATOM     93  O   UNL A   1      40.728  38.436  40.011  1.00  0.00    -0.237 OA
ATOM     94  O   UNL A   1      38.286  38.384  39.631  1.00  0.00    -0.237 OA
ATOM     95  O   UNL A   1      39.284  37.017  41.422  1.00  0.00    -0.744 OA
ENDBRANCH  91  92
ENDBRANCH  59  84
ENDBRANCH  33  34
ENDBRANCH  26  28
ENDBRANCH  25  26
ENDBRANCH  24  25
ENDBRANCH  23  24
ENDBRANCH   1  23
TORSDOF 20
ENDMDL
MODEL 2
REMARK VINA RESULT:     -10.5      3.516      9.756
REMARK SMILES C[C@@H]1CN(S(=O)(=O)[C@@H](C)C(=O)OCCOCCOC(=O)c2ccc(-c3c4nc(c(-c5c(F)cc(S(=O)(=O)[O-])cc5F)c5ccc([nH]5)c(-c5c(F)cc(S(=O)(=O)[O-])cc5F)c5nc(c(-c6c(F)cc(S(=O)(=O)[O-])cc6F)c6ccc3[nH]6)C=C5)C=C4)cc2)CC[C@@H]1[NH3+]
REMARK SMILES IDX 15 1 14 2 13 3 12 4 10 5 11 6 8 7 9 8 5 9 6 10 7 11 4 12
REMARK SMILES IDX 1 13 2 14 3 15 89 16 88 17 87 18 90 19 16 23 17 24 18 25
REMARK SMILES IDX 19 26 20 27 21 28 22 29 86 30 23 31 85 32 24 33 25 34 26 35
REMARK SMILES IDX 79 36 27 37 84 38 78 39 80 40 28 41 83 42 77 43 76 44 29 46
REMARK SMILES IDX 63 47 42 48 62 49 43 50 46 51 61 52 81 53 44 54 45 55 60 57
REMARK SMILES IDX 82 58 47 59 30 60 31 61 40 62 32 63 33 64 39 65 41 66 34 67
REMARK SMILES IDX 35 68 36 69 37 70 38 71 64 72 65 73 74 74 66 75 67 76 73 77
REMARK SMILES IDX 75 78 68 79 69 80 70 81 71 82 72 83 48 84 49 85 58 86 50 87
REMARK SMILES IDX 51 88 57 89 59 90 52 91 53 92 54 93 55 94 56 95
REMARK H PARENT 90 20 90 21 90 22 80 45 46 56
REMARK Flexibility Score: inf
ROOT
ATOM      1  O   UNL A   1      31.056  29.618  24.308  1.00  0.00    -0.374 OA
ENDROOT
BRANCH   1   2
ATOM      2  C   UNL A   1      30.356  28.646  23.530  1.00  0.00     0.202 C 
BRANCH   2   3
ATOM      3  C   UNL A   1      31.191  27.981  22.423  1.00  0.00     0.261 C 
BRANCH   3   4
ATOM      4  O   UNL A   1      31.551  26.612  22.735  1.00  0.00    -0.462 OA
BRANCH   4   5
ATOM      5  C   UNL A   1      32.865  26.282  22.736  1.00  0.00     0.325 C 
ATOM      6  O   UNL A   1      33.677  26.725  21.928  1.00  0.00    -0.251 OA
BRANCH   5   7
ATOM      7  C   UNL A   1      33.227  25.249  23.758  1.00  0.00     0.230 C 
ATOM      8  C   UNL A   1      34.002  25.803  24.936  1.00  0.00     0.039 C 
BRANCH   7   9
ATOM      9  S   UNL A   1      33.862  23.711  23.105  1.00  0.00     0.227 S 
ATOM     10  O   UNL A   1      35.298  23.785  22.940  1.00  0.00    -0.211 OA
ATOM     11  O   UNL A   1      33.048  23.429  21.935  1.00  0.00    -0.211 OA
BRANCH   9  12
ATOM     12  N   UNL A   1      33.543  22.452  24.217  1.00  0.00    -0.200 NA
ATOM     13  C   UNL A   1      33.698  21.788  27.149  1.00  0.00     0.015 C 
ATOM     14  C   UNL A   1      34.313  20.942  26.026  1.00  0.00     0.059 C 
ATOM     15  C   UNL A   1      34.731  21.791  24.823  1.00  0.00     0.111 C 
ATOM     16  C   UNL A   1      33.413  19.809  25.506  1.00  0.00     0.186 C 
ATOM     17  C   UNL A   1      32.223  20.375  24.722  1.00  0.00     0.082 C 
ATOM     18  C   UNL A   1      32.655  21.375  23.643  1.00  0.00     0.108 C 
BRANCH  16  19
ATOM     19  N   UNL A   1      32.951  18.938  26.582  1.00  0.00    -0.355 N 
ATOM     20  H   UNL A   1      32.212  19.409  27.105  1.00  0.00     0.344 HD
ATOM     21  H   UNL A   1      33.728  18.727  27.206  1.00  0.00     0.344 HD
ATOM     22  H   UNL A   1      32.587  18.071  26.185  1.00  0.00     0.344 HD
ENDBRANCH  16  19
ENDBRANCH   9  12
ENDBRANCH   7   9
ENDBRANCH   5   7
ENDBRANCH   4   5
ENDBRANCH   3   4
ENDBRANCH   2   3
ENDBRANCH   1   2
BRANCH   1  23
ATOM     23  C   UNL A   1      31.761  29.097  25.436  1.00  0.00     0.202 C 
BRANCH  23  24
ATOM     24  C   UNL A   1      32.258  30.150  26.431  1.00  0.00     0.261 C 
BRANCH  24  25
ATOM     25  O   UNL A   1      33.690  30.093  26.581  1.00  0.00    -0.460 OA
BRANCH  25  26
ATOM     26  C   UNL A   1      34.220  30.956  27.480  1.00  0.00     0.338 C 
ATOM     27  O   UNL A   1      33.700  31.959  27.939  1.00  0.00    -0.246 OA
BRANCH  26  28
ATOM     28  C   UNL A   1      35.490  30.392  27.988  1.00  0.00     0.060 A 
ATOM     29  C   UNL A   1      35.488  29.789  29.251  1.00  0.00     0.016 A 
ATOM     30  C   UNL A   1      36.668  30.449  27.242  1.00  0.00     0.016 A 
ATOM     31  C   UNL A   1      36.668  29.257  29.782  1.00  0.00     0.010 A 
ATOM     32  C   UNL A   1      37.844  29.903  27.773  1.00  0.00     0.010 A 
ATOM     33  C   UNL A   1      37.865  29.320  29.058  1.00  0.00    -0.014 A 
BRANCH  33  34
ATOM     34  C   UNL A   1      39.167  28.927  29.680  1.00  0.00     0.031 A 
ATOM     35  C   UNL A   1      39.646  29.699  30.887  1.00  0.00     0.074 A 
ATOM     36  C   UNL A   1      39.928  27.922  29.198  1.00  0.00     0.049 A 
ATOM     37  N   UNL A   1      40.789  29.627  31.517  1.00  0.00    -0.248 NA
ATOM     38  C   UNL A   1      38.722  30.705  31.437  1.00  0.00     0.031 C 
ATOM     39  C   UNL A   1      39.601  27.077  28.050  1.00  0.00     0.029 A 
ATOM     40  N   UNL A   1      41.156  27.451  29.611  1.00  0.00    -0.354 N 
ATOM     41  C   UNL A   1      40.738  30.606  32.503  1.00  0.00     0.074 A 
ATOM     42  C   UNL A   1      39.470  31.284  32.364  1.00  0.00     0.031 C 
ATOM     43  C   UNL A   1      40.602  26.200  27.846  1.00  0.00     0.029 A 
ATOM     44  C   UNL A   1      41.660  26.435  28.828  1.00  0.00     0.049 A 
ATOM     45  H   UNL A   1      41.630  27.808  30.396  1.00  0.00     0.167 HD
ATOM     46  C   UNL A   1      41.651  30.902  33.456  1.00  0.00     0.037 A 
ATOM     47  C   UNL A   1      42.842  25.782  28.882  1.00  0.00     0.037 A 
ATOM     48  C   UNL A   1      42.877  30.180  33.660  1.00  0.00     0.049 A 
ATOM     49  C   UNL A   1      43.846  26.137  29.957  1.00  0.00     0.074 A 
ATOM     50  C   UNL A   1      43.815  30.360  34.662  1.00  0.00     0.029 A 
ATOM     51  N   UNL A   1      43.330  29.142  32.865  1.00  0.00    -0.354 N 
ATOM     52  N   UNL A   1      43.750  27.025  30.917  1.00  0.00    -0.248 NA
ATOM     53  C   UNL A   1      45.120  25.396  29.961  1.00  0.00     0.031 C 
ATOM     54  C   UNL A   1      44.866  29.467  34.440  1.00  0.00     0.029 A 
ATOM     55  C   UNL A   1      44.550  28.690  33.338  1.00  0.00     0.049 A 
ATOM     56  H   UNL A   1      42.857  28.780  32.082  1.00  0.00     0.167 HD
ATOM     57  C   UNL A   1      44.925  26.916  31.659  1.00  0.00     0.074 A 
ATOM     58  C   UNL A   1      45.715  25.873  31.045  1.00  0.00     0.031 C 
ATOM     59  C   UNL A   1      45.312  27.618  32.752  1.00  0.00     0.037 A 
BRANCH  46  60
ATOM     60  C   UNL A   1      41.369  32.061  34.369  1.00  0.00     0.058 A 
ATOM     61  C   UNL A   1      41.637  33.385  33.990  1.00  0.00     0.135 A 
ATOM     62  C   UNL A   1      40.741  31.843  35.605  1.00  0.00     0.135 A 
ATOM     63  F   UNL A   1      42.257  33.646  32.828  1.00  0.00    -0.206 F 
ATOM     64  C   UNL A   1      41.300  34.455  34.812  1.00  0.00     0.059 A 
ATOM     65  C   UNL A   1      40.366  32.899  36.429  1.00  0.00     0.059 A 
ATOM     66  F   UNL A   1      40.469  30.594  36.014  1.00  0.00    -0.206 F 
ATOM     67  C   UNL A   1      40.654  34.201  36.024  1.00  0.00     0.060 A 
BRANCH  67  68
ATOM     68  S   UNL A   1      40.174  35.605  37.050  1.00  0.00     0.124 S 
ATOM     69  O   UNL A   1      41.401  35.850  37.800  1.00  0.00    -0.237 OA
ATOM     70  O   UNL A   1      39.827  36.612  36.054  1.00  0.00    -0.237 OA
ATOM     71  O   UNL A   1      39.054  35.089  37.831  1.00  0.00    -0.744 OA
ENDBRANCH  67  68
ENDBRANCH  46  60
BRANCH  47  72
ATOM     72  C   UNL A   1      43.184  24.728  27.880  1.00  0.00     0.058 A 
ATOM     73  C   UNL A   1      42.911  23.372  28.127  1.00  0.00     0.135 A 
ATOM     74  C   UNL A   1      43.870  25.045  26.696  1.00  0.00     0.135 A 
ATOM     75  F   UNL A   1      42.270  23.012  29.249  1.00  0.00    -0.206 F 
ATOM     76  C   UNL A   1      43.346  22.368  27.265  1.00  0.00     0.059 A 
ATOM     77  C   UNL A   1      44.286  24.061  25.803  1.00  0.00     0.059 A 
ATOM     78  F   UNL A   1      44.149  26.324  26.403  1.00  0.00    -0.206 F 
ATOM     79  C   UNL A   1      44.040  22.723  26.109  1.00  0.00     0.060 A 
BRANCH  79  80
ATOM     80  S   UNL A   1      44.611  21.413  25.002  1.00  0.00     0.124 S 
ATOM     81  O   UNL A   1      45.957  21.170  25.507  1.00  0.00    -0.237 OA
ATOM     82  O   UNL A   1      43.635  20.357  25.249  1.00  0.00    -0.237 OA
ATOM     83  O   UNL A   1      44.534  22.033  23.682  1.00  0.00    -0.744 OA
ENDBRANCH  79  80
ENDBRANCH  47  72
BRANCH  59  84
ATOM     84  C   UNL A   1      46.611  27.251  33.418  1.00  0.00     0.058 A 
ATOM     85  C   UNL A   1      47.818  27.891  33.100  1.00  0.00     0.135 A 
ATOM     86  C   UNL A   1      46.624  26.316  34.468  1.00  0.00     0.135 A 
ATOM     87  F   UNL A   1      47.864  28.790  32.104  1.00  0.00    -0.206 F 
ATOM     88  C   UNL A   1      48.994  27.612  33.792  1.00  0.00     0.059 A 
ATOM     89  C   UNL A   1      47.780  26.042  35.193  1.00  0.00     0.059 A 
ATOM     90  F   UNL A   1      45.494  25.683  34.822  1.00  0.00    -0.206 F 
ATOM     91  C   UNL A   1      48.962  26.693  34.843  1.00  0.00     0.060 A 
BRANCH  91  92
ATOM     92  S   UNL A   1      50.479  26.392  35.777  1.00  0.00     0.124 S 
ATOM     93  O   UNL A   1      51.371  27.408  35.227  1.00  0.00    -0.237 OA
ATOM     94  O   UNL A   1      50.044  26.607  37.153  1.00  0.00    -0.237 OA
ATOM     95  O   UNL A   1      50.818  25.012  35.441  1.00  0.00    -0.744 OA
ENDBRANCH  91  92
ENDBRANCH  59  84
ENDBRANCH  33  34
ENDBRANCH  26  28
ENDBRANCH  25  26
ENDBRANCH  24  25
ENDBRANCH  23  24
ENDBRANCH   1  23
TORSDOF 20
ENDMDL
MODEL 3
REMARK VINA RESULT:     -10.5      6.598     12.292
REMARK SMILES C[C@@H]1CN(S(=O)(=O)[C@@H](C)C(=O)OCCOCCOC(=O)c2ccc(-c3c4nc(c(-c5c(F)cc(S(=O)(=O)[O-])cc5F)c5ccc([nH]5)c(-c5c(F)cc(S(=O)(=O)[O-])cc5F)c5nc(c(-c6c(F)cc(S(=O)(=O)[O-])cc6F)c6ccc3[nH]6)C=C5)C=C4)cc2)CC[C@@H]1[NH3+]
REMARK SMILES IDX 15 1 14 2 13 3 12 4 10 5 11 6 8 7 9 8 5 9 6 10 7 11 4 12
REMARK SMILES IDX 1 13 2 14 3 15 89 16 88 17 87 18 90 19 16 23 17 24 18 25
REMARK SMILES IDX 19 26 20 27 21 28 22 29 86 30 23 31 85 32 24 33 25 34 26 35
REMARK SMILES IDX 79 36 27 37 84 38 78 39 80 40 28 41 83 42 77 43 76 44 29 46
REMARK SMILES IDX 63 47 42 48 62 49 43 50 46 51 61 52 81 53 44 54 45 55 60 57
REMARK SMILES IDX 82 58 47 59 30 60 31 61 40 62 32 63 33 64 39 65 41 66 34 67
REMARK SMILES IDX 35 68 36 69 37 70 38 71 64 72 65 73 74 74 66 75 67 76 73 77
REMARK SMILES IDX 75 78 68 79 69 80 70 81 71 82 72 83 48 84 49 85 58 86 50 87
REMARK SMILES IDX 51 88 57 89 59 90 52 91 53 92 54 93 55 94 56 95
REMARK H PARENT 90 20 90 21 90 22 80 45 46 56
REMARK Flexibility Score: inf
ROOT
ATOM      1  O   UNL A   1      33.438  30.927  26.830  1.00  0.00    -0.374 OA
ENDROOT
BRANCH   1   2
ATOM      2  C   UNL A   1      32.475  29.883  26.684  1.00  0.00     0.202 C 
BRANCH   2   3
ATOM      3  C   UNL A   1      31.729  29.875  25.340  1.00  0.00     0.261 C 
BRANCH   3   4
ATOM      4  O   UNL A   1      31.371  28.540  24.901  1.00  0.00    -0.462 OA
BRANCH   4   5
ATOM      5  C   UNL A   1      32.249  27.870  24.117  1.00  0.00     0.325 C 
ATOM      6  O   UNL A   1      32.686  28.310  23.058  1.00  0.00    -0.251 OA
BRANCH   5   7
ATOM      7  C   UNL A   1      32.570  26.493  24.612  1.00  0.00     0.230 C 
ATOM      8  C   UNL A   1      33.721  26.453  25.596  1.00  0.00     0.039 C 
BRANCH   7   9
ATOM      9  S   UNL A   1      32.615  25.218  23.360  1.00  0.00     0.227 S 
ATOM     10  O   UNL A   1      33.784  25.373  22.521  1.00  0.00    -0.211 OA
ATOM     11  O   UNL A   1      31.306  25.256  22.731  1.00  0.00    -0.211 OA
BRANCH   9  12
ATOM     12  N   UNL A   1      32.731  23.689  24.118  1.00  0.00    -0.200 NA
ATOM     13  C   UNL A   1      34.737  21.775  25.290  1.00  0.00     0.015 C 
ATOM     14  C   UNL A   1      33.705  21.412  24.213  1.00  0.00     0.059 C 
ATOM     15  C   UNL A   1      33.359  22.604  23.317  1.00  0.00     0.111 C 
ATOM     16  C   UNL A   1      32.386  20.836  24.753  1.00  0.00     0.186 C 
ATOM     17  C   UNL A   1      31.573  21.919  25.472  1.00  0.00     0.082 C 
ATOM     18  C   UNL A   1      31.403  23.184  24.623  1.00  0.00     0.108 C 
BRANCH  16  19
ATOM     19  N   UNL A   1      32.606  19.691  25.631  1.00  0.00    -0.355 N 
ATOM     20  H   UNL A   1      32.299  19.925  26.575  1.00  0.00     0.344 HD
ATOM     21  H   UNL A   1      33.597  19.458  25.643  1.00  0.00     0.344 HD
ATOM     22  H   UNL A   1      32.072  18.892  25.287  1.00  0.00     0.344 HD
ENDBRANCH  16  19
ENDBRANCH   9  12
ENDBRANCH   7   9
ENDBRANCH   5   7
ENDBRANCH   4   5
ENDBRANCH   3   4
ENDBRANCH   2   3
ENDBRANCH   1   2
BRANCH   1  23
ATOM     23  C   UNL A   1      34.316  30.790  27.948  1.00  0.00     0.202 C 
BRANCH  23  24
ATOM     24  C   UNL A   1      34.548  32.074  28.751  1.00  0.00     0.261 C 
BRANCH  24  25
ATOM     25  O   UNL A   1      35.939  32.234  29.091  1.00  0.00    -0.460 OA
BRANCH  25  26
ATOM     26  C   UNL A   1      36.372  31.511  30.150  1.00  0.00     0.338 C 
ATOM     27  O   UNL A   1      35.776  31.296  31.192  1.00  0.00    -0.246 OA
BRANCH  26  28
ATOM     28  C   UNL A   1      37.636  30.839  29.782  1.00  0.00     0.060 A 
ATOM     29  C   UNL A   1      38.591  30.631  30.784  1.00  0.00     0.016 A 
ATOM     30  C   UNL A   1      37.888  30.413  28.477  1.00  0.00     0.016 A 
ATOM     31  C   UNL A   1      39.810  30.014  30.482  1.00  0.00     0.010 A 
ATOM     32  C   UNL A   1      39.105  29.784  28.182  1.00  0.00     0.010 A 
ATOM     33  C   UNL A   1      40.090  29.595  29.174  1.00  0.00    -0.014 A 
BRANCH  33  34
ATOM     34  C   UNL A   1      41.451  29.107  28.795  1.00  0.00     0.031 A 
ATOM     35  C   UNL A   1      42.587  30.101  28.763  1.00  0.00     0.074 A 
ATOM     36  C   UNL A   1      41.696  27.820  28.469  1.00  0.00     0.049 A 
ATOM     37  N   UNL A   1      43.817  29.943  28.348  1.00  0.00    -0.248 NA
ATOM     38  C   UNL A   1      42.287  31.462  29.238  1.00  0.00     0.031 C 
ATOM     39  C   UNL A   1      40.711  26.738  28.461  1.00  0.00     0.029 A 
ATOM     40  N   UNL A   1      42.859  27.204  28.062  1.00  0.00    -0.354 N 
ATOM     41  C   UNL A   1      44.419  31.191  28.468  1.00  0.00     0.074 A 
ATOM     42  C   UNL A   1      43.411  32.103  28.957  1.00  0.00     0.031 C 
ATOM     43  C   UNL A   1      41.307  25.599  28.063  1.00  0.00     0.029 A 
ATOM     44  C   UNL A   1      42.711  25.868  27.757  1.00  0.00     0.049 A 
ATOM     45  H   UNL A   1      43.720  27.676  27.997  1.00  0.00     0.167 HD
ATOM     46  C   UNL A   1      45.700  31.545  28.219  1.00  0.00     0.037 A 
ATOM     47  C   UNL A   1      43.596  24.970  27.269  1.00  0.00     0.037 A 
ATOM     48  C   UNL A   1      46.732  30.631  27.815  1.00  0.00     0.049 A 
ATOM     49  C   UNL A   1      45.022  25.396  26.996  1.00  0.00     0.074 A 
ATOM     50  C   UNL A   1      48.079  30.894  27.628  1.00  0.00     0.029 A 
ATOM     51  N   UNL A   1      46.544  29.286  27.548  1.00  0.00    -0.354 N 
ATOM     52  N   UNL A   1      45.584  26.567  27.175  1.00  0.00    -0.248 NA
ATOM     53  C   UNL A   1      45.939  24.375  26.459  1.00  0.00     0.031 C 
ATOM     54  C   UNL A   1      48.696  29.719  27.193  1.00  0.00     0.029 A 
ATOM     55  C   UNL A   1      47.746  28.712  27.170  1.00  0.00     0.049 A 
ATOM     56  H   UNL A   1      45.685  28.810  27.616  1.00  0.00     0.167 HD
ATOM     57  C   UNL A   1      46.922  26.409  26.816  1.00  0.00     0.074 A 
ATOM     58  C   UNL A   1      47.090  25.031  26.416  1.00  0.00     0.031 C 
ATOM     59  C   UNL A   1      47.920  27.326  26.820  1.00  0.00     0.037 A 
BRANCH  46  60
ATOM     60  C   UNL A   1      46.076  32.991  28.374  1.00  0.00     0.058 A 
ATOM     61  C   UNL A   1      46.599  33.496  29.574  1.00  0.00     0.135 A 
ATOM     62  C   UNL A   1      45.991  33.860  27.275  1.00  0.00     0.135 A 
ATOM     63  F   UNL A   1      46.680  32.713  30.662  1.00  0.00    -0.206 F 
ATOM     64  C   UNL A   1      47.017  34.818  29.682  1.00  0.00     0.059 A 
ATOM     65  C   UNL A   1      46.431  35.176  27.350  1.00  0.00     0.059 A 
ATOM     66  F   UNL A   1      45.493  33.425  26.107  1.00  0.00    -0.206 F 
ATOM     67  C   UNL A   1      46.939  35.646  28.560  1.00  0.00     0.060 A 
BRANCH  67  68
ATOM     68  S   UNL A   1      47.538  37.342  28.703  1.00  0.00     0.124 S 
ATOM     69  O   UNL A   1      46.891  37.775  29.937  1.00  0.00    -0.237 OA
ATOM     70  O   UNL A   1      48.983  37.155  28.775  1.00  0.00    -0.237 OA
ATOM     71  O   UNL A   1      47.051  37.979  27.483  1.00  0.00    -0.744 OA
ENDBRANCH  67  68
ENDBRANCH  46  60
BRANCH  47  72
ATOM     72  C   UNL A   1      43.182  23.566  26.974  1.00  0.00     0.058 A 
ATOM     73  C   UNL A   1      43.089  22.604  27.993  1.00  0.00     0.135 A 
ATOM     74  C   UNL A   1      42.956  23.136  25.656  1.00  0.00     0.135 A 
ATOM     75  F   UNL A   1      43.309  22.957  29.269  1.00  0.00    -0.206 F 
ATOM     76  C   UNL A   1      42.838  21.262  27.715  1.00  0.00     0.059 A 
ATOM     77  C   UNL A   1      42.671  21.806  25.356  1.00  0.00     0.059 A 
ATOM     78  F   UNL A   1      43.021  24.013  24.643  1.00  0.00    -0.206 F 
ATOM     79  C   UNL A   1      42.637  20.872  26.391  1.00  0.00     0.060 A 
BRANCH  79  80
ATOM     80  S   UNL A   1      42.323  19.129  26.037  1.00  0.00     0.124 S 
ATOM     81  O   UNL A   1      43.265  18.875  24.953  1.00  0.00    -0.237 OA
ATOM     82  O   UNL A   1      42.634  18.496  27.314  1.00  0.00    -0.237 OA
ATOM     83  O   UNL A   1      40.912  19.111  25.664  1.00  0.00    -0.744 OA
ENDBRANCH  79  80
ENDBRANCH  47  72
BRANCH  59  84
ATOM     84  C   UNL A   1      49.309  26.877  26.452  1.00  0.00     0.058 A 
ATOM     85  C   UNL A   1      50.186  26.322  27.395  1.00  0.00     0.135 A 
ATOM     86  C   UNL A   1      49.726  26.909  25.110  1.00  0.00     0.135 A 
ATOM     87  F   UNL A   1      49.841  26.269  28.691  1.00  0.00    -0.206 F 
ATOM     88  C   UNL A   1      51.431  25.820  27.023  1.00  0.00     0.059 A 
ATOM     89  C   UNL A   1      50.953  26.387  24.710  1.00  0.00     0.059 A 
ATOM     90  F   UNL A   1      48.921  27.419  24.165  1.00  0.00    -0.206 F 
ATOM     91  C   UNL A   1      51.801  25.849  25.677  1.00  0.00     0.060 A 
BRANCH  91  92
ATOM     92  S   UNL A   1      53.389  25.133  25.199  1.00  0.00     0.124 S 
ATOM     93  O   UNL A   1      54.289  25.729  26.181  1.00  0.00    -0.237 OA
ATOM     94  O   UNL A   1      53.143  23.702  25.349  1.00  0.00    -0.237 OA
ATOM     95  O   UNL A   1      53.570  25.591  23.825  1.00  0.00    -0.744 OA
ENDBRANCH  91  92
ENDBRANCH  59  84
ENDBRANCH  33  34
ENDBRANCH  26  28
ENDBRANCH  25  26
ENDBRANCH  24  25
ENDBRANCH  23  24
ENDBRANCH   1  23
TORSDOF 20
ENDMDL
