MODEL 1
REMARK VINA RESULT:     -10.0      0.000      0.000
REMARK SMILES C[C@@H](CC(=O)NC(=O)N(C)C[C@@H]1CCC[N@H+]1C)CC(=O)OCCOCCOC(=O)c1ccc(-c2c3nc(c(-c4c(F)cc(S(=O)(=O)[O-])cc4F)c4ccc([nH]4)c(-c4c(F)cc(S(=O)(=O)[O-])cc4F)c4nc(c(-c5c(F)cc(S(=O)(=O)[O-])cc5F)c5ccc2[nH]5)C=C4)C=C3)cc1
REMARK SMILES IDX 22 1 21 2 19 3 20 4 18 5 2 6 1 7 3 8 4 9 5 10 6 11 7 12 8 14
REMARK SMILES IDX 9 15 10 16 11 17 12 18 13 19 16 20 14 21 15 22 17 23 23 25
REMARK SMILES IDX 24 26 25 27 26 28 27 29 28 30 29 31 30 32 31 33 95 34 32 35
REMARK SMILES IDX 94 36 33 37 34 38 35 39 88 40 36 41 93 42 87 43 89 44 37 45
REMARK SMILES IDX 92 46 86 47 85 48 38 50 72 51 51 52 71 53 52 54 55 55 70 56
REMARK SMILES IDX 90 57 53 58 54 59 69 61 91 62 56 63 39 64 40 65 49 66 41 67
REMARK SMILES IDX 42 68 48 69 50 70 43 71 44 72 45 73 46 74 47 75 73 76 74 77
REMARK SMILES IDX 83 78 75 79 76 80 82 81 84 82 77 83 78 84 79 85 80 86 81 87
REMARK SMILES IDX 57 88 58 89 67 90 59 91 60 92 66 93 68 94 61 95 62 96 63 97
REMARK SMILES IDX 64 98 65 99
REMARK H PARENT 6 13 16 24 89 49 55 60
REMARK Flexibility Score: inf
ROOT
ATOM      1  C   UNL A   1      37.562  22.711  25.886  1.00  0.00     0.261 C 
ENDROOT
BRANCH   1   2
ATOM      2  O   UNL A   1      36.223  23.001  26.348  1.00  0.00    -0.463 OA
BRANCH   2   3
ATOM      3  C   UNL A   1      35.260  22.052  26.196  1.00  0.00     0.306 C 
ATOM      4  O   UNL A   1      34.619  21.539  27.103  1.00  0.00    -0.252 OA
BRANCH   3   5
ATOM      5  C   UNL A   1      34.993  21.789  24.717  1.00  0.00     0.126 C 
BRANCH   5   6
ATOM      6  C   UNL A   1      33.903  22.731  24.174  1.00  0.00     0.006 C 
ATOM      7  C   UNL A   1      34.310  23.310  22.843  1.00  0.00     0.009 C 
BRANCH   6   8
ATOM      8  C   UNL A   1      32.500  22.127  24.039  1.00  0.00     0.104 C 
BRANCH   8   9
ATOM      9  C   UNL A   1      31.912  21.474  25.271  1.00  0.00     0.228 C 
ATOM     10  O   UNL A   1      31.790  20.243  25.300  1.00  0.00    -0.275 OA
ATOM     11  N   UNL A   1      31.546  22.185  26.403  1.00  0.00    -0.278 N 
ATOM     12  C   UNL A   1      30.728  23.262  26.672  1.00  0.00     0.323 C 
ATOM     13  H   UNL A   1      31.977  21.834  27.217  1.00  0.00     0.174 HD
ATOM     14  O   UNL A   1      29.790  23.065  27.446  1.00  0.00    -0.248 OA
BRANCH  12  15
ATOM     15  N   UNL A   1      30.975  24.495  26.116  1.00  0.00    -0.322 N 
ATOM     16  C   UNL A   1      30.340  24.901  24.872  1.00  0.00     0.149 C 
BRANCH  15  17
ATOM     17  C   UNL A   1      32.275  25.154  26.403  1.00  0.00     0.185 C 
BRANCH  17  18
ATOM     18  C   UNL A   1      32.533  26.545  25.748  1.00  0.00     0.203 C 
ATOM     19  C   UNL A   1      33.772  26.566  24.864  1.00  0.00     0.073 C 
ATOM     20  N   UNL A   1      32.935  27.604  26.705  1.00  0.00    -0.333 N 
ATOM     21  C   UNL A   1      33.990  28.041  24.616  1.00  0.00     0.068 C 
ATOM     22  C   UNL A   1      33.547  28.692  25.915  1.00  0.00     0.262 C 
ATOM     23  C   UNL A   1      31.814  28.117  27.486  1.00  0.00     0.333 C 
ATOM     24  H   UNL A   1      33.590  27.212  27.383  1.00  0.00     0.348 HD
ENDBRANCH  17  18
ENDBRANCH  15  17
ENDBRANCH  12  15
ENDBRANCH   8   9
ENDBRANCH   6   8
ENDBRANCH   5   6
ENDBRANCH   3   5
ENDBRANCH   2   3
ENDBRANCH   1   2
BRANCH   1  25
ATOM     25  C   UNL A   1      38.513  23.907  26.083  1.00  0.00     0.202 C 
BRANCH  25  26
ATOM     26  O   UNL A   1      39.608  23.616  26.960  1.00  0.00    -0.374 OA
BRANCH  26  27
ATOM     27  C   UNL A   1      40.549  22.671  26.463  1.00  0.00     0.202 C 
BRANCH  27  28
ATOM     28  C   UNL A   1      41.956  23.231  26.210  1.00  0.00     0.261 C 
BRANCH  28  29
ATOM     29  O   UNL A   1      41.957  24.633  25.900  1.00  0.00    -0.460 OA
BRANCH  29  30
ATOM     30  C   UNL A   1      43.062  25.300  26.326  1.00  0.00     0.338 C 
ATOM     31  O   UNL A   1      44.167  25.298  25.807  1.00  0.00    -0.246 OA
BRANCH  30  32
ATOM     32  C   UNL A   1      42.722  26.145  27.487  1.00  0.00     0.060 A 
ATOM     33  C   UNL A   1      41.894  25.610  28.477  1.00  0.00     0.016 A 
ATOM     34  C   UNL A   1      43.190  27.454  27.599  1.00  0.00     0.016 A 
ATOM     35  C   UNL A   1      41.537  26.385  29.586  1.00  0.00     0.010 A 
ATOM     36  C   UNL A   1      42.870  28.211  28.734  1.00  0.00     0.010 A 
ATOM     37  C   UNL A   1      42.021  27.695  29.730  1.00  0.00    -0.014 A 
BRANCH  37  38
ATOM     38  C   UNL A   1      41.572  28.539  30.877  1.00  0.00     0.031 A 
ATOM     39  C   UNL A   1      42.315  28.470  32.188  1.00  0.00     0.074 A 
ATOM     40  C   UNL A   1      40.519  29.375  30.763  1.00  0.00     0.049 A 
ATOM     41  N   UNL A   1      42.156  29.192  33.269  1.00  0.00    -0.248 NA
ATOM     42  C   UNL A   1      43.363  27.444  32.306  1.00  0.00     0.031 C 
ATOM     43  C   UNL A   1      39.661  29.516  29.585  1.00  0.00     0.029 A 
ATOM     44  N   UNL A   1      39.988  30.273  31.660  1.00  0.00    -0.354 N 
ATOM     45  C   UNL A   1      43.089  28.715  34.183  1.00  0.00     0.074 A 
ATOM     46  C   UNL A   1      43.743  27.584  33.566  1.00  0.00     0.031 C 
ATOM     47  C   UNL A   1      38.718  30.442  29.831  1.00  0.00     0.029 A 
ATOM     48  C   UNL A   1      38.912  30.979  31.175  1.00  0.00     0.049 A 
ATOM     49  H   UNL A   1      40.347  30.398  32.569  1.00  0.00     0.167 HD
ATOM     50  C   UNL A   1      43.415  29.198  35.406  1.00  0.00     0.037 A 
ATOM     51  C   UNL A   1      38.183  31.966  31.734  1.00  0.00     0.037 A 
ATOM     52  C   UNL A   1      42.788  30.334  36.025  1.00  0.00     0.049 A 
ATOM     53  C   UNL A   1      38.568  32.501  33.090  1.00  0.00     0.074 A 
ATOM     54  C   UNL A   1      43.090  30.933  37.234  1.00  0.00     0.029 A 
ATOM     55  N   UNL A   1      41.729  31.042  35.480  1.00  0.00    -0.354 N 
ATOM     56  N   UNL A   1      39.533  32.113  33.888  1.00  0.00    -0.248 NA
ATOM     57  C   UNL A   1      37.784  33.634  33.604  1.00  0.00     0.031 C 
ATOM     58  C   UNL A   1      42.193  31.990  37.435  1.00  0.00     0.029 A 
ATOM     59  C   UNL A   1      41.358  32.068  36.332  1.00  0.00     0.049 A 
ATOM     60  H   UNL A   1      41.302  30.844  34.615  1.00  0.00     0.167 HD
ATOM     61  C   UNL A   1      39.502  32.984  34.973  1.00  0.00     0.074 A 
ATOM     62  C   UNL A   1      38.425  33.920  34.729  1.00  0.00     0.031 C 
ATOM     63  C   UNL A   1      40.301  33.012  36.070  1.00  0.00     0.037 A 
BRANCH  50  64
ATOM     64  C   UNL A   1      44.533  28.504  36.133  1.00  0.00     0.058 A 
ATOM     65  C   UNL A   1      45.873  28.877  35.930  1.00  0.00     0.135 A 
ATOM     66  C   UNL A   1      44.272  27.450  37.021  1.00  0.00     0.135 A 
ATOM     67  F   UNL A   1      46.177  29.869  35.077  1.00  0.00    -0.206 F 
ATOM     68  C   UNL A   1      46.917  28.195  36.542  1.00  0.00     0.059 A 
ATOM     69  C   UNL A   1      45.302  26.772  37.666  1.00  0.00     0.059 A 
ATOM     70  F   UNL A   1      43.010  27.056  37.252  1.00  0.00    -0.206 F 
ATOM     71  C   UNL A   1      46.622  27.137  37.401  1.00  0.00     0.060 A 
BRANCH  71  72
ATOM     72  S   UNL A   1      47.990  26.238  38.162  1.00  0.00     0.124 S 
ATOM     73  O   UNL A   1      49.003  27.284  38.259  1.00  0.00    -0.237 OA
ATOM     74  O   UNL A   1      47.412  25.798  39.428  1.00  0.00    -0.237 OA
ATOM     75  O   UNL A   1      48.273  25.176  37.202  1.00  0.00    -0.744 OA
ENDBRANCH  71  72
ENDBRANCH  50  64
BRANCH  51  76
ATOM     76  C   UNL A   1      37.050  32.579  30.988  1.00  0.00     0.058 A 
ATOM     77  C   UNL A   1      37.277  33.538  29.990  1.00  0.00     0.135 A 
ATOM     78  C   UNL A   1      35.720  32.247  31.284  1.00  0.00     0.135 A 
ATOM     79  F   UNL A   1      38.532  33.893  29.676  1.00  0.00    -0.206 F 
ATOM     80  C   UNL A   1      36.227  34.173  29.334  1.00  0.00     0.059 A 
ATOM     81  C   UNL A   1      34.652  32.853  30.628  1.00  0.00     0.059 A 
ATOM     82  F   UNL A   1      35.449  31.323  32.220  1.00  0.00    -0.206 F 
ATOM     83  C   UNL A   1      34.916  33.827  29.664  1.00  0.00     0.060 A 
BRANCH  83  84
ATOM     84  S   UNL A   1      33.560  34.647  28.797  1.00  0.00     0.124 S 
ATOM     85  O   UNL A   1      33.171  33.628  27.830  1.00  0.00    -0.237 OA
ATOM     86  O   UNL A   1      32.612  34.897  29.878  1.00  0.00    -0.237 OA
ATOM     87  O   UNL A   1      34.193  35.840  28.241  1.00  0.00    -0.744 OA
ENDBRANCH  83  84
ENDBRANCH  51  76
BRANCH  63  88
ATOM     88  C   UNL A   1      40.083  34.120  37.063  1.00  0.00     0.058 A 
ATOM     89  C   UNL A   1      40.608  35.406  36.869  1.00  0.00     0.135 A 
ATOM     90  C   UNL A   1      39.300  33.897  38.209  1.00  0.00     0.135 A 
ATOM     91  F   UNL A   1      41.365  35.672  35.793  1.00  0.00    -0.206 F 
ATOM     92  C   UNL A   1      40.392  36.427  37.791  1.00  0.00     0.059 A 
ATOM     93  C   UNL A   1      39.050  34.910  39.129  1.00  0.00     0.059 A 
ATOM     94  F   UNL A   1      38.762  32.689  38.436  1.00  0.00    -0.206 F 
ATOM     95  C   UNL A   1      39.613  36.167  38.920  1.00  0.00     0.060 A 
BRANCH  95  96
ATOM     96  S   UNL A   1      39.320  37.502  40.101  1.00  0.00     0.124 S 
ATOM     97  O   UNL A   1      40.658  38.068  40.242  1.00  0.00    -0.237 OA
ATOM     98  O   UNL A   1      38.350  38.336  39.400  1.00  0.00    -0.237 OA
ATOM     99  O   UNL A   1      38.806  36.806  41.277  1.00  0.00    -0.744 OA
ENDBRANCH  95  96
ENDBRANCH  63  88
ENDBRANCH  37  38
ENDBRANCH  30  32
ENDBRANCH  29  30
ENDBRANCH  28  29
ENDBRANCH  27  28
ENDBRANCH  26  27
ENDBRANCH  25  26
ENDBRANCH   1  25
TORSDOF 23
ENDMDL
MODEL 2
REMARK VINA RESULT:      -9.8      5.749      8.068
REMARK SMILES C[C@@H](CC(=O)NC(=O)N(C)C[C@@H]1CCC[N@H+]1C)CC(=O)OCCOCCOC(=O)c1ccc(-c2c3nc(c(-c4c(F)cc(S(=O)(=O)[O-])cc4F)c4ccc([nH]4)c(-c4c(F)cc(S(=O)(=O)[O-])cc4F)c4nc(c(-c5c(F)cc(S(=O)(=O)[O-])cc5F)c5ccc2[nH]5)C=C4)C=C3)cc1
REMARK SMILES IDX 22 1 21 2 19 3 20 4 18 5 2 6 1 7 3 8 4 9 5 10 6 11 7 12 8 14
REMARK SMILES IDX 9 15 10 16 11 17 12 18 13 19 16 20 14 21 15 22 17 23 23 25
REMARK SMILES IDX 24 26 25 27 26 28 27 29 28 30 29 31 30 32 31 33 95 34 32 35
REMARK SMILES IDX 94 36 33 37 34 38 35 39 88 40 36 41 93 42 87 43 89 44 37 45
REMARK SMILES IDX 92 46 86 47 85 48 38 50 72 51 51 52 71 53 52 54 55 55 70 56
REMARK SMILES IDX 90 57 53 58 54 59 69 61 91 62 56 63 39 64 40 65 49 66 41 67
REMARK SMILES IDX 42 68 48 69 50 70 43 71 44 72 45 73 46 74 47 75 73 76 74 77
REMARK SMILES IDX 83 78 75 79 76 80 82 81 84 82 77 83 78 84 79 85 80 86 81 87
REMARK SMILES IDX 57 88 58 89 67 90 59 91 60 92 66 93 68 94 61 95 62 96 63 97
REMARK SMILES IDX 64 98 65 99
REMARK H PARENT 6 13 16 24 89 49 55 60
REMARK Flexibility Score: inf
ROOT
ATOM      1  C   UNL A   1      37.589  23.397  25.355  1.00  0.00     0.261 C 
ENDROOT
BRANCH   1   2
ATOM      2  O   UNL A   1      36.319  23.694  25.978  1.00  0.00    -0.463 OA
BRANCH   2   3
ATOM      3  C   UNL A   1      35.307  22.792  25.860  1.00  0.00     0.306 C 
ATOM      4  O   UNL A   1      34.633  22.356  26.784  1.00  0.00    -0.252 OA
BRANCH   3   5
ATOM      5  C   UNL A   1      35.036  22.477  24.393  1.00  0.00     0.126 C 
BRANCH   5   6
ATOM      6  C   UNL A   1      33.737  23.149  23.912  1.00  0.00     0.006 C 
ATOM      7  C   UNL A   1      33.932  23.786  22.560  1.00  0.00     0.009 C 
BRANCH   6   8
ATOM      8  C   UNL A   1      32.496  22.249  23.856  1.00  0.00     0.104 C 
BRANCH   8   9
ATOM      9  C   UNL A   1      31.827  21.920  25.174  1.00  0.00     0.228 C 
ATOM     10  O   UNL A   1      31.602  20.736  25.455  1.00  0.00    -0.275 OA
ATOM     11  N   UNL A   1      31.495  22.881  26.116  1.00  0.00    -0.278 N 
ATOM     12  C   UNL A   1      30.763  24.050  26.118  1.00  0.00     0.323 C 
ATOM     13  H   UNL A   1      31.876  22.679  27.001  1.00  0.00     0.174 HD
ATOM     14  O   UNL A   1      29.794  24.094  26.878  1.00  0.00    -0.248 OA
BRANCH  12  15
ATOM     15  N   UNL A   1      31.125  25.114  25.327  1.00  0.00    -0.322 N 
ATOM     16  C   UNL A   1      30.509  25.329  24.026  1.00  0.00     0.149 C 
BRANCH  15  17
ATOM     17  C   UNL A   1      32.493  25.675  25.475  1.00  0.00     0.185 C 
BRANCH  17  18
ATOM     18  C   UNL A   1      32.612  27.153  25.958  1.00  0.00     0.203 C 
ATOM     19  C   UNL A   1      31.752  27.451  27.178  1.00  0.00     0.073 C 
ATOM     20  N   UNL A   1      32.020  28.146  25.030  1.00  0.00    -0.333 N 
ATOM     21  C   UNL A   1      31.778  28.960  27.254  1.00  0.00     0.068 C 
ATOM     22  C   UNL A   1      31.822  29.392  25.799  1.00  0.00     0.262 C 
ATOM     23  C   UNL A   1      32.859  28.401  23.863  1.00  0.00     0.333 C 
ATOM     24  H   UNL A   1      31.139  27.781  24.666  1.00  0.00     0.348 HD
ENDBRANCH  17  18
ENDBRANCH  15  17
ENDBRANCH  12  15
ENDBRANCH   8   9
ENDBRANCH   6   8
ENDBRANCH   5   6
ENDBRANCH   3   5
ENDBRANCH   2   3
ENDBRANCH   1   2
BRANCH   1  25
ATOM     25  C   UNL A   1      38.731  23.309  26.384  1.00  0.00     0.202 C 
BRANCH  25  26
ATOM     26  O   UNL A   1      39.199  21.971  26.594  1.00  0.00    -0.374 OA
BRANCH  26  27
ATOM     27  C   UNL A   1      38.723  21.009  25.660  1.00  0.00     0.202 C 
BRANCH  27  28
ATOM     28  C   UNL A   1      39.553  19.719  25.580  1.00  0.00     0.261 C 
BRANCH  28  29
ATOM     29  O   UNL A   1      40.580  19.647  26.581  1.00  0.00    -0.460 OA
BRANCH  29  30
ATOM     30  C   UNL A   1      41.844  19.763  26.096  1.00  0.00     0.338 C 
ATOM     31  O   UNL A   1      42.458  18.938  25.439  1.00  0.00    -0.246 OA
BRANCH  30  32
ATOM     32  C   UNL A   1      42.373  21.110  26.389  1.00  0.00     0.060 A 
ATOM     33  C   UNL A   1      42.666  21.435  27.715  1.00  0.00     0.016 A 
ATOM     34  C   UNL A   1      42.561  22.055  25.380  1.00  0.00     0.016 A 
ATOM     35  C   UNL A   1      43.155  22.706  28.034  1.00  0.00     0.010 A 
ATOM     36  C   UNL A   1      43.095  23.311  25.696  1.00  0.00     0.010 A 
ATOM     37  C   UNL A   1      43.377  23.661  27.029  1.00  0.00    -0.014 A 
BRANCH  37  38
ATOM     38  C   UNL A   1      43.824  25.039  27.389  1.00  0.00     0.031 A 
ATOM     39  C   UNL A   1      45.270  25.426  27.196  1.00  0.00     0.074 A 
ATOM     40  C   UNL A   1      42.959  25.954  27.872  1.00  0.00     0.049 A 
ATOM     41  N   UNL A   1      45.841  26.595  27.346  1.00  0.00    -0.248 NA
ATOM     42  C   UNL A   1      46.199  24.355  26.803  1.00  0.00     0.031 C 
ATOM     43  C   UNL A   1      41.544  25.721  28.171  1.00  0.00     0.029 A 
ATOM     44  N   UNL A   1      43.146  27.277  28.201  1.00  0.00    -0.354 N 
ATOM     45  C   UNL A   1      47.185  26.400  27.052  1.00  0.00     0.074 A 
ATOM     46  C   UNL A   1      47.362  24.987  26.808  1.00  0.00     0.031 C 
ATOM     47  C   UNL A   1      40.995  26.858  28.632  1.00  0.00     0.029 A 
ATOM     48  C   UNL A   1      42.009  27.909  28.647  1.00  0.00     0.049 A 
ATOM     49  H   UNL A   1      44.017  27.730  28.122  1.00  0.00     0.167 HD
ATOM     50  C   UNL A   1      48.180  27.313  26.941  1.00  0.00     0.037 A 
ATOM     51  C   UNL A   1      41.796  29.194  28.998  1.00  0.00     0.037 A 
ATOM     52  C   UNL A   1      48.016  28.724  27.159  1.00  0.00     0.049 A 
ATOM     53  C   UNL A   1      42.910  30.199  28.856  1.00  0.00     0.074 A 
ATOM     54  C   UNL A   1      48.950  29.734  27.013  1.00  0.00     0.029 A 
ATOM     55  N   UNL A   1      46.837  29.324  27.572  1.00  0.00    -0.354 N 
ATOM     56  N   UNL A   1      44.147  30.013  28.459  1.00  0.00    -0.248 NA
ATOM     57  C   UNL A   1      42.588  31.598  29.175  1.00  0.00     0.031 C 
ATOM     58  C   UNL A   1      48.342  30.946  27.365  1.00  0.00     0.029 A 
ATOM     59  C   UNL A   1      47.021  30.691  27.694  1.00  0.00     0.049 A 
ATOM     60  H   UNL A   1      45.994  28.850  27.752  1.00  0.00     0.167 HD
ATOM     61  C   UNL A   1      44.732  31.276  28.435  1.00  0.00     0.074 A 
ATOM     62  C   UNL A   1      43.716  32.217  28.855  1.00  0.00     0.031 C 
ATOM     63  C   UNL A   1      45.996  31.625  28.088  1.00  0.00     0.037 A 
BRANCH  50  64
ATOM     64  C   UNL A   1      49.531  26.797  26.528  1.00  0.00     0.058 A 
ATOM     65  C   UNL A   1      49.956  26.862  25.190  1.00  0.00     0.135 A 
ATOM     66  C   UNL A   1      50.399  26.217  27.465  1.00  0.00     0.135 A 
ATOM     67  F   UNL A   1      49.155  27.393  24.252  1.00  0.00    -0.206 F 
ATOM     68  C   UNL A   1      51.171  26.324  24.787  1.00  0.00     0.059 A 
ATOM     69  C   UNL A   1      51.634  25.698  27.087  1.00  0.00     0.059 A 
ATOM     70  F   UNL A   1      50.043  26.133  28.757  1.00  0.00    -0.206 F 
ATOM     71  C   UNL A   1      52.000  25.735  25.742  1.00  0.00     0.060 A 
BRANCH  71  72
ATOM     72  S   UNL A   1      53.560  25.009  25.198  1.00  0.00     0.124 S 
ATOM     73  O   UNL A   1      54.483  25.522  26.206  1.00  0.00    -0.237 OA
ATOM     74  O   UNL A   1      53.282  23.578  25.265  1.00  0.00    -0.237 OA
ATOM     75  O   UNL A   1      53.735  25.549  23.854  1.00  0.00    -0.744 OA
ENDBRANCH  71  72
ENDBRANCH  50  64
BRANCH  51  76
ATOM     76  C   UNL A   1      40.450  29.636  29.453  1.00  0.00     0.058 A 
ATOM     77  C   UNL A   1      39.397  29.799  28.540  1.00  0.00     0.135 A 
ATOM     78  C   UNL A   1      40.201  29.941  30.799  1.00  0.00     0.135 A 
ATOM     79  F   UNL A   1      39.589  29.526  27.241  1.00  0.00    -0.206 F 
ATOM     80  C   UNL A   1      38.154  30.281  28.938  1.00  0.00     0.059 A 
ATOM     81  C   UNL A   1      38.959  30.405  31.225  1.00  0.00     0.059 A 
ATOM     82  F   UNL A   1      41.170  29.787  31.714  1.00  0.00    -0.206 F 
ATOM     83  C   UNL A   1      37.946  30.586  30.283  1.00  0.00     0.060 A 
BRANCH  83  84
ATOM     84  S   UNL A   1      36.323  31.198  30.791  1.00  0.00     0.124 S 
ATOM     85  O   UNL A   1      35.612  31.234  29.519  1.00  0.00    -0.237 OA
ATOM     86  O   UNL A   1      35.892  30.173  31.736  1.00  0.00    -0.237 OA
ATOM     87  O   UNL A   1      36.627  32.498  31.384  1.00  0.00    -0.744 OA
ENDBRANCH  83  84
ENDBRANCH  51  76
BRANCH  63  88
ATOM     88  C   UNL A   1      46.341  33.089  28.089  1.00  0.00     0.058 A 
ATOM     89  C   UNL A   1      46.917  33.716  29.205  1.00  0.00     0.135 A 
ATOM     90  C   UNL A   1      46.126  33.866  26.938  1.00  0.00     0.135 A 
ATOM     91  F   UNL A   1      47.140  33.020  30.331  1.00  0.00    -0.206 F 
ATOM     92  C   UNL A   1      47.240  35.070  29.192  1.00  0.00     0.059 A 
ATOM     93  C   UNL A   1      46.466  35.215  26.895  1.00  0.00     0.059 A 
ATOM     94  F   UNL A   1      45.591  33.313  25.839  1.00  0.00    -0.206 F 
ATOM     95  C   UNL A   1      47.008  35.812  28.032  1.00  0.00     0.060 A 
BRANCH  95  96
ATOM     96  S   UNL A   1      47.449  37.563  28.016  1.00  0.00     0.124 S 
ATOM     97  O   UNL A   1      46.320  38.156  28.726  1.00  0.00    -0.237 OA
ATOM     98  O   UNL A   1      48.723  37.574  28.727  1.00  0.00    -0.237 OA
ATOM     99  O   UNL A   1      47.531  37.878  26.592  1.00  0.00    -0.744 OA
ENDBRANCH  95  96
ENDBRANCH  63  88
ENDBRANCH  37  38
ENDBRANCH  30  32
ENDBRANCH  29  30
ENDBRANCH  28  29
ENDBRANCH  27  28
ENDBRANCH  26  27
ENDBRANCH  25  26
ENDBRANCH   1  25
TORSDOF 23
ENDMDL
MODEL 3
REMARK VINA RESULT:      -9.7      6.300     11.900
REMARK SMILES C[C@@H](CC(=O)NC(=O)N(C)C[C@@H]1CCC[N@H+]1C)CC(=O)OCCOCCOC(=O)c1ccc(-c2c3nc(c(-c4c(F)cc(S(=O)(=O)[O-])cc4F)c4ccc([nH]4)c(-c4c(F)cc(S(=O)(=O)[O-])cc4F)c4nc(c(-c5c(F)cc(S(=O)(=O)[O-])cc5F)c5ccc2[nH]5)C=C4)C=C3)cc1
REMARK SMILES IDX 22 1 21 2 19 3 20 4 18 5 2 6 1 7 3 8 4 9 5 10 6 11 7 12 8 14
REMARK SMILES IDX 9 15 10 16 11 17 12 18 13 19 16 20 14 21 15 22 17 23 23 25
REMARK SMILES IDX 24 26 25 27 26 28 27 29 28 30 29 31 30 32 31 33 95 34 32 35
REMARK SMILES IDX 94 36 33 37 34 38 35 39 88 40 36 41 93 42 87 43 89 44 37 45
REMARK SMILES IDX 92 46 86 47 85 48 38 50 72 51 51 52 71 53 52 54 55 55 70 56
REMARK SMILES IDX 90 57 53 58 54 59 69 61 91 62 56 63 39 64 40 65 49 66 41 67
REMARK SMILES IDX 42 68 48 69 50 70 43 71 44 72 45 73 46 74 47 75 73 76 74 77
REMARK SMILES IDX 83 78 75 79 76 80 82 81 84 82 77 83 78 84 79 85 80 86 81 87
REMARK SMILES IDX 57 88 58 89 67 90 59 91 60 92 66 93 68 94 61 95 62 96 63 97
REMARK SMILES IDX 64 98 65 99
REMARK H PARENT 6 13 16 24 89 49 55 60
REMARK Flexibility Score: inf
ROOT
ATOM      1  C   UNL A   1      33.506  30.562  27.268  1.00  0.00     0.261 C 
ENDROOT
BRANCH   1   2
ATOM      2  O   UNL A   1      33.205  29.816  26.067  1.00  0.00    -0.463 OA
BRANCH   2   3
ATOM      3  C   UNL A   1      32.302  28.800  26.138  1.00  0.00     0.306 C 
ATOM      4  O   UNL A   1      32.156  28.046  27.090  1.00  0.00    -0.252 OA
BRANCH   3   5
ATOM      5  C   UNL A   1      31.402  28.796  24.907  1.00  0.00     0.126 C 
BRANCH   5   6
ATOM      6  C   UNL A   1      31.305  27.386  24.297  1.00  0.00     0.006 C 
ATOM      7  C   UNL A   1      29.909  27.115  23.794  1.00  0.00     0.009 C 
BRANCH   6   8
ATOM      8  C   UNL A   1      32.301  27.069  23.175  1.00  0.00     0.104 C 
BRANCH   8   9
ATOM      9  C   UNL A   1      31.891  26.010  22.172  1.00  0.00     0.228 C 
ATOM     10  O   UNL A   1      31.279  26.352  21.153  1.00  0.00    -0.275 OA
ATOM     11  N   UNL A   1      32.216  24.670  22.310  1.00  0.00    -0.278 N 
ATOM     12  C   UNL A   1      32.048  23.709  23.285  1.00  0.00     0.323 C 
ATOM     13  H   UNL A   1      32.682  24.317  21.517  1.00  0.00     0.174 HD
ATOM     14  O   UNL A   1      31.394  22.713  22.973  1.00  0.00    -0.248 OA
BRANCH  12  15
ATOM     15  N   UNL A   1      32.612  23.857  24.530  1.00  0.00    -0.322 N 
ATOM     16  C   UNL A   1      31.820  24.305  25.666  1.00  0.00     0.149 C 
BRANCH  15  17
ATOM     17  C   UNL A   1      34.065  24.153  24.621  1.00  0.00     0.185 C 
BRANCH  17  18
ATOM     18  C   UNL A   1      35.047  22.943  24.562  1.00  0.00     0.203 C 
ATOM     19  C   UNL A   1      34.342  21.599  24.679  1.00  0.00     0.073 C 
ATOM     20  N   UNL A   1      35.936  22.822  25.743  1.00  0.00    -0.333 N 
ATOM     21  C   UNL A   1      35.481  20.635  24.919  1.00  0.00     0.068 C 
ATOM     22  C   UNL A   1      36.466  21.443  25.745  1.00  0.00     0.262 C 
ATOM     23  C   UNL A   1      37.033  23.784  25.726  1.00  0.00     0.333 C 
ATOM     24  H   UNL A   1      35.400  23.025  26.587  1.00  0.00     0.348 HD
ENDBRANCH  17  18
ENDBRANCH  15  17
ENDBRANCH  12  15
ENDBRANCH   8   9
ENDBRANCH   6   8
ENDBRANCH   5   6
ENDBRANCH   3   5
ENDBRANCH   2   3
ENDBRANCH   1   2
BRANCH   1  25
ATOM     25  C   UNL A   1      35.006  30.518  27.616  1.00  0.00     0.202 C 
BRANCH  25  26
ATOM     26  O   UNL A   1      35.494  31.752  28.157  1.00  0.00    -0.374 OA
BRANCH  26  27
ATOM     27  C   UNL A   1      34.661  32.356  29.140  1.00  0.00     0.202 C 
BRANCH  27  28
ATOM     28  C   UNL A   1      35.060  32.064  30.594  1.00  0.00     0.261 C 
BRANCH  28  29
ATOM     29  O   UNL A   1      36.481  31.987  30.783  1.00  0.00    -0.460 OA
BRANCH  29  30
ATOM     30  C   UNL A   1      36.911  30.820  31.331  1.00  0.00     0.338 C 
ATOM     31  O   UNL A   1      36.310  30.115  32.127  1.00  0.00    -0.246 OA
BRANCH  30  32
ATOM     32  C   UNL A   1      38.210  30.438  30.744  1.00  0.00     0.060 A 
ATOM     33  C   UNL A   1      38.377  30.563  29.363  1.00  0.00     0.016 A 
ATOM     34  C   UNL A   1      39.250  29.943  31.531  1.00  0.00     0.016 A 
ATOM     35  C   UNL A   1      39.588  30.198  28.767  1.00  0.00     0.010 A 
ATOM     36  C   UNL A   1      40.478  29.623  30.938  1.00  0.00     0.010 A 
ATOM     37  C   UNL A   1      40.656  29.724  29.546  1.00  0.00    -0.014 A 
BRANCH  37  38
ATOM     38  C   UNL A   1      41.916  29.263  28.892  1.00  0.00     0.031 A 
ATOM     39  C   UNL A   1      43.053  30.237  28.699  1.00  0.00     0.074 A 
ATOM     40  C   UNL A   1      42.068  27.988  28.478  1.00  0.00     0.049 A 
ATOM     41  N   UNL A   1      44.265  30.017  28.251  1.00  0.00    -0.248 NA
ATOM     42  C   UNL A   1      42.789  31.645  29.035  1.00  0.00     0.031 C 
ATOM     43  C   UNL A   1      41.045  26.942  28.538  1.00  0.00     0.029 A 
ATOM     44  N   UNL A   1      43.152  27.351  27.920  1.00  0.00    -0.354 N 
ATOM     45  C   UNL A   1      44.903  31.252  28.267  1.00  0.00     0.074 A 
ATOM     46  C   UNL A   1      43.921  32.229  28.677  1.00  0.00     0.031 C 
ATOM     47  C   UNL A   1      41.550  25.799  28.042  1.00  0.00     0.029 A 
ATOM     48  C   UNL A   1      42.938  26.020  27.645  1.00  0.00     0.049 A 
ATOM     49  H   UNL A   1      44.004  27.808  27.734  1.00  0.00     0.167 HD
ATOM     50  C   UNL A   1      46.201  31.549  28.016  1.00  0.00     0.037 A 
ATOM     51  C   UNL A   1      43.771  25.077  27.160  1.00  0.00     0.037 A 
ATOM     52  C   UNL A   1      47.195  30.586  27.629  1.00  0.00     0.049 A 
ATOM     53  C   UNL A   1      45.215  25.421  26.898  1.00  0.00     0.074 A 
ATOM     54  C   UNL A   1      48.546  30.781  27.410  1.00  0.00     0.029 A 
ATOM     55  N   UNL A   1      46.941  29.242  27.400  1.00  0.00    -0.354 N 
ATOM     56  N   UNL A   1      45.829  26.573  27.035  1.00  0.00    -0.248 NA
ATOM     57  C   UNL A   1      46.088  24.326  26.450  1.00  0.00     0.031 C 
ATOM     58  C   UNL A   1      49.108  29.558  27.021  1.00  0.00     0.029 A 
ATOM     59  C   UNL A   1      48.111  28.597  27.035  1.00  0.00     0.049 A 
ATOM     60  H   UNL A   1      46.061  28.811  27.485  1.00  0.00     0.167 HD
ATOM     61  C   UNL A   1      47.166  26.327  26.737  1.00  0.00     0.074 A 
ATOM     62  C   UNL A   1      47.273  24.921  26.415  1.00  0.00     0.031 C 
ATOM     63  C   UNL A   1      48.214  27.190  26.740  1.00  0.00     0.037 A 
BRANCH  50  64
ATOM     64  C   UNL A   1      46.615  32.983  28.193  1.00  0.00     0.058 A 
ATOM     65  C   UNL A   1      46.453  33.920  27.158  1.00  0.00     0.135 A 
ATOM     66  C   UNL A   1      47.193  33.424  29.393  1.00  0.00     0.135 A 
ATOM     67  F   UNL A   1      45.920  33.544  25.984  1.00  0.00    -0.206 F 
ATOM     68  C   UNL A   1      46.898  35.230  27.287  1.00  0.00     0.059 A 
ATOM     69  C   UNL A   1      47.619  34.739  29.554  1.00  0.00     0.059 A 
ATOM     70  F   UNL A   1      47.367  32.571  30.415  1.00  0.00    -0.206 F 
ATOM     71  C   UNL A   1      47.489  35.628  28.486  1.00  0.00     0.060 A 
BRANCH  71  72
ATOM     72  S   UNL A   1      48.093  37.322  28.627  1.00  0.00     0.124 S 
ATOM     73  O   UNL A   1      48.308  37.433  30.067  1.00  0.00    -0.237 OA
ATOM     74  O   UNL A   1      49.300  37.296  27.808  1.00  0.00    -0.237 OA
ATOM     75  O   UNL A   1      46.994  38.120  28.094  1.00  0.00    -0.744 OA
ENDBRANCH  71  72
ENDBRANCH  50  64
BRANCH  51  76
ATOM     76  C   UNL A   1      43.290  23.684  26.951  1.00  0.00     0.058 A 
ATOM     77  C   UNL A   1      43.233  22.774  28.017  1.00  0.00     0.135 A 
ATOM     78  C   UNL A   1      42.916  23.226  25.680  1.00  0.00     0.135 A 
ATOM     79  F   UNL A   1      43.587  23.164  29.251  1.00  0.00    -0.206 F 
ATOM     80  C   UNL A   1      42.855  21.448  27.826  1.00  0.00     0.059 A 
ATOM     81  C   UNL A   1      42.514  21.910  25.466  1.00  0.00     0.059 A 
ATOM     82  F   UNL A   1      42.938  24.062  24.630  1.00  0.00    -0.206 F 
ATOM     83  C   UNL A   1      42.502  21.024  26.544  1.00  0.00     0.060 A 
BRANCH  83  84
ATOM     84  S   UNL A   1      41.999  19.305  26.310  1.00  0.00     0.124 S 
ATOM     85  O   UNL A   1      42.979  18.843  25.334  1.00  0.00    -0.237 OA
ATOM     86  O   UNL A   1      42.134  18.760  27.657  1.00  0.00    -0.237 OA
ATOM     87  O   UNL A   1      40.627  19.421  25.823  1.00  0.00    -0.744 OA
ENDBRANCH  83  84
ENDBRANCH  51  76
BRANCH  63  88
ATOM     88  C   UNL A   1      49.578  26.631  26.441  1.00  0.00     0.058 A 
ATOM     89  C   UNL A   1      50.359  26.010  27.427  1.00  0.00     0.135 A 
ATOM     90  C   UNL A   1      50.091  26.684  25.133  1.00  0.00     0.135 A 
ATOM     91  F   UNL A   1      49.917  25.936  28.692  1.00  0.00    -0.206 F 
ATOM     92  C   UNL A   1      51.617  25.489  27.136  1.00  0.00     0.059 A 
ATOM     93  C   UNL A   1      51.334  26.145  24.815  1.00  0.00     0.059 A 
ATOM     94  F   UNL A   1      49.378  27.254  24.149  1.00  0.00    -0.206 F 
ATOM     95  C   UNL A   1      52.096  25.563  25.827  1.00  0.00     0.060 A 
BRANCH  95  96
ATOM     96  S   UNL A   1      53.720  24.865  25.454  1.00  0.00     0.124 S 
ATOM     97  O   UNL A   1      53.371  23.502  25.066  1.00  0.00    -0.237 OA
ATOM     98  O   UNL A   1      54.194  25.729  24.378  1.00  0.00    -0.237 OA
ATOM     99  O   UNL A   1      54.441  24.994  26.717  1.00  0.00    -0.744 OA
ENDBRANCH  95  96
ENDBRANCH  63  88
ENDBRANCH  37  38
ENDBRANCH  30  32
ENDBRANCH  29  30
ENDBRANCH  28  29
ENDBRANCH  27  28
ENDBRANCH  26  27
ENDBRANCH  25  26
ENDBRANCH   1  25
TORSDOF 23
ENDMDL
