MODEL 1
REMARK VINA RESULT:      -6.8      0.000      0.000
REMARK SMILES CC/C=C/C/C=C/C/C=C/C/C=C/CCSCCCC(=O)OCCOCCOC(=O)c1ccc(-c2c3nc(c(-c4c(F)cc(S(=O)(=O)[O-])cc4F)c4ccc([nH]4)c(-c4c(F)cc(S(=O)(=O)[O-])cc4F)c4nc(c(-c5c(F)cc(S(=O)(=O)[O-])cc5F)c5ccc2[nH]5)C=C4)C=C3)cc1
REMARK SMILES IDX 19 1 18 2 17 3 16 4 15 5 14 6 13 7 12 8 11 9 10 10 9 11 8 12
REMARK SMILES IDX 7 13 6 14 5 15 4 16 3 17 2 18 1 19 20 20 21 21 22 22 23 23
REMARK SMILES IDX 24 24 25 25 26 26 27 27 28 28 29 29 30 30 31 31 32 32 96 33
REMARK SMILES IDX 33 34 95 35 34 36 35 37 36 38 89 39 37 40 94 41 88 42 90 43
REMARK SMILES IDX 38 44 93 45 87 46 86 47 39 49 73 50 52 51 72 52 53 53 56 54
REMARK SMILES IDX 71 55 91 56 54 57 55 58 70 60 92 61 57 62 40 63 41 64 50 65
REMARK SMILES IDX 42 66 43 67 49 68 51 69 44 70 45 71 46 72 47 73 48 74 74 75
REMARK SMILES IDX 75 76 84 77 76 78 77 79 83 80 85 81 78 82 79 83 80 84 81 85
REMARK SMILES IDX 82 86 58 87 59 88 68 89 60 90 61 91 67 92 69 93 62 94 63 95
REMARK SMILES IDX 64 96 65 97 66 98
REMARK H PARENT 90 48 56 59
REMARK Flexibility Score: inf
ROOT
ATOM      1  C   UNL A   1      47.146  43.554  23.712  1.00  0.00     0.123 C 
ENDROOT
BRANCH   1   2
ATOM      2  C   UNL A   1      46.204  44.478  24.469  1.00  0.00     0.023 C 
BRANCH   2   3
ATOM      3  C   UNL A   1      46.639  45.015  25.841  1.00  0.00     0.070 C 
BRANCH   3   4
ATOM      4  S   UNL A   1      48.370  44.847  26.401  1.00  0.00    -0.162 SA
BRANCH   4   5
ATOM      5  C   UNL A   1      48.818  46.424  27.220  1.00  0.00     0.073 C 
BRANCH   5   6
ATOM      6  C   UNL A   1      50.240  46.988  27.031  1.00  0.00     0.038 C 
BRANCH   6   7
ATOM      7  C   UNL A   1      50.577  47.561  25.674  1.00  0.00    -0.030 C 
ATOM      8  C   UNL A   1      49.823  48.438  24.975  1.00  0.00    -0.027 C 
BRANCH   8   9
ATOM      9  C   UNL A   1      50.139  49.062  23.619  1.00  0.00     0.054 C 
BRANCH   9  10
ATOM     10  C   UNL A   1      49.288  48.502  22.498  1.00  0.00    -0.027 C 
ATOM     11  C   UNL A   1      48.859  47.229  22.377  1.00  0.00    -0.027 C 
BRANCH  11  12
ATOM     12  C   UNL A   1      47.949  46.724  21.282  1.00  0.00     0.054 C 
BRANCH  12  13
ATOM     13  C   UNL A   1      48.673  46.742  19.970  1.00  0.00    -0.027 C 
ATOM     14  C   UNL A   1      48.708  45.724  19.098  1.00  0.00    -0.027 C 
BRANCH  14  15
ATOM     15  C   UNL A   1      49.670  45.683  17.946  1.00  0.00     0.054 C 
BRANCH  15  16
ATOM     16  C   UNL A   1      50.566  44.484  18.085  1.00  0.00    -0.027 C 
ATOM     17  C   UNL A   1      50.941  43.954  19.259  1.00  0.00    -0.031 C 
BRANCH  17  18
ATOM     18  C   UNL A   1      51.904  42.811  19.384  1.00  0.00     0.023 C 
ATOM     19  C   UNL A   1      52.805  42.738  18.161  1.00  0.00     0.008 C 
ENDBRANCH  17  18
ENDBRANCH  15  16
ENDBRANCH  14  15
ENDBRANCH  12  13
ENDBRANCH  11  12
ENDBRANCH   9  10
ENDBRANCH   8   9
ENDBRANCH   6   7
ENDBRANCH   5   6
ENDBRANCH   4   5
ENDBRANCH   3   4
ENDBRANCH   2   3
ENDBRANCH   1   2
BRANCH   1  20
ATOM     20  C   UNL A   1      46.571  42.224  23.316  1.00  0.00     0.305 C 
ATOM     21  O   UNL A   1      46.621  41.829  22.160  1.00  0.00    -0.252 OA
BRANCH  20  22
ATOM     22  O   UNL A   1      45.941  41.605  24.337  1.00  0.00    -0.463 OA
BRANCH  22  23
ATOM     23  C   UNL A   1      46.719  40.908  25.315  1.00  0.00     0.261 C 
BRANCH  23  24
ATOM     24  C   UNL A   1      46.710  39.376  25.368  1.00  0.00     0.202 C 
BRANCH  24  25
ATOM     25  O   UNL A   1      47.508  38.634  26.267  1.00  0.00    -0.374 OA
BRANCH  25  26
ATOM     26  C   UNL A   1      48.567  39.276  26.946  1.00  0.00     0.202 C 
BRANCH  26  27
ATOM     27  C   UNL A   1      48.932  38.831  28.375  1.00  0.00     0.261 C 
BRANCH  27  28
ATOM     28  O   UNL A   1      48.174  37.740  28.932  1.00  0.00    -0.460 OA
BRANCH  28  29
ATOM     29  C   UNL A   1      48.864  36.592  29.128  1.00  0.00     0.338 C 
ATOM     30  O   UNL A   1      50.034  36.497  29.478  1.00  0.00    -0.246 OA
BRANCH  29  31
ATOM     31  C   UNL A   1      47.972  35.417  29.010  1.00  0.00     0.060 A 
ATOM     32  C   UNL A   1      48.051  34.414  29.990  1.00  0.00     0.016 A 
ATOM     33  C   UNL A   1      47.142  35.246  27.900  1.00  0.00     0.016 A 
ATOM     34  C   UNL A   1      47.345  33.220  29.839  1.00  0.00     0.010 A 
ATOM     35  C   UNL A   1      46.455  34.036  27.737  1.00  0.00     0.010 A 
ATOM     36  C   UNL A   1      46.589  33.001  28.681  1.00  0.00    -0.014 A 
BRANCH  36  37
ATOM     37  C   UNL A   1      46.140  31.624  28.346  1.00  0.00     0.031 A 
ATOM     38  C   UNL A   1      44.714  31.248  28.658  1.00  0.00     0.074 A 
ATOM     39  C   UNL A   1      46.961  30.735  27.761  1.00  0.00     0.049 A 
ATOM     40  N   UNL A   1      44.113  30.093  28.544  1.00  0.00    -0.248 NA
ATOM     41  C   UNL A   1      43.850  32.325  29.174  1.00  0.00     0.031 C 
ATOM     42  C   UNL A   1      48.338  30.998  27.349  1.00  0.00     0.029 A 
ATOM     43  N   UNL A   1      46.754  29.420  27.422  1.00  0.00    -0.354 N 
ATOM     44  C   UNL A   1      42.812  30.297  28.992  1.00  0.00     0.074 A 
ATOM     45  C   UNL A   1      42.715  31.681  29.397  1.00  0.00     0.031 C 
ATOM     46  C   UNL A   1      48.860  29.875  26.827  1.00  0.00     0.029 A 
ATOM     47  C   UNL A   1      47.869  28.802  26.904  1.00  0.00     0.049 A 
ATOM     48  H   UNL A   1      45.890  28.963  27.538  1.00  0.00     0.167 HD
ATOM     49  C   UNL A   1      41.790  29.410  29.059  1.00  0.00     0.037 A 
ATOM     50  C   UNL A   1      48.071  27.513  26.560  1.00  0.00     0.037 A 
ATOM     51  C   UNL A   1      41.894  28.034  28.647  1.00  0.00     0.049 A 
ATOM     52  C   UNL A   1      46.941  26.524  26.714  1.00  0.00     0.074 A 
ATOM     53  C   UNL A   1      40.915  27.057  28.657  1.00  0.00     0.029 A 
ATOM     54  N   UNL A   1      43.049  27.439  28.159  1.00  0.00    -0.354 N 
ATOM     55  N   UNL A   1      45.715  26.729  27.134  1.00  0.00    -0.248 NA
ATOM     56  C   UNL A   1      47.223  25.129  26.348  1.00  0.00     0.031 C 
ATOM     57  C   UNL A   1      41.493  25.857  28.233  1.00  0.00     0.029 A 
ATOM     58  C   UNL A   1      42.815  26.100  27.894  1.00  0.00     0.049 A 
ATOM     59  H   UNL A   1      43.908  27.900  28.023  1.00  0.00     0.167 HD
ATOM     60  C   UNL A   1      45.070  25.498  27.051  1.00  0.00     0.074 A 
ATOM     61  C   UNL A   1      46.041  24.555  26.533  1.00  0.00     0.031 C 
ATOM     62  C   UNL A   1      43.791  25.177  27.369  1.00  0.00     0.037 A 
BRANCH  49  63
ATOM     63  C   UNL A   1      40.484  29.887  29.636  1.00  0.00     0.058 A 
ATOM     64  C   UNL A   1      39.343  30.084  28.841  1.00  0.00     0.135 A 
ATOM     65  C   UNL A   1      40.364  30.117  31.017  1.00  0.00     0.135 A 
ATOM     66  F   UNL A   1      39.405  29.899  27.513  1.00  0.00    -0.206 F 
ATOM     67  C   UNL A   1      38.139  30.517  29.389  1.00  0.00     0.059 A 
ATOM     68  C   UNL A   1      39.162  30.520  31.591  1.00  0.00     0.059 A 
ATOM     69  F   UNL A   1      41.423  29.950  31.825  1.00  0.00    -0.206 F 
ATOM     70  C   UNL A   1      38.058  30.730  30.767  1.00  0.00     0.060 A 
BRANCH  70  71
ATOM     71  S   UNL A   1      36.486  31.279  31.464  1.00  0.00     0.124 S 
ATOM     72  O   UNL A   1      36.866  32.546  32.080  1.00  0.00    -0.237 OA
ATOM     73  O   UNL A   1      35.638  31.379  30.280  1.00  0.00    -0.237 OA
ATOM     74  O   UNL A   1      36.134  30.211  32.394  1.00  0.00    -0.744 OA
ENDBRANCH  70  71
ENDBRANCH  49  63
BRANCH  50  75
ATOM     75  C   UNL A   1      49.400  27.075  26.049  1.00  0.00     0.058 A 
ATOM     76  C   UNL A   1      50.392  26.603  26.921  1.00  0.00     0.135 A 
ATOM     77  C   UNL A   1      49.705  27.121  24.679  1.00  0.00     0.135 A 
ATOM     78  F   UNL A   1      50.157  26.556  28.241  1.00  0.00    -0.206 F 
ATOM     79  C   UNL A   1      51.641  26.199  26.457  1.00  0.00     0.059 A 
ATOM     80  C   UNL A   1      50.937  26.695  24.188  1.00  0.00     0.059 A 
ATOM     81  F   UNL A   1      48.793  27.561  23.800  1.00  0.00    -0.206 F 
ATOM     82  C   UNL A   1      51.902  26.243  25.087  1.00  0.00     0.060 A 
BRANCH  82  83
ATOM     83  S   UNL A   1      53.504  25.660  24.493  1.00  0.00     0.124 S 
ATOM     84  O   UNL A   1      54.421  26.562  25.182  1.00  0.00    -0.237 OA
ATOM     85  O   UNL A   1      53.512  24.273  24.946  1.00  0.00    -0.237 OA
ATOM     86  O   UNL A   1      53.412  25.838  23.046  1.00  0.00    -0.744 OA
ENDBRANCH  82  83
ENDBRANCH  50  75
BRANCH  62  87
ATOM     87  C   UNL A   1      43.344  23.759  27.125  1.00  0.00     0.058 A 
ATOM     88  C   UNL A   1      43.148  22.851  28.176  1.00  0.00     0.135 A 
ATOM     89  C   UNL A   1      43.050  23.325  25.822  1.00  0.00     0.135 A 
ATOM     90  F   UNL A   1      43.418  23.212  29.441  1.00  0.00    -0.206 F 
ATOM     91  C   UNL A   1      42.699  21.554  27.943  1.00  0.00     0.059 A 
ATOM     92  C   UNL A   1      42.570  22.043  25.567  1.00  0.00     0.059 A 
ATOM     93  F   UNL A   1      43.207  24.156  24.780  1.00  0.00    -0.206 F 
ATOM     94  C   UNL A   1      42.410  21.161  26.634  1.00  0.00     0.060 A 
BRANCH  94  95
ATOM     95  S   UNL A   1      41.796  19.487  26.349  1.00  0.00     0.124 S 
ATOM     96  O   UNL A   1      42.218  18.807  27.570  1.00  0.00    -0.237 OA
ATOM     97  O   UNL A   1      40.359  19.702  26.207  1.00  0.00    -0.237 OA
ATOM     98  O   UNL A   1      42.485  19.074  25.131  1.00  0.00    -0.744 OA
ENDBRANCH  94  95
ENDBRANCH  62  87
ENDBRANCH  36  37
ENDBRANCH  29  31
ENDBRANCH  28  29
ENDBRANCH  27  28
ENDBRANCH  26  27
ENDBRANCH  25  26
ENDBRANCH  24  25
ENDBRANCH  23  24
ENDBRANCH  22  23
ENDBRANCH  20  22
ENDBRANCH   1  20
TORSDOF 30
ENDMDL
MODEL 2
REMARK VINA RESULT:      -6.8      2.330      8.740
REMARK SMILES CC/C=C/C/C=C/C/C=C/C/C=C/CCSCCCC(=O)OCCOCCOC(=O)c1ccc(-c2c3nc(c(-c4c(F)cc(S(=O)(=O)[O-])cc4F)c4ccc([nH]4)c(-c4c(F)cc(S(=O)(=O)[O-])cc4F)c4nc(c(-c5c(F)cc(S(=O)(=O)[O-])cc5F)c5ccc2[nH]5)C=C4)C=C3)cc1
REMARK SMILES IDX 19 1 18 2 17 3 16 4 15 5 14 6 13 7 12 8 11 9 10 10 9 11 8 12
REMARK SMILES IDX 7 13 6 14 5 15 4 16 3 17 2 18 1 19 20 20 21 21 22 22 23 23
REMARK SMILES IDX 24 24 25 25 26 26 27 27 28 28 29 29 30 30 31 31 32 32 96 33
REMARK SMILES IDX 33 34 95 35 34 36 35 37 36 38 89 39 37 40 94 41 88 42 90 43
REMARK SMILES IDX 38 44 93 45 87 46 86 47 39 49 73 50 52 51 72 52 53 53 56 54
REMARK SMILES IDX 71 55 91 56 54 57 55 58 70 60 92 61 57 62 40 63 41 64 50 65
REMARK SMILES IDX 42 66 43 67 49 68 51 69 44 70 45 71 46 72 47 73 48 74 74 75
REMARK SMILES IDX 75 76 84 77 76 78 77 79 83 80 85 81 78 82 79 83 80 84 81 85
REMARK SMILES IDX 82 86 58 87 59 88 68 89 60 90 61 91 67 92 69 93 62 94 63 95
REMARK SMILES IDX 64 96 65 97 66 98
REMARK H PARENT 90 48 56 59
REMARK Flexibility Score: inf
ROOT
ATOM      1  C   UNL A   1      45.955  43.361  25.710  1.00  0.00     0.123 C 
ENDROOT
BRANCH   1   2
ATOM      2  C   UNL A   1      47.131  43.820  24.861  1.00  0.00     0.023 C 
BRANCH   2   3
ATOM      3  C   UNL A   1      46.862  44.742  23.662  1.00  0.00     0.070 C 
BRANCH   3   4
ATOM      4  S   UNL A   1      45.153  45.095  23.123  1.00  0.00    -0.162 SA
BRANCH   4   5
ATOM      5  C   UNL A   1      45.254  46.445  21.888  1.00  0.00     0.073 C 
BRANCH   5   6
ATOM      6  C   UNL A   1      46.447  46.480  20.912  1.00  0.00     0.038 C 
BRANCH   6   7
ATOM      7  C   UNL A   1      46.204  47.090  19.552  1.00  0.00    -0.030 C 
ATOM      8  C   UNL A   1      46.519  48.352  19.182  1.00  0.00    -0.027 C 
BRANCH   8   9
ATOM      9  C   UNL A   1      46.318  48.997  17.814  1.00  0.00     0.054 C 
BRANCH   9  10
ATOM     10  C   UNL A   1      45.284  48.282  16.970  1.00  0.00    -0.027 C 
ATOM     11  C   UNL A   1      44.051  47.901  17.366  1.00  0.00    -0.027 C 
BRANCH  11  12
ATOM     12  C   UNL A   1      43.018  47.255  16.473  1.00  0.00     0.054 C 
BRANCH  12  13
ATOM     13  C   UNL A   1      42.452  46.041  17.145  1.00  0.00    -0.027 C 
ATOM     14  C   UNL A   1      41.257  45.497  16.868  1.00  0.00    -0.027 C 
BRANCH  14  15
ATOM     15  C   UNL A   1      40.616  44.470  17.755  1.00  0.00     0.054 C 
BRANCH  15  16
ATOM     16  C   UNL A   1      41.515  44.189  18.926  1.00  0.00    -0.027 C 
ATOM     17  C   UNL A   1      41.188  43.393  19.954  1.00  0.00    -0.031 C 
BRANCH  17  18
ATOM     18  C   UNL A   1      42.060  43.191  21.158  1.00  0.00     0.023 C 
ATOM     19  C   UNL A   1      43.312  42.413  20.783  1.00  0.00     0.008 C 
ENDBRANCH  17  18
ENDBRANCH  15  16
ENDBRANCH  14  15
ENDBRANCH  12  13
ENDBRANCH  11  12
ENDBRANCH   9  10
ENDBRANCH   8   9
ENDBRANCH   6   7
ENDBRANCH   5   6
ENDBRANCH   4   5
ENDBRANCH   3   4
ENDBRANCH   2   3
ENDBRANCH   1   2
BRANCH   1  20
ATOM     20  C   UNL A   1      44.909  42.559  24.991  1.00  0.00     0.305 C 
ATOM     21  O   UNL A   1      43.906  43.087  24.532  1.00  0.00    -0.252 OA
BRANCH  20  22
ATOM     22  O   UNL A   1      45.169  41.233  25.004  1.00  0.00    -0.463 OA
BRANCH  22  23
ATOM     23  C   UNL A   1      46.332  40.759  25.689  1.00  0.00     0.261 C 
BRANCH  23  24
ATOM     24  C   UNL A   1      47.124  39.567  25.140  1.00  0.00     0.202 C 
BRANCH  24  25
ATOM     25  O   UNL A   1      47.523  38.475  25.944  1.00  0.00    -0.374 OA
BRANCH  25  26
ATOM     26  C   UNL A   1      48.734  38.553  26.668  1.00  0.00     0.202 C 
BRANCH  26  27
ATOM     27  C   UNL A   1      48.707  38.440  28.204  1.00  0.00     0.261 C 
BRANCH  27  28
ATOM     28  O   UNL A   1      47.639  37.665  28.783  1.00  0.00    -0.460 OA
BRANCH  28  29
ATOM     29  C   UNL A   1      47.988  36.886  29.833  1.00  0.00     0.338 C 
ATOM     30  O   UNL A   1      48.252  37.269  30.967  1.00  0.00    -0.246 OA
BRANCH  29  31
ATOM     31  C   UNL A   1      47.868  35.452  29.487  1.00  0.00     0.060 A 
ATOM     32  C   UNL A   1      47.265  35.106  28.268  1.00  0.00     0.016 A 
ATOM     33  C   UNL A   1      48.244  34.456  30.389  1.00  0.00     0.016 A 
ATOM     34  C   UNL A   1      46.990  33.771  27.968  1.00  0.00     0.010 A 
ATOM     35  C   UNL A   1      47.943  33.119  30.100  1.00  0.00     0.010 A 
ATOM     36  C   UNL A   1      47.275  32.774  28.910  1.00  0.00    -0.014 A 
BRANCH  36  37
ATOM     37  C   UNL A   1      46.666  31.426  28.760  1.00  0.00     0.031 A 
ATOM     38  C   UNL A   1      47.479  30.353  28.082  1.00  0.00     0.074 A 
ATOM     39  C   UNL A   1      45.437  31.148  29.231  1.00  0.00     0.049 A 
ATOM     40  N   UNL A   1      47.141  29.133  27.756  1.00  0.00    -0.248 NA
ATOM     41  C   UNL A   1      48.862  30.709  27.720  1.00  0.00     0.031 C 
ATOM     42  C   UNL A   1      44.581  32.079  29.963  1.00  0.00     0.029 A 
ATOM     43  N   UNL A   1      44.692  29.998  29.150  1.00  0.00    -0.354 N 
ATOM     44  C   UNL A   1      48.257  28.585  27.132  1.00  0.00     0.074 A 
ATOM     45  C   UNL A   1      49.276  29.610  27.109  1.00  0.00     0.031 C 
ATOM     46  C   UNL A   1      43.418  31.468  30.250  1.00  0.00     0.029 A 
ATOM     47  C   UNL A   1      43.432  30.118  29.689  1.00  0.00     0.049 A 
ATOM     48  H   UNL A   1      45.028  29.166  28.745  1.00  0.00     0.167 HD
ATOM     49  C   UNL A   1      48.418  27.339  26.624  1.00  0.00     0.037 A 
ATOM     50  C   UNL A   1      42.401  29.246  29.701  1.00  0.00     0.037 A 
ATOM     51  C   UNL A   1      47.399  26.323  26.657  1.00  0.00     0.049 A 
ATOM     52  C   UNL A   1      42.577  27.890  29.062  1.00  0.00     0.074 A 
ATOM     53  C   UNL A   1      47.465  25.023  26.187  1.00  0.00     0.029 A 
ATOM     54  N   UNL A   1      46.126  26.495  27.182  1.00  0.00    -0.354 N 
ATOM     55  N   UNL A   1      43.637  27.381  28.480  1.00  0.00    -0.248 NA
ATOM     56  C   UNL A   1      41.415  26.990  29.081  1.00  0.00     0.031 C 
ATOM     57  C   UNL A   1      46.213  24.429  26.373  1.00  0.00     0.029 A 
ATOM     58  C   UNL A   1      45.387  25.335  27.020  1.00  0.00     0.049 A 
ATOM     59  H   UNL A   1      45.796  27.320  27.606  1.00  0.00     0.167 HD
ATOM     60  C   UNL A   1      43.282  26.092  28.095  1.00  0.00     0.074 A 
ATOM     61  C   UNL A   1      41.910  25.896  28.517  1.00  0.00     0.031 C 
ATOM     62  C   UNL A   1      44.024  25.153  27.455  1.00  0.00     0.037 A 
BRANCH  49  63
ATOM     63  C   UNL A   1      49.727  27.019  25.954  1.00  0.00     0.058 A 
ATOM     64  C   UNL A   1      49.875  27.032  24.558  1.00  0.00     0.135 A 
ATOM     65  C   UNL A   1      50.864  26.727  26.727  1.00  0.00     0.135 A 
ATOM     66  F   UNL A   1      48.818  27.284  23.768  1.00  0.00    -0.206 F 
ATOM     67  C   UNL A   1      51.093  26.742  23.951  1.00  0.00     0.059 A 
ATOM     68  C   UNL A   1      52.099  26.465  26.143  1.00  0.00     0.059 A 
ATOM     69  F   UNL A   1      50.780  26.695  28.066  1.00  0.00    -0.206 F 
ATOM     70  C   UNL A   1      52.201  26.462  24.753  1.00  0.00     0.060 A 
BRANCH  70  71
ATOM     71  S   UNL A   1      53.778  26.101  23.951  1.00  0.00     0.124 S 
ATOM     72  O   UNL A   1      54.635  27.142  24.509  1.00  0.00    -0.237 OA
ATOM     73  O   UNL A   1      54.054  24.742  24.405  1.00  0.00    -0.237 OA
ATOM     74  O   UNL A   1      53.476  26.234  22.529  1.00  0.00    -0.744 OA
ENDBRANCH  70  71
ENDBRANCH  49  63
BRANCH  50  75
ATOM     75  C   UNL A   1      41.105  29.631  30.325  1.00  0.00     0.058 A 
ATOM     76  C   UNL A   1      40.116  30.299  29.588  1.00  0.00     0.135 A 
ATOM     77  C   UNL A   1      40.828  29.338  31.670  1.00  0.00     0.135 A 
ATOM     78  F   UNL A   1      40.337  30.617  28.303  1.00  0.00    -0.206 F 
ATOM     79  C   UNL A   1      38.903  30.672  30.162  1.00  0.00     0.059 A 
ATOM     80  C   UNL A   1      39.612  29.676  32.258  1.00  0.00     0.059 A 
ATOM     81  F   UNL A   1      41.737  28.698  32.420  1.00  0.00    -0.206 F 
ATOM     82  C   UNL A   1      38.658  30.350  31.497  1.00  0.00     0.060 A 
BRANCH  82  83
ATOM     83  S   UNL A   1      37.058  30.785  32.212  1.00  0.00     0.124 S 
ATOM     84  O   UNL A   1      36.558  31.757  31.246  1.00  0.00    -0.237 OA
ATOM     85  O   UNL A   1      36.373  29.497  32.235  1.00  0.00    -0.237 OA
ATOM     86  O   UNL A   1      37.410  31.323  33.523  1.00  0.00    -0.744 OA
ENDBRANCH  82  83
ENDBRANCH  50  75
BRANCH  62  87
ATOM     87  C   UNL A   1      43.390  23.809  27.208  1.00  0.00     0.058 A 
ATOM     88  C   UNL A   1      42.925  23.428  25.941  1.00  0.00     0.135 A 
ATOM     89  C   UNL A   1      43.304  22.867  28.247  1.00  0.00     0.135 A 
ATOM     90  F   UNL A   1      42.979  24.290  24.913  1.00  0.00    -0.206 F 
ATOM     91  C   UNL A   1      42.375  22.169  25.716  1.00  0.00     0.059 A 
ATOM     92  C   UNL A   1      42.787  21.592  28.039  1.00  0.00     0.059 A 
ATOM     93  F   UNL A   1      43.745  23.174  29.477  1.00  0.00    -0.206 F 
ATOM     94  C   UNL A   1      42.313  21.257  26.772  1.00  0.00     0.060 A 
BRANCH  94  95
ATOM     95  S   UNL A   1      41.629  19.616  26.458  1.00  0.00     0.124 S 
ATOM     96  O   UNL A   1      41.933  18.927  27.709  1.00  0.00    -0.237 OA
ATOM     97  O   UNL A   1      40.218  19.906  26.221  1.00  0.00    -0.237 OA
ATOM     98  O   UNL A   1      42.372  19.153  25.291  1.00  0.00    -0.744 OA
ENDBRANCH  94  95
ENDBRANCH  62  87
ENDBRANCH  36  37
ENDBRANCH  29  31
ENDBRANCH  28  29
ENDBRANCH  27  28
ENDBRANCH  26  27
ENDBRANCH  25  26
ENDBRANCH  24  25
ENDBRANCH  23  24
ENDBRANCH  22  23
ENDBRANCH  20  22
ENDBRANCH   1  20
TORSDOF 30
ENDMDL
MODEL 3
REMARK VINA RESULT:      -6.6      2.469      9.483
REMARK SMILES CC/C=C/C/C=C/C/C=C/C/C=C/CCSCCCC(=O)OCCOCCOC(=O)c1ccc(-c2c3nc(c(-c4c(F)cc(S(=O)(=O)[O-])cc4F)c4ccc([nH]4)c(-c4c(F)cc(S(=O)(=O)[O-])cc4F)c4nc(c(-c5c(F)cc(S(=O)(=O)[O-])cc5F)c5ccc2[nH]5)C=C4)C=C3)cc1
REMARK SMILES IDX 19 1 18 2 17 3 16 4 15 5 14 6 13 7 12 8 11 9 10 10 9 11 8 12
REMARK SMILES IDX 7 13 6 14 5 15 4 16 3 17 2 18 1 19 20 20 21 21 22 22 23 23
REMARK SMILES IDX 24 24 25 25 26 26 27 27 28 28 29 29 30 30 31 31 32 32 96 33
REMARK SMILES IDX 33 34 95 35 34 36 35 37 36 38 89 39 37 40 94 41 88 42 90 43
REMARK SMILES IDX 38 44 93 45 87 46 86 47 39 49 73 50 52 51 72 52 53 53 56 54
REMARK SMILES IDX 71 55 91 56 54 57 55 58 70 60 92 61 57 62 40 63 41 64 50 65
REMARK SMILES IDX 42 66 43 67 49 68 51 69 44 70 45 71 46 72 47 73 48 74 74 75
REMARK SMILES IDX 75 76 84 77 76 78 77 79 83 80 85 81 78 82 79 83 80 84 81 85
REMARK SMILES IDX 82 86 58 87 59 88 68 89 60 90 61 91 67 92 69 93 62 94 63 95
REMARK SMILES IDX 64 96 65 97 66 98
REMARK H PARENT 90 48 56 59
REMARK Flexibility Score: inf
ROOT
ATOM      1  C   UNL A   1      45.877  43.649  25.658  1.00  0.00     0.123 C 
ENDROOT
BRANCH   1   2
ATOM      2  C   UNL A   1      47.090  43.982  24.801  1.00  0.00     0.023 C 
BRANCH   2   3
ATOM      3  C   UNL A   1      47.426  45.457  24.538  1.00  0.00     0.070 C 
BRANCH   3   4
ATOM      4  S   UNL A   1      48.943  46.205  25.228  1.00  0.00    -0.162 SA
BRANCH   4   5
ATOM      5  C   UNL A   1      50.068  44.825  25.658  1.00  0.00     0.073 C 
BRANCH   5   6
ATOM      6  C   UNL A   1      50.798  44.848  27.016  1.00  0.00     0.038 C 
BRANCH   6   7
ATOM      7  C   UNL A   1      50.047  44.307  28.210  1.00  0.00    -0.030 C 
ATOM      8  C   UNL A   1      48.704  44.183  28.310  1.00  0.00    -0.027 C 
BRANCH   8   9
ATOM      9  C   UNL A   1      47.909  43.616  29.482  1.00  0.00     0.054 C 
BRANCH   9  10
ATOM     10  C   UNL A   1      47.028  42.448  29.088  1.00  0.00    -0.027 C 
ATOM     11  C   UNL A   1      45.853  42.103  29.654  1.00  0.00    -0.027 C 
BRANCH  11  12
ATOM     12  C   UNL A   1      44.966  40.974  29.184  1.00  0.00     0.054 C 
BRANCH  12  13
ATOM     13  C   UNL A   1      44.464  40.196  30.364  1.00  0.00    -0.027 C 
ATOM     14  C   UNL A   1      43.553  40.639  31.243  1.00  0.00    -0.027 C 
BRANCH  14  15
ATOM     15  C   UNL A   1      43.299  39.951  32.553  1.00  0.00     0.054 C 
BRANCH  15  16
ATOM     16  C   UNL A   1      43.028  40.980  33.614  1.00  0.00    -0.027 C 
ATOM     17  C   UNL A   1      42.489  42.185  33.377  1.00  0.00    -0.031 C 
BRANCH  17  18
ATOM     18  C   UNL A   1      42.304  43.235  34.432  1.00  0.00     0.023 C 
ATOM     19  C   UNL A   1      42.064  44.594  33.794  1.00  0.00     0.008 C 
ENDBRANCH  17  18
ENDBRANCH  15  16
ENDBRANCH  14  15
ENDBRANCH  12  13
ENDBRANCH  11  12
ENDBRANCH   9  10
ENDBRANCH   8   9
ENDBRANCH   6   7
ENDBRANCH   5   6
ENDBRANCH   4   5
ENDBRANCH   3   4
ENDBRANCH   2   3
ENDBRANCH   1   2
BRANCH   1  20
ATOM     20  C   UNL A   1      44.739  42.983  24.940  1.00  0.00     0.305 C 
ATOM     21  O   UNL A   1      43.795  43.630  24.508  1.00  0.00    -0.252 OA
BRANCH  20  22
ATOM     22  O   UNL A   1      44.850  41.637  24.922  1.00  0.00    -0.463 OA
BRANCH  22  23
ATOM     23  C   UNL A   1      46.032  41.029  25.450  1.00  0.00     0.261 C 
BRANCH  23  24
ATOM     24  C   UNL A   1      46.721  39.887  24.694  1.00  0.00     0.202 C 
BRANCH  24  25
ATOM     25  O   UNL A   1      47.150  38.698  25.326  1.00  0.00    -0.374 OA
BRANCH  25  26
ATOM     26  C   UNL A   1      48.341  38.707  26.086  1.00  0.00     0.202 C 
BRANCH  26  27
ATOM     27  C   UNL A   1      48.270  38.490  27.609  1.00  0.00     0.261 C 
BRANCH  27  28
ATOM     28  O   UNL A   1      47.142  37.746  28.110  1.00  0.00    -0.460 OA
BRANCH  28  29
ATOM     29  C   UNL A   1      47.374  37.022  29.231  1.00  0.00     0.338 C 
ATOM     30  O   UNL A   1      47.507  37.462  30.367  1.00  0.00    -0.246 OA
BRANCH  29  31
ATOM     31  C   UNL A   1      47.299  35.572  28.944  1.00  0.00     0.060 A 
ATOM     32  C   UNL A   1      46.697  35.157  27.746  1.00  0.00     0.016 A 
ATOM     33  C   UNL A   1      47.718  34.626  29.881  1.00  0.00     0.016 A 
ATOM     34  C   UNL A   1      46.465  33.802  27.504  1.00  0.00     0.010 A 
ATOM     35  C   UNL A   1      47.459  33.269  29.649  1.00  0.00     0.010 A 
ATOM     36  C   UNL A   1      46.792  32.855  28.481  1.00  0.00    -0.014 A 
BRANCH  36  37
ATOM     37  C   UNL A   1      46.228  31.482  28.393  1.00  0.00     0.031 A 
ATOM     38  C   UNL A   1      47.122  30.380  27.883  1.00  0.00     0.074 A 
ATOM     39  C   UNL A   1      44.967  31.209  28.773  1.00  0.00     0.049 A 
ATOM     40  N   UNL A   1      46.841  29.129  27.632  1.00  0.00    -0.248 NA
ATOM     41  C   UNL A   1      48.524  30.745  27.617  1.00  0.00     0.031 C 
ATOM     42  C   UNL A   1      44.028  32.172  29.345  1.00  0.00     0.029 A 
ATOM     43  N   UNL A   1      44.257  30.035  28.724  1.00  0.00    -0.354 N 
ATOM     44  C   UNL A   1      48.021  28.563  27.159  1.00  0.00     0.074 A 
ATOM     45  C   UNL A   1      49.016  29.612  27.141  1.00  0.00     0.031 C 
ATOM     46  C   UNL A   1      42.858  31.554  29.578  1.00  0.00     0.029 A 
ATOM     47  C   UNL A   1      42.951  30.162  29.136  1.00  0.00     0.049 A 
ATOM     48  H   UNL A   1      44.645  29.182  28.422  1.00  0.00     0.167 HD
ATOM     49  C   UNL A   1      48.253  27.285  26.775  1.00  0.00     0.037 A 
ATOM     50  C   UNL A   1      41.942  29.266  29.129  1.00  0.00     0.037 A 
ATOM     51  C   UNL A   1      47.257  26.246  26.803  1.00  0.00     0.049 A 
ATOM     52  C   UNL A   1      42.204  27.868  28.626  1.00  0.00     0.074 A 
ATOM     53  C   UNL A   1      47.393  24.914  26.452  1.00  0.00     0.029 A 
ATOM     54  N   UNL A   1      45.938  26.424  27.195  1.00  0.00    -0.354 N 
ATOM     55  N   UNL A   1      43.323  27.343  28.186  1.00  0.00    -0.248 NA
ATOM     56  C   UNL A   1      41.064  26.939  28.617  1.00  0.00     0.031 C 
ATOM     57  C   UNL A   1      46.142  24.302  26.575  1.00  0.00     0.029 A 
ATOM     58  C   UNL A   1      45.242  25.234  27.067  1.00  0.00     0.049 A 
ATOM     59  H   UNL A   1      45.553  27.271  27.517  1.00  0.00     0.167 HD
ATOM     60  C   UNL A   1      43.032  26.016  27.881  1.00  0.00     0.074 A 
ATOM     61  C   UNL A   1      41.631  25.817  28.194  1.00  0.00     0.031 C 
ATOM     62  C   UNL A   1      43.848  25.050  27.392  1.00  0.00     0.037 A 
BRANCH  49  63
ATOM     63  C   UNL A   1      49.624  26.948  26.254  1.00  0.00     0.058 A 
ATOM     64  C   UNL A   1      49.955  27.057  24.894  1.00  0.00     0.135 A 
ATOM     65  C   UNL A   1      50.637  26.540  27.140  1.00  0.00     0.135 A 
ATOM     66  F   UNL A   1      49.022  27.421  23.999  1.00  0.00    -0.206 F 
ATOM     67  C   UNL A   1      51.229  26.750  24.426  1.00  0.00     0.059 A 
ATOM     68  C   UNL A   1      51.926  26.259  26.699  1.00  0.00     0.059 A 
ATOM     69  F   UNL A   1      50.377  26.414  28.450  1.00  0.00    -0.206 F 
ATOM     70  C   UNL A   1      52.210  26.354  25.338  1.00  0.00     0.060 A 
BRANCH  70  71
ATOM     71  S   UNL A   1      53.861  25.972  24.718  1.00  0.00     0.124 S 
ATOM     72  O   UNL A   1      53.616  25.857  23.284  1.00  0.00    -0.237 OA
ATOM     73  O   UNL A   1      54.630  27.140  25.137  1.00  0.00    -0.237 OA
ATOM     74  O   UNL A   1      54.201  24.725  25.397  1.00  0.00    -0.744 OA
ENDBRANCH  70  71
ENDBRANCH  49  63
BRANCH  50  75
ATOM     75  C   UNL A   1      40.586  29.663  29.601  1.00  0.00     0.058 A 
ATOM     76  C   UNL A   1      40.315  29.836  30.966  1.00  0.00     0.135 A 
ATOM     77  C   UNL A   1      39.533  29.877  28.696  1.00  0.00     0.135 A 
ATOM     78  F   UNL A   1      41.282  29.627  31.873  1.00  0.00    -0.206 F 
ATOM     79  C   UNL A   1      39.050  30.198  31.421  1.00  0.00     0.059 A 
ATOM     80  C   UNL A   1      38.267  30.268  29.125  1.00  0.00     0.059 A 
ATOM     81  F   UNL A   1      39.737  29.729  27.379  1.00  0.00    -0.206 F 
ATOM     82  C   UNL A   1      38.034  30.418  30.490  1.00  0.00     0.060 A 
BRANCH  82  83
ATOM     83  S   UNL A   1      36.413  30.946  31.089  1.00  0.00     0.124 S 
ATOM     84  O   UNL A   1      36.202  30.038  32.210  1.00  0.00    -0.237 OA
ATOM     85  O   UNL A   1      36.657  32.343  31.435  1.00  0.00    -0.237 OA
ATOM     86  O   UNL A   1      35.544  30.737  29.935  1.00  0.00    -0.744 OA
ENDBRANCH  82  83
ENDBRANCH  50  75
BRANCH  62  87
ATOM     87  C   UNL A   1      43.268  23.672  27.204  1.00  0.00     0.058 A 
ATOM     88  C   UNL A   1      42.829  23.215  25.953  1.00  0.00     0.135 A 
ATOM     89  C   UNL A   1      43.209  22.777  28.286  1.00  0.00     0.135 A 
ATOM     90  F   UNL A   1      42.859  24.030  24.886  1.00  0.00    -0.206 F 
ATOM     91  C   UNL A   1      42.329  21.926  25.784  1.00  0.00     0.059 A 
ATOM     92  C   UNL A   1      42.742  21.475  28.134  1.00  0.00     0.059 A 
ATOM     93  F   UNL A   1      43.627  23.158  29.503  1.00  0.00    -0.206 F 
ATOM     94  C   UNL A   1      42.293  21.063  26.881  1.00  0.00     0.060 A 
BRANCH  94  95
ATOM     95  S   UNL A   1      41.674  19.384  26.640  1.00  0.00     0.124 S 
ATOM     96  O   UNL A   1      42.913  18.612  26.634  1.00  0.00    -0.237 OA
ATOM     97  O   UNL A   1      40.816  19.198  27.806  1.00  0.00    -0.237 OA
ATOM     98  O   UNL A   1      40.975  19.458  25.361  1.00  0.00    -0.744 OA
ENDBRANCH  94  95
ENDBRANCH  62  87
ENDBRANCH  36  37
ENDBRANCH  29  31
ENDBRANCH  28  29
ENDBRANCH  27  28
ENDBRANCH  26  27
ENDBRANCH  25  26
ENDBRANCH  24  25
ENDBRANCH  23  24
ENDBRANCH  22  23
ENDBRANCH  20  22
ENDBRANCH   1  20
TORSDOF 30
ENDMDL
