MODEL 1
REMARK VINA RESULT:     -11.0      0.000      0.000
REMARK SMILES Cc1nc2ncnn2c(O)c1CCC(=O)OCCOCCOC(=O)c1ccc(-c2c3nc(c(-c4c(F)cc(S(=O)(=O)[O-])cc4F)c4ccc([nH]4)c(-c4c(F)cc(S(=O)(=O)[O-])cc4F)c4nc(c(-c5c(F)cc(S(=O)(=O)[O-])cc5F)c5ccc2[nH]5)C=C4)C=C3)cc1
REMARK SMILES IDX 19 1 18 2 17 3 16 4 14 5 15 6 13 7 12 8 11 9 1 10 2 11 3 12
REMARK SMILES IDX 4 13 9 14 5 15 8 16 6 17 7 18 10 19 20 21 21 22 22 23 23 24
REMARK SMILES IDX 24 25 25 26 26 27 90 28 27 29 89 30 28 31 29 32 30 33 83 34
REMARK SMILES IDX 31 35 88 36 82 37 84 38 32 39 87 40 81 41 80 42 33 44 67 45
REMARK SMILES IDX 46 46 66 47 47 48 50 49 65 50 85 51 48 52 49 53 64 55 86 56
REMARK SMILES IDX 51 57 34 58 35 59 44 60 36 61 37 62 43 63 45 64 38 65 39 66
REMARK SMILES IDX 40 67 41 68 42 69 68 70 69 71 78 72 70 73 71 74 77 75 79 76
REMARK SMILES IDX 72 77 73 78 74 79 75 80 76 81 52 82 53 83 62 84 54 85 55 86
REMARK SMILES IDX 61 87 63 88 56 89 57 90 58 91 59 92 60 93
REMARK H PARENT 10 20 84 43 50 54
REMARK Flexibility Score: inf
ROOT
ATOM      1  O   UNL A   1      40.753  20.615  27.598  1.00  0.00    -0.374 OA
ENDROOT
BRANCH   1   2
ATOM      2  C   UNL A   1      40.512  21.651  26.643  1.00  0.00     0.202 C 
BRANCH   2   3
ATOM      3  C   UNL A   1      39.272  21.446  25.757  1.00  0.00     0.261 C 
BRANCH   3   4
ATOM      4  O   UNL A   1      38.059  21.987  26.329  1.00  0.00    -0.463 OA
BRANCH   4   5
ATOM      5  C   UNL A   1      37.631  23.203  25.933  1.00  0.00     0.306 C 
ATOM      6  O   UNL A   1      38.327  24.211  25.890  1.00  0.00    -0.252 OA
BRANCH   5   7
ATOM      7  C   UNL A   1      36.161  23.195  25.542  1.00  0.00     0.128 C 
BRANCH   7   8
ATOM      8  C   UNL A   1      35.185  22.383  26.421  1.00  0.00     0.055 C 
BRANCH   8   9
ATOM      9  C   UNL A   1      34.340  21.342  25.710  1.00  0.00     0.036 A 
ATOM     10  C   UNL A   1      32.159  22.817  25.698  1.00  0.00     0.067 C 
ATOM     11  C   UNL A   1      32.842  21.481  25.482  1.00  0.00     0.050 A 
ATOM     12  N   UNL A   1      32.055  20.541  25.040  1.00  0.00    -0.216 NA
ATOM     13  C   UNL A   1      32.626  19.362  24.672  1.00  0.00     0.255 A 
ATOM     14  C   UNL A   1      34.841  20.207  25.177  1.00  0.00     0.220 A 
ATOM     15  N   UNL A   1      32.072  18.261  24.211  1.00  0.00    -0.197 NA
ATOM     16  N   UNL A   1      34.004  19.200  24.693  1.00  0.00    -0.163 N 
ATOM     17  C   UNL A   1      33.138  17.456  23.946  1.00  0.00     0.249 A 
ATOM     18  N   UNL A   1      34.332  17.969  24.226  1.00  0.00    -0.150 NA
BRANCH  14  19
ATOM     19  O   UNL A   1      36.186  19.948  25.112  1.00  0.00    -0.493 OA
ATOM     20  H   UNL A   1      36.792  20.646  24.956  1.00  0.00     0.295 HD
ENDBRANCH  14  19
ENDBRANCH   8   9
ENDBRANCH   7   8
ENDBRANCH   5   7
ENDBRANCH   4   5
ENDBRANCH   3   4
ENDBRANCH   2   3
ENDBRANCH   1   2
BRANCH   1  21
ATOM     21  C   UNL A   1      41.793  19.684  27.324  1.00  0.00     0.202 C 
BRANCH  21  22
ATOM     22  C   UNL A   1      42.321  19.685  25.896  1.00  0.00     0.261 C 
BRANCH  22  23
ATOM     23  O   UNL A   1      43.725  19.933  25.894  1.00  0.00    -0.460 OA
BRANCH  23  24
ATOM     24  C   UNL A   1      44.210  20.561  24.788  1.00  0.00     0.338 C 
ATOM     25  O   UNL A   1      44.499  20.052  23.731  1.00  0.00    -0.246 OA
BRANCH  24  26
ATOM     26  C   UNL A   1      44.427  21.976  25.141  1.00  0.00     0.060 A 
ATOM     27  C   UNL A   1      45.375  22.258  26.124  1.00  0.00     0.016 A 
ATOM     28  C   UNL A   1      43.565  22.968  24.643  1.00  0.00     0.016 A 
ATOM     29  C   UNL A   1      45.313  23.482  26.758  1.00  0.00     0.010 A 
ATOM     30  C   UNL A   1      43.532  24.196  25.239  1.00  0.00     0.010 A 
ATOM     31  C   UNL A   1      44.322  24.388  26.364  1.00  0.00    -0.014 A 
BRANCH  31  32
ATOM     32  C   UNL A   1      44.101  25.584  27.142  1.00  0.00     0.031 A 
ATOM     33  C   UNL A   1      45.156  26.600  26.932  1.00  0.00     0.074 A 
ATOM     34  C   UNL A   1      42.954  25.738  27.837  1.00  0.00     0.049 A 
ATOM     35  N   UNL A   1      46.027  27.020  27.786  1.00  0.00    -0.248 NA
ATOM     36  C   UNL A   1      45.399  27.060  25.551  1.00  0.00     0.031 C 
ATOM     37  C   UNL A   1      41.773  24.862  27.843  1.00  0.00     0.029 A 
ATOM     38  N   UNL A   1      42.552  26.772  28.620  1.00  0.00    -0.354 N 
ATOM     39  C   UNL A   1      46.753  27.995  27.111  1.00  0.00     0.074 A 
ATOM     40  C   UNL A   1      46.485  27.816  25.709  1.00  0.00     0.031 C 
ATOM     41  C   UNL A   1      40.724  25.517  28.395  1.00  0.00     0.029 A 
ATOM     42  C   UNL A   1      41.187  26.790  28.911  1.00  0.00     0.049 A 
ATOM     43  H   UNL A   1      43.174  27.457  28.955  1.00  0.00     0.167 HD
ATOM     44  C   UNL A   1      47.271  29.062  27.775  1.00  0.00     0.037 A 
ATOM     45  C   UNL A   1      40.509  27.823  29.480  1.00  0.00     0.037 A 
ATOM     46  C   UNL A   1      47.351  28.810  29.190  1.00  0.00     0.049 A 
ATOM     47  C   UNL A   1      41.533  28.674  30.145  1.00  0.00     0.074 A 
ATOM     48  C   UNL A   1      48.028  27.901  29.976  1.00  0.00     0.029 A 
ATOM     49  N   UNL A   1      46.328  29.298  29.965  1.00  0.00    -0.354 N 
ATOM     50  N   UNL A   1      42.252  28.286  31.163  1.00  0.00    -0.248 NA
ATOM     51  C   UNL A   1      42.081  29.782  29.379  1.00  0.00     0.031 C 
ATOM     52  C   UNL A   1      47.125  27.565  31.027  1.00  0.00     0.029 A 
ATOM     53  C   UNL A   1      45.971  28.335  30.875  1.00  0.00     0.049 A 
ATOM     54  H   UNL A   1      45.918  30.189  29.881  1.00  0.00     0.167 HD
ATOM     55  C   UNL A   1      43.518  28.802  30.922  1.00  0.00     0.074 A 
ATOM     56  C   UNL A   1      43.330  29.779  29.851  1.00  0.00     0.031 C 
ATOM     57  C   UNL A   1      44.633  28.182  31.412  1.00  0.00     0.037 A 
BRANCH  44  58
ATOM     58  C   UNL A   1      47.317  30.444  27.179  1.00  0.00     0.058 A 
ATOM     59  C   UNL A   1      48.523  31.167  27.173  1.00  0.00     0.135 A 
ATOM     60  C   UNL A   1      46.159  31.183  26.836  1.00  0.00     0.135 A 
ATOM     61  F   UNL A   1      49.673  30.575  27.533  1.00  0.00    -0.206 F 
ATOM     62  C   UNL A   1      48.573  32.526  26.857  1.00  0.00     0.059 A 
ATOM     63  C   UNL A   1      46.195  32.518  26.458  1.00  0.00     0.059 A 
ATOM     64  F   UNL A   1      44.927  30.670  26.944  1.00  0.00    -0.206 F 
ATOM     65  C   UNL A   1      47.402  33.191  26.498  1.00  0.00     0.060 A 
BRANCH  65  66
ATOM     66  S   UNL A   1      47.459  34.952  26.131  1.00  0.00     0.124 S 
ATOM     67  O   UNL A   1      46.507  35.053  25.030  1.00  0.00    -0.237 OA
ATOM     68  O   UNL A   1      47.037  35.537  27.399  1.00  0.00    -0.237 OA
ATOM     69  O   UNL A   1      48.858  35.178  25.779  1.00  0.00    -0.744 OA
ENDBRANCH  65  66
ENDBRANCH  44  58
BRANCH  45  70
ATOM     70  C   UNL A   1      39.161  28.362  29.130  1.00  0.00     0.058 A 
ATOM     71  C   UNL A   1      38.167  28.494  30.121  1.00  0.00     0.135 A 
ATOM     72  C   UNL A   1      38.928  29.059  27.929  1.00  0.00     0.135 A 
ATOM     73  F   UNL A   1      38.304  27.866  31.299  1.00  0.00    -0.206 F 
ATOM     74  C   UNL A   1      37.060  29.337  29.967  1.00  0.00     0.059 A 
ATOM     75  C   UNL A   1      37.827  29.898  27.749  1.00  0.00     0.059 A 
ATOM     76  F   UNL A   1      39.815  29.025  26.924  1.00  0.00    -0.206 F 
ATOM     77  C   UNL A   1      36.916  30.063  28.787  1.00  0.00     0.060 A 
BRANCH  77  78
ATOM     78  S   UNL A   1      35.613  31.314  28.668  1.00  0.00     0.124 S 
ATOM     79  O   UNL A   1      34.575  30.601  27.931  1.00  0.00    -0.237 OA
ATOM     80  O   UNL A   1      35.326  31.591  30.071  1.00  0.00    -0.237 OA
ATOM     81  O   UNL A   1      36.258  32.404  27.940  1.00  0.00    -0.744 OA
ENDBRANCH  77  78
ENDBRANCH  45  70
BRANCH  57  82
ATOM     82  C   UNL A   1      44.443  27.120  32.470  1.00  0.00     0.058 A 
ATOM     83  C   UNL A   1      44.185  27.370  33.831  1.00  0.00     0.135 A 
ATOM     84  C   UNL A   1      44.377  25.785  32.046  1.00  0.00     0.135 A 
ATOM     85  F   UNL A   1      44.143  28.623  34.306  1.00  0.00    -0.206 F 
ATOM     86  C   UNL A   1      43.901  26.336  34.731  1.00  0.00     0.059 A 
ATOM     87  C   UNL A   1      44.066  24.743  32.916  1.00  0.00     0.059 A 
ATOM     88  F   UNL A   1      44.562  25.484  30.750  1.00  0.00    -0.206 F 
ATOM     89  C   UNL A   1      43.839  25.024  34.260  1.00  0.00     0.060 A 
BRANCH  89  90
ATOM     90  S   UNL A   1      43.403  23.692  35.402  1.00  0.00     0.124 S 
ATOM     91  O   UNL A   1      43.746  22.501  34.633  1.00  0.00    -0.237 OA
ATOM     92  O   UNL A   1      44.256  23.972  36.553  1.00  0.00    -0.237 OA
ATOM     93  O   UNL A   1      41.974  23.894  35.632  1.00  0.00    -0.744 OA
ENDBRANCH  89  90
ENDBRANCH  57  82
ENDBRANCH  31  32
ENDBRANCH  24  26
ENDBRANCH  23  24
ENDBRANCH  22  23
ENDBRANCH  21  22
ENDBRANCH   1  21
TORSDOF 20
ENDMDL
MODEL 2
REMARK VINA RESULT:     -10.6      2.680      9.319
REMARK SMILES Cc1nc2ncnn2c(O)c1CCC(=O)OCCOCCOC(=O)c1ccc(-c2c3nc(c(-c4c(F)cc(S(=O)(=O)[O-])cc4F)c4ccc([nH]4)c(-c4c(F)cc(S(=O)(=O)[O-])cc4F)c4nc(c(-c5c(F)cc(S(=O)(=O)[O-])cc5F)c5ccc2[nH]5)C=C4)C=C3)cc1
REMARK SMILES IDX 19 1 18 2 17 3 16 4 14 5 15 6 13 7 12 8 11 9 1 10 2 11 3 12
REMARK SMILES IDX 4 13 9 14 5 15 8 16 6 17 7 18 10 19 20 21 21 22 22 23 23 24
REMARK SMILES IDX 24 25 25 26 26 27 90 28 27 29 89 30 28 31 29 32 30 33 83 34
REMARK SMILES IDX 31 35 88 36 82 37 84 38 32 39 87 40 81 41 80 42 33 44 67 45
REMARK SMILES IDX 46 46 66 47 47 48 50 49 65 50 85 51 48 52 49 53 64 55 86 56
REMARK SMILES IDX 51 57 34 58 35 59 44 60 36 61 37 62 43 63 45 64 38 65 39 66
REMARK SMILES IDX 40 67 41 68 42 69 68 70 69 71 78 72 70 73 71 74 77 75 79 76
REMARK SMILES IDX 72 77 73 78 74 79 75 80 76 81 52 82 53 83 62 84 54 85 55 86
REMARK SMILES IDX 61 87 63 88 56 89 57 90 58 91 59 92 60 93
REMARK H PARENT 10 20 84 43 50 54
REMARK Flexibility Score: inf
ROOT
ATOM      1  O   UNL A   1      32.320  29.053  25.716  1.00  0.00    -0.374 OA
ENDROOT
BRANCH   1   2
ATOM      2  C   UNL A   1      32.052  28.604  24.385  1.00  0.00     0.202 C 
BRANCH   2   3
ATOM      3  C   UNL A   1      31.286  27.274  24.288  1.00  0.00     0.261 C 
BRANCH   3   4
ATOM      4  O   UNL A   1      30.642  26.889  25.525  1.00  0.00    -0.463 OA
BRANCH   4   5
ATOM      5  C   UNL A   1      30.594  25.583  25.861  1.00  0.00     0.306 C 
ATOM      6  O   UNL A   1      29.709  25.064  26.530  1.00  0.00    -0.252 OA
BRANCH   5   7
ATOM      7  C   UNL A   1      31.783  24.806  25.316  1.00  0.00     0.128 C 
BRANCH   7   8
ATOM      8  C   UNL A   1      32.691  24.074  26.328  1.00  0.00     0.055 C 
BRANCH   8   9
ATOM      9  C   UNL A   1      33.155  22.683  25.937  1.00  0.00     0.036 A 
ATOM     10  C   UNL A   1      35.718  23.270  26.075  1.00  0.00     0.067 C 
ATOM     11  C   UNL A   1      34.609  22.319  25.672  1.00  0.00     0.050 A 
ATOM     12  N   UNL A   1      35.026  21.194  25.164  1.00  0.00    -0.216 NA
ATOM     13  C   UNL A   1      34.097  20.227  24.926  1.00  0.00     0.255 A 
ATOM     14  C   UNL A   1      32.328  21.622  25.821  1.00  0.00     0.220 A 
ATOM     15  N   UNL A   1      34.241  19.023  24.417  1.00  0.00    -0.197 NA
ATOM     16  N   UNL A   1      32.770  20.410  25.287  1.00  0.00    -0.163 N 
ATOM     17  C   UNL A   1      32.989  18.493  24.497  1.00  0.00     0.249 A 
ATOM     18  N   UNL A   1      32.056  19.290  25.007  1.00  0.00    -0.150 NA
BRANCH  14  19
ATOM     19  O   UNL A   1      31.004  21.671  26.175  1.00  0.00    -0.493 OA
ATOM     20  H   UNL A   1      30.480  22.408  25.931  1.00  0.00     0.295 HD
ENDBRANCH  14  19
ENDBRANCH   8   9
ENDBRANCH   7   8
ENDBRANCH   5   7
ENDBRANCH   4   5
ENDBRANCH   3   4
ENDBRANCH   2   3
ENDBRANCH   1   2
BRANCH   1  21
ATOM     21  C   UNL A   1      32.658  30.422  25.903  1.00  0.00     0.202 C 
BRANCH  21  22
ATOM     22  C   UNL A   1      33.221  30.782  27.271  1.00  0.00     0.261 C 
BRANCH  22  23
ATOM     23  O   UNL A   1      34.617  30.498  27.316  1.00  0.00    -0.460 OA
BRANCH  23  24
ATOM     24  C   UNL A   1      35.406  31.501  27.790  1.00  0.00     0.338 C 
ATOM     25  O   UNL A   1      35.280  32.684  27.585  1.00  0.00    -0.246 OA
BRANCH  24  26
ATOM     26  C   UNL A   1      36.525  30.877  28.520  1.00  0.00     0.060 A 
ATOM     27  C   UNL A   1      37.475  31.723  29.092  1.00  0.00     0.016 A 
ATOM     28  C   UNL A   1      36.719  29.486  28.459  1.00  0.00     0.016 A 
ATOM     29  C   UNL A   1      38.710  31.197  29.410  1.00  0.00     0.010 A 
ATOM     30  C   UNL A   1      37.927  28.956  28.815  1.00  0.00     0.010 A 
ATOM     31  C   UNL A   1      38.938  29.838  29.168  1.00  0.00    -0.014 A 
BRANCH  31  32
ATOM     32  C   UNL A   1      40.275  29.307  29.295  1.00  0.00     0.031 A 
ATOM     33  C   UNL A   1      40.712  29.199  30.704  1.00  0.00     0.074 A 
ATOM     34  C   UNL A   1      40.926  28.842  28.207  1.00  0.00     0.049 A 
ATOM     35  N   UNL A   1      41.648  29.863  31.294  1.00  0.00    -0.248 NA
ATOM     36  C   UNL A   1      39.875  28.399  31.620  1.00  0.00     0.031 C 
ATOM     37  C   UNL A   1      40.409  28.688  26.839  1.00  0.00     0.029 A 
ATOM     38  N   UNL A   1      42.170  28.307  28.109  1.00  0.00    -0.354 N 
ATOM     39  C   UNL A   1      41.686  29.361  32.590  1.00  0.00     0.074 A 
ATOM     40  C   UNL A   1      40.453  28.650  32.796  1.00  0.00     0.031 C 
ATOM     41  C   UNL A   1      41.242  27.894  26.125  1.00  0.00     0.029 A 
ATOM     42  C   UNL A   1      42.414  27.606  26.928  1.00  0.00     0.049 A 
ATOM     43  H   UNL A   1      42.848  28.406  28.816  1.00  0.00     0.167 HD
ATOM     44  C   UNL A   1      42.855  29.308  33.282  1.00  0.00     0.037 A 
ATOM     45  C   UNL A   1      43.486  26.803  26.686  1.00  0.00     0.037 A 
ATOM     46  C   UNL A   1      43.842  30.186  32.711  1.00  0.00     0.049 A 
ATOM     47  C   UNL A   1      44.527  27.195  27.675  1.00  0.00     0.074 A 
ATOM     48  C   UNL A   1      43.933  31.550  32.522  1.00  0.00     0.029 A 
ATOM     49  N   UNL A   1      44.755  29.620  31.856  1.00  0.00    -0.354 N 
ATOM     50  N   UNL A   1      45.115  28.361  27.690  1.00  0.00    -0.248 NA
ATOM     51  C   UNL A   1      44.571  26.458  28.927  1.00  0.00     0.031 C 
ATOM     52  C   UNL A   1      44.577  31.714  31.261  1.00  0.00     0.029 A 
ATOM     53  C   UNL A   1      44.913  30.449  30.774  1.00  0.00     0.049 A 
ATOM     54  H   UNL A   1      45.218  28.763  31.995  1.00  0.00     0.167 HD
ATOM     55  C   UNL A   1      45.228  28.685  29.035  1.00  0.00     0.074 A 
ATOM     56  C   UNL A   1      44.949  27.440  29.748  1.00  0.00     0.031 C 
ATOM     57  C   UNL A   1      45.254  29.990  29.442  1.00  0.00     0.037 A 
BRANCH  44  58
ATOM     58  C   UNL A   1      43.198  28.171  34.207  1.00  0.00     0.058 A 
ATOM     59  C   UNL A   1      43.506  28.430  35.554  1.00  0.00     0.135 A 
ATOM     60  C   UNL A   1      43.477  26.857  33.757  1.00  0.00     0.135 A 
ATOM     61  F   UNL A   1      43.330  29.657  36.069  1.00  0.00    -0.206 F 
ATOM     62  C   UNL A   1      44.059  27.457  36.390  1.00  0.00     0.059 A 
ATOM     63  C   UNL A   1      43.967  25.858  34.587  1.00  0.00     0.059 A 
ATOM     64  F   UNL A   1      43.377  26.509  32.468  1.00  0.00    -0.206 F 
ATOM     65  C   UNL A   1      44.282  26.173  35.895  1.00  0.00     0.060 A 
BRANCH  65  66
ATOM     66  S   UNL A   1      45.033  24.931  36.960  1.00  0.00     0.124 S 
ATOM     67  O   UNL A   1      44.147  24.963  38.118  1.00  0.00    -0.237 OA
ATOM     68  O   UNL A   1      44.957  23.736  36.128  1.00  0.00    -0.237 OA
ATOM     69  O   UNL A   1      46.381  25.447  37.183  1.00  0.00    -0.744 OA
ENDBRANCH  65  66
ENDBRANCH  44  58
BRANCH  45  70
ATOM     70  C   UNL A   1      43.526  25.475  26.004  1.00  0.00     0.058 A 
ATOM     71  C   UNL A   1      44.576  25.160  25.118  1.00  0.00     0.135 A 
ATOM     72  C   UNL A   1      42.748  24.388  26.447  1.00  0.00     0.135 A 
ATOM     73  F   UNL A   1      45.371  26.132  24.644  1.00  0.00    -0.206 F 
ATOM     74  C   UNL A   1      44.895  23.843  24.769  1.00  0.00     0.059 A 
ATOM     75  C   UNL A   1      43.041  23.067  26.105  1.00  0.00     0.059 A 
ATOM     76  F   UNL A   1      41.736  24.565  27.308  1.00  0.00    -0.206 F 
ATOM     77  C   UNL A   1      44.140  22.798  25.296  1.00  0.00     0.060 A 
BRANCH  77  78
ATOM     78  S   UNL A   1      44.677  21.091  25.026  1.00  0.00     0.124 S 
ATOM     79  O   UNL A   1      44.649  20.990  23.571  1.00  0.00    -0.237 OA
ATOM     80  O   UNL A   1      45.999  21.085  25.641  1.00  0.00    -0.237 OA
ATOM     81  O   UNL A   1      43.664  20.303  25.724  1.00  0.00    -0.744 OA
ENDBRANCH  77  78
ENDBRANCH  45  70
BRANCH  57  82
ATOM     82  C   UNL A   1      45.472  31.054  28.391  1.00  0.00     0.058 A 
ATOM     83  C   UNL A   1      44.460  31.633  27.603  1.00  0.00     0.135 A 
ATOM     84  C   UNL A   1      46.755  31.611  28.289  1.00  0.00     0.135 A 
ATOM     85  F   UNL A   1      43.188  31.220  27.701  1.00  0.00    -0.206 F 
ATOM     86  C   UNL A   1      44.720  32.699  26.735  1.00  0.00     0.059 A 
ATOM     87  C   UNL A   1      47.031  32.692  27.455  1.00  0.00     0.059 A 
ATOM     88  F   UNL A   1      47.754  31.138  29.052  1.00  0.00    -0.206 F 
ATOM     89  C   UNL A   1      46.010  33.226  26.672  1.00  0.00     0.060 A 
BRANCH  89  90
ATOM     90  S   UNL A   1      46.338  34.648  25.606  1.00  0.00     0.124 S 
ATOM     91  O   UNL A   1      47.753  34.480  25.293  1.00  0.00    -0.237 OA
ATOM     92  O   UNL A   1      45.413  34.431  24.498  1.00  0.00    -0.237 OA
ATOM     93  O   UNL A   1      46.021  35.793  26.457  1.00  0.00    -0.744 OA
ENDBRANCH  89  90
ENDBRANCH  57  82
ENDBRANCH  31  32
ENDBRANCH  24  26
ENDBRANCH  23  24
ENDBRANCH  22  23
ENDBRANCH  21  22
ENDBRANCH   1  21
TORSDOF 20
ENDMDL
MODEL 3
REMARK VINA RESULT:     -10.5      4.760     11.627
REMARK SMILES Cc1nc2ncnn2c(O)c1CCC(=O)OCCOCCOC(=O)c1ccc(-c2c3nc(c(-c4c(F)cc(S(=O)(=O)[O-])cc4F)c4ccc([nH]4)c(-c4c(F)cc(S(=O)(=O)[O-])cc4F)c4nc(c(-c5c(F)cc(S(=O)(=O)[O-])cc5F)c5ccc2[nH]5)C=C4)C=C3)cc1
REMARK SMILES IDX 19 1 18 2 17 3 16 4 14 5 15 6 13 7 12 8 11 9 1 10 2 11 3 12
REMARK SMILES IDX 4 13 9 14 5 15 8 16 6 17 7 18 10 19 20 21 21 22 22 23 23 24
REMARK SMILES IDX 24 25 25 26 26 27 90 28 27 29 89 30 28 31 29 32 30 33 83 34
REMARK SMILES IDX 31 35 88 36 82 37 84 38 32 39 87 40 81 41 80 42 33 44 67 45
REMARK SMILES IDX 46 46 66 47 47 48 50 49 65 50 85 51 48 52 49 53 64 55 86 56
REMARK SMILES IDX 51 57 34 58 35 59 44 60 36 61 37 62 43 63 45 64 38 65 39 66
REMARK SMILES IDX 40 67 41 68 42 69 68 70 69 71 78 72 70 73 71 74 77 75 79 76
REMARK SMILES IDX 72 77 73 78 74 79 75 80 76 81 52 82 53 83 62 84 54 85 55 86
REMARK SMILES IDX 61 87 63 88 56 89 57 90 58 91 59 92 60 93
REMARK H PARENT 10 20 84 43 50 54
REMARK Flexibility Score: inf
ROOT
ATOM      1  O   UNL A   1      33.634  34.516  30.630  1.00  0.00    -0.374 OA
ENDROOT
BRANCH   1   2
ATOM      2  C   UNL A   1      34.398  34.420  31.834  1.00  0.00     0.202 C 
BRANCH   2   3
ATOM      3  C   UNL A   1      34.088  33.192  32.707  1.00  0.00     0.261 C 
BRANCH   3   4
ATOM      4  O   UNL A   1      35.234  32.336  32.924  1.00  0.00    -0.463 OA
BRANCH   4   5
ATOM      5  C   UNL A   1      36.266  32.795  33.662  1.00  0.00     0.306 C 
ATOM      6  O   UNL A   1      36.189  33.142  34.834  1.00  0.00    -0.252 OA
BRANCH   5   7
ATOM      7  C   UNL A   1      37.562  32.844  32.867  1.00  0.00     0.128 C 
BRANCH   7   8
ATOM      8  C   UNL A   1      38.245  34.217  32.684  1.00  0.00     0.055 C 
BRANCH   8   9
ATOM      9  C   UNL A   1      39.486  34.244  31.812  1.00  0.00     0.036 A 
ATOM     10  C   UNL A   1      40.981  32.928  33.534  1.00  0.00     0.067 C 
ATOM     11  C   UNL A   1      40.852  33.751  32.267  1.00  0.00     0.050 A 
ATOM     12  N   UNL A   1      41.970  33.920  31.621  1.00  0.00    -0.216 NA
ATOM     13  C   UNL A   1      41.908  34.511  30.397  1.00  0.00     0.255 A 
ATOM     14  C   UNL A   1      39.492  34.673  30.531  1.00  0.00     0.220 A 
ATOM     15  N   UNL A   1      42.870  34.808  29.550  1.00  0.00    -0.197 NA
ATOM     16  N   UNL A   1      40.687  34.848  29.829  1.00  0.00    -0.163 N 
ATOM     17  C   UNL A   1      42.202  35.306  28.472  1.00  0.00     0.249 A 
ATOM     18  N   UNL A   1      40.879  35.362  28.588  1.00  0.00    -0.150 NA
BRANCH  14  19
ATOM     19  O   UNL A   1      38.347  35.005  29.853  1.00  0.00    -0.493 OA
ATOM     20  H   UNL A   1      37.520  34.986  30.293  1.00  0.00     0.295 HD
ENDBRANCH  14  19
ENDBRANCH   8   9
ENDBRANCH   7   8
ENDBRANCH   5   7
ENDBRANCH   4   5
ENDBRANCH   3   4
ENDBRANCH   2   3
ENDBRANCH   1   2
BRANCH   1  21
ATOM     21  C   UNL A   1      34.337  34.542  29.394  1.00  0.00     0.202 C 
BRANCH  21  22
ATOM     22  C   UNL A   1      34.184  33.304  28.520  1.00  0.00     0.261 C 
BRANCH  22  23
ATOM     23  O   UNL A   1      34.746  32.170  29.177  1.00  0.00    -0.460 OA
BRANCH  23  24
ATOM     24  C   UNL A   1      35.327  31.247  28.362  1.00  0.00     0.338 C 
ATOM     25  O   UNL A   1      34.905  30.843  27.305  1.00  0.00    -0.246 OA
BRANCH  24  26
ATOM     26  C   UNL A   1      36.525  30.738  29.053  1.00  0.00     0.060 A 
ATOM     27  C   UNL A   1      37.541  31.649  29.343  1.00  0.00     0.016 A 
ATOM     28  C   UNL A   1      36.706  29.355  29.225  1.00  0.00     0.016 A 
ATOM     29  C   UNL A   1      38.804  31.158  29.599  1.00  0.00     0.010 A 
ATOM     30  C   UNL A   1      37.946  28.868  29.523  1.00  0.00     0.010 A 
ATOM     31  C   UNL A   1      38.997  29.773  29.585  1.00  0.00    -0.014 A 
BRANCH  31  32
ATOM     32  C   UNL A   1      40.337  29.240  29.644  1.00  0.00     0.031 A 
ATOM     33  C   UNL A   1      40.837  29.114  31.031  1.00  0.00     0.074 A 
ATOM     34  C   UNL A   1      40.937  28.787  28.522  1.00  0.00     0.049 A 
ATOM     35  N   UNL A   1      41.800  29.770  31.585  1.00  0.00    -0.248 NA
ATOM     36  C   UNL A   1      40.042  28.304  31.974  1.00  0.00     0.031 C 
ATOM     37  C   UNL A   1      40.359  28.650  27.177  1.00  0.00     0.029 A 
ATOM     38  N   UNL A   1      42.175  28.253  28.361  1.00  0.00    -0.354 N 
ATOM     39  C   UNL A   1      41.896  29.253  32.872  1.00  0.00     0.074 A 
ATOM     40  C   UNL A   1      40.673  28.540  33.125  1.00  0.00     0.031 C 
ATOM     41  C   UNL A   1      41.157  27.865  26.416  1.00  0.00     0.029 A 
ATOM     42  C   UNL A   1      42.364  27.565  27.161  1.00  0.00     0.049 A 
ATOM     43  H   UNL A   1      42.884  28.343  29.038  1.00  0.00     0.167 HD
ATOM     44  C   UNL A   1      43.095  29.190  33.509  1.00  0.00     0.037 A 
ATOM     45  C   UNL A   1      43.423  26.766  26.862  1.00  0.00     0.037 A 
ATOM     46  C   UNL A   1      44.057  30.075  32.905  1.00  0.00     0.049 A 
ATOM     47  C   UNL A   1      44.508  27.145  27.807  1.00  0.00     0.074 A 
ATOM     48  C   UNL A   1      44.140  31.441  32.728  1.00  0.00     0.029 A 
ATOM     49  N   UNL A   1      44.929  29.519  32.002  1.00  0.00    -0.354 N 
ATOM     50  N   UNL A   1      45.097  28.310  27.809  1.00  0.00    -0.248 NA
ATOM     51  C   UNL A   1      44.608  26.392  29.047  1.00  0.00     0.031 C 
ATOM     52  C   UNL A   1      44.727  31.619  31.442  1.00  0.00     0.029 A 
ATOM     53  C   UNL A   1      45.039  30.361  30.924  1.00  0.00     0.049 A 
ATOM     54  H   UNL A   1      45.397  28.660  32.110  1.00  0.00     0.167 HD
ATOM     55  C   UNL A   1      45.273  28.618  29.152  1.00  0.00     0.074 A 
ATOM     56  C   UNL A   1      45.024  27.365  29.862  1.00  0.00     0.031 C 
ATOM     57  C   UNL A   1      45.318  29.917  29.572  1.00  0.00     0.037 A 
BRANCH  44  58
ATOM     58  C   UNL A   1      43.479  28.042  34.404  1.00  0.00     0.058 A 
ATOM     59  C   UNL A   1      43.861  28.286  35.735  1.00  0.00     0.135 A 
ATOM     60  C   UNL A   1      43.724  26.731  33.927  1.00  0.00     0.135 A 
ATOM     61  F   UNL A   1      43.721  29.509  36.270  1.00  0.00    -0.206 F 
ATOM     62  C   UNL A   1      44.450  27.302  36.531  1.00  0.00     0.059 A 
ATOM     63  C   UNL A   1      44.250  25.721  34.720  1.00  0.00     0.059 A 
ATOM     64  F   UNL A   1      43.553  26.396  32.642  1.00  0.00    -0.206 F 
ATOM     65  C   UNL A   1      44.637  26.021  36.013  1.00  0.00     0.060 A 
BRANCH  65  66
ATOM     66  S   UNL A   1      45.434  24.764  37.025  1.00  0.00     0.124 S 
ATOM     67  O   UNL A   1      44.694  24.881  38.276  1.00  0.00    -0.237 OA
ATOM     68  O   UNL A   1      45.191  23.553  36.247  1.00  0.00    -0.237 OA
ATOM     69  O   UNL A   1      46.826  25.201  37.072  1.00  0.00    -0.744 OA
ENDBRANCH  65  66
ENDBRANCH  44  58
BRANCH  45  70
ATOM     70  C   UNL A   1      43.430  25.446  26.163  1.00  0.00     0.058 A 
ATOM     71  C   UNL A   1      44.417  25.155  25.199  1.00  0.00     0.135 A 
ATOM     72  C   UNL A   1      42.702  24.343  26.649  1.00  0.00     0.135 A 
ATOM     73  F   UNL A   1      45.161  26.144  24.678  1.00  0.00    -0.206 F 
ATOM     74  C   UNL A   1      44.726  23.847  24.811  1.00  0.00     0.059 A 
ATOM     75  C   UNL A   1      42.986  23.029  26.270  1.00  0.00     0.059 A 
ATOM     76  F   UNL A   1      41.754  24.496  27.584  1.00  0.00    -0.206 F 
ATOM     77  C   UNL A   1      44.026  22.785  25.379  1.00  0.00     0.060 A 
BRANCH  77  78
ATOM     78  S   UNL A   1      44.565  21.089  25.050  1.00  0.00     0.124 S 
ATOM     79  O   UNL A   1      45.907  21.081  25.620  1.00  0.00    -0.237 OA
ATOM     80  O   UNL A   1      43.563  20.305  25.763  1.00  0.00    -0.237 OA
ATOM     81  O   UNL A   1      44.506  20.993  23.593  1.00  0.00    -0.744 OA
ENDBRANCH  77  78
ENDBRANCH  45  70
BRANCH  57  82
ATOM     82  C   UNL A   1      45.489  30.994  28.526  1.00  0.00     0.058 A 
ATOM     83  C   UNL A   1      44.437  31.664  27.874  1.00  0.00     0.135 A 
ATOM     84  C   UNL A   1      46.789  31.464  28.286  1.00  0.00     0.135 A 
ATOM     85  F   UNL A   1      43.159  31.337  28.112  1.00  0.00    -0.206 F 
ATOM     86  C   UNL A   1      44.672  32.734  27.004  1.00  0.00     0.059 A 
ATOM     87  C   UNL A   1      47.043  32.547  27.448  1.00  0.00     0.059 A 
ATOM     88  F   UNL A   1      47.832  30.901  28.916  1.00  0.00    -0.206 F 
ATOM     89  C   UNL A   1      45.981  33.172  26.801  1.00  0.00     0.060 A 
BRANCH  89  90
ATOM     90  S   UNL A   1      46.284  34.599  25.734  1.00  0.00     0.124 S 
ATOM     91  O   UNL A   1      47.693  34.435  25.392  1.00  0.00    -0.237 OA
ATOM     92  O   UNL A   1      45.338  34.384  24.643  1.00  0.00    -0.237 OA
ATOM     93  O   UNL A   1      45.982  35.740  26.595  1.00  0.00    -0.744 OA
ENDBRANCH  89  90
ENDBRANCH  57  82
ENDBRANCH  31  32
ENDBRANCH  24  26
ENDBRANCH  23  24
ENDBRANCH  22  23
ENDBRANCH  21  22
ENDBRANCH   1  21
TORSDOF 20
ENDMDL
