MODEL 1
REMARK VINA RESULT:     -10.6      0.000      0.000
REMARK SMILES CN(C(=O)N1CCC(C(=O)OCCOCCOC(=O)c2ccc(-c3c4nc(c(-c5c(F)cc(S(=O)(=O)[O-])cc5F)c5ccc([nH]5)c(-c5c(F)cc(S(=O)(=O)[O-])cc5F)c5nc(c(-c6c(F)cc(S(=O)(=O)[O-])cc6F)c6ccc3[nH]6)C=C5)C=C4)cc2)CC1)[C@H]1CCSC1
REMARK SMILES IDX 15 1 14 2 13 3 12 4 11 5 9 6 10 7 8 8 3 9 4 10 5 11 6 12
REMARK SMILES IDX 87 13 7 14 86 15 2 16 1 17 88 18 89 19 92 20 90 21 91 22
REMARK SMILES IDX 16 23 17 24 18 25 19 26 20 27 21 28 85 29 22 30 84 31 23 32
REMARK SMILES IDX 24 33 25 34 78 35 26 36 83 37 77 38 79 39 27 40 82 41 76 42
REMARK SMILES IDX 75 43 28 45 62 46 41 47 61 48 42 49 45 50 60 51 80 52 43 53
REMARK SMILES IDX 44 54 59 56 81 57 46 58 29 59 30 60 39 61 31 62 32 63 38 64
REMARK SMILES IDX 40 65 33 66 34 67 35 68 36 69 37 70 63 71 64 72 73 73 65 74
REMARK SMILES IDX 66 75 72 76 74 77 67 78 68 79 69 80 70 81 71 82 47 83 48 84
REMARK SMILES IDX 57 85 49 86 50 87 56 88 58 89 51 90 52 91 53 92 54 93 55 94
REMARK H PARENT 79 44 45 55
REMARK Flexibility Score: inf
ROOT
ATOM      1  C   UNL A   1      33.886  31.542  27.612  1.00  0.00     0.202 C 
ENDROOT
BRANCH   1   2
ATOM      2  O   UNL A   1      33.218  30.312  27.335  1.00  0.00    -0.374 OA
BRANCH   2   3
ATOM      3  C   UNL A   1      32.007  30.377  26.585  1.00  0.00     0.202 C 
BRANCH   3   4
ATOM      4  C   UNL A   1      31.949  29.560  25.292  1.00  0.00     0.261 C 
BRANCH   4   5
ATOM      5  O   UNL A   1      31.675  28.171  25.544  1.00  0.00    -0.463 OA
BRANCH   5   6
ATOM      6  C   UNL A   1      30.891  27.556  24.626  1.00  0.00     0.309 C 
ATOM      7  O   UNL A   1      30.104  28.117  23.873  1.00  0.00    -0.252 OA
BRANCH   6   8
ATOM      8  C   UNL A   1      31.050  26.054  24.627  1.00  0.00     0.103 C 
ATOM      9  C   UNL A   1      33.229  22.789  23.516  1.00  0.00     0.320 C 
ATOM     10  O   UNL A   1      33.326  22.962  22.302  1.00  0.00    -0.248 OA
ATOM     11  N   UNL A   1      32.248  23.473  24.210  1.00  0.00    -0.325 N 
ATOM     12  C   UNL A   1      31.039  23.845  23.480  1.00  0.00     0.122 C 
ATOM     13  C   UNL A   1      32.481  24.179  25.471  1.00  0.00     0.122 C 
ATOM     14  C   UNL A   1      30.950  25.354  23.269  1.00  0.00     0.037 C 
ATOM     15  C   UNL A   1      32.372  25.690  25.300  1.00  0.00     0.037 C 
BRANCH   9  16
ATOM     16  N   UNL A   1      34.014  21.876  24.214  1.00  0.00    -0.324 N 
ATOM     17  C   UNL A   1      33.460  20.694  24.873  1.00  0.00     0.149 C 
BRANCH  16  18
ATOM     18  C   UNL A   1      35.489  22.075  24.355  1.00  0.00     0.097 C 
ATOM     19  C   UNL A   1      35.851  23.415  25.023  1.00  0.00     0.037 C 
ATOM     20  C   UNL A   1      36.288  21.039  25.170  1.00  0.00     0.094 C 
ATOM     21  C   UNL A   1      37.360  23.485  25.169  1.00  0.00     0.072 C 
ATOM     22  S   UNL A   1      37.899  21.805  25.528  1.00  0.00    -0.160 SA
ENDBRANCH  16  18
ENDBRANCH   9  16
ENDBRANCH   6   8
ENDBRANCH   5   6
ENDBRANCH   4   5
ENDBRANCH   3   4
ENDBRANCH   2   3
ENDBRANCH   1   2
BRANCH   1  23
ATOM     23  C   UNL A   1      35.063  31.497  28.596  1.00  0.00     0.261 C 
BRANCH  23  24
ATOM     24  O   UNL A   1      35.683  30.201  28.655  1.00  0.00    -0.460 OA
BRANCH  24  25
ATOM     25  C   UNL A   1      36.388  29.959  29.786  1.00  0.00     0.338 C 
ATOM     26  O   UNL A   1      35.935  29.681  30.889  1.00  0.00    -0.246 OA
BRANCH  25  27
ATOM     27  C   UNL A   1      37.828  29.880  29.484  1.00  0.00     0.060 A 
ATOM     28  C   UNL A   1      38.204  29.697  28.146  1.00  0.00     0.016 A 
ATOM     29  C   UNL A   1      38.790  29.900  30.495  1.00  0.00     0.016 A 
ATOM     30  C   UNL A   1      39.540  29.481  27.817  1.00  0.00     0.010 A 
ATOM     31  C   UNL A   1      40.129  29.670  30.165  1.00  0.00     0.010 A 
ATOM     32  C   UNL A   1      40.504  29.423  28.831  1.00  0.00    -0.014 A 
BRANCH  32  33
ATOM     33  C   UNL A   1      41.871  28.937  28.526  1.00  0.00     0.031 A 
ATOM     34  C   UNL A   1      42.993  29.937  28.466  1.00  0.00     0.074 A 
ATOM     35  C   UNL A   1      42.110  27.634  28.301  1.00  0.00     0.049 A 
ATOM     36  N   UNL A   1      44.237  29.767  28.107  1.00  0.00    -0.248 NA
ATOM     37  C   UNL A   1      42.660  31.315  28.861  1.00  0.00     0.031 C 
ATOM     38  C   UNL A   1      41.112  26.569  28.376  1.00  0.00     0.029 A 
ATOM     39  N   UNL A   1      43.266  26.991  27.936  1.00  0.00    -0.354 N 
ATOM     40  C   UNL A   1      44.835  31.017  28.219  1.00  0.00     0.074 A 
ATOM     41  C   UNL A   1      43.811  31.940  28.656  1.00  0.00     0.031 C 
ATOM     42  C   UNL A   1      41.692  25.407  28.032  1.00  0.00     0.029 A 
ATOM     43  C   UNL A   1      43.089  25.653  27.676  1.00  0.00     0.049 A 
ATOM     44  H   UNL A   1      44.137  27.443  27.868  1.00  0.00     0.167 HD
ATOM     45  C   UNL A   1      46.124  31.362  27.982  1.00  0.00     0.037 A 
ATOM     46  C   UNL A   1      43.945  24.742  27.170  1.00  0.00     0.037 A 
ATOM     47  C   UNL A   1      47.132  30.438  27.535  1.00  0.00     0.049 A 
ATOM     48  C   UNL A   1      45.355  25.157  26.843  1.00  0.00     0.074 A 
ATOM     49  C   UNL A   1      48.466  30.684  27.265  1.00  0.00     0.029 A 
ATOM     50  N   UNL A   1      46.914  29.092  27.282  1.00  0.00    -0.354 N 
ATOM     51  N   UNL A   1      45.915  26.338  26.963  1.00  0.00    -0.248 NA
ATOM     52  C   UNL A   1      46.252  24.120  26.313  1.00  0.00     0.031 C 
ATOM     53  C   UNL A   1      49.044  29.496  26.807  1.00  0.00     0.029 A 
ATOM     54  C   UNL A   1      48.083  28.496  26.842  1.00  0.00     0.049 A 
ATOM     55  H   UNL A   1      46.053  28.628  27.399  1.00  0.00     0.167 HD
ATOM     56  C   UNL A   1      47.234  26.180  26.549  1.00  0.00     0.074 A 
ATOM     57  C   UNL A   1      47.390  24.790  26.176  1.00  0.00     0.031 C 
ATOM     58  C   UNL A   1      48.225  27.104  26.490  1.00  0.00     0.037 A 
BRANCH  45  59
ATOM     59  C   UNL A   1      46.496  32.808  28.167  1.00  0.00     0.058 A 
ATOM     60  C   UNL A   1      46.990  33.292  29.388  1.00  0.00     0.135 A 
ATOM     61  C   UNL A   1      46.349  33.721  27.112  1.00  0.00     0.135 A 
ATOM     62  F   UNL A   1      47.134  32.465  30.436  1.00  0.00    -0.206 F 
ATOM     63  C   UNL A   1      47.286  34.640  29.570  1.00  0.00     0.059 A 
ATOM     64  C   UNL A   1      46.665  35.068  27.262  1.00  0.00     0.059 A 
ATOM     65  F   UNL A   1      45.882  33.312  25.922  1.00  0.00    -0.206 F 
ATOM     66  C   UNL A   1      47.112  35.522  28.502  1.00  0.00     0.060 A 
BRANCH  66  67
ATOM     67  S   UNL A   1      47.469  37.273  28.761  1.00  0.00     0.124 S 
ATOM     68  O   UNL A   1      48.403  37.216  29.882  1.00  0.00    -0.237 OA
ATOM     69  O   UNL A   1      48.044  37.669  27.479  1.00  0.00    -0.237 OA
ATOM     70  O   UNL A   1      46.162  37.846  29.062  1.00  0.00    -0.744 OA
ENDBRANCH  66  67
ENDBRANCH  45  59
BRANCH  46  71
ATOM     71  C   UNL A   1      43.469  23.357  26.916  1.00  0.00     0.058 A 
ATOM     72  C   UNL A   1      43.254  22.887  25.613  1.00  0.00     0.135 A 
ATOM     73  C   UNL A   1      43.262  22.460  27.977  1.00  0.00     0.135 A 
ATOM     74  F   UNL A   1      43.426  23.710  24.567  1.00  0.00    -0.206 F 
ATOM     75  C   UNL A   1      42.855  21.576  25.368  1.00  0.00     0.059 A 
ATOM     76  C   UNL A   1      42.887  21.138  27.756  1.00  0.00     0.059 A 
ATOM     77  F   UNL A   1      43.464  22.859  29.242  1.00  0.00    -0.206 F 
ATOM     78  C   UNL A   1      42.684  20.707  26.447  1.00  0.00     0.060 A 
BRANCH  78  79
ATOM     79  S   UNL A   1      42.250  18.984  26.113  1.00  0.00     0.124 S 
ATOM     80  O   UNL A   1      43.160  18.658  25.021  1.00  0.00    -0.237 OA
ATOM     81  O   UNL A   1      42.532  18.344  27.393  1.00  0.00    -0.237 OA
ATOM     82  O   UNL A   1      40.835  19.058  25.757  1.00  0.00    -0.744 OA
ENDBRANCH  78  79
ENDBRANCH  46  71
BRANCH  58  83
ATOM     83  C   UNL A   1      49.589  26.648  26.048  1.00  0.00     0.058 A 
ATOM     84  C   UNL A   1      50.082  26.931  24.766  1.00  0.00     0.135 A 
ATOM     85  C   UNL A   1      50.451  26.016  26.960  1.00  0.00     0.135 A 
ATOM     86  F   UNL A   1      49.297  27.525  23.855  1.00  0.00    -0.206 F 
ATOM     87  C   UNL A   1      51.386  26.607  24.404  1.00  0.00     0.059 A 
ATOM     88  C   UNL A   1      51.764  25.704  26.627  1.00  0.00     0.059 A 
ATOM     89  F   UNL A   1      50.028  25.730  28.202  1.00  0.00    -0.206 F 
ATOM     90  C   UNL A   1      52.223  26.003  25.345  1.00  0.00     0.060 A 
BRANCH  90  91
ATOM     91  S   UNL A   1      53.937  25.663  24.889  1.00  0.00     0.124 S 
ATOM     92  O   UNL A   1      54.019  24.221  25.099  1.00  0.00    -0.237 OA
ATOM     93  O   UNL A   1      53.985  26.105  23.499  1.00  0.00    -0.237 OA
ATOM     94  O   UNL A   1      54.707  26.477  25.825  1.00  0.00    -0.744 OA
ENDBRANCH  90  91
ENDBRANCH  58  83
ENDBRANCH  32  33
ENDBRANCH  25  27
ENDBRANCH  24  25
ENDBRANCH  23  24
ENDBRANCH   1  23
TORSDOF 19
ENDMDL
MODEL 2
REMARK VINA RESULT:     -10.6      2.650      3.415
REMARK SMILES CN(C(=O)N1CCC(C(=O)OCCOCCOC(=O)c2ccc(-c3c4nc(c(-c5c(F)cc(S(=O)(=O)[O-])cc5F)c5ccc([nH]5)c(-c5c(F)cc(S(=O)(=O)[O-])cc5F)c5nc(c(-c6c(F)cc(S(=O)(=O)[O-])cc6F)c6ccc3[nH]6)C=C5)C=C4)cc2)CC1)[C@H]1CCSC1
REMARK SMILES IDX 15 1 14 2 13 3 12 4 11 5 9 6 10 7 8 8 3 9 4 10 5 11 6 12
REMARK SMILES IDX 87 13 7 14 86 15 2 16 1 17 88 18 89 19 92 20 90 21 91 22
REMARK SMILES IDX 16 23 17 24 18 25 19 26 20 27 21 28 85 29 22 30 84 31 23 32
REMARK SMILES IDX 24 33 25 34 78 35 26 36 83 37 77 38 79 39 27 40 82 41 76 42
REMARK SMILES IDX 75 43 28 45 62 46 41 47 61 48 42 49 45 50 60 51 80 52 43 53
REMARK SMILES IDX 44 54 59 56 81 57 46 58 29 59 30 60 39 61 31 62 32 63 38 64
REMARK SMILES IDX 40 65 33 66 34 67 35 68 36 69 37 70 63 71 64 72 73 73 65 74
REMARK SMILES IDX 66 75 72 76 74 77 67 78 68 79 69 80 70 81 71 82 47 83 48 84
REMARK SMILES IDX 57 85 49 86 50 87 56 88 58 89 51 90 52 91 53 92 54 93 55 94
REMARK H PARENT 79 44 45 55
REMARK Flexibility Score: inf
ROOT
ATOM      1  C   UNL A   1      32.902  30.201  25.668  1.00  0.00     0.202 C 
ENDROOT
BRANCH   1   2
ATOM      2  O   UNL A   1      33.514  28.964  25.303  1.00  0.00    -0.374 OA
BRANCH   2   3
ATOM      3  C   UNL A   1      33.210  28.437  24.013  1.00  0.00     0.202 C 
BRANCH   3   4
ATOM      4  C   UNL A   1      31.796  28.685  23.481  1.00  0.00     0.261 C 
BRANCH   4   5
ATOM      5  O   UNL A   1      31.031  27.470  23.401  1.00  0.00    -0.463 OA
BRANCH   5   6
ATOM      6  C   UNL A   1      30.910  26.781  24.562  1.00  0.00     0.309 C 
ATOM      7  O   UNL A   1      30.488  27.236  25.619  1.00  0.00    -0.252 OA
BRANCH   6   8
ATOM      8  C   UNL A   1      31.386  25.351  24.451  1.00  0.00     0.103 C 
ATOM      9  C   UNL A   1      34.405  22.754  23.567  1.00  0.00     0.320 C 
ATOM     10  O   UNL A   1      34.716  23.118  22.434  1.00  0.00    -0.248 OA
ATOM     11  N   UNL A   1      33.175  23.132  24.074  1.00  0.00    -0.325 N 
ATOM     12  C   UNL A   1      32.096  23.372  23.119  1.00  0.00     0.122 C 
ATOM     13  C   UNL A   1      32.978  23.677  25.417  1.00  0.00     0.122 C 
ATOM     14  C   UNL A   1      31.730  24.852  23.044  1.00  0.00     0.037 C 
ATOM     15  C   UNL A   1      32.582  25.149  25.377  1.00  0.00     0.037 C 
BRANCH   9  16
ATOM     16  N   UNL A   1      35.204  21.912  24.337  1.00  0.00    -0.324 N 
ATOM     17  C   UNL A   1      34.731  20.634  24.864  1.00  0.00     0.149 C 
BRANCH  16  18
ATOM     18  C   UNL A   1      36.604  22.294  24.696  1.00  0.00     0.097 C 
ATOM     19  C   UNL A   1      36.667  23.411  25.755  1.00  0.00     0.037 C 
ATOM     20  C   UNL A   1      37.530  21.203  25.267  1.00  0.00     0.094 C 
ATOM     21  C   UNL A   1      38.125  23.674  26.086  1.00  0.00     0.072 C 
ATOM     22  S   UNL A   1      38.945  22.073  26.011  1.00  0.00    -0.160 SA
ENDBRANCH  16  18
ENDBRANCH   9  16
ENDBRANCH   6   8
ENDBRANCH   5   6
ENDBRANCH   4   5
ENDBRANCH   3   4
ENDBRANCH   2   3
ENDBRANCH   1   2
BRANCH   1  23
ATOM     23  C   UNL A   1      32.558  30.405  27.149  1.00  0.00     0.261 C 
BRANCH  23  24
ATOM     24  O   UNL A   1      33.621  29.992  28.025  1.00  0.00    -0.460 OA
BRANCH  24  25
ATOM     25  C   UNL A   1      34.630  30.885  28.156  1.00  0.00     0.338 C 
ATOM     26  O   UNL A   1      34.525  32.095  28.310  1.00  0.00    -0.246 OA
BRANCH  25  27
ATOM     27  C   UNL A   1      35.919  30.184  28.286  1.00  0.00     0.060 A 
ATOM     28  C   UNL A   1      36.249  29.655  29.541  1.00  0.00     0.016 A 
ATOM     29  C   UNL A   1      36.826  30.118  27.227  1.00  0.00     0.016 A 
ATOM     30  C   UNL A   1      37.508  29.102  29.759  1.00  0.00     0.010 A 
ATOM     31  C   UNL A   1      38.094  29.573  27.451  1.00  0.00     0.010 A 
ATOM     32  C   UNL A   1      38.454  29.098  28.725  1.00  0.00    -0.014 A 
BRANCH  32  33
ATOM     33  C   UNL A   1      39.867  28.757  29.015  1.00  0.00     0.031 A 
ATOM     34  C   UNL A   1      40.760  29.820  29.592  1.00  0.00     0.074 A 
ATOM     35  C   UNL A   1      40.349  27.527  28.764  1.00  0.00     0.049 A 
ATOM     36  N   UNL A   1      42.047  29.790  29.818  1.00  0.00    -0.248 NA
ATOM     37  C   UNL A   1      40.111  31.088  29.960  1.00  0.00     0.031 C 
ATOM     38  C   UNL A   1      39.568  26.405  28.248  1.00  0.00     0.029 A 
ATOM     39  N   UNL A   1      41.621  27.027  28.886  1.00  0.00    -0.354 N 
ATOM     40  C   UNL A   1      42.366  31.038  30.340  1.00  0.00     0.074 A 
ATOM     41  C   UNL A   1      41.142  31.809  30.376  1.00  0.00     0.031 C 
ATOM     42  C   UNL A   1      40.386  25.355  28.064  1.00  0.00     0.029 A 
ATOM     43  C   UNL A   1      41.752  25.744  28.413  1.00  0.00     0.049 A 
ATOM     44  H   UNL A   1      42.367  27.538  29.276  1.00  0.00     0.167 HD
ATOM     45  C   UNL A   1      43.571  31.498  30.757  1.00  0.00     0.037 A 
ATOM     46  C   UNL A   1      42.854  24.987  28.241  1.00  0.00     0.037 A 
ATOM     47  C   UNL A   1      44.785  30.726  30.705  1.00  0.00     0.049 A 
ATOM     48  C   UNL A   1      44.198  25.537  28.641  1.00  0.00     0.074 A 
ATOM     49  C   UNL A   1      46.057  31.096  31.100  1.00  0.00     0.029 A 
ATOM     50  N   UNL A   1      44.877  29.430  30.218  1.00  0.00    -0.354 N 
ATOM     51  N   UNL A   1      44.489  26.713  29.146  1.00  0.00    -0.248 NA
ATOM     52  C   UNL A   1      45.364  24.662  28.452  1.00  0.00     0.031 C 
ATOM     53  C   UNL A   1      46.927  30.040  30.812  1.00  0.00     0.029 A 
ATOM     54  C   UNL A   1      46.188  28.991  30.285  1.00  0.00     0.049 A 
ATOM     55  H   UNL A   1      44.121  28.901  29.874  1.00  0.00     0.167 HD
ATOM     56  C   UNL A   1      45.864  26.710  29.358  1.00  0.00     0.074 A 
ATOM     57  C   UNL A   1      46.348  25.414  28.928  1.00  0.00     0.031 C 
ATOM     58  C   UNL A   1      46.651  27.689  29.868  1.00  0.00     0.037 A 
BRANCH  45  59
ATOM     59  C   UNL A   1      43.631  32.911  31.266  1.00  0.00     0.058 A 
ATOM     60  C   UNL A   1      43.922  33.990  30.417  1.00  0.00     0.135 A 
ATOM     61  C   UNL A   1      43.400  33.189  32.622  1.00  0.00     0.135 A 
ATOM     62  F   UNL A   1      44.168  33.779  29.113  1.00  0.00    -0.206 F 
ATOM     63  C   UNL A   1      44.026  35.291  30.902  1.00  0.00     0.059 A 
ATOM     64  C   UNL A   1      43.470  34.486  33.125  1.00  0.00     0.059 A 
ATOM     65  F   UNL A   1      43.116  32.196  33.479  1.00  0.00    -0.206 F 
ATOM     66  C   UNL A   1      43.806  35.527  32.260  1.00  0.00     0.060 A 
BRANCH  66  67
ATOM     67  S   UNL A   1      43.974  37.214  32.882  1.00  0.00     0.124 S 
ATOM     68  O   UNL A   1      45.296  37.165  33.499  1.00  0.00    -0.237 OA
ATOM     69  O   UNL A   1      43.874  38.010  31.663  1.00  0.00    -0.237 OA
ATOM     70  O   UNL A   1      42.854  37.347  33.808  1.00  0.00    -0.744 OA
ENDBRANCH  66  67
ENDBRANCH  45  59
BRANCH  46  71
ATOM     71  C   UNL A   1      42.724  23.637  27.632  1.00  0.00     0.058 A 
ATOM     72  C   UNL A   1      42.890  23.440  26.254  1.00  0.00     0.135 A 
ATOM     73  C   UNL A   1      42.472  22.508  28.428  1.00  0.00     0.135 A 
ATOM     74  F   UNL A   1      43.120  24.489  25.449  1.00  0.00    -0.206 F 
ATOM     75  C   UNL A   1      42.816  22.171  25.686  1.00  0.00     0.059 A 
ATOM     76  C   UNL A   1      42.418  21.227  27.887  1.00  0.00     0.059 A 
ATOM     77  F   UNL A   1      42.315  22.643  29.754  1.00  0.00    -0.206 F 
ATOM     78  C   UNL A   1      42.589  21.070  26.513  1.00  0.00     0.060 A 
BRANCH  78  79
ATOM     79  S   UNL A   1      42.581  19.419  25.777  1.00  0.00     0.124 S 
ATOM     80  O   UNL A   1      43.543  19.576  24.692  1.00  0.00    -0.237 OA
ATOM     81  O   UNL A   1      43.009  18.584  26.895  1.00  0.00    -0.237 OA
ATOM     82  O   UNL A   1      41.190  19.240  25.370  1.00  0.00    -0.744 OA
ENDBRANCH  78  79
ENDBRANCH  46  71
BRANCH  58  83
ATOM     83  C   UNL A   1      48.117  27.400  30.039  1.00  0.00     0.058 A 
ATOM     84  C   UNL A   1      49.049  27.693  29.033  1.00  0.00     0.135 A 
ATOM     85  C   UNL A   1      48.603  26.925  31.269  1.00  0.00     0.135 A 
ATOM     86  F   UNL A   1      48.636  28.142  27.838  1.00  0.00    -0.206 F 
ATOM     87  C   UNL A   1      50.415  27.530  29.242  1.00  0.00     0.059 A 
ATOM     88  C   UNL A   1      49.965  26.775  31.506  1.00  0.00     0.059 A 
ATOM     89  F   UNL A   1      47.751  26.636  32.265  1.00  0.00    -0.206 F 
ATOM     90  C   UNL A   1      50.864  27.080  30.486  1.00  0.00     0.060 A 
BRANCH  90  91
ATOM     91  S   UNL A   1      52.642  26.951  30.772  1.00  0.00     0.124 S 
ATOM     92  O   UNL A   1      52.864  28.014  31.747  1.00  0.00    -0.237 OA
ATOM     93  O   UNL A   1      52.780  25.588  31.277  1.00  0.00    -0.237 OA
ATOM     94  O   UNL A   1      53.218  27.183  29.450  1.00  0.00    -0.744 OA
ENDBRANCH  90  91
ENDBRANCH  58  83
ENDBRANCH  32  33
ENDBRANCH  25  27
ENDBRANCH  24  25
ENDBRANCH  23  24
ENDBRANCH   1  23
TORSDOF 19
ENDMDL
MODEL 3
REMARK VINA RESULT:     -10.4      6.819     11.940
REMARK SMILES CN(C(=O)N1CCC(C(=O)OCCOCCOC(=O)c2ccc(-c3c4nc(c(-c5c(F)cc(S(=O)(=O)[O-])cc5F)c5ccc([nH]5)c(-c5c(F)cc(S(=O)(=O)[O-])cc5F)c5nc(c(-c6c(F)cc(S(=O)(=O)[O-])cc6F)c6ccc3[nH]6)C=C5)C=C4)cc2)CC1)[C@H]1CCSC1
REMARK SMILES IDX 15 1 14 2 13 3 12 4 11 5 9 6 10 7 8 8 3 9 4 10 5 11 6 12
REMARK SMILES IDX 87 13 7 14 86 15 2 16 1 17 88 18 89 19 92 20 90 21 91 22
REMARK SMILES IDX 16 23 17 24 18 25 19 26 20 27 21 28 85 29 22 30 84 31 23 32
REMARK SMILES IDX 24 33 25 34 78 35 26 36 83 37 77 38 79 39 27 40 82 41 76 42
REMARK SMILES IDX 75 43 28 45 62 46 41 47 61 48 42 49 45 50 60 51 80 52 43 53
REMARK SMILES IDX 44 54 59 56 81 57 46 58 29 59 30 60 39 61 31 62 32 63 38 64
REMARK SMILES IDX 40 65 33 66 34 67 35 68 36 69 37 70 63 71 64 72 73 73 65 74
REMARK SMILES IDX 66 75 72 76 74 77 67 78 68 79 69 80 70 81 71 82 47 83 48 84
REMARK SMILES IDX 57 85 49 86 50 87 56 88 58 89 51 90 52 91 53 92 54 93 55 94
REMARK H PARENT 79 44 45 55
REMARK Flexibility Score: inf
ROOT
ATOM      1  C   UNL A   1      39.979  22.357  26.767  1.00  0.00     0.202 C 
ENDROOT
BRANCH   1   2
ATOM      2  O   UNL A   1      39.317  21.432  25.904  1.00  0.00    -0.374 OA
BRANCH   2   3
ATOM      3  C   UNL A   1      38.059  21.828  25.360  1.00  0.00     0.202 C 
BRANCH   3   4
ATOM      4  C   UNL A   1      37.034  20.719  25.113  1.00  0.00     0.261 C 
BRANCH   4   5
ATOM      5  O   UNL A   1      35.779  20.992  25.759  1.00  0.00    -0.463 OA
BRANCH   5   6
ATOM      6  C   UNL A   1      34.674  20.653  25.052  1.00  0.00     0.309 C 
ATOM      7  O   UNL A   1      34.399  19.525  24.658  1.00  0.00    -0.252 OA
BRANCH   6   8
ATOM      8  C   UNL A   1      33.783  21.835  24.746  1.00  0.00     0.103 C 
ATOM      9  C   UNL A   1      31.868  25.179  26.083  1.00  0.00     0.320 C 
ATOM     10  O   UNL A   1      31.222  24.729  27.029  1.00  0.00    -0.248 OA
ATOM     11  N   UNL A   1      32.357  24.301  25.132  1.00  0.00    -0.325 N 
ATOM     12  C   UNL A   1      31.622  23.057  24.920  1.00  0.00     0.122 C 
ATOM     13  C   UNL A   1      33.727  24.336  24.618  1.00  0.00     0.122 C 
ATOM     14  C   UNL A   1      32.408  21.847  25.419  1.00  0.00     0.037 C 
ATOM     15  C   UNL A   1      34.532  23.124  25.076  1.00  0.00     0.037 C 
BRANCH   9  16
ATOM     16  N   UNL A   1      32.064  26.543  25.882  1.00  0.00    -0.324 N 
ATOM     17  C   UNL A   1      33.223  27.263  26.407  1.00  0.00     0.149 C 
BRANCH  16  18
ATOM     18  C   UNL A   1      31.065  27.363  25.132  1.00  0.00     0.097 C 
ATOM     19  C   UNL A   1      31.602  28.753  24.744  1.00  0.00     0.037 C 
ATOM     20  C   UNL A   1      30.517  26.804  23.804  1.00  0.00     0.094 C 
ATOM     21  C   UNL A   1      30.533  29.471  23.939  1.00  0.00     0.072 C 
ATOM     22  S   UNL A   1      29.723  28.203  22.951  1.00  0.00    -0.160 SA
ENDBRANCH  16  18
ENDBRANCH   9  16
ENDBRANCH   6   8
ENDBRANCH   5   6
ENDBRANCH   4   5
ENDBRANCH   3   4
ENDBRANCH   2   3
ENDBRANCH   1   2
BRANCH   1  23
ATOM     23  C   UNL A   1      41.465  22.628  26.498  1.00  0.00     0.261 C 
BRANCH  23  24
ATOM     24  O   UNL A   1      42.000  23.660  27.345  1.00  0.00    -0.460 OA
BRANCH  24  25
ATOM     25  C   UNL A   1      42.074  24.885  26.772  1.00  0.00     0.338 C 
ATOM     26  O   UNL A   1      42.310  25.133  25.596  1.00  0.00    -0.246 OA
BRANCH  25  27
ATOM     27  C   UNL A   1      41.634  25.921  27.723  1.00  0.00     0.060 A 
ATOM     28  C   UNL A   1      42.485  27.014  27.934  1.00  0.00     0.016 A 
ATOM     29  C   UNL A   1      40.454  25.787  28.456  1.00  0.00     0.016 A 
ATOM     30  C   UNL A   1      42.186  27.954  28.918  1.00  0.00     0.010 A 
ATOM     31  C   UNL A   1      40.162  26.725  29.451  1.00  0.00     0.010 A 
ATOM     32  C   UNL A   1      41.044  27.789  29.712  1.00  0.00    -0.014 A 
BRANCH  32  33
ATOM     33  C   UNL A   1      40.856  28.626  30.921  1.00  0.00     0.031 A 
ATOM     34  C   UNL A   1      39.802  29.698  30.897  1.00  0.00     0.074 A 
ATOM     35  C   UNL A   1      41.613  28.441  32.016  1.00  0.00     0.049 A 
ATOM     36  N   UNL A   1      39.536  30.620  31.784  1.00  0.00    -0.248 NA
ATOM     37  C   UNL A   1      38.935  29.734  29.709  1.00  0.00     0.031 C 
ATOM     38  C   UNL A   1      42.633  27.406  32.171  1.00  0.00     0.029 A 
ATOM     39  N   UNL A   1      41.655  29.138  33.198  1.00  0.00    -0.354 N 
ATOM     40  C   UNL A   1      38.481  31.355  31.258  1.00  0.00     0.074 A 
ATOM     41  C   UNL A   1      38.172  30.787  29.964  1.00  0.00     0.031 C 
ATOM     42  C   UNL A   1      43.227  27.558  33.367  1.00  0.00     0.029 A 
ATOM     43  C   UNL A   1      42.655  28.722  34.043  1.00  0.00     0.049 A 
ATOM     44  H   UNL A   1      41.029  29.865  33.418  1.00  0.00     0.167 HD
ATOM     45  C   UNL A   1      37.826  32.407  31.806  1.00  0.00     0.037 A 
ATOM     46  C   UNL A   1      43.086  29.246  35.208  1.00  0.00     0.037 A 
ATOM     47  C   UNL A   1      38.151  32.973  33.089  1.00  0.00     0.049 A 
ATOM     48  C   UNL A   1      42.396  30.460  35.772  1.00  0.00     0.074 A 
ATOM     49  C   UNL A   1      37.551  34.038  33.737  1.00  0.00     0.029 A 
ATOM     50  N   UNL A   1      39.171  32.524  33.915  1.00  0.00    -0.354 N 
ATOM     51  N   UNL A   1      41.391  31.142  35.273  1.00  0.00    -0.248 NA
ATOM     52  C   UNL A   1      42.892  30.978  37.054  1.00  0.00     0.031 C 
ATOM     53  C   UNL A   1      38.238  34.261  34.934  1.00  0.00     0.029 A 
ATOM     54  C   UNL A   1      39.231  33.302  35.058  1.00  0.00     0.049 A 
ATOM     55  H   UNL A   1      39.765  31.764  33.717  1.00  0.00     0.167 HD
ATOM     56  C   UNL A   1      41.120  32.152  36.191  1.00  0.00     0.074 A 
ATOM     57  C   UNL A   1      42.064  31.992  37.277  1.00  0.00     0.031 C 
ATOM     58  C   UNL A   1      40.170  33.118  36.140  1.00  0.00     0.037 A 
BRANCH  45  59
ATOM     59  C   UNL A   1      36.723  33.031  30.996  1.00  0.00     0.058 A 
ATOM     60  C   UNL A   1      36.987  33.976  29.993  1.00  0.00     0.135 A 
ATOM     61  C   UNL A   1      35.384  32.683  31.232  1.00  0.00     0.135 A 
ATOM     62  F   UNL A   1      38.249  34.357  29.737  1.00  0.00    -0.206 F 
ATOM     63  C   UNL A   1      35.959  34.587  29.280  1.00  0.00     0.059 A 
ATOM     64  C   UNL A   1      34.341  33.260  30.512  1.00  0.00     0.059 A 
ATOM     65  F   UNL A   1      35.074  31.784  32.179  1.00  0.00    -0.206 F 
ATOM     66  C   UNL A   1      34.638  34.228  29.553  1.00  0.00     0.060 A 
BRANCH  66  67
ATOM     67  S   UNL A   1      33.313  35.050  28.644  1.00  0.00     0.124 S 
ATOM     68  O   UNL A   1      34.067  35.993  27.823  1.00  0.00    -0.237 OA
ATOM     69  O   UNL A   1      32.691  33.943  27.925  1.00  0.00    -0.237 OA
ATOM     70  O   UNL A   1      32.498  35.647  29.696  1.00  0.00    -0.744 OA
ENDBRANCH  66  67
ENDBRANCH  45  59
BRANCH  46  71
ATOM     71  C   UNL A   1      44.253  28.633  35.896  1.00  0.00     0.058 A 
ATOM     72  C   UNL A   1      45.560  29.071  35.642  1.00  0.00     0.135 A 
ATOM     73  C   UNL A   1      44.076  27.624  36.856  1.00  0.00     0.135 A 
ATOM     74  F   UNL A   1      45.783  30.024  34.724  1.00  0.00    -0.206 F 
ATOM     75  C   UNL A   1      46.652  28.533  36.319  1.00  0.00     0.059 A 
ATOM     76  C   UNL A   1      45.149  27.089  37.563  1.00  0.00     0.059 A 
ATOM     77  F   UNL A   1      42.843  27.178  37.142  1.00  0.00    -0.206 F 
ATOM     78  C   UNL A   1      46.434  27.549  37.285  1.00  0.00     0.060 A 
BRANCH  78  79
ATOM     79  S   UNL A   1      47.848  26.920  38.217  1.00  0.00     0.124 S 
ATOM     80  O   UNL A   1      47.770  25.490  37.943  1.00  0.00    -0.237 OA
ATOM     81  O   UNL A   1      48.963  27.629  37.596  1.00  0.00    -0.237 OA
ATOM     82  O   UNL A   1      47.550  27.319  39.590  1.00  0.00    -0.744 OA
ENDBRANCH  78  79
ENDBRANCH  46  71
BRANCH  58  83
ATOM     83  C   UNL A   1      40.060  34.062  37.305  1.00  0.00     0.058 A 
ATOM     84  C   UNL A   1      40.797  35.254  37.362  1.00  0.00     0.135 A 
ATOM     85  C   UNL A   1      39.122  33.819  38.323  1.00  0.00     0.135 A 
ATOM     86  F   UNL A   1      41.711  35.529  36.419  1.00  0.00    -0.206 F 
ATOM     87  C   UNL A   1      40.605  36.176  38.386  1.00  0.00     0.059 A 
ATOM     88  C   UNL A   1      38.898  34.738  39.343  1.00  0.00     0.059 A 
ATOM     89  F   UNL A   1      38.386  32.696  38.311  1.00  0.00    -0.206 F 
ATOM     90  C   UNL A   1      39.646  35.914  39.367  1.00  0.00     0.060 A 
BRANCH  90  91
ATOM     91  S   UNL A   1      39.348  37.156  40.643  1.00  0.00     0.124 S 
ATOM     92  O   UNL A   1      40.656  37.796  40.745  1.00  0.00    -0.237 OA
ATOM     93  O   UNL A   1      38.290  37.968  40.048  1.00  0.00    -0.237 OA
ATOM     94  O   UNL A   1      38.945  36.365  41.802  1.00  0.00    -0.744 OA
ENDBRANCH  90  91
ENDBRANCH  58  83
ENDBRANCH  32  33
ENDBRANCH  25  27
ENDBRANCH  24  25
ENDBRANCH  23  24
ENDBRANCH   1  23
TORSDOF 19
ENDMDL
