MODEL 1
REMARK VINA RESULT:     -10.8      0.000      0.000
REMARK SMILES Cn1ccc(NS(=O)(=O)c2ccc(C(=O)OCCOCCOC(=O)c3ccc(-c4c5nc(c(-c6c(F)cc(S(=O)(=O)[O-])cc6F)c6ccc([nH]6)c(-c6c(F)cc(S(=O)(=O)[O-])cc6F)c6nc(c(-c7c(F)cc(S(=O)(=O)[O-])cc7F)c7ccc4[nH]7)C=C6)C=C5)cc3)cc2F)n1
REMARK SMILES IDX 19 1 18 2 17 3 16 4 14 5 15 6 13 7 10 8 11 9 92 10 12 11
REMARK SMILES IDX 91 12 93 13 7 14 8 15 9 16 6 17 5 19 1 20 2 21 3 22 94 23
REMARK SMILES IDX 4 24 20 25 21 26 22 27 23 28 24 29 25 30 26 31 90 32 27 33
REMARK SMILES IDX 89 34 28 35 29 36 30 37 83 38 31 39 88 40 82 41 84 42 32 43
REMARK SMILES IDX 87 44 81 45 80 46 33 48 67 49 46 50 66 51 47 52 50 53 65 54
REMARK SMILES IDX 85 55 48 56 49 57 64 59 86 60 51 61 34 62 35 63 44 64 36 65
REMARK SMILES IDX 37 66 43 67 45 68 38 69 39 70 40 71 41 72 42 73 68 74 69 75
REMARK SMILES IDX 78 76 70 77 71 78 77 79 79 80 72 81 73 82 74 83 75 84 76 85
REMARK SMILES IDX 52 86 53 87 62 88 54 89 55 90 61 91 63 92 56 93 57 94 58 95
REMARK SMILES IDX 59 96 60 97
REMARK H PARENT 6 18 84 47 50 58
REMARK Flexibility Score: inf
ROOT
ATOM      1  O   UNL A   1      37.222  21.791  25.918  1.00  0.00    -0.374 OA
ENDROOT
BRANCH   1   2
ATOM      2  C   UNL A   1      36.760  20.945  24.860  1.00  0.00     0.202 C 
BRANCH   2   3
ATOM      3  C   UNL A   1      35.317  20.440  24.981  1.00  0.00     0.261 C 
BRANCH   3   4
ATOM      4  O   UNL A   1      34.532  21.300  25.827  1.00  0.00    -0.460 OA
BRANCH   4   5
ATOM      5  C   UNL A   1      33.391  21.756  25.270  1.00  0.00     0.338 C 
ATOM      6  O   UNL A   1      32.250  21.350  25.456  1.00  0.00    -0.246 OA
BRANCH   5   7
ATOM      7  C   UNL A   1      33.654  23.009  24.548  1.00  0.00     0.063 A 
ATOM      8  C   UNL A   1      33.703  25.562  23.470  1.00  0.00     0.123 A 
ATOM      9  C   UNL A   1      34.272  25.346  24.717  1.00  0.00     0.026 A 
ATOM     10  C   UNL A   1      33.316  24.468  22.689  1.00  0.00     0.144 A 
ATOM     11  C   UNL A   1      34.166  24.082  25.289  1.00  0.00     0.017 A 
ATOM     12  C   UNL A   1      33.316  23.175  23.210  1.00  0.00     0.056 A 
ATOM     13  F   UNL A   1      32.919  24.638  21.422  1.00  0.00    -0.205 F 
BRANCH   8  14
ATOM     14  S   UNL A   1      33.238  27.166  22.906  1.00  0.00     0.266 S 
ATOM     15  O   UNL A   1      31.795  27.271  22.954  1.00  0.00    -0.201 OA
ATOM     16  O   UNL A   1      33.949  27.367  21.656  1.00  0.00    -0.201 OA
BRANCH  14  17
ATOM     17  N   UNL A   1      33.823  28.383  23.891  1.00  0.00    -0.262 N 
ATOM     18  H   UNL A   1      34.698  28.739  23.613  1.00  0.00     0.182 HD
BRANCH  17  19
ATOM     19  C   UNL A   1      33.306  28.981  25.024  1.00  0.00     0.161 A 
ATOM     20  C   UNL A   1      33.779  31.178  27.649  1.00  0.00     0.173 C 
ATOM     21  N   UNL A   1      33.202  30.226  26.727  1.00  0.00    -0.274 N 
ATOM     22  C   UNL A   1      31.934  30.245  26.231  1.00  0.00     0.110 A 
ATOM     23  N   UNL A   1      33.999  29.344  26.097  1.00  0.00    -0.155 NA
ATOM     24  C   UNL A   1      31.967  29.434  25.118  1.00  0.00     0.069 A 
ENDBRANCH  17  19
ENDBRANCH  14  17
ENDBRANCH   8  14
ENDBRANCH   5   7
ENDBRANCH   4   5
ENDBRANCH   3   4
ENDBRANCH   2   3
ENDBRANCH   1   2
BRANCH   1  25
ATOM     25  C   UNL A   1      38.613  22.109  25.920  1.00  0.00     0.202 C 
BRANCH  25  26
ATOM     26  C   UNL A   1      38.995  23.546  26.277  1.00  0.00     0.261 C 
BRANCH  26  27
ATOM     27  O   UNL A   1      39.987  23.578  27.315  1.00  0.00    -0.460 OA
BRANCH  27  28
ATOM     28  C   UNL A   1      40.939  24.526  27.159  1.00  0.00     0.338 C 
ATOM     29  O   UNL A   1      41.802  24.564  26.290  1.00  0.00    -0.246 OA
BRANCH  28  30
ATOM     30  C   UNL A   1      40.684  25.647  28.078  1.00  0.00     0.060 A 
ATOM     31  C   UNL A   1      41.709  26.586  28.250  1.00  0.00     0.016 A 
ATOM     32  C   UNL A   1      39.489  25.761  28.795  1.00  0.00     0.016 A 
ATOM     33  C   UNL A   1      41.566  27.612  29.179  1.00  0.00     0.010 A 
ATOM     34  C   UNL A   1      39.352  26.787  29.736  1.00  0.00     0.010 A 
ATOM     35  C   UNL A   1      40.403  27.695  29.955  1.00  0.00    -0.014 A 
BRANCH  35  36
ATOM     36  C   UNL A   1      40.352  28.641  31.093  1.00  0.00     0.031 A 
ATOM     37  C   UNL A   1      39.363  29.774  31.051  1.00  0.00     0.074 A 
ATOM     38  C   UNL A   1      41.147  28.471  32.164  1.00  0.00     0.049 A 
ATOM     39  N   UNL A   1      39.169  30.735  31.915  1.00  0.00    -0.248 NA
ATOM     40  C   UNL A   1      38.472  29.828  29.880  1.00  0.00     0.031 C 
ATOM     41  C   UNL A   1      42.107  27.382  32.337  1.00  0.00     0.029 A 
ATOM     42  N   UNL A   1      41.272  29.217  33.309  1.00  0.00    -0.354 N 
ATOM     43  C   UNL A   1      38.140  31.510  31.394  1.00  0.00     0.074 A 
ATOM     44  C   UNL A   1      37.768  30.924  30.125  1.00  0.00     0.031 C 
ATOM     45  C   UNL A   1      42.727  27.532  33.520  1.00  0.00     0.029 A 
ATOM     46  C   UNL A   1      42.233  28.744  34.172  1.00  0.00     0.049 A 
ATOM     47  H   UNL A   1      40.726  30.014  33.496  1.00  0.00     0.167 HD
ATOM     48  C   UNL A   1      37.550  32.602  31.933  1.00  0.00     0.037 A 
ATOM     49  C   UNL A   1      42.675  29.244  35.343  1.00  0.00     0.037 A 
ATOM     50  C   UNL A   1      37.923  33.177  33.198  1.00  0.00     0.049 A 
ATOM     51  C   UNL A   1      42.057  30.506  35.886  1.00  0.00     0.074 A 
ATOM     52  C   UNL A   1      37.382  34.281  33.833  1.00  0.00     0.029 A 
ATOM     53  N   UNL A   1      38.932  32.698  34.020  1.00  0.00    -0.354 N 
ATOM     54  N   UNL A   1      41.084  31.228  35.383  1.00  0.00    -0.248 NA
ATOM     55  C   UNL A   1      42.598  31.025  37.150  1.00  0.00     0.031 C 
ATOM     56  C   UNL A   1      38.094  34.495  35.017  1.00  0.00     0.029 A 
ATOM     57  C   UNL A   1      39.046  33.496  35.145  1.00  0.00     0.049 A 
ATOM     58  H   UNL A   1      39.487  31.907  33.831  1.00  0.00     0.167 HD
ATOM     59  C   UNL A   1      40.882  32.272  36.280  1.00  0.00     0.074 A 
ATOM     60  C   UNL A   1      41.828  32.084  37.360  1.00  0.00     0.031 C 
ATOM     61  C   UNL A   1      39.992  33.293  36.215  1.00  0.00     0.037 A 
BRANCH  48  62
ATOM     62  C   UNL A   1      36.446  33.259  31.154  1.00  0.00     0.058 A 
ATOM     63  C   UNL A   1      36.732  33.989  29.989  1.00  0.00     0.135 A 
ATOM     64  C   UNL A   1      35.111  33.212  31.587  1.00  0.00     0.135 A 
ATOM     65  F   UNL A   1      37.990  34.057  29.525  1.00  0.00    -0.206 F 
ATOM     66  C   UNL A   1      35.738  34.665  29.292  1.00  0.00     0.059 A 
ATOM     67  C   UNL A   1      34.096  33.861  30.891  1.00  0.00     0.059 A 
ATOM     68  F   UNL A   1      34.781  32.507  32.680  1.00  0.00    -0.206 F 
ATOM     69  C   UNL A   1      34.422  34.597  29.752  1.00  0.00     0.060 A 
BRANCH  69  70
ATOM     70  S   UNL A   1      33.137  35.457  28.818  1.00  0.00     0.124 S 
ATOM     71  O   UNL A   1      32.334  36.045  29.883  1.00  0.00    -0.237 OA
ATOM     72  O   UNL A   1      33.918  36.394  28.015  1.00  0.00    -0.237 OA
ATOM     73  O   UNL A   1      32.494  34.385  28.062  1.00  0.00    -0.744 OA
ENDBRANCH  69  70
ENDBRANCH  48  62
BRANCH  49  74
ATOM     74  C   UNL A   1      43.760  28.545  36.079  1.00  0.00     0.058 A 
ATOM     75  C   UNL A   1      45.104  28.919  35.920  1.00  0.00     0.135 A 
ATOM     76  C   UNL A   1      43.477  27.467  36.931  1.00  0.00     0.135 A 
ATOM     77  F   UNL A   1      45.428  29.942  35.114  1.00  0.00    -0.206 F 
ATOM     78  C   UNL A   1      46.131  28.231  36.556  1.00  0.00     0.059 A 
ATOM     79  C   UNL A   1      44.486  26.777  37.596  1.00  0.00     0.059 A 
ATOM     80  F   UNL A   1      42.206  27.084  37.126  1.00  0.00    -0.206 F 
ATOM     81  C   UNL A   1      45.812  27.156  37.387  1.00  0.00     0.060 A 
BRANCH  81  82
ATOM     82  S   UNL A   1      47.162  26.259  38.182  1.00  0.00     0.124 S 
ATOM     83  O   UNL A   1      48.299  26.658  37.360  1.00  0.00    -0.237 OA
ATOM     84  O   UNL A   1      47.133  26.801  39.536  1.00  0.00    -0.237 OA
ATOM     85  O   UNL A   1      46.758  24.862  38.059  1.00  0.00    -0.744 OA
ENDBRANCH  81  82
ENDBRANCH  49  74
BRANCH  61  86
ATOM     86  C   UNL A   1      39.973  34.283  37.347  1.00  0.00     0.058 A 
ATOM     87  C   UNL A   1      39.125  34.087  38.449  1.00  0.00     0.135 A 
ATOM     88  C   UNL A   1      40.723  35.467  37.298  1.00  0.00     0.135 A 
ATOM     89  F   UNL A   1      38.382  32.972  38.542  1.00  0.00    -0.206 F 
ATOM     90  C   UNL A   1      39.004  35.042  39.452  1.00  0.00     0.059 A 
ATOM     91  C   UNL A   1      40.637  36.426  38.304  1.00  0.00     0.059 A 
ATOM     92  F   UNL A   1      41.557  35.697  36.271  1.00  0.00    -0.206 F 
ATOM     93  C   UNL A   1      39.761  36.212  39.368  1.00  0.00     0.060 A 
BRANCH  93  94
ATOM     94  S   UNL A   1      39.590  37.441  40.679  1.00  0.00     0.124 S 
ATOM     95  O   UNL A   1      39.318  36.605  41.841  1.00  0.00    -0.237 OA
ATOM     96  O   UNL A   1      40.895  38.098  40.659  1.00  0.00    -0.237 OA
ATOM     97  O   UNL A   1      38.476  38.269  40.225  1.00  0.00    -0.744 OA
ENDBRANCH  93  94
ENDBRANCH  61  86
ENDBRANCH  35  36
ENDBRANCH  28  30
ENDBRANCH  27  28
ENDBRANCH  26  27
ENDBRANCH  25  26
ENDBRANCH   1  25
TORSDOF 20
ENDMDL
MODEL 2
REMARK VINA RESULT:     -10.7      6.656      8.914
REMARK SMILES Cn1ccc(NS(=O)(=O)c2ccc(C(=O)OCCOCCOC(=O)c3ccc(-c4c5nc(c(-c6c(F)cc(S(=O)(=O)[O-])cc6F)c6ccc([nH]6)c(-c6c(F)cc(S(=O)(=O)[O-])cc6F)c6nc(c(-c7c(F)cc(S(=O)(=O)[O-])cc7F)c7ccc4[nH]7)C=C6)C=C5)cc3)cc2F)n1
REMARK SMILES IDX 19 1 18 2 17 3 16 4 14 5 15 6 13 7 10 8 11 9 92 10 12 11
REMARK SMILES IDX 91 12 93 13 7 14 8 15 9 16 6 17 5 19 1 20 2 21 3 22 94 23
REMARK SMILES IDX 4 24 20 25 21 26 22 27 23 28 24 29 25 30 26 31 90 32 27 33
REMARK SMILES IDX 89 34 28 35 29 36 30 37 83 38 31 39 88 40 82 41 84 42 32 43
REMARK SMILES IDX 87 44 81 45 80 46 33 48 67 49 46 50 66 51 47 52 50 53 65 54
REMARK SMILES IDX 85 55 48 56 49 57 64 59 86 60 51 61 34 62 35 63 44 64 36 65
REMARK SMILES IDX 37 66 43 67 45 68 38 69 39 70 40 71 41 72 42 73 68 74 69 75
REMARK SMILES IDX 78 76 70 77 71 78 77 79 79 80 72 81 73 82 74 83 75 84 76 85
REMARK SMILES IDX 52 86 53 87 62 88 54 89 55 90 61 91 63 92 56 93 57 94 58 95
REMARK SMILES IDX 59 96 60 97
REMARK H PARENT 6 18 84 47 50 58
REMARK Flexibility Score: inf
ROOT
ATOM      1  O   UNL A   1      36.945  21.498  25.756  1.00  0.00    -0.374 OA
ENDROOT
BRANCH   1   2
ATOM      2  C   UNL A   1      35.946  20.568  25.329  1.00  0.00     0.202 C 
BRANCH   2   3
ATOM      3  C   UNL A   1      34.722  21.166  24.625  1.00  0.00     0.261 C 
BRANCH   3   4
ATOM      4  O   UNL A   1      34.620  22.582  24.869  1.00  0.00    -0.460 OA
BRANCH   4   5
ATOM      5  C   UNL A   1      34.919  23.363  23.811  1.00  0.00     0.338 C 
ATOM      6  O   UNL A   1      35.439  23.028  22.753  1.00  0.00    -0.246 OA
BRANCH   5   7
ATOM      7  C   UNL A   1      34.316  24.692  23.986  1.00  0.00     0.063 A 
ATOM      8  C   UNL A   1      32.777  26.916  24.591  1.00  0.00     0.123 A 
ATOM      9  C   UNL A   1      33.642  26.413  25.553  1.00  0.00     0.026 A 
ATOM     10  C   UNL A   1      32.851  26.439  23.279  1.00  0.00     0.144 A 
ATOM     11  C   UNL A   1      34.345  25.245  25.273  1.00  0.00     0.017 A 
ATOM     12  C   UNL A   1      33.646  25.341  22.955  1.00  0.00     0.056 A 
ATOM     13  F   UNL A   1      32.147  27.020  22.299  1.00  0.00    -0.205 F 
BRANCH   8  14
ATOM     14  S   UNL A   1      31.428  27.978  24.993  1.00  0.00     0.266 S 
ATOM     15  O   UNL A   1      31.656  28.533  26.310  1.00  0.00    -0.201 OA
ATOM     16  O   UNL A   1      30.226  27.212  24.715  1.00  0.00    -0.201 OA
BRANCH  14  17
ATOM     17  N   UNL A   1      31.312  29.283  23.955  1.00  0.00    -0.262 N 
ATOM     18  H   UNL A   1      32.175  29.715  23.758  1.00  0.00     0.182 HD
BRANCH  17  19
ATOM     19  C   UNL A   1      30.231  29.867  23.324  1.00  0.00     0.161 A 
ATOM     20  C   UNL A   1      28.405  32.733  22.699  1.00  0.00     0.173 C 
ATOM     21  N   UNL A   1      28.884  31.369  22.701  1.00  0.00    -0.274 N 
ATOM     22  C   UNL A   1      28.965  30.537  21.626  1.00  0.00     0.110 A 
ATOM     23  N   UNL A   1      29.522  30.891  23.785  1.00  0.00    -0.155 NA
ATOM     24  C   UNL A   1      29.835  29.539  22.004  1.00  0.00     0.069 A 
ENDBRANCH  17  19
ENDBRANCH  14  17
ENDBRANCH   8  14
ENDBRANCH   5   7
ENDBRANCH   4   5
ENDBRANCH   3   4
ENDBRANCH   2   3
ENDBRANCH   1   2
BRANCH   1  25
ATOM     25  C   UNL A   1      38.270  21.280  25.271  1.00  0.00     0.202 C 
BRANCH  25  26
ATOM     26  C   UNL A   1      39.416  21.517  26.257  1.00  0.00     0.261 C 
BRANCH  26  27
ATOM     27  O   UNL A   1      39.936  20.275  26.758  1.00  0.00    -0.460 OA
BRANCH  27  28
ATOM     28  C   UNL A   1      41.182  19.971  26.330  1.00  0.00     0.338 C 
ATOM     29  O   UNL A   1      41.533  18.945  25.759  1.00  0.00    -0.246 OA
BRANCH  28  30
ATOM     30  C   UNL A   1      42.059  21.145  26.469  1.00  0.00     0.060 A 
ATOM     31  C   UNL A   1      42.372  21.566  27.768  1.00  0.00     0.016 A 
ATOM     32  C   UNL A   1      42.533  21.852  25.360  1.00  0.00     0.016 A 
ATOM     33  C   UNL A   1      43.114  22.726  27.965  1.00  0.00     0.010 A 
ATOM     34  C   UNL A   1      43.269  23.024  25.561  1.00  0.00     0.010 A 
ATOM     35  C   UNL A   1      43.533  23.483  26.864  1.00  0.00    -0.014 A 
BRANCH  35  36
ATOM     36  C   UNL A   1      44.118  24.826  27.082  1.00  0.00     0.031 A 
ATOM     37  C   UNL A   1      43.220  25.944  27.538  1.00  0.00     0.074 A 
ATOM     38  C   UNL A   1      45.435  25.037  26.913  1.00  0.00     0.049 A 
ATOM     39  N   UNL A   1      43.509  27.199  27.757  1.00  0.00    -0.248 NA
ATOM     40  C   UNL A   1      41.810  25.598  27.783  1.00  0.00     0.031 C 
ATOM     41  C   UNL A   1      46.409  24.018  26.522  1.00  0.00     0.029 A 
ATOM     42  N   UNL A   1      46.180  26.182  27.049  1.00  0.00    -0.354 N 
ATOM     43  C   UNL A   1      42.320  27.795  28.162  1.00  0.00     0.074 A 
ATOM     44  C   UNL A   1      41.299  26.770  28.131  1.00  0.00     0.031 C 
ATOM     45  C   UNL A   1      47.625  24.585  26.446  1.00  0.00     0.029 A 
ATOM     46  C   UNL A   1      47.511  26.012  26.750  1.00  0.00     0.049 A 
ATOM     47  H   UNL A   1      45.797  27.042  27.335  1.00  0.00     0.167 HD
ATOM     48  C   UNL A   1      42.104  29.078  28.537  1.00  0.00     0.037 A 
ATOM     49  C   UNL A   1      48.516  26.909  26.707  1.00  0.00     0.037 A 
ATOM     50  C   UNL A   1      43.126  30.091  28.568  1.00  0.00     0.049 A 
ATOM     51  C   UNL A   1      48.236  28.348  27.053  1.00  0.00     0.074 A 
ATOM     52  C   UNL A   1      43.007  31.418  28.939  1.00  0.00     0.029 A 
ATOM     53  N   UNL A   1      44.451  29.891  28.212  1.00  0.00    -0.354 N 
ATOM     54  N   UNL A   1      47.107  28.897  27.434  1.00  0.00    -0.248 NA
ATOM     55  C   UNL A   1      49.361  29.288  26.959  1.00  0.00     0.031 C 
ATOM     56  C   UNL A   1      44.252  32.032  28.765  1.00  0.00     0.029 A 
ATOM     57  C   UNL A   1      45.157  31.076  28.333  1.00  0.00     0.049 A 
ATOM     58  H   UNL A   1      44.834  29.033  27.917  1.00  0.00     0.167 HD
ATOM     59  C   UNL A   1      47.392  30.242  27.647  1.00  0.00     0.074 A 
ATOM     60  C   UNL A   1      48.799  30.422  27.360  1.00  0.00     0.031 C 
ATOM     61  C   UNL A   1      46.562  31.238  28.046  1.00  0.00     0.037 A 
BRANCH  48  62
ATOM     62  C   UNL A   1      40.708  29.466  28.934  1.00  0.00     0.058 A 
ATOM     63  C   UNL A   1      40.388  29.695  30.281  1.00  0.00     0.135 A 
ATOM     64  C   UNL A   1      39.673  29.558  27.989  1.00  0.00     0.135 A 
ATOM     65  F   UNL A   1      41.342  29.630  31.224  1.00  0.00    -0.206 F 
ATOM     66  C   UNL A   1      39.088  29.985  30.681  1.00  0.00     0.059 A 
ATOM     67  C   UNL A   1      38.370  29.870  28.363  1.00  0.00     0.059 A 
ATOM     68  F   UNL A   1      39.932  29.373  26.685  1.00  0.00    -0.206 F 
ATOM     69  C   UNL A   1      38.084  30.067  29.715  1.00  0.00     0.060 A 
BRANCH  69  70
ATOM     70  S   UNL A   1      36.407  30.473  30.247  1.00  0.00     0.124 S 
ATOM     71  O   UNL A   1      36.487  31.919  30.417  1.00  0.00    -0.237 OA
ATOM     72  O   UNL A   1      35.607  30.007  29.118  1.00  0.00    -0.237 OA
ATOM     73  O   UNL A   1      36.246  29.701  31.476  1.00  0.00    -0.744 OA
ENDBRANCH  69  70
ENDBRANCH  48  62
BRANCH  49  74
ATOM     74  C   UNL A   1      49.881  26.466  26.322  1.00  0.00     0.058 A 
ATOM     75  C   UNL A   1      50.769  25.938  27.273  1.00  0.00     0.135 A 
ATOM     76  C   UNL A   1      50.336  26.591  25.001  1.00  0.00     0.135 A 
ATOM     77  F   UNL A   1      50.383  25.799  28.551  1.00  0.00    -0.206 F 
ATOM     78  C   UNL A   1      52.069  25.578  26.935  1.00  0.00     0.059 A 
ATOM     79  C   UNL A   1      51.625  26.216  24.634  1.00  0.00     0.059 A 
ATOM     80  F   UNL A   1      49.517  27.075  24.055  1.00  0.00    -0.206 F 
ATOM     81  C   UNL A   1      52.490  25.727  25.613  1.00  0.00     0.060 A 
BRANCH  81  82
ATOM     82  S   UNL A   1      54.189  25.279  25.200  1.00  0.00     0.124 S 
ATOM     83  O   UNL A   1      54.069  23.838  25.005  1.00  0.00    -0.237 OA
ATOM     84  O   UNL A   1      54.429  26.067  23.995  1.00  0.00    -0.237 OA
ATOM     85  O   UNL A   1      54.944  25.693  26.379  1.00  0.00    -0.744 OA
ENDBRANCH  81  82
ENDBRANCH  49  74
BRANCH  61  86
ATOM     86  C   UNL A   1      47.145  32.613  28.220  1.00  0.00     0.058 A 
ATOM     87  C   UNL A   1      47.135  33.529  27.156  1.00  0.00     0.135 A 
ATOM     88  C   UNL A   1      47.792  32.991  29.406  1.00  0.00     0.135 A 
ATOM     89  F   UNL A   1      46.532  33.215  25.997  1.00  0.00    -0.206 F 
ATOM     90  C   UNL A   1      47.767  34.763  27.253  1.00  0.00     0.059 A 
ATOM     91  C   UNL A   1      48.410  34.232  29.534  1.00  0.00     0.059 A 
ATOM     92  F   UNL A   1      47.820  32.155  30.456  1.00  0.00    -0.206 F 
ATOM     93  C   UNL A   1      48.408  35.103  28.445  1.00  0.00     0.060 A 
BRANCH  93  94
ATOM     94  S   UNL A   1      49.225  36.709  28.553  1.00  0.00     0.124 S 
ATOM     95  O   UNL A   1      49.081  37.024  29.970  1.00  0.00    -0.237 OA
ATOM     96  O   UNL A   1      50.580  36.398  28.106  1.00  0.00    -0.237 OA
ATOM     97  O   UNL A   1      48.450  37.546  27.641  1.00  0.00    -0.744 OA
ENDBRANCH  93  94
ENDBRANCH  61  86
ENDBRANCH  35  36
ENDBRANCH  28  30
ENDBRANCH  27  28
ENDBRANCH  26  27
ENDBRANCH  25  26
ENDBRANCH   1  25
TORSDOF 20
ENDMDL
MODEL 3
REMARK VINA RESULT:     -10.7      5.027     11.679
REMARK SMILES Cn1ccc(NS(=O)(=O)c2ccc(C(=O)OCCOCCOC(=O)c3ccc(-c4c5nc(c(-c6c(F)cc(S(=O)(=O)[O-])cc6F)c6ccc([nH]6)c(-c6c(F)cc(S(=O)(=O)[O-])cc6F)c6nc(c(-c7c(F)cc(S(=O)(=O)[O-])cc7F)c7ccc4[nH]7)C=C6)C=C5)cc3)cc2F)n1
REMARK SMILES IDX 19 1 18 2 17 3 16 4 14 5 15 6 13 7 10 8 11 9 92 10 12 11
REMARK SMILES IDX 91 12 93 13 7 14 8 15 9 16 6 17 5 19 1 20 2 21 3 22 94 23
REMARK SMILES IDX 4 24 20 25 21 26 22 27 23 28 24 29 25 30 26 31 90 32 27 33
REMARK SMILES IDX 89 34 28 35 29 36 30 37 83 38 31 39 88 40 82 41 84 42 32 43
REMARK SMILES IDX 87 44 81 45 80 46 33 48 67 49 46 50 66 51 47 52 50 53 65 54
REMARK SMILES IDX 85 55 48 56 49 57 64 59 86 60 51 61 34 62 35 63 44 64 36 65
REMARK SMILES IDX 37 66 43 67 45 68 38 69 39 70 40 71 41 72 42 73 68 74 69 75
REMARK SMILES IDX 78 76 70 77 71 78 77 79 79 80 72 81 73 82 74 83 75 84 76 85
REMARK SMILES IDX 52 86 53 87 62 88 54 89 55 90 61 91 63 92 56 93 57 94 58 95
REMARK SMILES IDX 59 96 60 97
REMARK H PARENT 6 18 84 47 50 58
REMARK Flexibility Score: inf
ROOT
ATOM      1  O   UNL A   1      35.283  34.233  28.845  1.00  0.00    -0.374 OA
ENDROOT
BRANCH   1   2
ATOM      2  C   UNL A   1      36.575  33.676  29.106  1.00  0.00     0.202 C 
BRANCH   2   3
ATOM      3  C   UNL A   1      36.948  33.495  30.583  1.00  0.00     0.261 C 
BRANCH   3   4
ATOM      4  O   UNL A   1      35.881  33.930  31.447  1.00  0.00    -0.460 OA
BRANCH   4   5
ATOM      5  C   UNL A   1      35.236  32.938  32.094  1.00  0.00     0.338 C 
ATOM      6  O   UNL A   1      34.150  32.443  31.818  1.00  0.00    -0.246 OA
BRANCH   5   7
ATOM      7  C   UNL A   1      36.129  32.329  33.090  1.00  0.00     0.063 A 
ATOM      8  C   UNL A   1      38.172  31.585  34.811  1.00  0.00     0.123 A 
ATOM      9  C   UNL A   1      37.324  32.621  35.178  1.00  0.00     0.026 A 
ATOM     10  C   UNL A   1      37.857  30.798  33.699  1.00  0.00     0.144 A 
ATOM     11  C   UNL A   1      36.358  33.046  34.272  1.00  0.00     0.017 A 
ATOM     12  C   UNL A   1      36.812  31.144  32.843  1.00  0.00     0.056 A 
ATOM     13  F   UNL A   1      38.563  29.695  33.419  1.00  0.00    -0.205 F 
BRANCH   8  14
ATOM     14  S   UNL A   1      39.754  31.348  35.551  1.00  0.00     0.266 S 
ATOM     15  O   UNL A   1      39.763  32.008  36.839  1.00  0.00    -0.201 OA
ATOM     16  O   UNL A   1      40.724  31.708  34.533  1.00  0.00    -0.201 OA
BRANCH  14  17
ATOM     17  N   UNL A   1      40.081  29.738  35.855  1.00  0.00    -0.262 N 
ATOM     18  H   UNL A   1      39.381  29.277  36.372  1.00  0.00     0.182 HD
BRANCH  17  19
ATOM     19  C   UNL A   1      41.152  28.934  35.516  1.00  0.00     0.161 A 
ATOM     20  C   UNL A   1      43.032  27.467  33.014  1.00  0.00     0.173 C 
ATOM     21  N   UNL A   1      42.532  27.892  34.302  1.00  0.00    -0.274 N 
ATOM     22  C   UNL A   1      43.277  28.305  35.365  1.00  0.00     0.110 A 
ATOM     23  N   UNL A   1      41.217  28.132  34.459  1.00  0.00    -0.155 NA
ATOM     24  C   UNL A   1      42.401  28.985  36.181  1.00  0.00     0.069 A 
ENDBRANCH  17  19
ENDBRANCH  14  17
ENDBRANCH   8  14
ENDBRANCH   5   7
ENDBRANCH   4   5
ENDBRANCH   3   4
ENDBRANCH   2   3
ENDBRANCH   1   2
BRANCH   1  25
ATOM     25  C   UNL A   1      34.409  33.462  28.022  1.00  0.00     0.202 C 
BRANCH  25  26
ATOM     26  C   UNL A   1      34.162  32.012  28.441  1.00  0.00     0.261 C 
BRANCH  26  27
ATOM     27  O   UNL A   1      34.406  31.108  27.352  1.00  0.00    -0.460 OA
BRANCH  27  28
ATOM     28  C   UNL A   1      34.671  29.834  27.723  1.00  0.00     0.338 C 
ATOM     29  O   UNL A   1      33.942  28.860  27.580  1.00  0.00    -0.246 OA
BRANCH  28  30
ATOM     30  C   UNL A   1      36.072  29.724  28.163  1.00  0.00     0.060 A 
ATOM     31  C   UNL A   1      37.068  29.926  27.199  1.00  0.00     0.016 A 
ATOM     32  C   UNL A   1      36.412  29.386  29.475  1.00  0.00     0.016 A 
ATOM     33  C   UNL A   1      38.407  29.738  27.529  1.00  0.00     0.010 A 
ATOM     34  C   UNL A   1      37.758  29.187  29.803  1.00  0.00     0.010 A 
ATOM     35  C   UNL A   1      38.756  29.329  28.822  1.00  0.00    -0.014 A 
BRANCH  35  36
ATOM     36  C   UNL A   1      40.149  28.911  29.103  1.00  0.00     0.031 A 
ATOM     37  C   UNL A   1      41.071  29.877  29.796  1.00  0.00     0.074 A 
ATOM     38  C   UNL A   1      40.574  27.677  28.781  1.00  0.00     0.049 A 
ATOM     39  N   UNL A   1      42.332  29.736  30.109  1.00  0.00    -0.248 NA
ATOM     40  C   UNL A   1      40.493  31.172  30.192  1.00  0.00     0.031 C 
ATOM     41  C   UNL A   1      39.754  26.641  28.153  1.00  0.00     0.029 A 
ATOM     42  N   UNL A   1      41.802  27.087  28.938  1.00  0.00    -0.354 N 
ATOM     43  C   UNL A   1      42.700  30.922  30.734  1.00  0.00     0.074 A 
ATOM     44  C   UNL A   1      41.537  31.783  30.731  1.00  0.00     0.031 C 
ATOM     45  C   UNL A   1      40.506  25.541  27.974  1.00  0.00     0.029 A 
ATOM     46  C   UNL A   1      41.866  25.806  28.444  1.00  0.00     0.049 A 
ATOM     47  H   UNL A   1      42.566  27.538  29.365  1.00  0.00     0.167 HD
ATOM     48  C   UNL A   1      43.897  31.256  31.272  1.00  0.00     0.037 A 
ATOM     49  C   UNL A   1      42.907  24.953  28.362  1.00  0.00     0.037 A 
ATOM     50  C   UNL A   1      45.048  30.392  31.274  1.00  0.00     0.049 A 
ATOM     51  C   UNL A   1      44.250  25.376  28.898  1.00  0.00     0.074 A 
ATOM     52  C   UNL A   1      46.304  30.638  31.800  1.00  0.00     0.029 A 
ATOM     53  N   UNL A   1      45.086  29.121  30.722  1.00  0.00    -0.354 N 
ATOM     54  N   UNL A   1      44.584  26.500  29.486  1.00  0.00    -0.248 NA
ATOM     55  C   UNL A   1      45.357  24.420  28.754  1.00  0.00     0.031 C 
ATOM     56  C   UNL A   1      47.114  29.531  31.526  1.00  0.00     0.029 A 
ATOM     57  C   UNL A   1      46.350  28.577  30.873  1.00  0.00     0.049 A 
ATOM     58  H   UNL A   1      44.327  28.671  30.286  1.00  0.00     0.167 HD
ATOM     59  C   UNL A   1      45.933  26.377  29.803  1.00  0.00     0.074 A 
ATOM     60  C   UNL A   1      46.351  25.067  29.349  1.00  0.00     0.031 C 
ATOM     61  C   UNL A   1      46.750  27.268  30.418  1.00  0.00     0.037 A 
BRANCH  48  62
ATOM     62  C   UNL A   1      44.029  32.616  31.895  1.00  0.00     0.058 A 
ATOM     63  C   UNL A   1      44.259  33.747  31.095  1.00  0.00     0.135 A 
ATOM     64  C   UNL A   1      43.984  32.796  33.287  1.00  0.00     0.135 A 
ATOM     65  F   UNL A   1      44.301  33.633  29.758  1.00  0.00    -0.206 F 
ATOM     66  C   UNL A   1      44.457  35.005  31.653  1.00  0.00     0.059 A 
ATOM     67  C   UNL A   1      44.156  34.049  33.866  1.00  0.00     0.059 A 
ATOM     68  F   UNL A   1      43.742  31.752  34.095  1.00  0.00    -0.206 F 
ATOM     69  C   UNL A   1      44.406  35.146  33.041  1.00  0.00     0.060 A 
BRANCH  69  70
ATOM     70  S   UNL A   1      44.636  36.791  33.749  1.00  0.00     0.124 S 
ATOM     71  O   UNL A   1      44.617  37.635  32.560  1.00  0.00    -0.237 OA
ATOM     72  O   UNL A   1      43.480  36.908  34.633  1.00  0.00    -0.237 OA
ATOM     73  O   UNL A   1      45.924  36.690  34.429  1.00  0.00    -0.744 OA
ENDBRANCH  69  70
ENDBRANCH  48  62
BRANCH  49  74
ATOM     74  C   UNL A   1      42.714  23.613  27.749  1.00  0.00     0.058 A 
ATOM     75  C   UNL A   1      42.371  22.499  28.532  1.00  0.00     0.135 A 
ATOM     76  C   UNL A   1      42.899  23.415  26.373  1.00  0.00     0.135 A 
ATOM     77  F   UNL A   1      42.185  22.635  29.854  1.00  0.00    -0.206 F 
ATOM     78  C   UNL A   1      42.249  21.230  27.976  1.00  0.00     0.059 A 
ATOM     79  C   UNL A   1      42.760  22.159  25.791  1.00  0.00     0.059 A 
ATOM     80  F   UNL A   1      43.211  24.454  25.583  1.00  0.00    -0.206 F 
ATOM     81  C   UNL A   1      42.453  21.069  26.606  1.00  0.00     0.060 A 
BRANCH  81  82
ATOM     82  S   UNL A   1      42.315  19.409  25.909  1.00  0.00     0.124 S 
ATOM     83  O   UNL A   1      40.873  19.295  25.713  1.00  0.00    -0.237 OA
ATOM     84  O   UNL A   1      43.117  19.519  24.695  1.00  0.00    -0.237 OA
ATOM     85  O   UNL A   1      42.875  18.557  26.953  1.00  0.00    -0.744 OA
ENDBRANCH  81  82
ENDBRANCH  49  74
BRANCH  61  86
ATOM     86  C   UNL A   1      48.178  26.863  30.659  1.00  0.00     0.058 A 
ATOM     87  C   UNL A   1      48.571  26.351  31.906  1.00  0.00     0.135 A 
ATOM     88  C   UNL A   1      49.171  27.065  29.690  1.00  0.00     0.135 A 
ATOM     89  F   UNL A   1      47.660  26.142  32.870  1.00  0.00    -0.206 F 
ATOM     90  C   UNL A   1      49.903  26.076  32.192  1.00  0.00     0.059 A 
ATOM     91  C   UNL A   1      50.509  26.773  29.946  1.00  0.00     0.059 A 
ATOM     92  F   UNL A   1      48.846  27.542  28.478  1.00  0.00    -0.206 F 
ATOM     93  C   UNL A   1      50.867  26.297  31.207  1.00  0.00     0.060 A 
BRANCH  93  94
ATOM     94  S   UNL A   1      52.592  25.936  31.596  1.00  0.00     0.124 S 
ATOM     95  O   UNL A   1      52.880  26.926  32.626  1.00  0.00    -0.237 OA
ATOM     96  O   UNL A   1      52.524  24.549  32.049  1.00  0.00    -0.237 OA
ATOM     97  O   UNL A   1      53.276  26.136  30.322  1.00  0.00    -0.744 OA
ENDBRANCH  93  94
ENDBRANCH  61  86
ENDBRANCH  35  36
ENDBRANCH  28  30
ENDBRANCH  27  28
ENDBRANCH  26  27
ENDBRANCH  25  26
ENDBRANCH   1  25
TORSDOF 20
ENDMDL
