MODEL 1
REMARK VINA RESULT:     -10.2      0.000      0.000
REMARK SMILES CC[C@H](NC(=O)N1CCO[C@@H](CC(=O)OCCOCCOC(=O)c2ccc(-c3c4nc(c(-c5c(F)cc(S(=O)(=O)[O-])cc5F)c5ccc([nH]5)c(-c5c(F)cc(S(=O)(=O)[O-])cc5F)c5nc(c(-c6c(F)cc(S(=O)(=O)[O-])cc6F)c6ccc3[nH]6)C=C5)C=C4)cc2)C1)c1cccs1
REMARK SMILES IDX 17 1 16 2 15 3 13 4 14 5 12 6 11 7 7 8 8 9 90 10 9 11 10 12
REMARK SMILES IDX 5 13 4 14 6 16 3 17 2 18 1 19 91 20 92 21 95 22 93 23 94 24
REMARK SMILES IDX 18 25 19 26 20 27 21 28 22 29 23 30 24 31 25 32 89 33 26 34
REMARK SMILES IDX 88 35 27 36 28 37 29 38 82 39 30 40 87 41 81 42 83 43 31 44
REMARK SMILES IDX 86 45 80 46 79 47 32 49 66 50 45 51 65 52 46 53 49 54 64 55
REMARK SMILES IDX 84 56 47 57 48 58 63 60 85 61 50 62 33 63 34 64 43 65 35 66
REMARK SMILES IDX 36 67 42 68 44 69 37 70 38 71 39 72 40 73 41 74 67 75 68 76
REMARK SMILES IDX 77 77 69 78 70 79 76 80 78 81 71 82 72 83 73 84 74 85 75 86
REMARK SMILES IDX 51 87 52 88 61 89 53 90 54 91 60 92 62 93 55 94 56 95 57 96
REMARK SMILES IDX 58 97 59 98
REMARK H PARENT 4 15 83 48 49 59
REMARK Flexibility Score: inf
ROOT
ATOM      1  C   UNL A   1      33.988  31.211  27.384  1.00  0.00     0.202 C 
ENDROOT
BRANCH   1   2
ATOM      2  C   UNL A   1      33.887  29.761  26.909  1.00  0.00     0.261 C 
BRANCH   2   3
ATOM      3  O   UNL A   1      33.175  29.662  25.659  1.00  0.00    -0.463 OA
BRANCH   3   4
ATOM      4  C   UNL A   1      33.538  28.649  24.833  1.00  0.00     0.308 C 
ATOM      5  O   UNL A   1      33.747  28.760  23.632  1.00  0.00    -0.252 OA
BRANCH   4   6
ATOM      6  C   UNL A   1      33.605  27.332  25.556  1.00  0.00     0.156 C 
BRANCH   6   7
ATOM      7  C   UNL A   1      32.541  26.296  25.191  1.00  0.00     0.149 C 
ATOM      8  N   UNL A   1      30.894  24.656  26.055  1.00  0.00    -0.320 N 
ATOM      9  C   UNL A   1      29.819  25.514  25.581  1.00  0.00     0.150 C 
ATOM     10  C   UNL A   1      32.107  25.410  26.386  1.00  0.00     0.154 C 
ATOM     11  C   UNL A   1      30.292  26.255  24.342  1.00  0.00     0.182 C 
ATOM     12  O   UNL A   1      31.426  27.070  24.669  1.00  0.00    -0.374 OA
BRANCH   8  13
ATOM     13  C   UNL A   1      30.701  23.429  26.611  1.00  0.00     0.318 C 
ATOM     14  N   UNL A   1      31.470  22.379  26.245  1.00  0.00    -0.330 N 
ATOM     15  H   UNL A   1      31.208  21.530  26.667  1.00  0.00     0.166 HD
ATOM     16  O   UNL A   1      29.879  23.248  27.508  1.00  0.00    -0.249 OA
BRANCH  14  17
ATOM     17  C   UNL A   1      32.612  22.262  25.347  1.00  0.00     0.124 C 
BRANCH  17  18
ATOM     18  C   UNL A   1      33.947  22.353  26.113  1.00  0.00     0.027 C 
ATOM     19  C   UNL A   1      34.978  23.212  25.392  1.00  0.00     0.006 C 
ENDBRANCH  17  18
BRANCH  17  20
ATOM     20  C   UNL A   1      32.501  20.936  24.622  1.00  0.00     0.027 A 
ATOM     21  C   UNL A   1      32.178  20.683  23.299  1.00  0.00     0.017 A 
ATOM     22  S   UNL A   1      32.883  19.478  25.452  1.00  0.00    -0.147 S 
ATOM     23  C   UNL A   1      32.311  19.309  22.956  1.00  0.00     0.012 A 
ATOM     24  C   UNL A   1      32.692  18.543  24.033  1.00  0.00     0.065 A 
ENDBRANCH  17  20
ENDBRANCH  14  17
ENDBRANCH   8  13
ENDBRANCH   6   7
ENDBRANCH   4   6
ENDBRANCH   3   4
ENDBRANCH   2   3
ENDBRANCH   1   2
BRANCH   1  25
ATOM     25  O   UNL A   1      34.431  31.393  28.730  1.00  0.00    -0.374 OA
BRANCH  25  26
ATOM     26  C   UNL A   1      34.710  32.732  29.132  1.00  0.00     0.202 C 
BRANCH  26  27
ATOM     27  C   UNL A   1      35.531  32.896  30.417  1.00  0.00     0.261 C 
BRANCH  27  28
ATOM     28  O   UNL A   1      36.180  31.674  30.806  1.00  0.00    -0.460 OA
BRANCH  28  29
ATOM     29  C   UNL A   1      37.306  31.831  31.543  1.00  0.00     0.338 C 
ATOM     30  O   UNL A   1      37.395  32.362  32.643  1.00  0.00    -0.246 OA
BRANCH  29  31
ATOM     31  C   UNL A   1      38.428  31.107  30.916  1.00  0.00     0.060 A 
ATOM     32  C   UNL A   1      39.394  30.529  31.749  1.00  0.00     0.016 A 
ATOM     33  C   UNL A   1      38.561  31.028  29.531  1.00  0.00     0.016 A 
ATOM     34  C   UNL A   1      40.511  29.901  31.195  1.00  0.00     0.010 A 
ATOM     35  C   UNL A   1      39.667  30.375  28.976  1.00  0.00     0.010 A 
ATOM     36  C   UNL A   1      40.671  29.844  29.804  1.00  0.00    -0.014 A 
BRANCH  36  37
ATOM     37  C   UNL A   1      41.955  29.381  29.217  1.00  0.00     0.031 A 
ATOM     38  C   UNL A   1      43.091  30.365  29.087  1.00  0.00     0.074 A 
ATOM     39  C   UNL A   1      42.124  28.104  28.824  1.00  0.00     0.049 A 
ATOM     40  N   UNL A   1      44.285  30.193  28.581  1.00  0.00    -0.248 NA
ATOM     41  C   UNL A   1      42.841  31.726  29.588  1.00  0.00     0.031 C 
ATOM     42  C   UNL A   1      41.111  27.053  28.906  1.00  0.00     0.029 A 
ATOM     43  N   UNL A   1      43.214  27.476  28.270  1.00  0.00    -0.354 N 
ATOM     44  C   UNL A   1      44.922  31.425  28.691  1.00  0.00     0.074 A 
ATOM     45  C   UNL A   1      43.969  32.344  29.273  1.00  0.00     0.031 C 
ATOM     46  C   UNL A   1      41.628  25.909  28.423  1.00  0.00     0.029 A 
ATOM     47  C   UNL A   1      42.996  26.153  27.968  1.00  0.00     0.049 A 
ATOM     48  H   UNL A   1      44.071  27.932  28.106  1.00  0.00     0.167 HD
ATOM     49  C   UNL A   1      46.191  31.757  28.356  1.00  0.00     0.037 A 
ATOM     50  C   UNL A   1      43.803  25.247  27.379  1.00  0.00     0.037 A 
ATOM     51  C   UNL A   1      47.145  30.838  27.793  1.00  0.00     0.049 A 
ATOM     52  C   UNL A   1      45.198  25.651  26.972  1.00  0.00     0.074 A 
ATOM     53  C   UNL A   1      48.464  31.071  27.448  1.00  0.00     0.029 A 
ATOM     54  N   UNL A   1      46.880  29.510  27.490  1.00  0.00    -0.354 N 
ATOM     55  N   UNL A   1      45.796  26.810  27.113  1.00  0.00    -0.248 NA
ATOM     56  C   UNL A   1      46.028  24.622  26.330  1.00  0.00     0.031 C 
ATOM     57  C   UNL A   1      48.984  29.897  26.893  1.00  0.00     0.029 A 
ATOM     58  C   UNL A   1      48.005  28.917  26.941  1.00  0.00     0.049 A 
ATOM     59  H   UNL A   1      46.020  29.056  27.642  1.00  0.00     0.167 HD
ATOM     60  C   UNL A   1      47.081  26.641  26.605  1.00  0.00     0.074 A 
ATOM     61  C   UNL A   1      47.176  25.265  26.162  1.00  0.00     0.031 C 
ATOM     62  C   UNL A   1      48.091  27.542  26.514  1.00  0.00     0.037 A 
BRANCH  49  63
ATOM     63  C   UNL A   1      46.617  33.183  28.576  1.00  0.00     0.058 A 
ATOM     64  C   UNL A   1      46.395  34.179  27.610  1.00  0.00     0.135 A 
ATOM     65  C   UNL A   1      47.232  33.565  29.779  1.00  0.00     0.135 A 
ATOM     66  F   UNL A   1      45.827  33.867  26.434  1.00  0.00    -0.206 F 
ATOM     67  C   UNL A   1      46.797  35.495  27.816  1.00  0.00     0.059 A 
ATOM     68  C   UNL A   1      47.615  34.882  30.019  1.00  0.00     0.059 A 
ATOM     69  F   UNL A   1      47.469  32.655  30.736  1.00  0.00    -0.206 F 
ATOM     70  C   UNL A   1      47.407  35.836  29.024  1.00  0.00     0.060 A 
BRANCH  70  71
ATOM     71  S   UNL A   1      47.922  37.547  29.277  1.00  0.00     0.124 S 
ATOM     72  O   UNL A   1      48.134  37.577  30.722  1.00  0.00    -0.237 OA
ATOM     73  O   UNL A   1      49.128  37.635  28.459  1.00  0.00    -0.237 OA
ATOM     74  O   UNL A   1      46.782  38.322  28.796  1.00  0.00    -0.744 OA
ENDBRANCH  70  71
ENDBRANCH  49  63
BRANCH  50  75
ATOM     75  C   UNL A   1      43.314  23.862  27.133  1.00  0.00     0.058 A 
ATOM     76  C   UNL A   1      43.247  22.922  28.172  1.00  0.00     0.135 A 
ATOM     77  C   UNL A   1      42.909  23.450  25.853  1.00  0.00     0.135 A 
ATOM     78  F   UNL A   1      43.635  23.262  29.411  1.00  0.00    -0.206 F 
ATOM     79  C   UNL A   1      42.810  21.619  27.950  1.00  0.00     0.059 A 
ATOM     80  C   UNL A   1      42.444  22.161  25.613  1.00  0.00     0.059 A 
ATOM     81  F   UNL A   1      42.948  24.312  24.826  1.00  0.00    -0.206 F 
ATOM     82  C   UNL A   1      42.407  21.249  26.667  1.00  0.00     0.060 A 
BRANCH  82  83
ATOM     83  S   UNL A   1      41.794  19.571  26.399  1.00  0.00     0.124 S 
ATOM     84  O   UNL A   1      40.357  19.797  26.293  1.00  0.00    -0.237 OA
ATOM     85  O   UNL A   1      42.474  19.190  25.166  1.00  0.00    -0.237 OA
ATOM     86  O   UNL A   1      42.234  18.858  27.595  1.00  0.00    -0.744 OA
ENDBRANCH  82  83
ENDBRANCH  50  75
BRANCH  62  87
ATOM     87  C   UNL A   1      49.404  27.068  25.953  1.00  0.00     0.058 A 
ATOM     88  C   UNL A   1      49.701  27.163  24.585  1.00  0.00     0.135 A 
ATOM     89  C   UNL A   1      50.402  26.569  26.806  1.00  0.00     0.135 A 
ATOM     90  F   UNL A   1      48.782  27.628  23.724  1.00  0.00    -0.206 F 
ATOM     91  C   UNL A   1      50.933  26.760  24.079  1.00  0.00     0.059 A 
ATOM     92  C   UNL A   1      51.650  26.187  26.327  1.00  0.00     0.059 A 
ATOM     93  F   UNL A   1      50.174  26.468  28.126  1.00  0.00    -0.206 F 
ATOM     94  C   UNL A   1      51.904  26.276  24.958  1.00  0.00     0.060 A 
BRANCH  94  95
ATOM     95  S   UNL A   1      53.512  25.793  24.295  1.00  0.00     0.124 S 
ATOM     96  O   UNL A   1      53.293  25.939  22.860  1.00  0.00    -0.237 OA
ATOM     97  O   UNL A   1      54.407  26.773  24.902  1.00  0.00    -0.237 OA
ATOM     98  O   UNL A   1      53.678  24.422  24.769  1.00  0.00    -0.744 OA
ENDBRANCH  94  95
ENDBRANCH  62  87
ENDBRANCH  36  37
ENDBRANCH  29  31
ENDBRANCH  28  29
ENDBRANCH  27  28
ENDBRANCH  26  27
ENDBRANCH  25  26
ENDBRANCH   1  25
TORSDOF 22
ENDMDL
MODEL 2
REMARK VINA RESULT:     -10.1      1.530      2.369
REMARK SMILES CC[C@H](NC(=O)N1CCO[C@@H](CC(=O)OCCOCCOC(=O)c2ccc(-c3c4nc(c(-c5c(F)cc(S(=O)(=O)[O-])cc5F)c5ccc([nH]5)c(-c5c(F)cc(S(=O)(=O)[O-])cc5F)c5nc(c(-c6c(F)cc(S(=O)(=O)[O-])cc6F)c6ccc3[nH]6)C=C5)C=C4)cc2)C1)c1cccs1
REMARK SMILES IDX 17 1 16 2 15 3 13 4 14 5 12 6 11 7 7 8 8 9 90 10 9 11 10 12
REMARK SMILES IDX 5 13 4 14 6 16 3 17 2 18 1 19 91 20 92 21 95 22 93 23 94 24
REMARK SMILES IDX 18 25 19 26 20 27 21 28 22 29 23 30 24 31 25 32 89 33 26 34
REMARK SMILES IDX 88 35 27 36 28 37 29 38 82 39 30 40 87 41 81 42 83 43 31 44
REMARK SMILES IDX 86 45 80 46 79 47 32 49 66 50 45 51 65 52 46 53 49 54 64 55
REMARK SMILES IDX 84 56 47 57 48 58 63 60 85 61 50 62 33 63 34 64 43 65 35 66
REMARK SMILES IDX 36 67 42 68 44 69 37 70 38 71 39 72 40 73 41 74 67 75 68 76
REMARK SMILES IDX 77 77 69 78 70 79 76 80 78 81 71 82 72 83 73 84 74 85 75 86
REMARK SMILES IDX 51 87 52 88 61 89 53 90 54 91 60 92 62 93 55 94 56 95 57 96
REMARK SMILES IDX 58 97 59 98
REMARK H PARENT 4 15 83 48 49 59
REMARK Flexibility Score: inf
ROOT
ATOM      1  C   UNL A   1      34.694  31.628  27.670  1.00  0.00     0.202 C 
ENDROOT
BRANCH   1   2
ATOM      2  C   UNL A   1      34.022  30.310  27.282  1.00  0.00     0.261 C 
BRANCH   2   3
ATOM      3  O   UNL A   1      32.625  30.498  26.978  1.00  0.00    -0.463 OA
BRANCH   3   4
ATOM      4  C   UNL A   1      31.909  29.379  26.704  1.00  0.00     0.308 C 
ATOM      5  O   UNL A   1      31.516  28.572  27.536  1.00  0.00    -0.252 OA
BRANCH   4   6
ATOM      6  C   UNL A   1      31.690  29.201  25.226  1.00  0.00     0.156 C 
BRANCH   6   7
ATOM      7  C   UNL A   1      32.664  28.276  24.496  1.00  0.00     0.149 C 
ATOM      8  N   UNL A   1      32.903  26.251  23.087  1.00  0.00    -0.320 N 
ATOM      9  C   UNL A   1      33.311  27.094  21.974  1.00  0.00     0.150 C 
ATOM     10  C   UNL A   1      32.019  26.948  24.025  1.00  0.00     0.154 C 
ATOM     11  C   UNL A   1      34.037  28.311  22.523  1.00  0.00     0.182 C 
ATOM     12  O   UNL A   1      33.155  29.058  23.373  1.00  0.00    -0.374 OA
BRANCH   8  13
ATOM     13  C   UNL A   1      32.887  24.890  23.045  1.00  0.00     0.318 C 
ATOM     14  N   UNL A   1      33.782  24.169  23.757  1.00  0.00    -0.330 N 
ATOM     15  H   UNL A   1      33.716  23.199  23.609  1.00  0.00     0.166 HD
ATOM     16  O   UNL A   1      32.023  24.273  22.424  1.00  0.00    -0.249 OA
BRANCH  14  17
ATOM     17  C   UNL A   1      34.825  24.552  24.701  1.00  0.00     0.124 C 
BRANCH  17  18
ATOM     18  C   UNL A   1      34.244  24.854  26.096  1.00  0.00     0.027 C 
ATOM     19  C   UNL A   1      32.985  24.049  26.393  1.00  0.00     0.006 C 
ENDBRANCH  17  18
BRANCH  17  20
ATOM     20  C   UNL A   1      35.827  23.417  24.772  1.00  0.00     0.027 A 
ATOM     21  C   UNL A   1      37.166  23.448  25.124  1.00  0.00     0.017 A 
ATOM     22  S   UNL A   1      35.309  21.804  24.464  1.00  0.00    -0.147 S 
ATOM     23  C   UNL A   1      37.741  22.149  25.205  1.00  0.00     0.012 A 
ATOM     24  C   UNL A   1      36.840  21.165  24.875  1.00  0.00     0.065 A 
ENDBRANCH  17  20
ENDBRANCH  14  17
ENDBRANCH   8  13
ENDBRANCH   6   7
ENDBRANCH   4   6
ENDBRANCH   3   4
ENDBRANCH   2   3
ENDBRANCH   1   2
BRANCH   1  25
ATOM     25  O   UNL A   1      35.314  31.651  28.957  1.00  0.00    -0.374 OA
BRANCH  25  26
ATOM     26  C   UNL A   1      34.778  32.572  29.904  1.00  0.00     0.202 C 
BRANCH  26  27
ATOM     27  C   UNL A   1      35.249  32.403  31.354  1.00  0.00     0.261 C 
BRANCH  27  28
ATOM     28  O   UNL A   1      36.015  31.201  31.539  1.00  0.00    -0.460 OA
BRANCH  28  29
ATOM     29  C   UNL A   1      37.195  31.364  32.185  1.00  0.00     0.338 C 
ATOM     30  O   UNL A   1      37.359  31.828  33.307  1.00  0.00    -0.246 OA
BRANCH  29  31
ATOM     31  C   UNL A   1      38.286  30.738  31.415  1.00  0.00     0.060 A 
ATOM     32  C   UNL A   1      39.183  29.903  32.094  1.00  0.00     0.016 A 
ATOM     33  C   UNL A   1      38.460  30.994  30.057  1.00  0.00     0.016 A 
ATOM     34  C   UNL A   1      40.273  29.351  31.419  1.00  0.00     0.010 A 
ATOM     35  C   UNL A   1      39.537  30.419  29.374  1.00  0.00     0.010 A 
ATOM     36  C   UNL A   1      40.475  29.628  30.060  1.00  0.00    -0.014 A 
BRANCH  36  37
ATOM     37  C   UNL A   1      41.745  29.231  29.396  1.00  0.00     0.031 A 
ATOM     38  C   UNL A   1      42.833  30.262  29.234  1.00  0.00     0.074 A 
ATOM     39  C   UNL A   1      41.943  27.972  28.962  1.00  0.00     0.049 A 
ATOM     40  N   UNL A   1      44.005  30.152  28.664  1.00  0.00    -0.248 NA
ATOM     41  C   UNL A   1      42.556  31.600  29.784  1.00  0.00     0.031 C 
ATOM     42  C   UNL A   1      40.977  26.879  29.068  1.00  0.00     0.029 A 
ATOM     43  N   UNL A   1      43.026  27.402  28.338  1.00  0.00    -0.354 N 
ATOM     44  C   UNL A   1      44.598  31.405  28.774  1.00  0.00     0.074 A 
ATOM     45  C   UNL A   1      43.641  32.271  29.428  1.00  0.00     0.031 C 
ATOM     46  C   UNL A   1      41.512  25.769  28.530  1.00  0.00     0.029 A 
ATOM     47  C   UNL A   1      42.845  26.079  28.013  1.00  0.00     0.049 A 
ATOM     48  H   UNL A   1      43.855  27.896  28.142  1.00  0.00     0.167 HD
ATOM     49  C   UNL A   1      45.834  31.797  28.383  1.00  0.00     0.037 A 
ATOM     50  C   UNL A   1      43.655  25.220  27.360  1.00  0.00     0.037 A 
ATOM     51  C   UNL A   1      46.792  30.930  27.749  1.00  0.00     0.049 A 
ATOM     52  C   UNL A   1      45.009  25.690  26.893  1.00  0.00     0.074 A 
ATOM     53  C   UNL A   1      48.082  31.224  27.344  1.00  0.00     0.029 A 
ATOM     54  N   UNL A   1      46.565  29.601  27.425  1.00  0.00    -0.354 N 
ATOM     55  N   UNL A   1      45.569  26.868  27.033  1.00  0.00    -0.248 NA
ATOM     56  C   UNL A   1      45.845  24.711  26.183  1.00  0.00     0.031 C 
ATOM     57  C   UNL A   1      48.618  30.086  26.732  1.00  0.00     0.029 A 
ATOM     58  C   UNL A   1      47.682  29.067  26.805  1.00  0.00     0.049 A 
ATOM     59  H   UNL A   1      45.732  29.108  27.609  1.00  0.00     0.167 HD
ATOM     60  C   UNL A   1      46.831  26.763  26.456  1.00  0.00     0.074 A 
ATOM     61  C   UNL A   1      46.957  25.404  25.974  1.00  0.00     0.031 C 
ATOM     62  C   UNL A   1      47.799  27.707  26.338  1.00  0.00     0.037 A 
BRANCH  49  63
ATOM     63  C   UNL A   1      46.215  33.233  28.619  1.00  0.00     0.058 A 
ATOM     64  C   UNL A   1      46.863  33.643  29.795  1.00  0.00     0.135 A 
ATOM     65  C   UNL A   1      45.951  34.208  27.644  1.00  0.00     0.135 A 
ATOM     66  F   UNL A   1      47.125  32.756  30.768  1.00  0.00    -0.206 F 
ATOM     67  C   UNL A   1      47.207  34.974  30.010  1.00  0.00     0.059 A 
ATOM     68  C   UNL A   1      46.312  35.540  27.825  1.00  0.00     0.059 A 
ATOM     69  F   UNL A   1      45.332  33.872  26.501  1.00  0.00    -0.206 F 
ATOM     70  C   UNL A   1      46.926  35.916  29.019  1.00  0.00     0.060 A 
BRANCH  70  71
ATOM     71  S   UNL A   1      47.378  37.638  29.312  1.00  0.00     0.124 S 
ATOM     72  O   UNL A   1      47.750  37.605  30.723  1.00  0.00    -0.237 OA
ATOM     73  O   UNL A   1      48.477  37.837  28.372  1.00  0.00    -0.237 OA
ATOM     74  O   UNL A   1      46.153  38.370  29.005  1.00  0.00    -0.744 OA
ENDBRANCH  70  71
ENDBRANCH  49  63
BRANCH  50  75
ATOM     75  C   UNL A   1      43.208  23.823  27.103  1.00  0.00     0.058 A 
ATOM     76  C   UNL A   1      42.773  23.422  25.832  1.00  0.00     0.135 A 
ATOM     77  C   UNL A   1      43.204  22.862  28.127  1.00  0.00     0.135 A 
ATOM     78  F   UNL A   1      42.745  24.307  24.823  1.00  0.00    -0.206 F 
ATOM     79  C   UNL A   1      42.336  22.124  25.585  1.00  0.00     0.059 A 
ATOM     80  C   UNL A   1      42.796  21.552  27.899  1.00  0.00     0.059 A 
ATOM     81  F   UNL A   1      43.617  23.191  29.360  1.00  0.00    -0.206 F 
ATOM     82  C   UNL A   1      42.354  21.194  26.625  1.00  0.00     0.060 A 
BRANCH  82  83
ATOM     83  S   UNL A   1      41.832  19.499  26.283  1.00  0.00     0.124 S 
ATOM     84  O   UNL A   1      42.244  18.813  27.503  1.00  0.00    -0.237 OA
ATOM     85  O   UNL A   1      40.394  19.654  26.092  1.00  0.00    -0.237 OA
ATOM     86  O   UNL A   1      42.584  19.153  25.080  1.00  0.00    -0.744 OA
ENDBRANCH  82  83
ENDBRANCH  50  75
BRANCH  62  87
ATOM     87  C   UNL A   1      49.098  27.300  25.699  1.00  0.00     0.058 A 
ATOM     88  C   UNL A   1      49.294  27.368  24.311  1.00  0.00     0.135 A 
ATOM     89  C   UNL A   1      50.184  26.895  26.493  1.00  0.00     0.135 A 
ATOM     90  F   UNL A   1      48.288  27.743  23.504  1.00  0.00    -0.206 F 
ATOM     91  C   UNL A   1      50.511  27.028  23.730  1.00  0.00     0.059 A 
ATOM     92  C   UNL A   1      51.419  26.578  25.937  1.00  0.00     0.059 A 
ATOM     93  F   UNL A   1      50.056  26.824  27.828  1.00  0.00    -0.206 F 
ATOM     94  C   UNL A   1      51.571  26.638  24.552  1.00  0.00     0.060 A 
BRANCH  94  95
ATOM     95  S   UNL A   1      53.158  26.238  23.790  1.00  0.00     0.124 S 
ATOM     96  O   UNL A   1      53.964  27.393  24.167  1.00  0.00    -0.237 OA
ATOM     97  O   UNL A   1      53.509  24.979  24.440  1.00  0.00    -0.237 OA
ATOM     98  O   UNL A   1      52.836  26.133  22.369  1.00  0.00    -0.744 OA
ENDBRANCH  94  95
ENDBRANCH  62  87
ENDBRANCH  36  37
ENDBRANCH  29  31
ENDBRANCH  28  29
ENDBRANCH  27  28
ENDBRANCH  26  27
ENDBRANCH  25  26
ENDBRANCH   1  25
TORSDOF 22
ENDMDL
MODEL 3
REMARK VINA RESULT:      -9.9      1.507      2.722
REMARK SMILES CC[C@H](NC(=O)N1CCO[C@@H](CC(=O)OCCOCCOC(=O)c2ccc(-c3c4nc(c(-c5c(F)cc(S(=O)(=O)[O-])cc5F)c5ccc([nH]5)c(-c5c(F)cc(S(=O)(=O)[O-])cc5F)c5nc(c(-c6c(F)cc(S(=O)(=O)[O-])cc6F)c6ccc3[nH]6)C=C5)C=C4)cc2)C1)c1cccs1
REMARK SMILES IDX 17 1 16 2 15 3 13 4 14 5 12 6 11 7 7 8 8 9 90 10 9 11 10 12
REMARK SMILES IDX 5 13 4 14 6 16 3 17 2 18 1 19 91 20 92 21 95 22 93 23 94 24
REMARK SMILES IDX 18 25 19 26 20 27 21 28 22 29 23 30 24 31 25 32 89 33 26 34
REMARK SMILES IDX 88 35 27 36 28 37 29 38 82 39 30 40 87 41 81 42 83 43 31 44
REMARK SMILES IDX 86 45 80 46 79 47 32 49 66 50 45 51 65 52 46 53 49 54 64 55
REMARK SMILES IDX 84 56 47 57 48 58 63 60 85 61 50 62 33 63 34 64 43 65 35 66
REMARK SMILES IDX 36 67 42 68 44 69 37 70 38 71 39 72 40 73 41 74 67 75 68 76
REMARK SMILES IDX 77 77 69 78 70 79 76 80 78 81 71 82 72 83 73 84 74 85 75 86
REMARK SMILES IDX 51 87 52 88 61 89 53 90 54 91 60 92 62 93 55 94 56 95 57 96
REMARK SMILES IDX 58 97 59 98
REMARK H PARENT 4 15 83 48 49 59
REMARK Flexibility Score: inf
ROOT
ATOM      1  C   UNL A   1      33.115  29.425  26.964  1.00  0.00     0.202 C 
ENDROOT
BRANCH   1   2
ATOM      2  C   UNL A   1      33.489  28.825  25.607  1.00  0.00     0.261 C 
BRANCH   2   3
ATOM      3  O   UNL A   1      32.805  29.492  24.527  1.00  0.00    -0.463 OA
BRANCH   3   4
ATOM      4  C   UNL A   1      32.949  28.950  23.292  1.00  0.00     0.308 C 
ATOM      5  O   UNL A   1      34.006  28.854  22.683  1.00  0.00    -0.252 OA
BRANCH   4   6
ATOM      6  C   UNL A   1      31.630  28.519  22.712  1.00  0.00     0.156 C 
BRANCH   6   7
ATOM      7  C   UNL A   1      31.397  27.013  22.584  1.00  0.00     0.149 C 
ATOM      8  N   UNL A   1      32.428  24.762  22.703  1.00  0.00    -0.320 N 
ATOM      9  C   UNL A   1      31.661  24.493  23.909  1.00  0.00     0.150 C 
ATOM     10  C   UNL A   1      32.708  26.189  22.523  1.00  0.00     0.154 C 
ATOM     11  C   UNL A   1      30.344  25.248  23.830  1.00  0.00     0.182 C 
ATOM     12  O   UNL A   1      30.597  26.657  23.745  1.00  0.00    -0.374 OA
BRANCH   8  13
ATOM     13  C   UNL A   1      33.224  23.845  22.086  1.00  0.00     0.318 C 
ATOM     14  N   UNL A   1      33.882  22.910  22.806  1.00  0.00    -0.330 N 
ATOM     15  H   UNL A   1      34.471  22.336  22.266  1.00  0.00     0.166 HD
ATOM     16  O   UNL A   1      33.315  23.790  20.861  1.00  0.00    -0.249 OA
BRANCH  14  17
ATOM     17  C   UNL A   1      33.888  22.587  24.228  1.00  0.00     0.124 C 
BRANCH  17  18
ATOM     18  C   UNL A   1      33.596  21.094  24.471  1.00  0.00     0.027 C 
ATOM     19  C   UNL A   1      32.209  20.855  25.055  1.00  0.00     0.006 C 
ENDBRANCH  17  18
BRANCH  17  20
ATOM     20  C   UNL A   1      35.245  22.965  24.786  1.00  0.00     0.027 A 
ATOM     21  C   UNL A   1      35.558  23.819  25.831  1.00  0.00     0.017 A 
ATOM     22  S   UNL A   1      36.663  22.225  24.150  1.00  0.00    -0.147 S 
ATOM     23  C   UNL A   1      36.945  23.810  26.148  1.00  0.00     0.012 A 
ATOM     24  C   UNL A   1      37.660  22.983  25.313  1.00  0.00     0.065 A 
ENDBRANCH  17  20
ENDBRANCH  14  17
ENDBRANCH   8  13
ENDBRANCH   6   7
ENDBRANCH   4   6
ENDBRANCH   3   4
ENDBRANCH   2   3
ENDBRANCH   1   2
BRANCH   1  25
ATOM     25  O   UNL A   1      32.861  30.831  26.970  1.00  0.00    -0.374 OA
BRANCH  25  26
ATOM     26  C   UNL A   1      33.628  31.610  27.885  1.00  0.00     0.202 C 
BRANCH  26  27
ATOM     27  C   UNL A   1      35.152  31.496  27.761  1.00  0.00     0.261 C 
BRANCH  27  28
ATOM     28  O   UNL A   1      35.728  30.736  28.837  1.00  0.00    -0.460 OA
BRANCH  28  29
ATOM     29  C   UNL A   1      36.774  31.328  29.463  1.00  0.00     0.338 C 
ATOM     30  O   UNL A   1      36.722  32.256  30.260  1.00  0.00    -0.246 OA
BRANCH  29  31
ATOM     31  C   UNL A   1      38.017  30.583  29.188  1.00  0.00     0.060 A 
ATOM     32  C   UNL A   1      38.995  30.532  30.189  1.00  0.00     0.016 A 
ATOM     33  C   UNL A   1      38.247  29.978  27.954  1.00  0.00     0.016 A 
ATOM     34  C   UNL A   1      40.217  29.903  29.943  1.00  0.00     0.010 A 
ATOM     35  C   UNL A   1      39.461  29.324  27.717  1.00  0.00     0.010 A 
ATOM     36  C   UNL A   1      40.471  29.318  28.694  1.00  0.00    -0.014 A 
BRANCH  36  37
ATOM     37  C   UNL A   1      41.839  28.849  28.352  1.00  0.00     0.031 A 
ATOM     38  C   UNL A   1      42.969  29.847  28.345  1.00  0.00     0.074 A 
ATOM     39  C   UNL A   1      42.084  27.554  28.073  1.00  0.00     0.049 A 
ATOM     40  N   UNL A   1      44.231  29.672  28.050  1.00  0.00    -0.248 NA
ATOM     41  C   UNL A   1      42.624  31.231  28.713  1.00  0.00     0.031 C 
ATOM     42  C   UNL A   1      41.084  26.488  28.056  1.00  0.00     0.029 A 
ATOM     43  N   UNL A   1      43.256  26.919  27.742  1.00  0.00    -0.354 N 
ATOM     44  C   UNL A   1      44.827  30.922  28.184  1.00  0.00     0.074 A 
ATOM     45  C   UNL A   1      43.781  31.853  28.545  1.00  0.00     0.031 C 
ATOM     46  C   UNL A   1      41.685  25.329  27.736  1.00  0.00     0.029 A 
ATOM     47  C   UNL A   1      43.106  25.575  27.493  1.00  0.00     0.049 A 
ATOM     48  H   UNL A   1      44.123  27.382  27.690  1.00  0.00     0.167 HD
ATOM     49  C   UNL A   1      46.130  31.261  28.037  1.00  0.00     0.037 A 
ATOM     50  C   UNL A   1      44.009  24.653  27.099  1.00  0.00     0.037 A 
ATOM     51  C   UNL A   1      47.172  30.330  27.694  1.00  0.00     0.049 A 
ATOM     52  C   UNL A   1      45.446  25.062  26.898  1.00  0.00     0.074 A 
ATOM     53  C   UNL A   1      48.527  30.571  27.553  1.00  0.00     0.029 A 
ATOM     54  N   UNL A   1      46.976  28.982  27.436  1.00  0.00    -0.354 N 
ATOM     55  N   UNL A   1      46.000  26.240  27.060  1.00  0.00    -0.248 NA
ATOM     56  C   UNL A   1      46.382  24.015  26.464  1.00  0.00     0.031 C 
ATOM     57  C   UNL A   1      49.145  29.378  27.163  1.00  0.00     0.029 A 
ATOM     58  C   UNL A   1      48.182  28.382  27.114  1.00  0.00     0.049 A 
ATOM     59  H   UNL A   1      46.108  28.519  27.476  1.00  0.00     0.167 HD
ATOM     60  C   UNL A   1      47.352  26.069  26.777  1.00  0.00     0.074 A 
ATOM     61  C   UNL A   1      47.534  24.672  26.443  1.00  0.00     0.031 C 
ATOM     62  C   UNL A   1      48.352  26.986  26.794  1.00  0.00     0.037 A 
BRANCH  49  63
ATOM     63  C   UNL A   1      46.497  32.707  28.232  1.00  0.00     0.058 A 
ATOM     64  C   UNL A   1      47.019  33.179  29.447  1.00  0.00     0.135 A 
ATOM     65  C   UNL A   1      46.349  33.627  27.182  1.00  0.00     0.135 A 
ATOM     66  F   UNL A   1      47.165  32.347  30.490  1.00  0.00    -0.206 F 
ATOM     67  C   UNL A   1      47.351  34.519  29.625  1.00  0.00     0.059 A 
ATOM     68  C   UNL A   1      46.703  34.966  27.328  1.00  0.00     0.059 A 
ATOM     69  F   UNL A   1      45.854  33.230  26.000  1.00  0.00    -0.206 F 
ATOM     70  C   UNL A   1      47.188  35.405  28.559  1.00  0.00     0.060 A 
BRANCH  70  71
ATOM     71  S   UNL A   1      47.624  37.139  28.804  1.00  0.00     0.124 S 
ATOM     72  O   UNL A   1      46.695  37.804  27.894  1.00  0.00    -0.237 OA
ATOM     73  O   UNL A   1      47.361  37.329  30.227  1.00  0.00    -0.237 OA
ATOM     74  O   UNL A   1      49.030  37.196  28.415  1.00  0.00    -0.744 OA
ENDBRANCH  70  71
ENDBRANCH  49  63
BRANCH  50  75
ATOM     75  C   UNL A   1      43.583  23.246  26.866  1.00  0.00     0.058 A 
ATOM     76  C   UNL A   1      43.554  22.701  25.574  1.00  0.00     0.135 A 
ATOM     77  C   UNL A   1      43.191  22.418  27.931  1.00  0.00     0.135 A 
ATOM     78  F   UNL A   1      43.907  23.455  24.521  1.00  0.00    -0.206 F 
ATOM     79  C   UNL A   1      43.140  21.392  25.342  1.00  0.00     0.059 A 
ATOM     80  C   UNL A   1      42.798  21.100  27.727  1.00  0.00     0.059 A 
ATOM     81  F   UNL A   1      43.206  22.888  29.188  1.00  0.00    -0.206 F 
ATOM     82  C   UNL A   1      42.766  20.598  26.426  1.00  0.00     0.060 A 
BRANCH  82  83
ATOM     83  S   UNL A   1      42.278  18.886  26.120  1.00  0.00     0.124 S 
ATOM     84  O   UNL A   1      42.582  18.260  27.403  1.00  0.00    -0.237 OA
ATOM     85  O   UNL A   1      40.862  19.025  25.797  1.00  0.00    -0.237 OA
ATOM     86  O   UNL A   1      43.131  18.487  25.005  1.00  0.00    -0.744 OA
ENDBRANCH  82  83
ENDBRANCH  50  75
BRANCH  62  87
ATOM     87  C   UNL A   1      49.744  26.507  26.482  1.00  0.00     0.058 A 
ATOM     88  C   UNL A   1      50.565  25.928  27.463  1.00  0.00     0.135 A 
ATOM     89  C   UNL A   1      50.240  26.572  25.170  1.00  0.00     0.135 A 
ATOM     90  F   UNL A   1      50.142  25.845  28.735  1.00  0.00    -0.206 F 
ATOM     91  C   UNL A   1      51.835  25.450  27.158  1.00  0.00     0.059 A 
ATOM     92  C   UNL A   1      51.496  26.075  24.836  1.00  0.00     0.059 A 
ATOM     93  F   UNL A   1      49.492  27.105  24.190  1.00  0.00    -0.206 F 
ATOM     94  C   UNL A   1      52.292  25.525  25.840  1.00  0.00     0.060 A 
BRANCH  94  95
ATOM     95  S   UNL A   1      53.927  24.866  25.451  1.00  0.00     0.124 S 
ATOM     96  O   UNL A   1      53.617  23.473  25.145  1.00  0.00    -0.237 OA
ATOM     97  O   UNL A   1      54.333  25.688  24.315  1.00  0.00    -0.237 OA
ATOM     98  O   UNL A   1      54.684  25.086  26.680  1.00  0.00    -0.744 OA
ENDBRANCH  94  95
ENDBRANCH  62  87
ENDBRANCH  36  37
ENDBRANCH  29  31
ENDBRANCH  28  29
ENDBRANCH  27  28
ENDBRANCH  26  27
ENDBRANCH  25  26
ENDBRANCH   1  25
TORSDOF 22
ENDMDL
