MODEL 1
REMARK VINA RESULT:      -9.9      0.000      0.000
REMARK SMILES Cc1cc2c(c(C)c1Cl)C=C(C(=O)OCCOCCOC(=O)c1ccc(-c3c4nc(c(-c5c(F)cc(S(=O)(=O)[O-])cc5F)c5ccc([nH]5)c(-c5c(F)cc(S(=O)(=O)[O-])cc5F)c5nc(c(-c6c(F)cc(S(=O)(=O)[O-])cc6F)c6ccc3[nH]6)C=C5)C=C4)cc1)[C@@H](C(F)(F)F)O2
REMARK SMILES IDX 18 1 17 2 16 3 15 4 14 5 12 6 13 7 11 8 1 9 2 10 3 11 8 12
REMARK SMILES IDX 4 13 6 14 9 15 5 16 94 17 7 18 10 19 89 20 90 21 91 22 92 23
REMARK SMILES IDX 93 24 19 25 20 26 21 27 22 28 23 29 24 30 88 31 25 32 87 33
REMARK SMILES IDX 26 34 27 35 28 36 81 37 29 38 86 39 80 40 82 41 30 42 85 43
REMARK SMILES IDX 79 44 78 45 31 47 65 48 44 49 64 50 45 51 48 52 63 53 83 54
REMARK SMILES IDX 46 55 47 56 62 58 84 59 49 60 32 61 33 62 42 63 34 64 35 65
REMARK SMILES IDX 41 66 43 67 36 68 37 69 38 70 39 71 40 72 66 73 67 74 76 75
REMARK SMILES IDX 68 76 69 77 75 78 77 79 70 80 71 81 72 82 73 83 74 84 50 85
REMARK SMILES IDX 51 86 60 87 52 88 53 89 59 90 61 91 54 92 55 93 56 94 57 95
REMARK SMILES IDX 58 96
REMARK H PARENT 82 46 48 57
REMARK Flexibility Score: inf
ROOT
ATOM      1  C   UNL A   1      41.619  19.092  26.714  1.00  0.00     0.202 C 
ENDROOT
BRANCH   1   2
ATOM      2  O   UNL A   1      42.377  18.364  25.747  1.00  0.00    -0.374 OA
BRANCH   2   3
ATOM      3  C   UNL A   1      43.790  18.567  25.720  1.00  0.00     0.202 C 
BRANCH   3   4
ATOM      4  C   UNL A   1      44.328  19.531  24.658  1.00  0.00     0.261 C 
BRANCH   4   5
ATOM      5  O   UNL A   1      45.111  20.583  25.243  1.00  0.00    -0.460 OA
BRANCH   5   6
ATOM      6  C   UNL A   1      44.433  21.732  25.463  1.00  0.00     0.338 C 
ATOM      7  O   UNL A   1      43.322  22.023  25.044  1.00  0.00    -0.246 OA
BRANCH   6   8
ATOM      8  C   UNL A   1      45.169  22.571  26.427  1.00  0.00     0.087 C 
ATOM      9  C   UNL A   1      46.828  26.786  31.040  1.00  0.00     0.046 C 
ATOM     10  C   UNL A   1      46.234  25.659  30.238  1.00  0.00    -0.028 A 
ATOM     11  C   UNL A   1      46.872  25.295  29.045  1.00  0.00     0.052 A 
ATOM     12  C   UNL A   1      45.100  24.932  30.653  1.00  0.00     0.047 A 
ATOM     13  C   UNL A   1      46.344  24.301  28.225  1.00  0.00     0.128 A 
ATOM     14  C   UNL A   1      44.554  23.914  29.837  1.00  0.00    -0.021 A 
ATOM     15  Cl  UNL A   1      44.377  25.313  32.187  1.00  0.00    -0.084 Cl
ATOM     16  C   UNL A   1      45.168  23.639  28.589  1.00  0.00     0.022 A 
ATOM     17  O   UNL A   1      47.056  24.044  27.087  1.00  0.00    -0.475 OA
ATOM     18  C   UNL A   1      43.338  23.119  30.257  1.00  0.00     0.047 C 
ATOM     19  C   UNL A   1      44.581  22.718  27.622  1.00  0.00     0.027 C 
ATOM     20  C   UNL A   1      46.466  23.218  26.046  1.00  0.00     0.316 C 
BRANCH  20  21
ATOM     21  C   UNL A   1      46.360  24.060  24.767  1.00  0.00     0.430 C 
ATOM     22  F   UNL A   1      47.344  24.989  24.711  1.00  0.00    -0.167 F 
ATOM     23  F   UNL A   1      46.473  23.300  23.653  1.00  0.00    -0.167 F 
ATOM     24  F   UNL A   1      45.178  24.715  24.695  1.00  0.00    -0.167 F 
ENDBRANCH  20  21
ENDBRANCH   6   8
ENDBRANCH   5   6
ENDBRANCH   4   5
ENDBRANCH   3   4
ENDBRANCH   2   3
ENDBRANCH   1   2
BRANCH   1  25
ATOM     25  C   UNL A   1      40.564  20.076  26.193  1.00  0.00     0.261 C 
BRANCH  25  26
ATOM     26  O   UNL A   1      40.687  21.379  26.792  1.00  0.00    -0.460 OA
BRANCH  26  27
ATOM     27  C   UNL A   1      39.705  22.252  26.458  1.00  0.00     0.338 C 
ATOM     28  O   UNL A   1      38.647  21.993  25.902  1.00  0.00    -0.246 OA
BRANCH  27  29
ATOM     29  C   UNL A   1      39.992  23.577  27.033  1.00  0.00     0.060 A 
ATOM     30  C   UNL A   1      39.597  24.704  26.299  1.00  0.00     0.016 A 
ATOM     31  C   UNL A   1      40.708  23.717  28.223  1.00  0.00     0.016 A 
ATOM     32  C   UNL A   1      39.955  25.977  26.733  1.00  0.00     0.010 A 
ATOM     33  C   UNL A   1      41.078  24.997  28.650  1.00  0.00     0.010 A 
ATOM     34  C   UNL A   1      40.731  26.129  27.890  1.00  0.00    -0.014 A 
BRANCH  34  35
ATOM     35  C   UNL A   1      41.300  27.460  28.213  1.00  0.00     0.031 A 
ATOM     36  C   UNL A   1      42.751  27.723  27.917  1.00  0.00     0.074 A 
ATOM     37  C   UNL A   1      40.522  28.434  28.717  1.00  0.00     0.049 A 
ATOM     38  N   UNL A   1      43.454  28.805  28.121  1.00  0.00    -0.248 NA
ATOM     39  C   UNL A   1      43.510  26.619  27.304  1.00  0.00     0.031 C 
ATOM     40  C   UNL A   1      39.092  28.310  28.996  1.00  0.00     0.029 A 
ATOM     41  N   UNL A   1      40.825  29.723  29.077  1.00  0.00    -0.354 N 
ATOM     42  C   UNL A   1      44.733  28.520  27.657  1.00  0.00     0.074 A 
ATOM     43  C   UNL A   1      44.719  27.149  27.195  1.00  0.00     0.031 C 
ATOM     44  C   UNL A   1      38.641  29.479  29.484  1.00  0.00     0.029 A 
ATOM     45  C   UNL A   1      39.754  30.422  29.579  1.00  0.00     0.049 A 
ATOM     46  H   UNL A   1      41.725  30.110  28.984  1.00  0.00     0.167 HD
ATOM     47  C   UNL A   1      45.815  29.332  27.608  1.00  0.00     0.037 A 
ATOM     48  C   UNL A   1      39.684  31.676  30.070  1.00  0.00     0.037 A 
ATOM     49  C   UNL A   1      45.824  30.694  28.073  1.00  0.00     0.049 A 
ATOM     50  C   UNL A   1      40.924  32.531  30.089  1.00  0.00     0.074 A 
ATOM     51  C   UNL A   1      46.872  31.597  28.069  1.00  0.00     0.029 A 
ATOM     52  N   UNL A   1      44.734  31.348  28.630  1.00  0.00    -0.354 N 
ATOM     53  N   UNL A   1      42.126  32.249  29.645  1.00  0.00    -0.248 NA
ATOM     54  C   UNL A   1      40.801  33.872  30.676  1.00  0.00     0.031 C 
ATOM     55  C   UNL A   1      46.428  32.782  28.664  1.00  0.00     0.029 A 
ATOM     56  C   UNL A   1      45.090  32.635  28.994  1.00  0.00     0.049 A 
ATOM     57  H   UNL A   1      43.839  30.954  28.748  1.00  0.00     0.167 HD
ATOM     58  C   UNL A   1      42.895  33.384  29.878  1.00  0.00     0.074 A 
ATOM     59  C   UNL A   1      42.022  34.360  30.494  1.00  0.00     0.031 C 
ATOM     60  C   UNL A   1      44.207  33.598  29.604  1.00  0.00     0.037 A 
BRANCH  47  61
ATOM     61  C   UNL A   1      47.087  28.767  27.040  1.00  0.00     0.058 A 
ATOM     62  C   UNL A   1      48.165  28.412  27.866  1.00  0.00     0.135 A 
ATOM     63  C   UNL A   1      47.212  28.531  25.661  1.00  0.00     0.135 A 
ATOM     64  F   UNL A   1      48.105  28.635  29.189  1.00  0.00    -0.206 F 
ATOM     65  C   UNL A   1      49.329  27.858  27.343  1.00  0.00     0.059 A 
ATOM     66  C   UNL A   1      48.356  27.955  25.119  1.00  0.00     0.059 A 
ATOM     67  F   UNL A   1      46.211  28.856  24.828  1.00  0.00    -0.206 F 
ATOM     68  C   UNL A   1      49.414  27.630  25.969  1.00  0.00     0.060 A 
BRANCH  68  69
ATOM     69  S   UNL A   1      50.926  26.897  25.310  1.00  0.00     0.124 S 
ATOM     70  O   UNL A   1      50.613  26.811  23.887  1.00  0.00    -0.237 OA
ATOM     71  O   UNL A   1      51.936  27.884  25.678  1.00  0.00    -0.237 OA
ATOM     72  O   UNL A   1      51.018  25.618  26.008  1.00  0.00    -0.744 OA
ENDBRANCH  68  69
ENDBRANCH  47  61
BRANCH  48  73
ATOM     73  C   UNL A   1      38.390  32.198  30.583  1.00  0.00     0.058 A 
ATOM     74  C   UNL A   1      37.985  31.956  31.903  1.00  0.00     0.135 A 
ATOM     75  C   UNL A   1      37.541  32.964  29.768  1.00  0.00     0.135 A 
ATOM     76  F   UNL A   1      38.756  31.218  32.716  1.00  0.00    -0.206 F 
ATOM     77  C   UNL A   1      36.784  32.452  32.399  1.00  0.00     0.059 A 
ATOM     78  C   UNL A   1      36.346  33.490  30.247  1.00  0.00     0.059 A 
ATOM     79  F   UNL A   1      37.887  33.231  28.499  1.00  0.00    -0.206 F 
ATOM     80  C   UNL A   1      35.973  33.223  31.564  1.00  0.00     0.060 A 
BRANCH  80  81
ATOM     81  S   UNL A   1      34.445  33.911  32.239  1.00  0.00     0.124 S 
ATOM     82  O   UNL A   1      34.958  34.937  33.139  1.00  0.00    -0.237 OA
ATOM     83  O   UNL A   1      33.772  34.393  31.037  1.00  0.00    -0.237 OA
ATOM     84  O   UNL A   1      33.816  32.762  32.883  1.00  0.00    -0.744 OA
ENDBRANCH  80  81
ENDBRANCH  48  73
BRANCH  60  85
ATOM     85  C   UNL A   1      44.784  34.944  29.945  1.00  0.00     0.058 A 
ATOM     86  C   UNL A   1      44.709  36.022  29.052  1.00  0.00     0.135 A 
ATOM     87  C   UNL A   1      45.340  35.180  31.214  1.00  0.00     0.135 A 
ATOM     88  F   UNL A   1      44.194  35.849  27.824  1.00  0.00    -0.206 F 
ATOM     89  C   UNL A   1      45.169  37.288  29.402  1.00  0.00     0.059 A 
ATOM     90  C   UNL A   1      45.783  36.442  31.593  1.00  0.00     0.059 A 
ATOM     91  F   UNL A   1      45.426  34.182  32.109  1.00  0.00    -0.206 F 
ATOM     92  C   UNL A   1      45.698  37.490  30.678  1.00  0.00     0.060 A 
BRANCH  92  93
ATOM     93  S   UNL A   1      46.236  39.151  31.136  1.00  0.00     0.124 S 
ATOM     94  O   UNL A   1      47.684  38.980  31.217  1.00  0.00    -0.237 OA
ATOM     95  O   UNL A   1      45.755  39.954  30.016  1.00  0.00    -0.237 OA
ATOM     96  O   UNL A   1      45.562  39.390  32.408  1.00  0.00    -0.744 OA
ENDBRANCH  92  93
ENDBRANCH  60  85
ENDBRANCH  34  35
ENDBRANCH  27  29
ENDBRANCH  26  27
ENDBRANCH  25  26
ENDBRANCH   1  25
TORSDOF 18
ENDMDL
MODEL 2
REMARK VINA RESULT:      -9.8      6.243      9.262
REMARK SMILES Cc1cc2c(c(C)c1Cl)C=C(C(=O)OCCOCCOC(=O)c1ccc(-c3c4nc(c(-c5c(F)cc(S(=O)(=O)[O-])cc5F)c5ccc([nH]5)c(-c5c(F)cc(S(=O)(=O)[O-])cc5F)c5nc(c(-c6c(F)cc(S(=O)(=O)[O-])cc6F)c6ccc3[nH]6)C=C5)C=C4)cc1)[C@@H](C(F)(F)F)O2
REMARK SMILES IDX 18 1 17 2 16 3 15 4 14 5 12 6 13 7 11 8 1 9 2 10 3 11 8 12
REMARK SMILES IDX 4 13 6 14 9 15 5 16 94 17 7 18 10 19 89 20 90 21 91 22 92 23
REMARK SMILES IDX 93 24 19 25 20 26 21 27 22 28 23 29 24 30 88 31 25 32 87 33
REMARK SMILES IDX 26 34 27 35 28 36 81 37 29 38 86 39 80 40 82 41 30 42 85 43
REMARK SMILES IDX 79 44 78 45 31 47 65 48 44 49 64 50 45 51 48 52 63 53 83 54
REMARK SMILES IDX 46 55 47 56 62 58 84 59 49 60 32 61 33 62 42 63 34 64 35 65
REMARK SMILES IDX 41 66 43 67 36 68 37 69 38 70 39 71 40 72 66 73 67 74 76 75
REMARK SMILES IDX 68 76 69 77 75 78 77 79 70 80 71 81 72 82 73 83 74 84 50 85
REMARK SMILES IDX 51 86 60 87 52 88 53 89 59 90 61 91 54 92 55 93 56 94 57 95
REMARK SMILES IDX 58 96
REMARK H PARENT 82 46 48 57
REMARK Flexibility Score: inf
ROOT
ATOM      1  C   UNL A   1      39.422  21.821  26.141  1.00  0.00     0.202 C 
ENDROOT
BRANCH   1   2
ATOM      2  O   UNL A   1      38.114  22.198  25.710  1.00  0.00    -0.374 OA
BRANCH   2   3
ATOM      3  C   UNL A   1      37.339  21.226  25.008  1.00  0.00     0.202 C 
BRANCH   3   4
ATOM      4  C   UNL A   1      35.866  21.565  24.762  1.00  0.00     0.261 C 
BRANCH   4   5
ATOM      5  O   UNL A   1      35.648  22.983  24.707  1.00  0.00    -0.460 OA
BRANCH   5   6
ATOM      6  C   UNL A   1      34.703  23.441  25.560  1.00  0.00     0.338 C 
ATOM      7  O   UNL A   1      34.565  23.138  26.736  1.00  0.00    -0.246 OA
BRANCH   6   8
ATOM      8  C   UNL A   1      33.911  24.500  24.908  1.00  0.00     0.087 C 
ATOM      9  C   UNL A   1      30.090  29.564  23.663  1.00  0.00     0.046 C 
ATOM     10  C   UNL A   1      31.171  28.637  24.148  1.00  0.00    -0.028 A 
ATOM     11  C   UNL A   1      31.345  27.421  23.474  1.00  0.00     0.052 A 
ATOM     12  C   UNL A   1      32.038  28.953  25.214  1.00  0.00     0.047 A 
ATOM     13  C   UNL A   1      32.288  26.491  23.905  1.00  0.00     0.128 A 
ATOM     14  C   UNL A   1      33.006  28.025  25.662  1.00  0.00    -0.021 A 
ATOM     15  Cl  UNL A   1      31.892  30.509  25.977  1.00  0.00    -0.084 Cl
ATOM     16  C   UNL A   1      33.088  26.764  25.018  1.00  0.00     0.022 A 
ATOM     17  O   UNL A   1      32.355  25.343  23.166  1.00  0.00    -0.475 OA
ATOM     18  C   UNL A   1      33.948  28.339  26.803  1.00  0.00     0.047 C 
ATOM     19  C   UNL A   1      33.948  25.695  25.514  1.00  0.00     0.027 C 
ATOM     20  C   UNL A   1      33.113  24.210  23.673  1.00  0.00     0.316 C 
BRANCH  20  21
ATOM     21  C   UNL A   1      32.150  23.028  23.848  1.00  0.00     0.430 C 
ATOM     22  F   UNL A   1      31.066  23.159  23.047  1.00  0.00    -0.167 F 
ATOM     23  F   UNL A   1      32.736  21.851  23.529  1.00  0.00    -0.167 F 
ATOM     24  F   UNL A   1      31.705  22.929  25.122  1.00  0.00    -0.167 F 
ENDBRANCH  20  21
ENDBRANCH   6   8
ENDBRANCH   5   6
ENDBRANCH   4   5
ENDBRANCH   3   4
ENDBRANCH   2   3
ENDBRANCH   1   2
BRANCH   1  25
ATOM     25  C   UNL A   1      40.401  22.944  26.505  1.00  0.00     0.261 C 
BRANCH  25  26
ATOM     26  O   UNL A   1      39.791  24.246  26.435  1.00  0.00    -0.460 OA
BRANCH  26  27
ATOM     27  C   UNL A   1      40.663  25.273  26.291  1.00  0.00     0.338 C 
ATOM     28  O   UNL A   1      41.209  25.638  25.259  1.00  0.00    -0.246 OA
BRANCH  27  29
ATOM     29  C   UNL A   1      40.738  26.050  27.541  1.00  0.00     0.060 A 
ATOM     30  C   UNL A   1      39.697  25.895  28.466  1.00  0.00     0.016 A 
ATOM     31  C   UNL A   1      41.759  26.976  27.765  1.00  0.00     0.016 A 
ATOM     32  C   UNL A   1      39.651  26.698  29.602  1.00  0.00     0.010 A 
ATOM     33  C   UNL A   1      41.703  27.790  28.901  1.00  0.00     0.010 A 
ATOM     34  C   UNL A   1      40.632  27.677  29.806  1.00  0.00    -0.014 A 
BRANCH  34  35
ATOM     35  C   UNL A   1      40.448  28.674  30.889  1.00  0.00     0.031 A 
ATOM     36  C   UNL A   1      41.333  28.603  32.103  1.00  0.00     0.074 A 
ATOM     37  C   UNL A   1      39.539  29.658  30.767  1.00  0.00     0.049 A 
ATOM     38  N   UNL A   1      41.343  29.364  33.165  1.00  0.00    -0.248 NA
ATOM     39  C   UNL A   1      42.345  27.533  32.120  1.00  0.00     0.031 C 
ATOM     40  C   UNL A   1      38.662  29.857  29.615  1.00  0.00     0.029 A 
ATOM     41  N   UNL A   1      39.208  30.678  31.623  1.00  0.00    -0.354 N 
ATOM     42  C   UNL A   1      42.363  28.874  33.973  1.00  0.00     0.074 A 
ATOM     43  C   UNL A   1      42.925  27.726  33.295  1.00  0.00     0.031 C 
ATOM     44  C   UNL A   1      37.892  30.937  29.834  1.00  0.00     0.029 A 
ATOM     45  C   UNL A   1      38.200  31.486  31.154  1.00  0.00     0.049 A 
ATOM     46  H   UNL A   1      39.651  30.818  32.491  1.00  0.00     0.167 HD
ATOM     47  C   UNL A   1      42.800  29.347  35.164  1.00  0.00     0.037 A 
ATOM     48  C   UNL A   1      37.589  32.541  31.730  1.00  0.00     0.037 A 
ATOM     49  C   UNL A   1      42.234  30.488  35.835  1.00  0.00     0.049 A 
ATOM     50  C   UNL A   1      38.032  32.994  33.097  1.00  0.00     0.074 A 
ATOM     51  C   UNL A   1      42.605  31.043  37.046  1.00  0.00     0.029 A 
ATOM     52  N   UNL A   1      41.175  31.244  35.355  1.00  0.00    -0.354 N 
ATOM     53  N   UNL A   1      38.999  32.522  33.848  1.00  0.00    -0.248 NA
ATOM     54  C   UNL A   1      37.302  34.120  33.696  1.00  0.00     0.031 C 
ATOM     55  C   UNL A   1      41.742  32.108  37.320  1.00  0.00     0.029 A 
ATOM     56  C   UNL A   1      40.864  32.249  36.256  1.00  0.00     0.049 A 
ATOM     57  H   UNL A   1      40.713  31.091  34.499  1.00  0.00     0.167 HD
ATOM     58  C   UNL A   1      39.007  33.308  34.996  1.00  0.00     0.074 A 
ATOM     59  C   UNL A   1      37.956  34.290  34.838  1.00  0.00     0.031 C 
ATOM     60  C   UNL A   1      39.816  33.223  36.082  1.00  0.00     0.037 A 
BRANCH  47  61
ATOM     61  C   UNL A   1      43.941  28.626  35.825  1.00  0.00     0.058 A 
ATOM     62  C   UNL A   1      43.721  27.541  36.689  1.00  0.00     0.135 A 
ATOM     63  C   UNL A   1      45.270  28.991  35.556  1.00  0.00     0.135 A 
ATOM     64  F   UNL A   1      42.469  27.165  36.996  1.00  0.00    -0.206 F 
ATOM     65  C   UNL A   1      44.778  26.853  37.275  1.00  0.00     0.059 A 
ATOM     66  C   UNL A   1      46.343  28.301  36.111  1.00  0.00     0.059 A 
ATOM     67  F   UNL A   1      45.534  30.023  34.740  1.00  0.00    -0.206 F 
ATOM     68  C   UNL A   1      46.086  27.238  36.978  1.00  0.00     0.060 A 
BRANCH  68  69
ATOM     69  S   UNL A   1      47.446  26.324  37.736  1.00  0.00     0.124 S 
ATOM     70  O   UNL A   1      47.746  27.157  38.896  1.00  0.00    -0.237 OA
ATOM     71  O   UNL A   1      46.829  25.034  38.025  1.00  0.00    -0.237 OA
ATOM     72  O   UNL A   1      48.469  26.309  36.695  1.00  0.00    -0.744 OA
ENDBRANCH  68  69
ENDBRANCH  47  61
BRANCH  48  73
ATOM     73  C   UNL A   1      36.492  33.243  31.012  1.00  0.00     0.058 A 
ATOM     74  C   UNL A   1      35.155  33.083  31.403  1.00  0.00     0.135 A 
ATOM     75  C   UNL A   1      36.761  34.100  29.934  1.00  0.00     0.135 A 
ATOM     76  F   UNL A   1      34.847  32.264  32.419  1.00  0.00    -0.206 F 
ATOM     77  C   UNL A   1      34.121  33.745  30.749  1.00  0.00     0.059 A 
ATOM     78  C   UNL A   1      35.747  34.792  29.278  1.00  0.00     0.059 A 
ATOM     79  F   UNL A   1      38.025  34.293  29.527  1.00  0.00    -0.206 F 
ATOM     80  C   UNL A   1      34.429  34.603  29.690  1.00  0.00     0.060 A 
BRANCH  80  81
ATOM     81  S   UNL A   1      33.083  35.503  28.890  1.00  0.00     0.124 S 
ATOM     82  O   UNL A   1      33.814  36.494  28.110  1.00  0.00    -0.237 OA
ATOM     83  O   UNL A   1      32.424  34.448  28.127  1.00  0.00    -0.237 OA
ATOM     84  O   UNL A   1      32.313  36.026  30.015  1.00  0.00    -0.744 OA
ENDBRANCH  80  81
ENDBRANCH  48  73
BRANCH  60  85
ATOM     85  C   UNL A   1      39.618  34.226  37.185  1.00  0.00     0.058 A 
ATOM     86  C   UNL A   1      38.898  33.907  38.346  1.00  0.00     0.135 A 
ATOM     87  C   UNL A   1      40.230  35.489  37.117  1.00  0.00     0.135 A 
ATOM     88  F   UNL A   1      38.288  32.717  38.458  1.00  0.00    -0.206 F 
ATOM     89  C   UNL A   1      38.786  34.808  39.400  1.00  0.00     0.059 A 
ATOM     90  C   UNL A   1      40.152  36.395  38.169  1.00  0.00     0.059 A 
ATOM     91  F   UNL A   1      40.939  35.839  36.031  1.00  0.00    -0.206 F 
ATOM     92  C   UNL A   1      39.423  36.047  39.306  1.00  0.00     0.060 A 
BRANCH  92  93
ATOM     93  S   UNL A   1      39.318  37.180  40.707  1.00  0.00     0.124 S 
ATOM     94  O   UNL A   1      38.688  36.339  41.720  1.00  0.00    -0.237 OA
ATOM     95  O   UNL A   1      40.718  37.516  40.943  1.00  0.00    -0.237 OA
ATOM     96  O   UNL A   1      38.493  38.274  40.201  1.00  0.00    -0.744 OA
ENDBRANCH  92  93
ENDBRANCH  60  85
ENDBRANCH  34  35
ENDBRANCH  27  29
ENDBRANCH  26  27
ENDBRANCH  25  26
ENDBRANCH   1  25
TORSDOF 18
ENDMDL
MODEL 3
REMARK VINA RESULT:      -9.7      4.642     10.883
REMARK SMILES Cc1cc2c(c(C)c1Cl)C=C(C(=O)OCCOCCOC(=O)c1ccc(-c3c4nc(c(-c5c(F)cc(S(=O)(=O)[O-])cc5F)c5ccc([nH]5)c(-c5c(F)cc(S(=O)(=O)[O-])cc5F)c5nc(c(-c6c(F)cc(S(=O)(=O)[O-])cc6F)c6ccc3[nH]6)C=C5)C=C4)cc1)[C@@H](C(F)(F)F)O2
REMARK SMILES IDX 18 1 17 2 16 3 15 4 14 5 12 6 13 7 11 8 1 9 2 10 3 11 8 12
REMARK SMILES IDX 4 13 6 14 9 15 5 16 94 17 7 18 10 19 89 20 90 21 91 22 92 23
REMARK SMILES IDX 93 24 19 25 20 26 21 27 22 28 23 29 24 30 88 31 25 32 87 33
REMARK SMILES IDX 26 34 27 35 28 36 81 37 29 38 86 39 80 40 82 41 30 42 85 43
REMARK SMILES IDX 79 44 78 45 31 47 65 48 44 49 64 50 45 51 48 52 63 53 83 54
REMARK SMILES IDX 46 55 47 56 62 58 84 59 49 60 32 61 33 62 42 63 34 64 35 65
REMARK SMILES IDX 41 66 43 67 36 68 37 69 38 70 39 71 40 72 66 73 67 74 76 75
REMARK SMILES IDX 68 76 69 77 75 78 77 79 70 80 71 81 72 82 73 83 74 84 50 85
REMARK SMILES IDX 51 86 60 87 52 88 53 89 59 90 61 91 54 92 55 93 56 94 57 95
REMARK SMILES IDX 58 96
REMARK H PARENT 82 46 48 57
REMARK Flexibility Score: inf
ROOT
ATOM      1  C   UNL A   1      31.919  29.482  26.133  1.00  0.00     0.202 C 
ENDROOT
BRANCH   1   2
ATOM      2  O   UNL A   1      31.868  29.486  24.706  1.00  0.00    -0.374 OA
BRANCH   2   3
ATOM      3  C   UNL A   1      32.993  28.966  23.998  1.00  0.00     0.202 C 
BRANCH   3   4
ATOM      4  C   UNL A   1      33.718  27.775  24.632  1.00  0.00     0.261 C 
BRANCH   4   5
ATOM      5  O   UNL A   1      33.362  26.537  23.997  1.00  0.00    -0.460 OA
BRANCH   5   6
ATOM      6  C   UNL A   1      32.563  25.735  24.737  1.00  0.00     0.338 C 
ATOM      7  O   UNL A   1      31.439  25.991  25.144  1.00  0.00    -0.246 OA
BRANCH   6   8
ATOM      8  C   UNL A   1      33.182  24.405  24.880  1.00  0.00     0.087 C 
ATOM      9  C   UNL A   1      37.249  19.379  24.865  1.00  0.00     0.046 C 
ATOM     10  C   UNL A   1      36.569  20.705  25.076  1.00  0.00    -0.028 A 
ATOM     11  C   UNL A   1      35.189  20.779  24.843  1.00  0.00     0.052 A 
ATOM     12  C   UNL A   1      37.244  21.854  25.535  1.00  0.00     0.047 A 
ATOM     13  C   UNL A   1      34.506  21.987  24.963  1.00  0.00     0.128 A 
ATOM     14  C   UNL A   1      36.566  23.088  25.670  1.00  0.00    -0.021 A 
ATOM     15  Cl  UNL A   1      38.932  21.730  25.928  1.00  0.00    -0.084 Cl
ATOM     16  C   UNL A   1      35.190  23.149  25.331  1.00  0.00     0.022 A 
ATOM     17  O   UNL A   1      33.165  21.928  24.703  1.00  0.00    -0.475 OA
ATOM     18  C   UNL A   1      37.266  24.336  26.159  1.00  0.00     0.047 C 
ATOM     19  C   UNL A   1      34.457  24.409  25.292  1.00  0.00     0.027 C 
ATOM     20  C   UNL A   1      32.412  23.162  24.549  1.00  0.00     0.316 C 
BRANCH  20  21
ATOM     21  C   UNL A   1      31.817  23.187  23.134  1.00  0.00     0.430 C 
ATOM     22  F   UNL A   1      30.532  23.615  23.153  1.00  0.00    -0.167 F 
ATOM     23  F   UNL A   1      32.498  24.024  22.317  1.00  0.00    -0.167 F 
ATOM     24  F   UNL A   1      31.829  21.961  22.563  1.00  0.00    -0.167 F 
ENDBRANCH  20  21
ENDBRANCH   6   8
ENDBRANCH   5   6
ENDBRANCH   4   5
ENDBRANCH   3   4
ENDBRANCH   2   3
ENDBRANCH   1   2
BRANCH   1  25
ATOM     25  C   UNL A   1      32.811  30.528  26.814  1.00  0.00     0.261 C 
BRANCH  25  26
ATOM     26  O   UNL A   1      33.615  29.961  27.866  1.00  0.00    -0.460 OA
BRANCH  26  27
ATOM     27  C   UNL A   1      34.535  30.805  28.393  1.00  0.00     0.338 C 
ATOM     28  O   UNL A   1      34.326  31.891  28.914  1.00  0.00    -0.246 OA
BRANCH  27  29
ATOM     29  C   UNL A   1      35.854  30.150  28.434  1.00  0.00     0.060 A 
ATOM     30  C   UNL A   1      36.308  29.680  29.674  1.00  0.00     0.016 A 
ATOM     31  C   UNL A   1      36.668  30.075  27.302  1.00  0.00     0.016 A 
ATOM     32  C   UNL A   1      37.597  29.169  29.795  1.00  0.00     0.010 A 
ATOM     33  C   UNL A   1      37.968  29.574  27.429  1.00  0.00     0.010 A 
ATOM     34  C   UNL A   1      38.448  29.150  28.681  1.00  0.00    -0.014 A 
BRANCH  34  35
ATOM     35  C   UNL A   1      39.883  28.825  28.870  1.00  0.00     0.031 A 
ATOM     36  C   UNL A   1      40.794  29.866  29.460  1.00  0.00     0.074 A 
ATOM     37  C   UNL A   1      40.355  27.602  28.566  1.00  0.00     0.049 A 
ATOM     38  N   UNL A   1      42.076  29.800  29.707  1.00  0.00    -0.248 NA
ATOM     39  C   UNL A   1      40.177  31.152  29.824  1.00  0.00     0.031 C 
ATOM     40  C   UNL A   1      39.555  26.498  28.037  1.00  0.00     0.029 A 
ATOM     41  N   UNL A   1      41.621  27.084  28.665  1.00  0.00    -0.354 N 
ATOM     42  C   UNL A   1      42.419  31.027  30.261  1.00  0.00     0.074 A 
ATOM     43  C   UNL A   1      41.218  31.833  30.280  1.00  0.00     0.031 C 
ATOM     44  C   UNL A   1      40.351  25.430  27.860  1.00  0.00     0.029 A 
ATOM     45  C   UNL A   1      41.720  25.784  28.233  1.00  0.00     0.049 A 
ATOM     46  H   UNL A   1      42.386  27.596  29.013  1.00  0.00     0.167 HD
ATOM     47  C   UNL A   1      43.622  31.438  30.726  1.00  0.00     0.037 A 
ATOM     48  C   UNL A   1      42.796  24.976  28.138  1.00  0.00     0.037 A 
ATOM     49  C   UNL A   1      44.815  30.632  30.700  1.00  0.00     0.049 A 
ATOM     50  C   UNL A   1      44.143  25.487  28.577  1.00  0.00     0.074 A 
ATOM     51  C   UNL A   1      46.083  30.961  31.145  1.00  0.00     0.029 A 
ATOM     52  N   UNL A   1      44.887  29.341  30.200  1.00  0.00    -0.354 N 
ATOM     53  N   UNL A   1      44.452  26.649  29.101  1.00  0.00    -0.248 NA
ATOM     54  C   UNL A   1      45.287  24.580  28.410  1.00  0.00     0.031 C 
ATOM     55  C   UNL A   1      46.933  29.884  30.872  1.00  0.00     0.029 A 
ATOM     56  C   UNL A   1      46.184  28.865  30.304  1.00  0.00     0.049 A 
ATOM     57  H   UNL A   1      44.128  28.836  29.827  1.00  0.00     0.167 HD
ATOM     58  C   UNL A   1      45.821  26.604  29.348  1.00  0.00     0.074 A 
ATOM     59  C   UNL A   1      46.279  25.298  28.923  1.00  0.00     0.031 C 
ATOM     60  C   UNL A   1      46.624  27.559  29.880  1.00  0.00     0.037 A 
BRANCH  47  61
ATOM     61  C   UNL A   1      43.714  32.827  31.293  1.00  0.00     0.058 A 
ATOM     62  C   UNL A   1      43.637  33.062  32.675  1.00  0.00     0.135 A 
ATOM     63  C   UNL A   1      43.932  33.930  30.451  1.00  0.00     0.135 A 
ATOM     64  F   UNL A   1      43.410  32.045  33.522  1.00  0.00    -0.206 F 
ATOM     65  C   UNL A   1      43.756  34.344  33.201  1.00  0.00     0.059 A 
ATOM     66  C   UNL A   1      44.079  35.218  30.958  1.00  0.00     0.059 A 
ATOM     67  F   UNL A   1      44.010  33.760  29.122  1.00  0.00    -0.206 F 
ATOM     68  C   UNL A   1      43.979  35.415  32.335  1.00  0.00     0.060 A 
BRANCH  68  69
ATOM     69  S   UNL A   1      44.146  37.070  33.038  1.00  0.00     0.124 S 
ATOM     70  O   UNL A   1      44.260  37.887  31.834  1.00  0.00    -0.237 OA
ATOM     71  O   UNL A   1      42.902  37.216  33.787  1.00  0.00    -0.237 OA
ATOM     72  O   UNL A   1      45.356  36.977  33.848  1.00  0.00    -0.744 OA
ENDBRANCH  68  69
ENDBRANCH  47  61
BRANCH  48  73
ATOM     73  C   UNL A   1      42.640  23.596  27.607  1.00  0.00     0.058 A 
ATOM     74  C   UNL A   1      42.668  23.345  26.228  1.00  0.00     0.135 A 
ATOM     75  C   UNL A   1      42.478  22.499  28.469  1.00  0.00     0.135 A 
ATOM     76  F   UNL A   1      42.807  24.362  25.365  1.00  0.00    -0.206 F 
ATOM     77  C   UNL A   1      42.537  22.057  25.719  1.00  0.00     0.059 A 
ATOM     78  C   UNL A   1      42.368  21.199  27.985  1.00  0.00     0.059 A 
ATOM     79  F   UNL A   1      42.453  22.685  29.797  1.00  0.00    -0.206 F 
ATOM     80  C   UNL A   1      42.394  20.989  26.607  1.00  0.00     0.060 A 
BRANCH  80  81
ATOM     81  S   UNL A   1      42.287  19.316  25.935  1.00  0.00     0.124 S 
ATOM     82  O   UNL A   1      40.852  19.177  25.719  1.00  0.00    -0.237 OA
ATOM     83  O   UNL A   1      43.108  19.419  24.733  1.00  0.00    -0.237 OA
ATOM     84  O   UNL A   1      42.849  18.490  27.000  1.00  0.00    -0.744 OA
ENDBRANCH  80  81
ENDBRANCH  48  73
BRANCH  60  85
ATOM     85  C   UNL A   1      48.081  27.232  30.057  1.00  0.00     0.058 A 
ATOM     86  C   UNL A   1      49.055  27.721  29.174  1.00  0.00     0.135 A 
ATOM     87  C   UNL A   1      48.515  26.496  31.172  1.00  0.00     0.135 A 
ATOM     88  F   UNL A   1      48.692  28.424  28.089  1.00  0.00    -0.206 F 
ATOM     89  C   UNL A   1      50.410  27.486  29.386  1.00  0.00     0.059 A 
ATOM     90  C   UNL A   1      49.866  26.271  31.417  1.00  0.00     0.059 A 
ATOM     91  F   UNL A   1      47.623  26.014  32.053  1.00  0.00    -0.206 F 
ATOM     92  C   UNL A   1      50.806  26.767  30.515  1.00  0.00     0.060 A 
BRANCH  92  93
ATOM     93  S   UNL A   1      52.571  26.523  30.807  1.00  0.00     0.124 S 
ATOM     94  O   UNL A   1      52.970  27.832  31.312  1.00  0.00    -0.237 OA
ATOM     95  O   UNL A   1      52.578  25.437  31.782  1.00  0.00    -0.237 OA
ATOM     96  O   UNL A   1      53.091  26.176  29.487  1.00  0.00    -0.744 OA
ENDBRANCH  92  93
ENDBRANCH  60  85
ENDBRANCH  34  35
ENDBRANCH  27  29
ENDBRANCH  26  27
ENDBRANCH  25  26
ENDBRANCH   1  25
TORSDOF 18
ENDMDL
