MODEL 1
REMARK VINA RESULT:      -9.9      0.000      0.000
REMARK SMILES CC(C)(C)OC(=O)[C@]1(C(=O)OCCOCCOC(=O)c2ccc(-c3c4nc(c(-c5c(F)cc(S(=O)(=O)[O-])cc5F)c5ccc([nH]5)c(-c5c(F)cc(S(=O)(=O)[O-])cc5F)c5nc(c(-c6c(F)cc(S(=O)(=O)[O-])cc6F)c6ccc3[nH]6)C=C5)C=C4)cc2)CC=CC[C@@H]1[NH3+]
REMARK SMILES IDX 14 1 13 2 12 3 11 4 9 5 10 6 8 7 86 8 90 9 87 10 89 11 88 12
REMARK SMILES IDX 6 13 7 14 5 15 2 16 1 17 3 18 4 19 91 20 15 24 16 25 17 26
REMARK SMILES IDX 18 27 19 28 20 29 21 30 85 31 22 32 84 33 23 34 24 35 25 36
REMARK SMILES IDX 78 37 26 38 83 39 77 40 79 41 27 42 82 43 76 44 75 45 28 47
REMARK SMILES IDX 62 48 41 49 61 50 42 51 45 52 60 53 80 54 43 55 44 56 59 58
REMARK SMILES IDX 81 59 46 60 29 61 30 62 39 63 31 64 32 65 38 66 40 67 33 68
REMARK SMILES IDX 34 69 35 70 36 71 37 72 63 73 64 74 73 75 65 76 66 77 72 78
REMARK SMILES IDX 74 79 67 80 68 81 69 82 70 83 71 84 47 85 48 86 57 87 49 88
REMARK SMILES IDX 50 89 56 90 58 91 51 92 52 93 53 94 54 95 55 96
REMARK H PARENT 91 21 91 22 91 23 79 46 45 57
REMARK Flexibility Score: inf
ROOT
ATOM      1  O   UNL A   1      31.066  29.905  25.089  1.00  0.00    -0.374 OA
ENDROOT
BRANCH   1   2
ATOM      2  C   UNL A   1      31.218  28.953  24.035  1.00  0.00     0.202 C 
BRANCH   2   3
ATOM      3  C   UNL A   1      32.292  27.878  24.225  1.00  0.00     0.261 C 
BRANCH   3   4
ATOM      4  O   UNL A   1      31.738  26.595  24.574  1.00  0.00    -0.462 OA
BRANCH   4   5
ATOM      5  C   UNL A   1      31.969  25.585  23.694  1.00  0.00     0.330 C 
ATOM      6  O   UNL A   1      31.686  25.663  22.500  1.00  0.00    -0.251 OA
BRANCH   5   7
ATOM      7  C   UNL A   1      32.736  24.385  24.289  1.00  0.00     0.219 C 
ATOM      8  C   UNL A   1      32.846  24.713  25.815  1.00  0.00     0.064 C 
ATOM      9  C   UNL A   1      32.109  22.989  23.915  1.00  0.00     0.214 C 
ATOM     10  C   UNL A   1      32.245  23.758  26.789  1.00  0.00    -0.029 C 
ATOM     11  C   UNL A   1      31.777  22.015  25.076  1.00  0.00     0.093 C 
ATOM     12  C   UNL A   1      31.765  22.561  26.458  1.00  0.00    -0.025 C 
BRANCH   7  13
ATOM     13  C   UNL A   1      34.144  24.488  23.718  1.00  0.00     0.330 C 
ATOM     14  O   UNL A   1      34.406  24.587  22.526  1.00  0.00    -0.251 OA
BRANCH  13  15
ATOM     15  O   UNL A   1      35.084  24.416  24.702  1.00  0.00    -0.459 OA
BRANCH  15  16
ATOM     16  C   UNL A   1      36.010  23.301  24.723  1.00  0.00     0.104 C 
ATOM     17  C   UNL A   1      37.194  23.800  25.561  1.00  0.00     0.056 C 
ATOM     18  C   UNL A   1      36.492  23.012  23.296  1.00  0.00     0.056 C 
ATOM     19  C   UNL A   1      35.427  22.056  25.403  1.00  0.00     0.056 C 
ENDBRANCH  15  16
ENDBRANCH  13  15
ENDBRANCH   7  13
BRANCH   9  20
ATOM     20  N   UNL A   1      32.838  22.188  22.903  1.00  0.00    -0.353 N 
ATOM     21  H   UNL A   1      33.832  22.411  22.944  1.00  0.00     0.344 HD
ATOM     22  H   UNL A   1      32.478  22.406  21.974  1.00  0.00     0.344 HD
ATOM     23  H   UNL A   1      32.705  21.195  23.094  1.00  0.00     0.344 HD
ENDBRANCH   9  20
ENDBRANCH   5   7
ENDBRANCH   4   5
ENDBRANCH   3   4
ENDBRANCH   2   3
ENDBRANCH   1   2
BRANCH   1  24
ATOM     24  C   UNL A   1      31.767  29.617  26.298  1.00  0.00     0.202 C 
BRANCH  24  25
ATOM     25  C   UNL A   1      32.954  30.519  26.631  1.00  0.00     0.261 C 
BRANCH  25  26
ATOM     26  O   UNL A   1      33.847  29.868  27.548  1.00  0.00    -0.460 OA
BRANCH  26  27
ATOM     27  C   UNL A   1      34.636  30.709  28.255  1.00  0.00     0.338 C 
ATOM     28  O   UNL A   1      34.291  31.716  28.856  1.00  0.00    -0.246 OA
BRANCH  27  29
ATOM     29  C   UNL A   1      35.983  30.126  28.373  1.00  0.00     0.060 A 
ATOM     30  C   UNL A   1      36.377  29.659  29.634  1.00  0.00     0.016 A 
ATOM     31  C   UNL A   1      36.854  30.055  27.283  1.00  0.00     0.016 A 
ATOM     32  C   UNL A   1      37.661  29.158  29.822  1.00  0.00     0.010 A 
ATOM     33  C   UNL A   1      38.146  29.566  27.477  1.00  0.00     0.010 A 
ATOM     34  C   UNL A   1      38.563  29.143  28.753  1.00  0.00    -0.014 A 
BRANCH  34  35
ATOM     35  C   UNL A   1      39.987  28.817  28.992  1.00  0.00     0.031 A 
ATOM     36  C   UNL A   1      40.902  29.903  29.484  1.00  0.00     0.074 A 
ATOM     37  C   UNL A   1      40.450  27.573  28.775  1.00  0.00     0.049 A 
ATOM     38  N   UNL A   1      42.198  29.885  29.639  1.00  0.00    -0.248 NA
ATOM     39  C   UNL A   1      40.268  31.182  29.845  1.00  0.00     0.031 C 
ATOM     40  C   UNL A   1      39.638  26.434  28.345  1.00  0.00     0.029 A 
ATOM     41  N   UNL A   1      41.721  27.066  28.864  1.00  0.00    -0.354 N 
ATOM     42  C   UNL A   1      42.538  31.144  30.117  1.00  0.00     0.074 A 
ATOM     43  C   UNL A   1      41.316  31.916  30.193  1.00  0.00     0.031 C 
ATOM     44  C   UNL A   1      40.440  25.369  28.175  1.00  0.00     0.029 A 
ATOM     45  C   UNL A   1      41.822  25.762  28.441  1.00  0.00     0.049 A 
ATOM     46  H   UNL A   1      42.486  27.587  29.199  1.00  0.00     0.167 HD
ATOM     47  C   UNL A   1      43.759  31.610  30.469  1.00  0.00     0.037 A 
ATOM     48  C   UNL A   1      42.912  24.994  28.247  1.00  0.00     0.037 A 
ATOM     49  C   UNL A   1      44.969  30.835  30.378  1.00  0.00     0.049 A 
ATOM     50  C   UNL A   1      44.273  25.567  28.552  1.00  0.00     0.074 A 
ATOM     51  C   UNL A   1      46.260  31.211  30.700  1.00  0.00     0.029 A 
ATOM     52  N   UNL A   1      45.035  29.522  29.929  1.00  0.00    -0.354 N 
ATOM     53  N   UNL A   1      44.584  26.757  29.009  1.00  0.00    -0.248 NA
ATOM     54  C   UNL A   1      45.432  24.696  28.313  1.00  0.00     0.031 C 
ATOM     55  C   UNL A   1      47.113  30.145  30.401  1.00  0.00     0.029 A 
ATOM     56  C   UNL A   1      46.348  29.084  29.944  1.00  0.00     0.049 A 
ATOM     57  H   UNL A   1      44.263  28.984  29.643  1.00  0.00     0.167 HD
ATOM     58  C   UNL A   1      45.970  26.769  29.131  1.00  0.00     0.074 A 
ATOM     59  C   UNL A   1      46.436  25.461  28.720  1.00  0.00     0.031 C 
ATOM     60  C   UNL A   1      46.787  27.772  29.541  1.00  0.00     0.037 A 
BRANCH  47  61
ATOM     61  C   UNL A   1      43.854  33.023  30.974  1.00  0.00     0.058 A 
ATOM     62  C   UNL A   1      43.779  33.319  32.344  1.00  0.00     0.135 A 
ATOM     63  C   UNL A   1      44.081  34.087  30.086  1.00  0.00     0.135 A 
ATOM     64  F   UNL A   1      43.542  32.343  33.235  1.00  0.00    -0.206 F 
ATOM     65  C   UNL A   1      43.914  34.621  32.815  1.00  0.00     0.059 A 
ATOM     66  C   UNL A   1      44.246  35.394  30.538  1.00  0.00     0.059 A 
ATOM     67  F   UNL A   1      44.154  33.861  28.765  1.00  0.00    -0.206 F 
ATOM     68  C   UNL A   1      44.154  35.651  31.905  1.00  0.00     0.060 A 
BRANCH  68  69
ATOM     69  S   UNL A   1      44.360  37.328  32.539  1.00  0.00     0.124 S 
ATOM     70  O   UNL A   1      45.737  37.292  33.020  1.00  0.00    -0.237 OA
ATOM     71  O   UNL A   1      44.126  38.141  31.350  1.00  0.00    -0.237 OA
ATOM     72  O   UNL A   1      43.338  37.429  33.576  1.00  0.00    -0.744 OA
ENDBRANCH  68  69
ENDBRANCH  47  61
BRANCH  48  73
ATOM     73  C   UNL A   1      42.772  23.622  27.688  1.00  0.00     0.058 A 
ATOM     74  C   UNL A   1      42.873  23.381  26.310  1.00  0.00     0.135 A 
ATOM     75  C   UNL A   1      42.504  22.525  28.523  1.00  0.00     0.135 A 
ATOM     76  F   UNL A   1      43.119  24.396  25.468  1.00  0.00    -0.206 F 
ATOM     77  C   UNL A   1      42.680  22.110  25.777  1.00  0.00     0.059 A 
ATOM     78  C   UNL A   1      42.339  21.240  28.017  1.00  0.00     0.059 A 
ATOM     79  F   UNL A   1      42.408  22.696  29.851  1.00  0.00    -0.206 F 
ATOM     80  C   UNL A   1      42.411  21.046  26.639  1.00  0.00     0.060 A 
BRANCH  80  81
ATOM     81  S   UNL A   1      42.175  19.399  25.937  1.00  0.00     0.124 S 
ATOM     82  O   UNL A   1      42.989  19.475  24.730  1.00  0.00    -0.237 OA
ATOM     83  O   UNL A   1      42.684  18.537  26.999  1.00  0.00    -0.237 OA
ATOM     84  O   UNL A   1      40.732  19.331  25.722  1.00  0.00    -0.744 OA
ENDBRANCH  80  81
ENDBRANCH  48  73
BRANCH  60  85
ATOM     85  C   UNL A   1      48.264  27.487  29.595  1.00  0.00     0.058 A 
ATOM     86  C   UNL A   1      49.105  27.759  28.505  1.00  0.00     0.135 A 
ATOM     87  C   UNL A   1      48.853  27.000  30.773  1.00  0.00     0.135 A 
ATOM     88  F   UNL A   1      48.592  28.218  27.352  1.00  0.00    -0.206 F 
ATOM     89  C   UNL A   1      50.478  27.544  28.576  1.00  0.00     0.059 A 
ATOM     90  C   UNL A   1      50.226  26.806  30.877  1.00  0.00     0.059 A 
ATOM     91  F   UNL A   1      48.094  26.733  31.848  1.00  0.00    -0.206 F 
ATOM     92  C   UNL A   1      51.030  27.073  29.769  1.00  0.00     0.060 A 
BRANCH  92  93
ATOM     93  S   UNL A   1      52.819  26.847  29.862  1.00  0.00     0.124 S 
ATOM     94  O   UNL A   1      53.112  26.279  28.550  1.00  0.00    -0.237 OA
ATOM     95  O   UNL A   1      53.293  28.209  30.084  1.00  0.00    -0.237 OA
ATOM     96  O   UNL A   1      52.990  25.938  30.991  1.00  0.00    -0.744 OA
ENDBRANCH  92  93
ENDBRANCH  60  85
ENDBRANCH  34  35
ENDBRANCH  27  29
ENDBRANCH  26  27
ENDBRANCH  25  26
ENDBRANCH  24  25
ENDBRANCH   1  24
TORSDOF 21
ENDMDL
MODEL 2
REMARK VINA RESULT:      -9.7      4.969     10.597
REMARK SMILES CC(C)(C)OC(=O)[C@]1(C(=O)OCCOCCOC(=O)c2ccc(-c3c4nc(c(-c5c(F)cc(S(=O)(=O)[O-])cc5F)c5ccc([nH]5)c(-c5c(F)cc(S(=O)(=O)[O-])cc5F)c5nc(c(-c6c(F)cc(S(=O)(=O)[O-])cc6F)c6ccc3[nH]6)C=C5)C=C4)cc2)CC=CC[C@@H]1[NH3+]
REMARK SMILES IDX 14 1 13 2 12 3 11 4 9 5 10 6 8 7 86 8 90 9 87 10 89 11 88 12
REMARK SMILES IDX 6 13 7 14 5 15 2 16 1 17 3 18 4 19 91 20 15 24 16 25 17 26
REMARK SMILES IDX 18 27 19 28 20 29 21 30 85 31 22 32 84 33 23 34 24 35 25 36
REMARK SMILES IDX 78 37 26 38 83 39 77 40 79 41 27 42 82 43 76 44 75 45 28 47
REMARK SMILES IDX 62 48 41 49 61 50 42 51 45 52 60 53 80 54 43 55 44 56 59 58
REMARK SMILES IDX 81 59 46 60 29 61 30 62 39 63 31 64 32 65 38 66 40 67 33 68
REMARK SMILES IDX 34 69 35 70 36 71 37 72 63 73 64 74 73 75 65 76 66 77 72 78
REMARK SMILES IDX 74 79 67 80 68 81 69 82 70 83 71 84 47 85 48 86 57 87 49 88
REMARK SMILES IDX 50 89 56 90 58 91 51 92 52 93 53 94 54 95 55 96
REMARK H PARENT 91 21 91 22 91 23 79 46 45 57
REMARK Flexibility Score: inf
ROOT
ATOM      1  O   UNL A   1      38.774  21.417  25.468  1.00  0.00    -0.374 OA
ENDROOT
BRANCH   1   2
ATOM      2  C   UNL A   1      37.805  22.418  25.784  1.00  0.00     0.202 C 
BRANCH   2   3
ATOM      3  C   UNL A   1      37.169  23.160  24.605  1.00  0.00     0.261 C 
BRANCH   3   4
ATOM      4  O   UNL A   1      36.263  22.331  23.851  1.00  0.00    -0.462 OA
BRANCH   4   5
ATOM      5  C   UNL A   1      35.042  22.866  23.588  1.00  0.00     0.330 C 
ATOM      6  O   UNL A   1      34.858  23.710  22.713  1.00  0.00    -0.251 OA
BRANCH   5   7
ATOM      7  C   UNL A   1      33.883  22.230  24.385  1.00  0.00     0.219 C 
ATOM      8  C   UNL A   1      32.768  21.981  23.316  1.00  0.00     0.064 C 
ATOM      9  C   UNL A   1      34.321  20.984  25.245  1.00  0.00     0.214 C 
ATOM     10  C   UNL A   1      32.294  20.584  23.100  1.00  0.00    -0.029 C 
ATOM     11  C   UNL A   1      33.529  19.664  25.055  1.00  0.00     0.093 C 
ATOM     12  C   UNL A   1      32.638  19.554  23.871  1.00  0.00    -0.025 C 
BRANCH   7  13
ATOM     13  C   UNL A   1      33.374  23.336  25.300  1.00  0.00     0.330 C 
ATOM     14  O   UNL A   1      34.034  23.868  26.182  1.00  0.00    -0.251 OA
BRANCH  13  15
ATOM     15  O   UNL A   1      32.070  23.633  25.038  1.00  0.00    -0.459 OA
BRANCH  15  16
ATOM     16  C   UNL A   1      31.701  24.995  24.706  1.00  0.00     0.104 C 
ATOM     17  C   UNL A   1      31.184  24.913  23.264  1.00  0.00     0.056 C 
ATOM     18  C   UNL A   1      32.950  25.884  24.741  1.00  0.00     0.056 C 
ATOM     19  C   UNL A   1      30.576  25.540  25.594  1.00  0.00     0.056 C 
ENDBRANCH  15  16
ENDBRANCH  13  15
ENDBRANCH   7  13
BRANCH   9  20
ATOM     20  N   UNL A   1      34.420  21.196  26.709  1.00  0.00    -0.353 N 
ATOM     21  H   UNL A   1      34.828  22.112  26.894  1.00  0.00     0.344 HD
ATOM     22  H   UNL A   1      35.012  20.472  27.118  1.00  0.00     0.344 HD
ATOM     23  H   UNL A   1      33.490  21.149  27.124  1.00  0.00     0.344 HD
ENDBRANCH   9  20
ENDBRANCH   5   7
ENDBRANCH   4   5
ENDBRANCH   3   4
ENDBRANCH   2   3
ENDBRANCH   1   2
BRANCH   1  24
ATOM     24  C   UNL A   1      39.835  21.254  26.407  1.00  0.00     0.202 C 
BRANCH  24  25
ATOM     25  C   UNL A   1      41.066  22.138  26.207  1.00  0.00     0.261 C 
BRANCH  25  26
ATOM     26  O   UNL A   1      41.053  23.243  27.123  1.00  0.00    -0.460 OA
BRANCH  26  27
ATOM     27  C   UNL A   1      41.694  24.347  26.678  1.00  0.00     0.338 C 
ATOM     28  O   UNL A   1      42.308  24.472  25.627  1.00  0.00    -0.246 OA
BRANCH  27  29
ATOM     29  C   UNL A   1      41.379  25.482  27.563  1.00  0.00     0.060 A 
ATOM     30  C   UNL A   1      42.331  26.505  27.664  1.00  0.00     0.016 A 
ATOM     31  C   UNL A   1      40.192  25.537  28.296  1.00  0.00     0.016 A 
ATOM     32  C   UNL A   1      42.119  27.570  28.534  1.00  0.00     0.010 A 
ATOM     33  C   UNL A   1      39.988  26.599  29.179  1.00  0.00     0.010 A 
ATOM     34  C   UNL A   1      40.964  27.602  29.322  1.00  0.00    -0.014 A 
BRANCH  34  35
ATOM     35  C   UNL A   1      40.833  28.610  30.399  1.00  0.00     0.031 A 
ATOM     36  C   UNL A   1      41.690  28.469  31.626  1.00  0.00     0.074 A 
ATOM     37  C   UNL A   1      39.964  29.629  30.280  1.00  0.00     0.049 A 
ATOM     38  N   UNL A   1      41.657  29.148  32.740  1.00  0.00    -0.248 NA
ATOM     39  C   UNL A   1      42.720  27.417  31.590  1.00  0.00     0.031 C 
ATOM     40  C   UNL A   1      39.120  29.887  29.113  1.00  0.00     0.029 A 
ATOM     41  N   UNL A   1      39.632  30.625  31.162  1.00  0.00    -0.354 N 
ATOM     42  C   UNL A   1      42.659  28.611  33.538  1.00  0.00     0.074 A 
ATOM     43  C   UNL A   1      43.261  27.525  32.795  1.00  0.00     0.031 C 
ATOM     44  C   UNL A   1      38.341  30.952  29.367  1.00  0.00     0.029 A 
ATOM     45  C   UNL A   1      38.601  31.422  30.726  1.00  0.00     0.049 A 
ATOM     46  H   UNL A   1      40.088  30.756  32.025  1.00  0.00     0.167 HD
ATOM     47  C   UNL A   1      43.048  28.998  34.776  1.00  0.00     0.037 A 
ATOM     48  C   UNL A   1      37.916  32.387  31.371  1.00  0.00     0.037 A 
ATOM     49  C   UNL A   1      42.434  30.074  35.508  1.00  0.00     0.049 A 
ATOM     50  C   UNL A   1      38.301  32.735  32.787  1.00  0.00     0.074 A 
ATOM     51  C   UNL A   1      42.743  30.543  36.772  1.00  0.00     0.029 A 
ATOM     52  N   UNL A   1      41.380  30.849  35.041  1.00  0.00    -0.354 N 
ATOM     53  N   UNL A   1      39.255  32.226  33.531  1.00  0.00    -0.248 NA
ATOM     54  C   UNL A   1      37.518  33.785  33.452  1.00  0.00     0.031 C 
ATOM     55  C   UNL A   1      41.847  31.568  37.089  1.00  0.00     0.029 A 
ATOM     56  C   UNL A   1      41.014  31.776  36.001  1.00  0.00     0.049 A 
ATOM     57  H   UNL A   1      40.958  30.752  34.158  1.00  0.00     0.167 HD
ATOM     58  C   UNL A   1      39.197  32.908  34.743  1.00  0.00     0.074 A 
ATOM     59  C   UNL A   1      38.131  33.880  34.624  1.00  0.00     0.031 C 
ATOM     60  C   UNL A   1      39.955  32.743  35.856  1.00  0.00     0.037 A 
BRANCH  47  61
ATOM     61  C   UNL A   1      44.181  28.250  35.423  1.00  0.00     0.058 A 
ATOM     62  C   UNL A   1      43.948  27.168  36.285  1.00  0.00     0.135 A 
ATOM     63  C   UNL A   1      45.515  28.580  35.131  1.00  0.00     0.135 A 
ATOM     64  F   UNL A   1      42.693  26.823  36.615  1.00  0.00    -0.206 F 
ATOM     65  C   UNL A   1      44.996  26.446  36.846  1.00  0.00     0.059 A 
ATOM     66  C   UNL A   1      46.579  27.854  35.660  1.00  0.00     0.059 A 
ATOM     67  F   UNL A   1      45.794  29.610  34.318  1.00  0.00    -0.206 F 
ATOM     68  C   UNL A   1      46.309  26.793  36.522  1.00  0.00     0.060 A 
BRANCH  68  69
ATOM     69  S   UNL A   1      47.655  25.823  37.233  1.00  0.00     0.124 S 
ATOM     70  O   UNL A   1      47.235  25.718  38.627  1.00  0.00    -0.237 OA
ATOM     71  O   UNL A   1      47.593  24.589  36.458  1.00  0.00    -0.237 OA
ATOM     72  O   UNL A   1      48.834  26.651  36.998  1.00  0.00    -0.744 OA
ENDBRANCH  68  69
ENDBRANCH  47  61
BRANCH  48  73
ATOM     73  C   UNL A   1      36.763  33.058  30.710  1.00  0.00     0.058 A 
ATOM     74  C   UNL A   1      36.948  34.144  29.843  1.00  0.00     0.135 A 
ATOM     75  C   UNL A   1      35.445  32.641  30.960  1.00  0.00     0.135 A 
ATOM     76  F   UNL A   1      38.186  34.587  29.577  1.00  0.00    -0.206 F 
ATOM     77  C   UNL A   1      35.870  34.814  29.273  1.00  0.00     0.059 A 
ATOM     78  C   UNL A   1      34.352  33.274  30.378  1.00  0.00     0.059 A 
ATOM     79  F   UNL A   1      35.210  31.600  31.774  1.00  0.00    -0.206 F 
ATOM     80  C   UNL A   1      34.575  34.372  29.549  1.00  0.00     0.060 A 
BRANCH  80  81
ATOM     81  S   UNL A   1      33.182  35.241  28.794  1.00  0.00     0.124 S 
ATOM     82  O   UNL A   1      33.867  36.243  27.985  1.00  0.00    -0.237 OA
ATOM     83  O   UNL A   1      32.515  34.172  28.059  1.00  0.00    -0.237 OA
ATOM     84  O   UNL A   1      32.446  35.755  29.945  1.00  0.00    -0.744 OA
ENDBRANCH  80  81
ENDBRANCH  48  73
BRANCH  60  85
ATOM     85  C   UNL A   1      39.679  33.650  37.025  1.00  0.00     0.058 A 
ATOM     86  C   UNL A   1      38.754  33.305  38.022  1.00  0.00     0.135 A 
ATOM     87  C   UNL A   1      40.398  34.847  37.182  1.00  0.00     0.135 A 
ATOM     88  F   UNL A   1      38.036  32.176  37.916  1.00  0.00    -0.206 F 
ATOM     89  C   UNL A   1      38.541  34.122  39.128  1.00  0.00     0.059 A 
ATOM     90  C   UNL A   1      40.222  35.664  38.295  1.00  0.00     0.059 A 
ATOM     91  F   UNL A   1      41.302  35.219  36.262  1.00  0.00    -0.206 F 
ATOM     92  C   UNL A   1      39.284  35.296  39.258  1.00  0.00     0.060 A 
BRANCH  92  93
ATOM     93  S   UNL A   1      39.031  36.319  40.724  1.00  0.00     0.124 S 
ATOM     94  O   UNL A   1      40.378  36.372  41.283  1.00  0.00    -0.237 OA
ATOM     95  O   UNL A   1      38.531  37.565  40.152  1.00  0.00    -0.237 OA
ATOM     96  O   UNL A   1      38.058  35.560  41.505  1.00  0.00    -0.744 OA
ENDBRANCH  92  93
ENDBRANCH  60  85
ENDBRANCH  34  35
ENDBRANCH  27  29
ENDBRANCH  26  27
ENDBRANCH  25  26
ENDBRANCH  24  25
ENDBRANCH   1  24
TORSDOF 21
ENDMDL
MODEL 3
REMARK VINA RESULT:      -9.5      5.112     10.608
REMARK SMILES CC(C)(C)OC(=O)[C@]1(C(=O)OCCOCCOC(=O)c2ccc(-c3c4nc(c(-c5c(F)cc(S(=O)(=O)[O-])cc5F)c5ccc([nH]5)c(-c5c(F)cc(S(=O)(=O)[O-])cc5F)c5nc(c(-c6c(F)cc(S(=O)(=O)[O-])cc6F)c6ccc3[nH]6)C=C5)C=C4)cc2)CC=CC[C@@H]1[NH3+]
REMARK SMILES IDX 14 1 13 2 12 3 11 4 9 5 10 6 8 7 86 8 90 9 87 10 89 11 88 12
REMARK SMILES IDX 6 13 7 14 5 15 2 16 1 17 3 18 4 19 91 20 15 24 16 25 17 26
REMARK SMILES IDX 18 27 19 28 20 29 21 30 85 31 22 32 84 33 23 34 24 35 25 36
REMARK SMILES IDX 78 37 26 38 83 39 77 40 79 41 27 42 82 43 76 44 75 45 28 47
REMARK SMILES IDX 62 48 41 49 61 50 42 51 45 52 60 53 80 54 43 55 44 56 59 58
REMARK SMILES IDX 81 59 46 60 29 61 30 62 39 63 31 64 32 65 38 66 40 67 33 68
REMARK SMILES IDX 34 69 35 70 36 71 37 72 63 73 64 74 73 75 65 76 66 77 72 78
REMARK SMILES IDX 74 79 67 80 68 81 69 82 70 83 71 84 47 85 48 86 57 87 49 88
REMARK SMILES IDX 50 89 56 90 58 91 51 92 52 93 53 94 54 95 55 96
REMARK H PARENT 91 21 91 22 91 23 79 46 45 57
REMARK Flexibility Score: inf
ROOT
ATOM      1  O   UNL A   1      36.422  21.946  25.116  1.00  0.00    -0.374 OA
ENDROOT
BRANCH   1   2
ATOM      2  C   UNL A   1      35.572  21.604  26.213  1.00  0.00     0.202 C 
BRANCH   2   3
ATOM      3  C   UNL A   1      34.068  21.812  26.010  1.00  0.00     0.261 C 
BRANCH   3   4
ATOM      4  O   UNL A   1      33.734  23.176  25.689  1.00  0.00    -0.462 OA
BRANCH   4   5
ATOM      5  C   UNL A   1      32.546  23.368  25.058  1.00  0.00     0.330 C 
ATOM      6  O   UNL A   1      31.718  22.472  24.908  1.00  0.00    -0.251 OA
BRANCH   5   7
ATOM      7  C   UNL A   1      32.265  24.834  24.663  1.00  0.00     0.219 C 
ATOM      8  C   UNL A   1      33.668  25.406  24.271  1.00  0.00     0.064 C 
ATOM      9  C   UNL A   1      31.121  24.988  23.590  1.00  0.00     0.214 C 
ATOM     10  C   UNL A   1      33.857  25.933  22.890  1.00  0.00    -0.029 C 
ATOM     11  C   UNL A   1      31.441  25.799  22.307  1.00  0.00     0.093 C 
ATOM     12  C   UNL A   1      32.867  26.102  22.016  1.00  0.00    -0.025 C 
BRANCH   7  13
ATOM     13  C   UNL A   1      31.857  25.525  25.957  1.00  0.00     0.330 C 
ATOM     14  O   UNL A   1      30.837  25.277  26.586  1.00  0.00    -0.251 OA
BRANCH  13  15
ATOM     15  O   UNL A   1      32.755  26.488  26.308  1.00  0.00    -0.459 OA
BRANCH  15  16
ATOM     16  C   UNL A   1      32.333  27.874  26.356  1.00  0.00     0.104 C 
ATOM     17  C   UNL A   1      33.638  28.676  26.296  1.00  0.00     0.056 C 
ATOM     18  C   UNL A   1      31.635  28.148  27.693  1.00  0.00     0.056 C 
ATOM     19  C   UNL A   1      31.464  28.272  25.156  1.00  0.00     0.056 C 
ENDBRANCH  15  16
ENDBRANCH  13  15
ENDBRANCH   7  13
BRANCH   9  20
ATOM     20  N   UNL A   1      29.819  25.498  24.084  1.00  0.00    -0.353 N 
ATOM     21  H   UNL A   1      29.948  26.424  24.491  1.00  0.00     0.344 HD
ATOM     22  H   UNL A   1      29.452  24.863  24.793  1.00  0.00     0.344 HD
ATOM     23  H   UNL A   1      29.160  25.557  23.308  1.00  0.00     0.344 HD
ENDBRANCH   9  20
ENDBRANCH   5   7
ENDBRANCH   4   5
ENDBRANCH   3   4
ENDBRANCH   2   3
ENDBRANCH   1   2
BRANCH   1  24
ATOM     24  C   UNL A   1      37.743  22.362  25.456  1.00  0.00     0.202 C 
BRANCH  24  25
ATOM     25  C   UNL A   1      37.915  23.824  25.866  1.00  0.00     0.261 C 
BRANCH  25  26
ATOM     26  O   UNL A   1      38.928  23.954  26.876  1.00  0.00    -0.460 OA
BRANCH  26  27
ATOM     27  C   UNL A   1      39.924  24.813  26.563  1.00  0.00     0.338 C 
ATOM     28  O   UNL A   1      40.471  24.947  25.478  1.00  0.00    -0.246 OA
BRANCH  27  29
ATOM     29  C   UNL A   1      40.139  25.737  27.690  1.00  0.00     0.060 A 
ATOM     30  C   UNL A   1      39.206  25.710  28.735  1.00  0.00     0.016 A 
ATOM     31  C   UNL A   1      41.215  26.627  27.718  1.00  0.00     0.016 A 
ATOM     32  C   UNL A   1      39.321  26.604  29.795  1.00  0.00     0.010 A 
ATOM     33  C   UNL A   1      41.320  27.533  28.774  1.00  0.00     0.010 A 
ATOM     34  C   UNL A   1      40.357  27.544  29.800  1.00  0.00    -0.014 A 
BRANCH  34  35
ATOM     35  C   UNL A   1      40.362  28.632  30.804  1.00  0.00     0.031 A 
ATOM     36  C   UNL A   1      41.284  28.519  31.985  1.00  0.00     0.074 A 
ATOM     37  C   UNL A   1      39.558  29.700  30.658  1.00  0.00     0.049 A 
ATOM     38  N   UNL A   1      41.368  29.276  33.045  1.00  0.00    -0.248 NA
ATOM     39  C   UNL A   1      42.237  27.395  31.969  1.00  0.00     0.031 C 
ATOM     40  C   UNL A   1      38.661  29.934  29.526  1.00  0.00     0.029 A 
ATOM     41  N   UNL A   1      39.350  30.778  31.480  1.00  0.00    -0.354 N 
ATOM     42  C   UNL A   1      42.381  28.727  33.822  1.00  0.00     0.074 A 
ATOM     43  C   UNL A   1      42.859  27.550  33.129  1.00  0.00     0.031 C 
ATOM     44  C   UNL A   1      37.973  31.068  29.744  1.00  0.00     0.029 A 
ATOM     45  C   UNL A   1      38.350  31.614  31.046  1.00  0.00     0.049 A 
ATOM     46  H   UNL A   1      39.868  30.937  32.303  1.00  0.00     0.167 HD
ATOM     47  C   UNL A   1      42.872  29.172  35.002  1.00  0.00     0.037 A 
ATOM     48  C   UNL A   1      37.774  32.669  31.654  1.00  0.00     0.037 A 
ATOM     49  C   UNL A   1      42.380  30.340  35.685  1.00  0.00     0.049 A 
ATOM     50  C   UNL A   1      38.271  33.089  33.015  1.00  0.00     0.074 A 
ATOM     51  C   UNL A   1      42.799  30.874  36.889  1.00  0.00     0.029 A 
ATOM     52  N   UNL A   1      41.353  31.153  35.222  1.00  0.00    -0.354 N 
ATOM     53  N   UNL A   1      39.233  32.567  33.739  1.00  0.00    -0.248 NA
ATOM     54  C   UNL A   1      37.604  34.237  33.644  1.00  0.00     0.031 C 
ATOM     55  C   UNL A   1      41.996  31.981  37.179  1.00  0.00     0.029 A 
ATOM     56  C   UNL A   1      41.111  32.170  36.129  1.00  0.00     0.049 A 
ATOM     57  H   UNL A   1      40.869  31.024  34.375  1.00  0.00     0.167 HD
ATOM     58  C   UNL A   1      39.298  33.336  34.897  1.00  0.00     0.074 A 
ATOM     59  C   UNL A   1      38.294  34.371  34.767  1.00  0.00     0.031 C 
ATOM     60  C   UNL A   1      40.112  33.198  35.974  1.00  0.00     0.037 A 
BRANCH  47  61
ATOM     61  C   UNL A   1      43.991  28.394  35.636  1.00  0.00     0.058 A 
ATOM     62  C   UNL A   1      43.740  27.380  36.574  1.00  0.00     0.135 A 
ATOM     63  C   UNL A   1      45.324  28.621  35.258  1.00  0.00     0.135 A 
ATOM     64  F   UNL A   1      42.486  27.135  36.986  1.00  0.00    -0.206 F 
ATOM     65  C   UNL A   1      44.771  26.628  37.125  1.00  0.00     0.059 A 
ATOM     66  C   UNL A   1      46.370  27.861  35.777  1.00  0.00     0.059 A 
ATOM     67  F   UNL A   1      45.621  29.582  34.371  1.00  0.00    -0.206 F 
ATOM     68  C   UNL A   1      46.084  26.871  36.715  1.00  0.00     0.060 A 
BRANCH  68  69
ATOM     69  S   UNL A   1      47.405  25.862  37.417  1.00  0.00     0.124 S 
ATOM     70  O   UNL A   1      47.140  25.987  38.847  1.00  0.00    -0.237 OA
ATOM     71  O   UNL A   1      47.137  24.551  36.835  1.00  0.00    -0.237 OA
ATOM     72  O   UNL A   1      48.622  26.517  36.948  1.00  0.00    -0.744 OA
ENDBRANCH  68  69
ENDBRANCH  47  61
BRANCH  48  73
ATOM     73  C   UNL A   1      36.628  33.372  31.013  1.00  0.00     0.058 A 
ATOM     74  C   UNL A   1      35.309  33.150  31.432  1.00  0.00     0.135 A 
ATOM     75  C   UNL A   1      36.832  34.259  29.944  1.00  0.00     0.135 A 
ATOM     76  F   UNL A   1      35.059  32.305  32.443  1.00  0.00    -0.206 F 
ATOM     77  C   UNL A   1      34.230  33.756  30.794  1.00  0.00     0.059 A 
ATOM     78  C   UNL A   1      35.773  34.901  29.311  1.00  0.00     0.059 A 
ATOM     79  F   UNL A   1      38.076  34.517  29.510  1.00  0.00    -0.206 F 
ATOM     80  C   UNL A   1      34.473  34.628  29.733  1.00  0.00     0.060 A 
BRANCH  80  81
ATOM     81  S   UNL A   1      33.067  35.418  28.919  1.00  0.00     0.124 S 
ATOM     82  O   UNL A   1      32.326  35.943  30.060  1.00  0.00    -0.237 OA
ATOM     83  O   UNL A   1      33.721  36.410  28.071  1.00  0.00    -0.237 OA
ATOM     84  O   UNL A   1      32.430  34.316  28.206  1.00  0.00    -0.744 OA
ENDBRANCH  80  81
ENDBRANCH  48  73
BRANCH  60  85
ATOM     85  C   UNL A   1      39.973  34.204  37.084  1.00  0.00     0.058 A 
ATOM     86  C   UNL A   1      40.614  35.452  37.030  1.00  0.00     0.135 A 
ATOM     87  C   UNL A   1      39.137  33.942  38.181  1.00  0.00     0.135 A 
ATOM     88  F   UNL A   1      41.430  35.748  36.007  1.00  0.00    -0.206 F 
ATOM     89  C   UNL A   1      40.441  36.400  38.034  1.00  0.00     0.059 A 
ATOM     90  C   UNL A   1      38.926  34.887  39.181  1.00  0.00     0.059 A 
ATOM     91  F   UNL A   1      38.493  32.768  38.277  1.00  0.00    -0.206 F 
ATOM     92  C   UNL A   1      39.590  36.110  39.102  1.00  0.00     0.060 A 
BRANCH  92  93
ATOM     93  S   UNL A   1      39.338  37.371  40.369  1.00  0.00     0.124 S 
ATOM     94  O   UNL A   1      40.591  37.295  41.114  1.00  0.00    -0.237 OA
ATOM     95  O   UNL A   1      39.144  38.578  39.573  1.00  0.00    -0.237 OA
ATOM     96  O   UNL A   1      38.154  36.902  41.085  1.00  0.00    -0.744 OA
ENDBRANCH  92  93
ENDBRANCH  60  85
ENDBRANCH  34  35
ENDBRANCH  27  29
ENDBRANCH  26  27
ENDBRANCH  25  26
ENDBRANCH  24  25
ENDBRANCH   1  24
TORSDOF 21
ENDMDL
