MODEL 1
REMARK VINA RESULT:     -10.4      0.000      0.000
REMARK SMILES Cc1cc(CS(=O)(=O)N[C@@H]2C=C[C@H](C(=O)OCCOCCOC(=O)c3ccc(-c4c5nc(c(-c6c(F)cc(S(=O)(=O)[O-])cc6F)c6ccc([nH]6)c(-c6c(F)cc(S(=O)(=O)[O-])cc6F)c6nc(c(-c7c(F)cc(S(=O)(=O)[O-])cc7F)c7ccc4[nH]7)C=C6)C=C5)cc3)C2)no1
REMARK SMILES IDX 18 1 17 2 16 3 14 4 15 5 13 6 10 7 11 8 91 9 12 10 9 11 6 13
REMARK SMILES IDX 7 14 8 15 5 16 4 17 1 18 2 19 3 20 93 21 92 22 19 23 20 24
REMARK SMILES IDX 21 25 22 26 23 27 24 28 25 29 26 30 90 31 27 32 89 33 28 34
REMARK SMILES IDX 29 35 30 36 83 37 31 38 88 39 82 40 84 41 32 42 87 43 81 44
REMARK SMILES IDX 80 45 33 47 67 48 46 49 66 50 47 51 50 52 65 53 85 54 48 55
REMARK SMILES IDX 49 56 64 58 86 59 51 60 34 61 35 62 44 63 36 64 37 65 43 66
REMARK SMILES IDX 45 67 38 68 39 69 40 70 41 71 42 72 68 73 69 74 78 75 70 76
REMARK SMILES IDX 71 77 77 78 79 79 72 80 73 81 74 82 75 83 76 84 52 85 53 86
REMARK SMILES IDX 62 87 54 88 55 89 61 90 63 91 56 92 57 93 58 94 59 95 60 96
REMARK H PARENT 9 12 84 46 50 57
REMARK Flexibility Score: inf
ROOT
ATOM      1  C   UNL A   1      36.518  22.999  23.654  1.00  0.00     0.202 C 
ENDROOT
BRANCH   1   2
ATOM      2  C   UNL A   1      35.025  22.716  23.462  1.00  0.00     0.261 C 
BRANCH   2   3
ATOM      3  O   UNL A   1      34.349  22.757  24.724  1.00  0.00    -0.463 OA
BRANCH   3   4
ATOM      4  C   UNL A   1      33.116  22.180  24.756  1.00  0.00     0.312 C 
ATOM      5  O   UNL A   1      32.849  21.058  24.349  1.00  0.00    -0.252 OA
BRANCH   4   6
ATOM      6  C   UNL A   1      32.131  23.088  25.482  1.00  0.00     0.123 C 
ATOM      7  C   UNL A   1      32.046  25.347  24.574  1.00  0.00     0.093 C 
ATOM      8  C   UNL A   1      32.798  25.289  25.865  1.00  0.00    -0.011 C 
ATOM      9  C   UNL A   1      31.365  23.987  24.506  1.00  0.00     0.043 C 
ATOM     10  C   UNL A   1      32.833  24.058  26.377  1.00  0.00    -0.015 C 
BRANCH   7  11
ATOM     11  N   UNL A   1      33.047  25.550  23.539  1.00  0.00    -0.208 NA
ATOM     12  H   UNL A   1      33.859  25.974  23.987  1.00  0.00     0.141 HD
BRANCH  11  13
ATOM     13  S   UNL A   1      32.663  26.503  22.214  1.00  0.00     0.218 S 
ATOM     14  O   UNL A   1      31.226  26.582  22.138  1.00  0.00    -0.212 OA
ATOM     15  O   UNL A   1      33.413  25.917  21.115  1.00  0.00    -0.212 OA
BRANCH  13  16
ATOM     16  C   UNL A   1      33.406  28.124  22.570  1.00  0.00     0.213 C 
BRANCH  16  17
ATOM     17  C   UNL A   1      33.129  28.620  23.942  1.00  0.00     0.100 A 
ATOM     18  C   UNL A   1      31.819  30.804  26.570  1.00  0.00     0.091 C 
ATOM     19  C   UNL A   1      32.373  29.809  25.635  1.00  0.00     0.133 A 
ATOM     20  C   UNL A   1      31.987  29.321  24.409  1.00  0.00     0.073 A 
ATOM     21  O   UNL A   1      33.581  29.280  25.963  1.00  0.00    -0.361 OA
ATOM     22  N   UNL A   1      34.038  28.496  24.919  1.00  0.00    -0.084 NA
ENDBRANCH  16  17
ENDBRANCH  13  16
ENDBRANCH  11  13
ENDBRANCH   7  11
ENDBRANCH   4   6
ENDBRANCH   3   4
ENDBRANCH   2   3
ENDBRANCH   1   2
BRANCH   1  23
ATOM     23  O   UNL A   1      37.262  22.057  24.428  1.00  0.00    -0.374 OA
BRANCH  23  24
ATOM     24  C   UNL A   1      37.747  22.472  25.705  1.00  0.00     0.202 C 
BRANCH  24  25
ATOM     25  C   UNL A   1      38.222  23.922  25.867  1.00  0.00     0.261 C 
BRANCH  25  26
ATOM     26  O   UNL A   1      39.362  24.047  26.733  1.00  0.00    -0.460 OA
BRANCH  26  27
ATOM     27  C   UNL A   1      40.148  25.118  26.465  1.00  0.00     0.338 C 
ATOM     28  O   UNL A   1      40.539  25.488  25.366  1.00  0.00    -0.246 OA
BRANCH  27  29
ATOM     29  C   UNL A   1      40.340  25.925  27.680  1.00  0.00     0.060 A 
ATOM     30  C   UNL A   1      39.397  25.784  28.706  1.00  0.00     0.016 A 
ATOM     31  C   UNL A   1      41.364  26.869  27.778  1.00  0.00     0.016 A 
ATOM     32  C   UNL A   1      39.445  26.619  29.818  1.00  0.00     0.010 A 
ATOM     33  C   UNL A   1      41.403  27.717  28.891  1.00  0.00     0.010 A 
ATOM     34  C   UNL A   1      40.423  27.618  29.896  1.00  0.00    -0.014 A 
BRANCH  34  35
ATOM     35  C   UNL A   1      40.316  28.655  30.949  1.00  0.00     0.031 A 
ATOM     36  C   UNL A   1      41.231  28.576  32.141  1.00  0.00     0.074 A 
ATOM     37  C   UNL A   1      39.444  29.671  30.824  1.00  0.00     0.049 A 
ATOM     38  N   UNL A   1      41.302  29.360  33.183  1.00  0.00    -0.248 NA
ATOM     39  C   UNL A   1      42.192  27.461  32.157  1.00  0.00     0.031 C 
ATOM     40  C   UNL A   1      38.542  29.875  29.693  1.00  0.00     0.029 A 
ATOM     41  N   UNL A   1      39.177  30.723  31.663  1.00  0.00    -0.354 N 
ATOM     42  C   UNL A   1      42.306  28.831  33.987  1.00  0.00     0.074 A 
ATOM     43  C   UNL A   1      42.799  27.644  33.321  1.00  0.00     0.031 C 
ATOM     44  C   UNL A   1      37.815  30.984  29.910  1.00  0.00     0.029 A 
ATOM     45  C   UNL A   1      38.178  31.549  31.209  1.00  0.00     0.049 A 
ATOM     46  H   UNL A   1      39.656  30.871  32.511  1.00  0.00     0.167 HD
ATOM     47  C   UNL A   1      42.778  29.297  35.167  1.00  0.00     0.037 A 
ATOM     48  C   UNL A   1      37.613  32.627  31.784  1.00  0.00     0.037 A 
ATOM     49  C   UNL A   1      42.286  30.483  35.819  1.00  0.00     0.049 A 
ATOM     50  C   UNL A   1      38.109  33.089  33.130  1.00  0.00     0.074 A 
ATOM     51  C   UNL A   1      42.716  31.056  37.002  1.00  0.00     0.029 A 
ATOM     52  N   UNL A   1      41.247  31.272  35.347  1.00  0.00    -0.354 N 
ATOM     53  N   UNL A   1      39.077  32.596  33.866  1.00  0.00    -0.248 NA
ATOM     54  C   UNL A   1      37.438  34.254  33.723  1.00  0.00     0.031 C 
ATOM     55  C   UNL A   1      41.906  32.164  37.271  1.00  0.00     0.029 A 
ATOM     56  C   UNL A   1      41.002  32.310  36.230  1.00  0.00     0.049 A 
ATOM     57  H   UNL A   1      40.756  31.116  34.508  1.00  0.00     0.167 HD
ATOM     58  C   UNL A   1      39.150  33.407  34.993  1.00  0.00     0.074 A 
ATOM     59  C   UNL A   1      38.133  34.427  34.840  1.00  0.00     0.031 C 
ATOM     60  C   UNL A   1      39.987  33.320  36.058  1.00  0.00     0.037 A 
BRANCH  47  61
ATOM     61  C   UNL A   1      43.857  28.501  35.847  1.00  0.00     0.058 A 
ATOM     62  C   UNL A   1      43.560  27.437  36.713  1.00  0.00     0.135 A 
ATOM     63  C   UNL A   1      45.210  28.796  35.611  1.00  0.00     0.135 A 
ATOM     64  F   UNL A   1      42.285  27.124  36.989  1.00  0.00    -0.206 F 
ATOM     65  C   UNL A   1      44.567  26.713  37.346  1.00  0.00     0.059 A 
ATOM     66  C   UNL A   1      46.232  28.069  36.211  1.00  0.00     0.059 A 
ATOM     67  F   UNL A   1      45.549  29.805  34.793  1.00  0.00    -0.206 F 
ATOM     68  C   UNL A   1      45.900  27.039  37.091  1.00  0.00     0.060 A 
BRANCH  68  69
ATOM     69  S   UNL A   1      47.195  26.096  37.924  1.00  0.00     0.124 S 
ATOM     70  O   UNL A   1      47.593  25.161  36.875  1.00  0.00    -0.237 OA
ATOM     71  O   UNL A   1      48.171  27.128  38.256  1.00  0.00    -0.237 OA
ATOM     72  O   UNL A   1      46.503  25.502  39.063  1.00  0.00    -0.744 OA
ENDBRANCH  68  69
ENDBRANCH  47  61
BRANCH  48  73
ATOM     73  C   UNL A   1      36.508  33.345  31.095  1.00  0.00     0.058 A 
ATOM     74  C   UNL A   1      35.193  33.284  31.578  1.00  0.00     0.135 A 
ATOM     75  C   UNL A   1      36.746  34.107  29.940  1.00  0.00     0.135 A 
ATOM     76  F   UNL A   1      34.914  32.560  32.674  1.00  0.00    -0.206 F 
ATOM     77  C   UNL A   1      34.150  33.944  30.937  1.00  0.00     0.059 A 
ATOM     78  C   UNL A   1      35.723  34.794  29.294  1.00  0.00     0.059 A 
ATOM     79  F   UNL A   1      37.989  34.204  29.442  1.00  0.00    -0.206 F 
ATOM     80  C   UNL A   1      34.427  34.700  29.796  1.00  0.00     0.060 A 
BRANCH  80  81
ATOM     81  S   UNL A   1      33.075  35.594  28.999  1.00  0.00     0.124 S 
ATOM     82  O   UNL A   1      33.797  36.638  28.282  1.00  0.00    -0.237 OA
ATOM     83  O   UNL A   1      32.466  34.555  28.174  1.00  0.00    -0.237 OA
ATOM     84  O   UNL A   1      32.263  36.045  30.126  1.00  0.00    -0.744 OA
ENDBRANCH  80  81
ENDBRANCH  48  73
BRANCH  60  85
ATOM     85  C   UNL A   1      39.864  34.374  37.124  1.00  0.00     0.058 A 
ATOM     86  C   UNL A   1      40.515  35.612  37.017  1.00  0.00     0.135 A 
ATOM     87  C   UNL A   1      39.038  34.161  38.241  1.00  0.00     0.135 A 
ATOM     88  F   UNL A   1      41.321  35.865  35.974  1.00  0.00    -0.206 F 
ATOM     89  C   UNL A   1      40.371  36.595  37.992  1.00  0.00     0.059 A 
ATOM     90  C   UNL A   1      38.857  35.139  39.213  1.00  0.00     0.059 A 
ATOM     91  F   UNL A   1      38.383  32.998  38.385  1.00  0.00    -0.206 F 
ATOM     92  C   UNL A   1      39.537  36.350  39.085  1.00  0.00     0.060 A 
BRANCH  92  93
ATOM     93  S   UNL A   1      39.329  37.646  40.325  1.00  0.00     0.124 S 
ATOM     94  O   UNL A   1      40.573  38.394  40.178  1.00  0.00    -0.237 OA
ATOM     95  O   UNL A   1      38.122  38.327  39.866  1.00  0.00    -0.237 OA
ATOM     96  O   UNL A   1      39.186  36.902  41.573  1.00  0.00    -0.744 OA
ENDBRANCH  92  93
ENDBRANCH  60  85
ENDBRANCH  34  35
ENDBRANCH  27  29
ENDBRANCH  26  27
ENDBRANCH  25  26
ENDBRANCH  24  25
ENDBRANCH  23  24
ENDBRANCH   1  23
TORSDOF 21
ENDMDL
MODEL 2
REMARK VINA RESULT:     -10.3      1.329      2.007
REMARK SMILES Cc1cc(CS(=O)(=O)N[C@@H]2C=C[C@H](C(=O)OCCOCCOC(=O)c3ccc(-c4c5nc(c(-c6c(F)cc(S(=O)(=O)[O-])cc6F)c6ccc([nH]6)c(-c6c(F)cc(S(=O)(=O)[O-])cc6F)c6nc(c(-c7c(F)cc(S(=O)(=O)[O-])cc7F)c7ccc4[nH]7)C=C6)C=C5)cc3)C2)no1
REMARK SMILES IDX 18 1 17 2 16 3 14 4 15 5 13 6 10 7 11 8 91 9 12 10 9 11 6 13
REMARK SMILES IDX 7 14 8 15 5 16 4 17 1 18 2 19 3 20 93 21 92 22 19 23 20 24
REMARK SMILES IDX 21 25 22 26 23 27 24 28 25 29 26 30 90 31 27 32 89 33 28 34
REMARK SMILES IDX 29 35 30 36 83 37 31 38 88 39 82 40 84 41 32 42 87 43 81 44
REMARK SMILES IDX 80 45 33 47 67 48 46 49 66 50 47 51 50 52 65 53 85 54 48 55
REMARK SMILES IDX 49 56 64 58 86 59 51 60 34 61 35 62 44 63 36 64 37 65 43 66
REMARK SMILES IDX 45 67 38 68 39 69 40 70 41 71 42 72 68 73 69 74 78 75 70 76
REMARK SMILES IDX 71 77 77 78 79 79 72 80 73 81 74 82 75 83 76 84 52 85 53 86
REMARK SMILES IDX 62 87 54 88 55 89 61 90 63 91 56 92 57 93 58 94 59 95 60 96
REMARK H PARENT 9 12 84 46 50 57
REMARK Flexibility Score: inf
ROOT
ATOM      1  C   UNL A   1      36.669  22.899  23.515  1.00  0.00     0.202 C 
ENDROOT
BRANCH   1   2
ATOM      2  C   UNL A   1      35.142  22.989  23.591  1.00  0.00     0.261 C 
BRANCH   2   3
ATOM      3  O   UNL A   1      34.609  21.815  24.215  1.00  0.00    -0.463 OA
BRANCH   3   4
ATOM      4  C   UNL A   1      33.260  21.656  24.124  1.00  0.00     0.312 C 
ATOM      5  O   UNL A   1      32.617  21.640  23.083  1.00  0.00    -0.252 OA
BRANCH   4   6
ATOM      6  C   UNL A   1      32.670  21.380  25.501  1.00  0.00     0.123 C 
ATOM      7  C   UNL A   1      32.235  23.399  26.792  1.00  0.00     0.093 C 
ATOM      8  C   UNL A   1      33.454  22.678  27.273  1.00  0.00    -0.011 C 
ATOM      9  C   UNL A   1      31.576  22.389  25.862  1.00  0.00     0.043 C 
ATOM     10  C   UNL A   1      33.687  21.561  26.582  1.00  0.00    -0.015 C 
BRANCH   7  11
ATOM     11  N   UNL A   1      32.720  24.589  26.111  1.00  0.00    -0.208 NA
ATOM     12  H   UNL A   1      33.468  24.979  26.684  1.00  0.00     0.141 HD
BRANCH  11  13
ATOM     13  S   UNL A   1      31.646  25.836  25.791  1.00  0.00     0.218 S 
ATOM     14  O   UNL A   1      32.401  27.063  25.769  1.00  0.00    -0.212 OA
ATOM     15  O   UNL A   1      30.584  25.660  26.767  1.00  0.00    -0.212 OA
BRANCH  13  16
ATOM     16  C   UNL A   1      30.948  25.448  24.158  1.00  0.00     0.213 C 
BRANCH  16  17
ATOM     17  C   UNL A   1      30.015  26.484  23.646  1.00  0.00     0.100 A 
ATOM     18  C   UNL A   1      28.778  29.817  22.776  1.00  0.00     0.091 C 
ATOM     19  C   UNL A   1      29.150  28.414  23.030  1.00  0.00     0.133 A 
ATOM     20  C   UNL A   1      30.332  27.711  23.006  1.00  0.00     0.073 A 
ATOM     21  O   UNL A   1      28.157  27.598  23.472  1.00  0.00    -0.361 OA
ATOM     22  N   UNL A   1      28.692  26.370  23.817  1.00  0.00    -0.084 NA
ENDBRANCH  16  17
ENDBRANCH  13  16
ENDBRANCH  11  13
ENDBRANCH   7  11
ENDBRANCH   4   6
ENDBRANCH   3   4
ENDBRANCH   2   3
ENDBRANCH   1   2
BRANCH   1  23
ATOM     23  O   UNL A   1      37.312  22.018  24.437  1.00  0.00    -0.374 OA
BRANCH  23  24
ATOM     24  C   UNL A   1      37.646  22.524  25.729  1.00  0.00     0.202 C 
BRANCH  24  25
ATOM     25  C   UNL A   1      38.220  23.943  25.829  1.00  0.00     0.261 C 
BRANCH  25  26
ATOM     26  O   UNL A   1      39.370  24.027  26.687  1.00  0.00    -0.460 OA
BRANCH  26  27
ATOM     27  C   UNL A   1      40.179  25.083  26.431  1.00  0.00     0.338 C 
ATOM     28  O   UNL A   1      40.597  25.443  25.339  1.00  0.00    -0.246 OA
BRANCH  27  29
ATOM     29  C   UNL A   1      40.361  25.891  27.648  1.00  0.00     0.060 A 
ATOM     30  C   UNL A   1      39.392  25.773  28.652  1.00  0.00     0.016 A 
ATOM     31  C   UNL A   1      41.402  26.813  27.765  1.00  0.00     0.016 A 
ATOM     32  C   UNL A   1      39.434  26.612  29.762  1.00  0.00     0.010 A 
ATOM     33  C   UNL A   1      41.435  27.664  28.875  1.00  0.00     0.010 A 
ATOM     34  C   UNL A   1      40.431  27.590  29.858  1.00  0.00    -0.014 A 
BRANCH  34  35
ATOM     35  C   UNL A   1      40.323  28.633  30.905  1.00  0.00     0.031 A 
ATOM     36  C   UNL A   1      41.237  28.562  32.098  1.00  0.00     0.074 A 
ATOM     37  C   UNL A   1      39.449  29.647  30.775  1.00  0.00     0.049 A 
ATOM     38  N   UNL A   1      41.308  29.353  33.135  1.00  0.00    -0.248 NA
ATOM     39  C   UNL A   1      42.201  27.450  32.120  1.00  0.00     0.031 C 
ATOM     40  C   UNL A   1      38.546  29.843  29.642  1.00  0.00     0.029 A 
ATOM     41  N   UNL A   1      39.180  30.703  31.607  1.00  0.00    -0.354 N 
ATOM     42  C   UNL A   1      42.312  28.831  33.941  1.00  0.00     0.074 A 
ATOM     43  C   UNL A   1      42.808  27.640  33.283  1.00  0.00     0.031 C 
ATOM     44  C   UNL A   1      37.818  30.952  29.853  1.00  0.00     0.029 A 
ATOM     45  C   UNL A   1      38.181  31.526  31.149  1.00  0.00     0.049 A 
ATOM     46  H   UNL A   1      39.659  30.858  32.454  1.00  0.00     0.167 HD
ATOM     47  C   UNL A   1      42.784  29.304  35.119  1.00  0.00     0.037 A 
ATOM     48  C   UNL A   1      37.614  32.607  31.718  1.00  0.00     0.037 A 
ATOM     49  C   UNL A   1      42.291  30.493  35.764  1.00  0.00     0.049 A 
ATOM     50  C   UNL A   1      38.110  33.077  33.060  1.00  0.00     0.074 A 
ATOM     51  C   UNL A   1      42.721  31.074  36.943  1.00  0.00     0.029 A 
ATOM     52  N   UNL A   1      41.251  31.277  35.288  1.00  0.00    -0.354 N 
ATOM     53  N   UNL A   1      39.079  32.590  33.799  1.00  0.00    -0.248 NA
ATOM     54  C   UNL A   1      37.437  34.244  33.647  1.00  0.00     0.031 C 
ATOM     55  C   UNL A   1      41.909  32.182  37.206  1.00  0.00     0.029 A 
ATOM     56  C   UNL A   1      41.005  32.321  36.165  1.00  0.00     0.049 A 
ATOM     57  H   UNL A   1      40.759  31.116  34.449  1.00  0.00     0.167 HD
ATOM     58  C   UNL A   1      39.151  33.408  34.922  1.00  0.00     0.074 A 
ATOM     59  C   UNL A   1      38.132  34.425  34.762  1.00  0.00     0.031 C 
ATOM     60  C   UNL A   1      39.988  33.328  35.987  1.00  0.00     0.037 A 
BRANCH  47  61
ATOM     61  C   UNL A   1      43.865  28.513  35.804  1.00  0.00     0.058 A 
ATOM     62  C   UNL A   1      45.226  28.764  35.575  1.00  0.00     0.135 A 
ATOM     63  C   UNL A   1      43.529  27.501  36.719  1.00  0.00     0.135 A 
ATOM     64  F   UNL A   1      45.602  29.707  34.698  1.00  0.00    -0.206 F 
ATOM     65  C   UNL A   1      46.218  28.020  36.207  1.00  0.00     0.059 A 
ATOM     66  C   UNL A   1      44.504  26.762  37.382  1.00  0.00     0.059 A 
ATOM     67  F   UNL A   1      42.241  27.219  36.972  1.00  0.00    -0.206 F 
ATOM     68  C   UNL A   1      45.847  27.018  37.106  1.00  0.00     0.060 A 
BRANCH  68  69
ATOM     69  S   UNL A   1      47.144  26.055  37.912  1.00  0.00     0.124 S 
ATOM     70  O   UNL A   1      46.595  25.898  39.255  1.00  0.00    -0.237 OA
ATOM     71  O   UNL A   1      47.188  24.845  37.099  1.00  0.00    -0.237 OA
ATOM     72  O   UNL A   1      48.318  26.916  37.811  1.00  0.00    -0.744 OA
ENDBRANCH  68  69
ENDBRANCH  47  61
BRANCH  48  73
ATOM     73  C   UNL A   1      36.508  33.318  31.024  1.00  0.00     0.058 A 
ATOM     74  C   UNL A   1      35.186  33.222  31.482  1.00  0.00     0.135 A 
ATOM     75  C   UNL A   1      36.752  34.110  29.891  1.00  0.00     0.135 A 
ATOM     76  F   UNL A   1      34.901  32.469  32.556  1.00  0.00    -0.206 F 
ATOM     77  C   UNL A   1      34.142  33.876  30.836  1.00  0.00     0.059 A 
ATOM     78  C   UNL A   1      35.728  34.793  29.242  1.00  0.00     0.059 A 
ATOM     79  F   UNL A   1      38.001  34.243  29.419  1.00  0.00    -0.206 F 
ATOM     80  C   UNL A   1      34.425  34.663  29.718  1.00  0.00     0.060 A 
BRANCH  80  81
ATOM     81  S   UNL A   1      33.070  35.549  28.916  1.00  0.00     0.124 S 
ATOM     82  O   UNL A   1      33.789  36.592  28.194  1.00  0.00    -0.237 OA
ATOM     83  O   UNL A   1      32.464  34.504  28.096  1.00  0.00    -0.237 OA
ATOM     84  O   UNL A   1      32.257  36.004  30.041  1.00  0.00    -0.744 OA
ENDBRANCH  80  81
ENDBRANCH  48  73
BRANCH  60  85
ATOM     85  C   UNL A   1      39.864  34.388  37.046  1.00  0.00     0.058 A 
ATOM     86  C   UNL A   1      40.504  35.631  36.926  1.00  0.00     0.135 A 
ATOM     87  C   UNL A   1      39.047  34.176  38.170  1.00  0.00     0.135 A 
ATOM     88  F   UNL A   1      41.301  35.883  35.876  1.00  0.00    -0.206 F 
ATOM     89  C   UNL A   1      40.358  36.619  37.896  1.00  0.00     0.059 A 
ATOM     90  C   UNL A   1      38.865  35.160  39.137  1.00  0.00     0.059 A 
ATOM     91  F   UNL A   1      38.403  33.009  38.326  1.00  0.00    -0.206 F 
ATOM     92  C   UNL A   1      39.534  36.375  38.996  1.00  0.00     0.060 A 
BRANCH  92  93
ATOM     93  S   UNL A   1      39.325  37.677  40.229  1.00  0.00     0.124 S 
ATOM     94  O   UNL A   1      38.240  38.460  39.646  1.00  0.00    -0.237 OA
ATOM     95  O   UNL A   1      38.985  36.921  41.430  1.00  0.00    -0.237 OA
ATOM     96  O   UNL A   1      40.629  38.332  40.255  1.00  0.00    -0.744 OA
ENDBRANCH  92  93
ENDBRANCH  60  85
ENDBRANCH  34  35
ENDBRANCH  27  29
ENDBRANCH  26  27
ENDBRANCH  25  26
ENDBRANCH  24  25
ENDBRANCH  23  24
ENDBRANCH   1  23
TORSDOF 21
ENDMDL
MODEL 3
REMARK VINA RESULT:     -10.3      6.579     12.012
REMARK SMILES Cc1cc(CS(=O)(=O)N[C@@H]2C=C[C@H](C(=O)OCCOCCOC(=O)c3ccc(-c4c5nc(c(-c6c(F)cc(S(=O)(=O)[O-])cc6F)c6ccc([nH]6)c(-c6c(F)cc(S(=O)(=O)[O-])cc6F)c6nc(c(-c7c(F)cc(S(=O)(=O)[O-])cc7F)c7ccc4[nH]7)C=C6)C=C5)cc3)C2)no1
REMARK SMILES IDX 18 1 17 2 16 3 14 4 15 5 13 6 10 7 11 8 91 9 12 10 9 11 6 13
REMARK SMILES IDX 7 14 8 15 5 16 4 17 1 18 2 19 3 20 93 21 92 22 19 23 20 24
REMARK SMILES IDX 21 25 22 26 23 27 24 28 25 29 26 30 90 31 27 32 89 33 28 34
REMARK SMILES IDX 29 35 30 36 83 37 31 38 88 39 82 40 84 41 32 42 87 43 81 44
REMARK SMILES IDX 80 45 33 47 67 48 46 49 66 50 47 51 50 52 65 53 85 54 48 55
REMARK SMILES IDX 49 56 64 58 86 59 51 60 34 61 35 62 44 63 36 64 37 65 43 66
REMARK SMILES IDX 45 67 38 68 39 69 40 70 41 71 42 72 68 73 69 74 78 75 70 76
REMARK SMILES IDX 71 77 77 78 79 79 72 80 73 81 74 82 75 83 76 84 52 85 53 86
REMARK SMILES IDX 62 87 54 88 55 89 61 90 63 91 56 92 57 93 58 94 59 95 60 96
REMARK H PARENT 9 12 84 46 50 57
REMARK Flexibility Score: inf
ROOT
ATOM      1  C   UNL A   1      33.649  30.082  27.195  1.00  0.00     0.202 C 
ENDROOT
BRANCH   1   2
ATOM      2  C   UNL A   1      32.162  30.332  26.931  1.00  0.00     0.261 C 
BRANCH   2   3
ATOM      3  O   UNL A   1      31.887  30.232  25.528  1.00  0.00    -0.463 OA
BRANCH   3   4
ATOM      4  C   UNL A   1      31.604  28.981  25.068  1.00  0.00     0.312 C 
ATOM      5  O   UNL A   1      31.099  28.083  25.726  1.00  0.00    -0.252 OA
BRANCH   4   6
ATOM      6  C   UNL A   1      31.897  28.893  23.576  1.00  0.00     0.123 C 
ATOM      7  C   UNL A   1      32.749  26.719  22.882  1.00  0.00     0.093 C 
ATOM      8  C   UNL A   1      33.828  27.753  22.936  1.00  0.00    -0.011 C 
ATOM      9  C   UNL A   1      31.472  27.541  22.994  1.00  0.00     0.043 C 
ATOM     10  C   UNL A   1      33.364  28.951  23.298  1.00  0.00    -0.015 C 
BRANCH   7  11
ATOM     11  N   UNL A   1      32.980  25.843  24.020  1.00  0.00    -0.208 NA
ATOM     12  H   UNL A   1      33.343  26.423  24.775  1.00  0.00     0.141 HD
BRANCH  11  13
ATOM     13  S   UNL A   1      34.028  24.547  23.847  1.00  0.00     0.218 S 
ATOM     14  O   UNL A   1      35.042  24.671  24.864  1.00  0.00    -0.212 OA
ATOM     15  O   UNL A   1      34.408  24.571  22.444  1.00  0.00    -0.212 OA
BRANCH  13  16
ATOM     16  C   UNL A   1      32.999  23.071  24.102  1.00  0.00     0.213 C 
BRANCH  16  17
ATOM     17  C   UNL A   1      32.172  23.124  25.335  1.00  0.00     0.100 A 
ATOM     18  C   UNL A   1      29.213  22.797  27.464  1.00  0.00     0.091 C 
ATOM     19  C   UNL A   1      30.495  22.942  26.750  1.00  0.00     0.133 A 
ATOM     20  C   UNL A   1      31.098  22.276  25.709  1.00  0.00     0.073 A 
ATOM     21  O   UNL A   1      31.263  24.007  27.100  1.00  0.00    -0.361 OA
ATOM     22  N   UNL A   1      32.342  24.097  26.239  1.00  0.00    -0.084 NA
ENDBRANCH  16  17
ENDBRANCH  13  16
ENDBRANCH  11  13
ENDBRANCH   7  11
ENDBRANCH   4   6
ENDBRANCH   3   4
ENDBRANCH   2   3
ENDBRANCH   1   2
BRANCH   1  23
ATOM     23  O   UNL A   1      34.477  31.232  27.378  1.00  0.00    -0.374 OA
BRANCH  23  24
ATOM     24  C   UNL A   1      34.019  32.255  28.262  1.00  0.00     0.202 C 
BRANCH  24  25
ATOM     25  C   UNL A   1      34.794  32.493  29.564  1.00  0.00     0.261 C 
BRANCH  25  26
ATOM     26  O   UNL A   1      36.190  32.167  29.457  1.00  0.00    -0.460 OA
BRANCH  26  27
ATOM     27  C   UNL A   1      36.666  31.415  30.478  1.00  0.00     0.338 C 
ATOM     28  O   UNL A   1      36.154  31.258  31.578  1.00  0.00    -0.246 OA
BRANCH  27  29
ATOM     29  C   UNL A   1      37.827  30.628  30.032  1.00  0.00     0.060 A 
ATOM     30  C   UNL A   1      38.763  30.250  31.003  1.00  0.00     0.016 A 
ATOM     31  C   UNL A   1      38.047  30.348  28.682  1.00  0.00     0.016 A 
ATOM     32  C   UNL A   1      39.948  29.628  30.623  1.00  0.00     0.010 A 
ATOM     33  C   UNL A   1      39.245  29.735  28.301  1.00  0.00     0.010 A 
ATOM     34  C   UNL A   1      40.215  29.406  29.267  1.00  0.00    -0.014 A 
BRANCH  34  35
ATOM     35  C   UNL A   1      41.572  28.978  28.856  1.00  0.00     0.031 A 
ATOM     36  C   UNL A   1      42.688  29.986  28.875  1.00  0.00     0.074 A 
ATOM     37  C   UNL A   1      41.813  27.701  28.510  1.00  0.00     0.049 A 
ATOM     38  N   UNL A   1      43.943  29.838  28.544  1.00  0.00    -0.248 NA
ATOM     39  C   UNL A   1      42.339  31.343  29.328  1.00  0.00     0.031 C 
ATOM     40  C   UNL A   1      40.820  26.627  28.499  1.00  0.00     0.029 A 
ATOM     41  N   UNL A   1      42.971  27.093  28.099  1.00  0.00    -0.354 N 
ATOM     42  C   UNL A   1      44.534  31.082  28.736  1.00  0.00     0.074 A 
ATOM     43  C   UNL A   1      43.493  31.980  29.190  1.00  0.00     0.031 C 
ATOM     44  C   UNL A   1      41.412  25.491  28.096  1.00  0.00     0.029 A 
ATOM     45  C   UNL A   1      42.817  25.763  27.791  1.00  0.00     0.049 A 
ATOM     46  H   UNL A   1      43.833  27.565  28.032  1.00  0.00     0.167 HD
ATOM     47  C   UNL A   1      45.827  31.441  28.557  1.00  0.00     0.037 A 
ATOM     48  C   UNL A   1      43.703  24.874  27.303  1.00  0.00     0.037 A 
ATOM     49  C   UNL A   1      46.859  30.541  28.112  1.00  0.00     0.049 A 
ATOM     50  C   UNL A   1      45.122  25.313  27.049  1.00  0.00     0.074 A 
ATOM     51  C   UNL A   1      48.205  30.797  27.927  1.00  0.00     0.029 A 
ATOM     52  N   UNL A   1      46.655  29.211  27.773  1.00  0.00    -0.354 N 
ATOM     53  N   UNL A   1      45.673  26.485  27.260  1.00  0.00    -0.248 NA
ATOM     54  C   UNL A   1      46.039  24.310  26.491  1.00  0.00     0.031 C 
ATOM     55  C   UNL A   1      48.807  29.637  27.429  1.00  0.00     0.029 A 
ATOM     56  C   UNL A   1      47.845  28.642  27.351  1.00  0.00     0.049 A 
ATOM     57  H   UNL A   1      45.791  28.741  27.823  1.00  0.00     0.167 HD
ATOM     58  C   UNL A   1      47.007  26.351  26.889  1.00  0.00     0.074 A 
ATOM     59  C   UNL A   1      47.181  24.983  26.447  1.00  0.00     0.031 C 
ATOM     60  C   UNL A   1      48.001  27.275  26.918  1.00  0.00     0.037 A 
BRANCH  47  61
ATOM     61  C   UNL A   1      46.191  32.879  28.808  1.00  0.00     0.058 A 
ATOM     62  C   UNL A   1      46.646  33.322  30.059  1.00  0.00     0.135 A 
ATOM     63  C   UNL A   1      46.101  33.823  27.772  1.00  0.00     0.135 A 
ATOM     64  F   UNL A   1      46.733  32.466  31.089  1.00  0.00    -0.206 F 
ATOM     65  C   UNL A   1      46.970  34.656  30.284  1.00  0.00     0.059 A 
ATOM     66  C   UNL A   1      46.446  35.157  27.965  1.00  0.00     0.059 A 
ATOM     67  F   UNL A   1      45.670  33.453  26.555  1.00  0.00    -0.206 F 
ATOM     68  C   UNL A   1      46.863  35.567  29.231  1.00  0.00     0.060 A 
BRANCH  68  69
ATOM     69  S   UNL A   1      47.280  37.296  29.538  1.00  0.00     0.124 S 
ATOM     70  O   UNL A   1      46.239  37.985  28.780  1.00  0.00    -0.237 OA
ATOM     71  O   UNL A   1      47.176  37.392  30.990  1.00  0.00    -0.237 OA
ATOM     72  O   UNL A   1      48.631  37.420  29.001  1.00  0.00    -0.744 OA
ENDBRANCH  68  69
ENDBRANCH  47  61
BRANCH  48  73
ATOM     73  C   UNL A   1      43.276  23.479  27.017  1.00  0.00     0.058 A 
ATOM     74  C   UNL A   1      43.105  22.548  28.052  1.00  0.00     0.135 A 
ATOM     75  C   UNL A   1      43.029  23.050  25.704  1.00  0.00     0.135 A 
ATOM     76  F   UNL A   1      43.339  22.909  29.324  1.00  0.00    -0.206 F 
ATOM     77  C   UNL A   1      42.714  21.238  27.796  1.00  0.00     0.059 A 
ATOM     78  C   UNL A   1      42.616  21.751  25.424  1.00  0.00     0.059 A 
ATOM     79  F   UNL A   1      43.170  23.905  24.679  1.00  0.00    -0.206 F 
ATOM     80  C   UNL A   1      42.468  20.850  26.477  1.00  0.00     0.060 A 
BRANCH  80  81
ATOM     81  S   UNL A   1      41.913  19.162  26.159  1.00  0.00     0.124 S 
ATOM     82  O   UNL A   1      40.480  19.354  25.974  1.00  0.00    -0.237 OA
ATOM     83  O   UNL A   1      42.672  18.811  24.962  1.00  0.00    -0.237 OA
ATOM     84  O   UNL A   1      42.305  18.448  27.372  1.00  0.00    -0.744 OA
ENDBRANCH  80  81
ENDBRANCH  48  73
BRANCH  60  85
ATOM     85  C   UNL A   1      49.373  26.831  26.492  1.00  0.00     0.058 A 
ATOM     86  C   UNL A   1      50.247  26.182  27.377  1.00  0.00     0.135 A 
ATOM     87  C   UNL A   1      49.795  27.007  25.163  1.00  0.00     0.135 A 
ATOM     88  F   UNL A   1      49.895  25.995  28.659  1.00  0.00    -0.206 F 
ATOM     89  C   UNL A   1      51.503  25.745  26.967  1.00  0.00     0.059 A 
ATOM     90  C   UNL A   1      51.035  26.553  24.725  1.00  0.00     0.059 A 
ATOM     91  F   UNL A   1      48.992  27.611  24.273  1.00  0.00    -0.206 F 
ATOM     92  C   UNL A   1      51.887  25.933  25.637  1.00  0.00     0.060 A 
BRANCH  92  93
ATOM     93  S   UNL A   1      53.504  25.329  25.108  1.00  0.00     0.124 S 
ATOM     94  O   UNL A   1      53.372  23.895  25.342  1.00  0.00    -0.237 OA
ATOM     95  O   UNL A   1      53.550  25.741  23.708  1.00  0.00    -0.237 OA
ATOM     96  O   UNL A   1      54.432  26.027  25.992  1.00  0.00    -0.744 OA
ENDBRANCH  92  93
ENDBRANCH  60  85
ENDBRANCH  34  35
ENDBRANCH  27  29
ENDBRANCH  26  27
ENDBRANCH  25  26
ENDBRANCH  24  25
ENDBRANCH  23  24
ENDBRANCH   1  23
TORSDOF 21
ENDMDL
