MODEL 1
REMARK VINA RESULT:     -11.0      0.000      0.000
REMARK SMILES Cc1ccc(C)c(OCc2ccc(C(=O)OCCOCCOC(=O)c3ccc(-c4c5nc(c(-c6c(F)cc(S(=O)(=O)[O-])cc6F)c6ccc([nH]6)c(-c6c(F)cc(S(=O)(=O)[O-])cc6F)c6nc(c(-c7c(F)cc(S(=O)(=O)[O-])cc7F)c7ccc4[nH]7)C=C6)C=C5)cc3)cc2)c1C
REMARK SMILES IDX 19 1 18 2 17 3 16 4 14 5 15 6 13 7 10 8 11 9 92 10 12 11
REMARK SMILES IDX 91 12 9 13 8 14 7 15 1 16 2 17 3 18 93 19 4 20 94 21 5 22
REMARK SMILES IDX 6 23 20 24 21 25 22 26 23 27 24 28 25 29 26 30 90 31 27 32
REMARK SMILES IDX 89 33 28 34 29 35 30 36 83 37 31 38 88 39 82 40 84 41 32 42
REMARK SMILES IDX 87 43 81 44 80 45 33 47 67 48 46 49 66 50 47 51 50 52 65 53
REMARK SMILES IDX 85 54 48 55 49 56 64 58 86 59 51 60 34 61 35 62 44 63 36 64
REMARK SMILES IDX 37 65 43 66 45 67 38 68 39 69 40 70 41 71 42 72 68 73 69 74
REMARK SMILES IDX 78 75 70 76 71 77 77 78 79 79 72 80 73 81 74 82 75 83 76 84
REMARK SMILES IDX 52 85 53 86 62 87 54 88 55 89 61 90 63 91 56 92 57 93 58 94
REMARK SMILES IDX 59 95 60 96
REMARK H PARENT 84 46 50 57
REMARK Flexibility Score: inf
ROOT
ATOM      1  O   UNL A   1      33.793  33.538  29.718  1.00  0.00    -0.374 OA
ENDROOT
BRANCH   1   2
ATOM      2  C   UNL A   1      34.138  33.298  28.349  1.00  0.00     0.202 C 
BRANCH   2   3
ATOM      3  C   UNL A   1      34.705  31.911  28.026  1.00  0.00     0.261 C 
BRANCH   3   4
ATOM      4  O   UNL A   1      33.665  31.042  27.541  1.00  0.00    -0.460 OA
BRANCH   4   5
ATOM      5  C   UNL A   1      34.076  29.804  27.196  1.00  0.00     0.338 C 
ATOM      6  O   UNL A   1      35.118  29.244  27.512  1.00  0.00    -0.246 OA
BRANCH   5   7
ATOM      7  C   UNL A   1      32.963  29.082  26.562  1.00  0.00     0.060 A 
ATOM      8  C   UNL A   1      31.084  27.382  25.357  1.00  0.00    -0.011 A 
ATOM      9  C   UNL A   1      31.449  27.207  26.695  1.00  0.00     0.008 A 
ATOM     10  C   UNL A   1      31.563  28.530  24.687  1.00  0.00     0.008 A 
ATOM     11  C   UNL A   1      32.428  28.008  27.272  1.00  0.00     0.016 A 
ATOM     12  C   UNL A   1      32.482  29.396  25.294  1.00  0.00     0.016 A 
BRANCH   8  13
ATOM     13  C   UNL A   1      30.406  26.288  24.536  1.00  0.00     0.265 C 
BRANCH  13  14
ATOM     14  O   UNL A   1      30.927  24.962  24.508  1.00  0.00    -0.488 OA
BRANCH  14  15
ATOM     15  C   UNL A   1      32.226  24.623  24.767  1.00  0.00     0.125 A 
ATOM     16  C   UNL A   1      33.765  22.557  27.632  1.00  0.00     0.045 C 
ATOM     17  C   UNL A   1      33.601  23.449  26.432  1.00  0.00    -0.044 A 
ATOM     18  C   UNL A   1      34.737  24.007  25.845  1.00  0.00     0.004 A 
ATOM     19  C   UNL A   1      32.338  23.737  25.876  1.00  0.00    -0.006 A 
ATOM     20  C   UNL A   1      34.632  24.783  24.691  1.00  0.00     0.007 A 
ATOM     21  C   UNL A   1      31.072  23.135  26.447  1.00  0.00     0.049 C 
ATOM     22  C   UNL A   1      33.385  25.069  24.107  1.00  0.00    -0.009 A 
ATOM     23  C   UNL A   1      33.404  25.831  22.811  1.00  0.00     0.048 C 
ENDBRANCH  14  15
ENDBRANCH  13  14
ENDBRANCH   8  13
ENDBRANCH   5   7
ENDBRANCH   4   5
ENDBRANCH   3   4
ENDBRANCH   2   3
ENDBRANCH   1   2
BRANCH   1  24
ATOM     24  C   UNL A   1      34.870  33.646  30.648  1.00  0.00     0.202 C 
BRANCH  24  25
ATOM     25  C   UNL A   1      35.032  32.513  31.664  1.00  0.00     0.261 C 
BRANCH  25  26
ATOM     26  O   UNL A   1      36.018  31.557  31.238  1.00  0.00    -0.460 OA
BRANCH  26  27
ATOM     27  C   UNL A   1      37.275  31.840  31.647  1.00  0.00     0.338 C 
ATOM     28  O   UNL A   1      37.601  32.574  32.569  1.00  0.00    -0.246 OA
BRANCH  27  29
ATOM     29  C   UNL A   1      38.246  30.981  30.944  1.00  0.00     0.060 A 
ATOM     30  C   UNL A   1      39.243  30.384  31.727  1.00  0.00     0.016 A 
ATOM     31  C   UNL A   1      38.243  30.826  29.556  1.00  0.00     0.016 A 
ATOM     32  C   UNL A   1      40.292  29.707  31.118  1.00  0.00     0.010 A 
ATOM     33  C   UNL A   1      39.303  30.147  28.943  1.00  0.00     0.010 A 
ATOM     34  C   UNL A   1      40.359  29.637  29.720  1.00  0.00    -0.014 A 
BRANCH  34  35
ATOM     35  C   UNL A   1      41.640  29.222  29.100  1.00  0.00     0.031 A 
ATOM     36  C   UNL A   1      42.760  30.227  29.022  1.00  0.00     0.074 A 
ATOM     37  C   UNL A   1      41.837  27.952  28.706  1.00  0.00     0.049 A 
ATOM     38  N   UNL A   1      43.986  30.073  28.594  1.00  0.00    -0.248 NA
ATOM     39  C   UNL A   1      42.456  31.590  29.491  1.00  0.00     0.031 C 
ATOM     40  C   UNL A   1      40.839  26.885  28.764  1.00  0.00     0.029 A 
ATOM     41  N   UNL A   1      42.951  27.344  28.187  1.00  0.00    -0.354 N 
ATOM     42  C   UNL A   1      44.597  31.313  28.743  1.00  0.00     0.074 A 
ATOM     43  C   UNL A   1      43.598  32.219  29.262  1.00  0.00     0.031 C 
ATOM     44  C   UNL A   1      41.389  25.749  28.302  1.00  0.00     0.029 A 
ATOM     45  C   UNL A   1      42.770  26.013  27.901  1.00  0.00     0.049 A 
ATOM     46  H   UNL A   1      43.801  27.817  28.035  1.00  0.00     0.167 HD
ATOM     47  C   UNL A   1      45.882  31.662  28.488  1.00  0.00     0.037 A 
ATOM     48  C   UNL A   1      43.624  25.113  27.374  1.00  0.00     0.037 A 
ATOM     49  C   UNL A   1      46.875  30.755  27.976  1.00  0.00     0.049 A 
ATOM     50  C   UNL A   1      45.038  25.532  27.066  1.00  0.00     0.074 A 
ATOM     51  C   UNL A   1      48.205  31.006  27.688  1.00  0.00     0.029 A 
ATOM     52  N   UNL A   1      46.647  29.420  27.677  1.00  0.00    -0.354 N 
ATOM     53  N   UNL A   1      45.607  26.704  27.229  1.00  0.00    -0.248 NA
ATOM     54  C   UNL A   1      45.930  24.502  26.518  1.00  0.00     0.031 C 
ATOM     55  C   UNL A   1      48.770  29.832  27.175  1.00  0.00     0.029 A 
ATOM     56  C   UNL A   1      47.807  28.837  27.193  1.00  0.00     0.049 A 
ATOM     57  H   UNL A   1      45.787  28.955  27.790  1.00  0.00     0.167 HD
ATOM     58  C   UNL A   1      46.931  26.542  26.833  1.00  0.00     0.074 A 
ATOM     59  C   UNL A   1      47.080  25.157  26.435  1.00  0.00     0.031 C 
ATOM     60  C   UNL A   1      47.936  27.455  26.804  1.00  0.00     0.037 A 
BRANCH  47  61
ATOM     61  C   UNL A   1      46.273  33.093  28.738  1.00  0.00     0.058 A 
ATOM     62  C   UNL A   1      46.781  33.515  29.978  1.00  0.00     0.135 A 
ATOM     63  C   UNL A   1      46.153  34.051  27.719  1.00  0.00     0.135 A 
ATOM     64  F   UNL A   1      46.896  32.644  30.993  1.00  0.00    -0.206 F 
ATOM     65  C   UNL A   1      47.129  34.842  30.207  1.00  0.00     0.059 A 
ATOM     66  C   UNL A   1      46.521  35.379  27.918  1.00  0.00     0.059 A 
ATOM     67  F   UNL A   1      45.669  33.703  26.517  1.00  0.00    -0.206 F 
ATOM     68  C   UNL A   1      46.994  35.768  29.170  1.00  0.00     0.060 A 
BRANCH  68  69
ATOM     69  S   UNL A   1      47.449  37.487  29.481  1.00  0.00     0.124 S 
ATOM     70  O   UNL A   1      48.838  37.506  29.033  1.00  0.00    -0.237 OA
ATOM     71  O   UNL A   1      46.502  38.218  28.644  1.00  0.00    -0.237 OA
ATOM     72  O   UNL A   1      47.252  37.636  30.920  1.00  0.00    -0.744 OA
ENDBRANCH  68  69
ENDBRANCH  47  61
BRANCH  48  73
ATOM     73  C   UNL A   1      43.169  23.721  27.116  1.00  0.00     0.058 A 
ATOM     74  C   UNL A   1      42.791  23.304  25.832  1.00  0.00     0.135 A 
ATOM     75  C   UNL A   1      43.102  22.780  28.156  1.00  0.00     0.135 A 
ATOM     76  F   UNL A   1      42.829  24.168  24.807  1.00  0.00    -0.206 F 
ATOM     77  C   UNL A   1      42.345  22.008  25.588  1.00  0.00     0.059 A 
ATOM     78  C   UNL A   1      42.684  21.472  27.933  1.00  0.00     0.059 A 
ATOM     79  F   UNL A   1      43.465  23.126  29.401  1.00  0.00    -0.206 F 
ATOM     80  C   UNL A   1      42.297  21.098  26.647  1.00  0.00     0.060 A 
BRANCH  80  81
ATOM     81  S   UNL A   1      41.762  19.406  26.314  1.00  0.00     0.124 S 
ATOM     82  O   UNL A   1      42.482  19.108  25.082  1.00  0.00    -0.237 OA
ATOM     83  O   UNL A   1      42.216  18.700  27.508  1.00  0.00    -0.237 OA
ATOM     84  O   UNL A   1      40.313  19.533  26.184  1.00  0.00    -0.744 OA
ENDBRANCH  80  81
ENDBRANCH  48  73
BRANCH  60  85
ATOM     85  C   UNL A   1      49.293  26.970  26.369  1.00  0.00     0.058 A 
ATOM     86  C   UNL A   1      49.733  27.091  25.042  1.00  0.00     0.135 A 
ATOM     87  C   UNL A   1      50.168  26.387  27.300  1.00  0.00     0.135 A 
ATOM     88  F   UNL A   1      48.935  27.640  24.113  1.00  0.00    -0.206 F 
ATOM     89  C   UNL A   1      50.976  26.609  24.642  1.00  0.00     0.059 A 
ATOM     90  C   UNL A   1      51.427  25.925  26.928  1.00  0.00     0.059 A 
ATOM     91  F   UNL A   1      49.804  26.263  28.586  1.00  0.00    -0.206 F 
ATOM     92  C   UNL A   1      51.812  26.020  25.592  1.00  0.00     0.060 A 
BRANCH  92  93
ATOM     93  S   UNL A   1      53.418  25.387  25.063  1.00  0.00     0.124 S 
ATOM     94  O   UNL A   1      53.289  23.967  25.374  1.00  0.00    -0.237 OA
ATOM     95  O   UNL A   1      53.439  25.726  23.643  1.00  0.00    -0.237 OA
ATOM     96  O   UNL A   1      54.364  26.128  25.891  1.00  0.00    -0.744 OA
ENDBRANCH  92  93
ENDBRANCH  60  85
ENDBRANCH  34  35
ENDBRANCH  27  29
ENDBRANCH  26  27
ENDBRANCH  25  26
ENDBRANCH  24  25
ENDBRANCH   1  24
TORSDOF 20
ENDMDL
MODEL 2
REMARK VINA RESULT:     -10.7      3.522      9.973
REMARK SMILES Cc1ccc(C)c(OCc2ccc(C(=O)OCCOCCOC(=O)c3ccc(-c4c5nc(c(-c6c(F)cc(S(=O)(=O)[O-])cc6F)c6ccc([nH]6)c(-c6c(F)cc(S(=O)(=O)[O-])cc6F)c6nc(c(-c7c(F)cc(S(=O)(=O)[O-])cc7F)c7ccc4[nH]7)C=C6)C=C5)cc3)cc2)c1C
REMARK SMILES IDX 19 1 18 2 17 3 16 4 14 5 15 6 13 7 10 8 11 9 92 10 12 11
REMARK SMILES IDX 91 12 9 13 8 14 7 15 1 16 2 17 3 18 93 19 4 20 94 21 5 22
REMARK SMILES IDX 6 23 20 24 21 25 22 26 23 27 24 28 25 29 26 30 90 31 27 32
REMARK SMILES IDX 89 33 28 34 29 35 30 36 83 37 31 38 88 39 82 40 84 41 32 42
REMARK SMILES IDX 87 43 81 44 80 45 33 47 67 48 46 49 66 50 47 51 50 52 65 53
REMARK SMILES IDX 85 54 48 55 49 56 64 58 86 59 51 60 34 61 35 62 44 63 36 64
REMARK SMILES IDX 37 65 43 66 45 67 38 68 39 69 40 70 41 71 42 72 68 73 69 74
REMARK SMILES IDX 78 75 70 76 71 77 77 78 79 79 72 80 73 81 74 82 75 83 76 84
REMARK SMILES IDX 52 85 53 86 62 87 54 88 55 89 61 90 63 91 56 92 57 93 58 94
REMARK SMILES IDX 59 95 60 96
REMARK H PARENT 84 46 50 57
REMARK Flexibility Score: inf
ROOT
ATOM      1  O   UNL A   1      32.880  35.024  28.142  1.00  0.00    -0.374 OA
ENDROOT
BRANCH   1   2
ATOM      2  C   UNL A   1      33.568  35.726  29.182  1.00  0.00     0.202 C 
BRANCH   2   3
ATOM      3  C   UNL A   1      32.705  36.237  30.341  1.00  0.00     0.261 C 
BRANCH   3   4
ATOM      4  O   UNL A   1      32.856  35.389  31.495  1.00  0.00    -0.460 OA
BRANCH   4   5
ATOM      5  C   UNL A   1      33.540  35.941  32.519  1.00  0.00     0.338 C 
ATOM      6  O   UNL A   1      33.258  36.950  33.151  1.00  0.00    -0.246 OA
BRANCH   5   7
ATOM      7  C   UNL A   1      34.587  35.008  32.961  1.00  0.00     0.060 A 
ATOM      8  C   UNL A   1      36.757  33.550  33.979  1.00  0.00    -0.011 A 
ATOM      9  C   UNL A   1      35.789  34.080  34.837  1.00  0.00     0.008 A 
ATOM     10  C   UNL A   1      36.521  33.631  32.589  1.00  0.00     0.008 A 
ATOM     11  C   UNL A   1      34.750  34.857  34.338  1.00  0.00     0.016 A 
ATOM     12  C   UNL A   1      35.424  34.336  32.076  1.00  0.00     0.016 A 
BRANCH   8  13
ATOM     13  C   UNL A   1      38.139  33.116  34.460  1.00  0.00     0.265 C 
BRANCH  13  14
ATOM     14  O   UNL A   1      38.430  31.745  34.718  1.00  0.00    -0.488 OA
BRANCH  14  15
ATOM     15  C   UNL A   1      39.437  31.032  34.129  1.00  0.00     0.125 A 
ATOM     16  C   UNL A   1      39.378  27.660  32.266  1.00  0.00     0.045 C 
ATOM     17  C   UNL A   1      39.848  28.910  32.958  1.00  0.00    -0.044 A 
ATOM     18  C   UNL A   1      41.218  29.116  33.125  1.00  0.00     0.004 A 
ATOM     19  C   UNL A   1      38.950  29.886  33.440  1.00  0.00    -0.006 A 
ATOM     20  C   UNL A   1      41.694  30.294  33.700  1.00  0.00     0.007 A 
ATOM     21  C   UNL A   1      37.455  29.736  33.258  1.00  0.00     0.049 C 
ATOM     22  C   UNL A   1      40.819  31.290  34.171  1.00  0.00    -0.009 A 
ATOM     23  C   UNL A   1      41.448  32.557  34.680  1.00  0.00     0.048 C 
ENDBRANCH  14  15
ENDBRANCH  13  14
ENDBRANCH   8  13
ENDBRANCH   5   7
ENDBRANCH   4   5
ENDBRANCH   3   4
ENDBRANCH   2   3
ENDBRANCH   1   2
BRANCH   1  24
ATOM     24  C   UNL A   1      33.132  33.623  28.028  1.00  0.00     0.202 C 
BRANCH  24  25
ATOM     25  C   UNL A   1      34.551  33.142  28.339  1.00  0.00     0.261 C 
BRANCH  25  26
ATOM     26  O   UNL A   1      34.542  31.933  29.117  1.00  0.00    -0.460 OA
BRANCH  26  27
ATOM     27  C   UNL A   1      34.529  30.800  28.379  1.00  0.00     0.338 C 
ATOM     28  O   UNL A   1      33.638  30.418  27.634  1.00  0.00    -0.246 OA
BRANCH  27  29
ATOM     29  C   UNL A   1      35.846  30.139  28.435  1.00  0.00     0.060 A 
ATOM     30  C   UNL A   1      36.272  29.689  29.690  1.00  0.00     0.016 A 
ATOM     31  C   UNL A   1      36.680  30.034  27.319  1.00  0.00     0.016 A 
ATOM     32  C   UNL A   1      37.569  29.216  29.855  1.00  0.00     0.010 A 
ATOM     33  C   UNL A   1      37.986  29.562  27.487  1.00  0.00     0.010 A 
ATOM     34  C   UNL A   1      38.451  29.207  28.767  1.00  0.00    -0.014 A 
BRANCH  34  35
ATOM     35  C   UNL A   1      39.898  29.031  29.039  1.00  0.00     0.031 A 
ATOM     36  C   UNL A   1      40.541  27.714  28.689  1.00  0.00     0.074 A 
ATOM     37  C   UNL A   1      40.644  30.052  29.494  1.00  0.00     0.049 A 
ATOM     38  N   UNL A   1      41.796  27.356  28.766  1.00  0.00    -0.248 NA
ATOM     39  C   UNL A   1      39.646  26.659  28.182  1.00  0.00     0.031 C 
ATOM     40  C   UNL A   1      40.139  31.381  29.835  1.00  0.00     0.029 A 
ATOM     41  N   UNL A   1      41.992  30.131  29.737  1.00  0.00    -0.354 N 
ATOM     42  C   UNL A   1      41.842  26.040  28.318  1.00  0.00     0.074 A 
ATOM     43  C   UNL A   1      40.484  25.649  28.010  1.00  0.00     0.031 C 
ATOM     44  C   UNL A   1      41.167  32.147  30.241  1.00  0.00     0.029 A 
ATOM     45  C   UNL A   1      42.397  31.357  30.203  1.00  0.00     0.049 A 
ATOM     46  H   UNL A   1      42.609  29.378  29.591  1.00  0.00     0.167 HD
ATOM     47  C   UNL A   1      42.920  25.235  28.160  1.00  0.00     0.037 A 
ATOM     48  C   UNL A   1      43.623  31.790  30.559  1.00  0.00     0.037 A 
ATOM     49  C   UNL A   1      44.270  25.630  28.463  1.00  0.00     0.049 A 
ATOM     50  C   UNL A   1      44.803  30.866  30.408  1.00  0.00     0.074 A 
ATOM     51  C   UNL A   1      45.434  24.892  28.334  1.00  0.00     0.029 A 
ATOM     52  N   UNL A   1      44.638  26.874  28.955  1.00  0.00    -0.354 N 
ATOM     53  N   UNL A   1      44.833  29.630  29.966  1.00  0.00    -0.248 NA
ATOM     54  C   UNL A   1      46.117  31.401  30.787  1.00  0.00     0.031 C 
ATOM     55  C   UNL A   1      46.501  25.677  28.788  1.00  0.00     0.029 A 
ATOM     56  C   UNL A   1      46.009  26.920  29.150  1.00  0.00     0.049 A 
ATOM     57  H   UNL A   1      44.016  27.614  29.140  1.00  0.00     0.167 HD
ATOM     58  C   UNL A   1      46.173  29.252  29.985  1.00  0.00     0.074 A 
ATOM     59  C   UNL A   1      46.920  30.395  30.470  1.00  0.00     0.031 C 
ATOM     60  C   UNL A   1      46.735  28.068  29.631  1.00  0.00     0.037 A 
BRANCH  47  61
ATOM     61  C   UNL A   1      42.673  23.838  27.659  1.00  0.00     0.058 A 
ATOM     62  C   UNL A   1      42.542  22.749  28.536  1.00  0.00     0.135 A 
ATOM     63  C   UNL A   1      42.551  23.588  26.283  1.00  0.00     0.135 A 
ATOM     64  F   UNL A   1      42.672  22.928  29.860  1.00  0.00    -0.206 F 
ATOM     65  C   UNL A   1      42.326  21.458  28.066  1.00  0.00     0.059 A 
ATOM     66  C   UNL A   1      42.308  22.309  25.791  1.00  0.00     0.059 A 
ATOM     67  F   UNL A   1      42.672  24.591  25.400  1.00  0.00    -0.206 F 
ATOM     68  C   UNL A   1      42.212  21.248  26.690  1.00  0.00     0.060 A 
BRANCH  68  69
ATOM     69  S   UNL A   1      41.933  19.566  26.092  1.00  0.00     0.124 S 
ATOM     70  O   UNL A   1      40.501  19.592  25.810  1.00  0.00    -0.237 OA
ATOM     71  O   UNL A   1      42.808  19.500  24.926  1.00  0.00    -0.237 OA
ATOM     72  O   UNL A   1      42.335  18.734  27.221  1.00  0.00    -0.744 OA
ENDBRANCH  68  69
ENDBRANCH  47  61
BRANCH  48  73
ATOM     73  C   UNL A   1      43.800  33.171  31.082  1.00  0.00     0.058 A 
ATOM     74  C   UNL A   1      43.709  34.288  30.240  1.00  0.00     0.135 A 
ATOM     75  C   UNL A   1      44.068  33.397  32.442  1.00  0.00     0.135 A 
ATOM     76  F   UNL A   1      43.463  34.122  28.931  1.00  0.00    -0.206 F 
ATOM     77  C   UNL A   1      43.895  35.581  30.720  1.00  0.00     0.059 A 
ATOM     78  C   UNL A   1      44.232  34.682  32.951  1.00  0.00     0.059 A 
ATOM     79  F   UNL A   1      44.152  32.363  33.292  1.00  0.00    -0.206 F 
ATOM     80  C   UNL A   1      44.155  35.767  32.079  1.00  0.00     0.060 A 
BRANCH  80  81
ATOM     81  S   UNL A   1      44.347  37.450  32.704  1.00  0.00     0.124 S 
ATOM     82  O   UNL A   1      44.166  38.237  31.490  1.00  0.00    -0.237 OA
ATOM     83  O   UNL A   1      43.274  37.537  33.689  1.00  0.00    -0.237 OA
ATOM     84  O   UNL A   1      45.698  37.448  33.259  1.00  0.00    -0.744 OA
ENDBRANCH  80  81
ENDBRANCH  48  73
BRANCH  60  85
ATOM     85  C   UNL A   1      48.235  27.969  29.713  1.00  0.00     0.058 A 
ATOM     86  C   UNL A   1      49.061  28.318  28.633  1.00  0.00     0.135 A 
ATOM     87  C   UNL A   1      48.852  27.532  30.896  1.00  0.00     0.135 A 
ATOM     88  F   UNL A   1      48.523  28.741  27.479  1.00  0.00    -0.206 F 
ATOM     89  C   UNL A   1      50.445  28.191  28.707  1.00  0.00     0.059 A 
ATOM     90  C   UNL A   1      50.236  27.425  31.002  1.00  0.00     0.059 A 
ATOM     91  F   UNL A   1      48.110  27.203  31.965  1.00  0.00    -0.206 F 
ATOM     92  C   UNL A   1      51.022  27.736  29.894  1.00  0.00     0.060 A 
BRANCH  92  93
ATOM     93  S   UNL A   1      52.817  27.563  29.977  1.00  0.00     0.124 S 
ATOM     94  O   UNL A   1      53.037  27.490  31.418  1.00  0.00    -0.237 OA
ATOM     95  O   UNL A   1      53.050  26.327  29.237  1.00  0.00    -0.237 OA
ATOM     96  O   UNL A   1      53.304  28.776  29.327  1.00  0.00    -0.744 OA
ENDBRANCH  92  93
ENDBRANCH  60  85
ENDBRANCH  34  35
ENDBRANCH  27  29
ENDBRANCH  26  27
ENDBRANCH  25  26
ENDBRANCH  24  25
ENDBRANCH   1  24
TORSDOF 20
ENDMDL
MODEL 3
REMARK VINA RESULT:     -10.7      1.034      2.486
REMARK SMILES Cc1ccc(C)c(OCc2ccc(C(=O)OCCOCCOC(=O)c3ccc(-c4c5nc(c(-c6c(F)cc(S(=O)(=O)[O-])cc6F)c6ccc([nH]6)c(-c6c(F)cc(S(=O)(=O)[O-])cc6F)c6nc(c(-c7c(F)cc(S(=O)(=O)[O-])cc7F)c7ccc4[nH]7)C=C6)C=C5)cc3)cc2)c1C
REMARK SMILES IDX 19 1 18 2 17 3 16 4 14 5 15 6 13 7 10 8 11 9 92 10 12 11
REMARK SMILES IDX 91 12 9 13 8 14 7 15 1 16 2 17 3 18 93 19 4 20 94 21 5 22
REMARK SMILES IDX 6 23 20 24 21 25 22 26 23 27 24 28 25 29 26 30 90 31 27 32
REMARK SMILES IDX 89 33 28 34 29 35 30 36 83 37 31 38 88 39 82 40 84 41 32 42
REMARK SMILES IDX 87 43 81 44 80 45 33 47 67 48 46 49 66 50 47 51 50 52 65 53
REMARK SMILES IDX 85 54 48 55 49 56 64 58 86 59 51 60 34 61 35 62 44 63 36 64
REMARK SMILES IDX 37 65 43 66 45 67 38 68 39 69 40 70 41 71 42 72 68 73 69 74
REMARK SMILES IDX 78 75 70 76 71 77 77 78 79 79 72 80 73 81 74 82 75 83 76 84
REMARK SMILES IDX 52 85 53 86 62 87 54 88 55 89 61 90 63 91 56 92 57 93 58 94
REMARK SMILES IDX 59 95 60 96
REMARK H PARENT 84 46 50 57
REMARK Flexibility Score: inf
ROOT
ATOM      1  O   UNL A   1      33.572  33.360  29.405  1.00  0.00    -0.374 OA
ENDROOT
BRANCH   1   2
ATOM      2  C   UNL A   1      33.861  33.106  28.027  1.00  0.00     0.202 C 
BRANCH   2   3
ATOM      3  C   UNL A   1      34.724  31.874  27.731  1.00  0.00     0.261 C 
BRANCH   3   4
ATOM      4  O   UNL A   1      33.896  30.711  27.545  1.00  0.00    -0.460 OA
BRANCH   4   5
ATOM      5  C   UNL A   1      34.570  29.548  27.428  1.00  0.00     0.338 C 
ATOM      6  O   UNL A   1      35.725  29.314  27.759  1.00  0.00    -0.246 OA
BRANCH   5   7
ATOM      7  C   UNL A   1      33.631  28.479  27.059  1.00  0.00     0.060 A 
ATOM      8  C   UNL A   1      31.945  26.518  25.970  1.00  0.00    -0.011 A 
ATOM      9  C   UNL A   1      33.334  26.368  25.926  1.00  0.00     0.008 A 
ATOM     10  C   UNL A   1      31.421  27.596  26.717  1.00  0.00     0.008 A 
ATOM     11  C   UNL A   1      34.170  27.369  26.407  1.00  0.00     0.016 A 
ATOM     12  C   UNL A   1      32.261  28.564  27.284  1.00  0.00     0.016 A 
BRANCH   8  13
ATOM     13  C   UNL A   1      31.000  25.729  25.067  1.00  0.00     0.265 C 
BRANCH  13  14
ATOM     14  O   UNL A   1      30.781  26.120  23.715  1.00  0.00    -0.488 OA
BRANCH  14  15
ATOM     15  C   UNL A   1      30.496  27.392  23.301  1.00  0.00     0.125 A 
ATOM     16  C   UNL A   1      27.119  29.169  22.768  1.00  0.00     0.045 C 
ATOM     17  C   UNL A   1      28.589  28.850  22.772  1.00  0.00    -0.044 A 
ATOM     18  C   UNL A   1      29.477  29.748  22.178  1.00  0.00     0.004 A 
ATOM     19  C   UNL A   1      29.102  27.675  23.361  1.00  0.00    -0.006 A 
ATOM     20  C   UNL A   1      30.852  29.521  22.222  1.00  0.00     0.007 A 
ATOM     21  C   UNL A   1      28.194  26.680  24.049  1.00  0.00     0.049 C 
ATOM     22  C   UNL A   1      31.389  28.366  22.820  1.00  0.00    -0.009 A 
ATOM     23  C   UNL A   1      32.888  28.278  22.895  1.00  0.00     0.048 C 
ENDBRANCH  14  15
ENDBRANCH  13  14
ENDBRANCH   8  13
ENDBRANCH   5   7
ENDBRANCH   4   5
ENDBRANCH   3   4
ENDBRANCH   2   3
ENDBRANCH   1   2
BRANCH   1  24
ATOM     24  C   UNL A   1      34.687  33.546  30.278  1.00  0.00     0.202 C 
BRANCH  24  25
ATOM     25  C   UNL A   1      34.882  32.515  31.391  1.00  0.00     0.261 C 
BRANCH  25  26
ATOM     26  O   UNL A   1      35.886  31.546  31.045  1.00  0.00    -0.460 OA
BRANCH  26  27
ATOM     27  C   UNL A   1      37.130  31.862  31.470  1.00  0.00     0.338 C 
ATOM     28  O   UNL A   1      37.424  32.615  32.388  1.00  0.00    -0.246 OA
BRANCH  27  29
ATOM     29  C   UNL A   1      38.131  31.017  30.793  1.00  0.00     0.060 A 
ATOM     30  C   UNL A   1      39.087  30.398  31.607  1.00  0.00     0.016 A 
ATOM     31  C   UNL A   1      38.194  30.897  29.403  1.00  0.00     0.016 A 
ATOM     32  C   UNL A   1      40.163  29.732  31.032  1.00  0.00     0.010 A 
ATOM     33  C   UNL A   1      39.280  30.230  28.825  1.00  0.00     0.010 A 
ATOM     34  C   UNL A   1      40.297  29.697  29.638  1.00  0.00    -0.014 A 
BRANCH  34  35
ATOM     35  C   UNL A   1      41.605  29.292  29.070  1.00  0.00     0.031 A 
ATOM     36  C   UNL A   1      42.720  30.307  29.038  1.00  0.00     0.074 A 
ATOM     37  C   UNL A   1      41.828  28.025  28.683  1.00  0.00     0.049 A 
ATOM     38  N   UNL A   1      43.962  30.163  28.659  1.00  0.00    -0.248 NA
ATOM     39  C   UNL A   1      42.386  31.667  29.495  1.00  0.00     0.031 C 
ATOM     40  C   UNL A   1      40.837  26.950  28.701  1.00  0.00     0.029 A 
ATOM     41  N   UNL A   1      42.967  27.426  28.209  1.00  0.00    -0.354 N 
ATOM     42  C   UNL A   1      44.558  31.407  28.834  1.00  0.00     0.074 A 
ATOM     43  C   UNL A   1      43.531  32.305  29.312  1.00  0.00     0.031 C 
ATOM     44  C   UNL A   1      41.415  25.818  28.261  1.00  0.00     0.029 A 
ATOM     45  C   UNL A   1      42.808  26.094  27.916  1.00  0.00     0.049 A 
ATOM     46  H   UNL A   1      43.819  27.906  28.092  1.00  0.00     0.167 HD
ATOM     47  C   UNL A   1      45.848  31.767  28.630  1.00  0.00     0.037 A 
ATOM     48  C   UNL A   1      43.690  25.201  27.424  1.00  0.00     0.037 A 
ATOM     49  C   UNL A   1      46.868  30.868  28.158  1.00  0.00     0.049 A 
ATOM     50  C   UNL A   1      45.112  25.632  27.172  1.00  0.00     0.074 A 
ATOM     51  C   UNL A   1      48.207  31.130  27.924  1.00  0.00     0.029 A 
ATOM     52  N   UNL A   1      46.663  29.532  27.849  1.00  0.00    -0.354 N 
ATOM     53  N   UNL A   1      45.664  26.808  27.359  1.00  0.00    -0.248 NA
ATOM     54  C   UNL A   1      46.034  24.609  26.660  1.00  0.00     0.031 C 
ATOM     55  C   UNL A   1      48.801  29.961  27.434  1.00  0.00     0.029 A 
ATOM     56  C   UNL A   1      47.846  28.959  27.412  1.00  0.00     0.049 A 
ATOM     57  H   UNL A   1      45.803  29.060  27.928  1.00  0.00     0.167 HD
ATOM     58  C   UNL A   1      47.005  26.657  27.017  1.00  0.00     0.074 A 
ATOM     59  C   UNL A   1      47.180  25.274  26.624  1.00  0.00     0.031 C 
ATOM     60  C   UNL A   1      48.002  27.578  27.029  1.00  0.00     0.037 A 
BRANCH  47  61
ATOM     61  C   UNL A   1      46.218  33.200  28.897  1.00  0.00     0.058 A 
ATOM     62  C   UNL A   1      46.615  33.638  30.171  1.00  0.00     0.135 A 
ATOM     63  C   UNL A   1      46.188  34.147  27.860  1.00  0.00     0.135 A 
ATOM     64  F   UNL A   1      46.640  32.779  31.203  1.00  0.00    -0.206 F 
ATOM     65  C   UNL A   1      46.943  34.967  30.415  1.00  0.00     0.059 A 
ATOM     66  C   UNL A   1      46.539  35.477  28.074  1.00  0.00     0.059 A 
ATOM     67  F   UNL A   1      45.812  33.784  26.624  1.00  0.00    -0.206 F 
ATOM     68  C   UNL A   1      46.900  35.880  29.359  1.00  0.00     0.060 A 
BRANCH  68  69
ATOM     69  S   UNL A   1      47.329  37.604  29.688  1.00  0.00     0.124 S 
ATOM     70  O   UNL A   1      48.648  37.699  29.071  1.00  0.00    -0.237 OA
ATOM     71  O   UNL A   1      46.258  38.327  29.009  1.00  0.00    -0.237 OA
ATOM     72  O   UNL A   1      47.310  37.686  31.145  1.00  0.00    -0.744 OA
ENDBRANCH  68  69
ENDBRANCH  47  61
BRANCH  48  73
ATOM     73  C   UNL A   1      43.257  23.805  27.146  1.00  0.00     0.058 A 
ATOM     74  C   UNL A   1      43.065  22.882  28.183  1.00  0.00     0.135 A 
ATOM     75  C   UNL A   1      43.031  23.369  25.831  1.00  0.00     0.135 A 
ATOM     76  F   UNL A   1      43.277  23.249  29.456  1.00  0.00    -0.206 F 
ATOM     77  C   UNL A   1      42.681  21.569  27.928  1.00  0.00     0.059 A 
ATOM     78  C   UNL A   1      42.621  22.069  25.552  1.00  0.00     0.059 A 
ATOM     79  F   UNL A   1      43.189  24.218  24.804  1.00  0.00    -0.206 F 
ATOM     80  C   UNL A   1      42.460  21.172  26.607  1.00  0.00     0.060 A 
BRANCH  80  81
ATOM     81  S   UNL A   1      41.915  19.480  26.288  1.00  0.00     0.124 S 
ATOM     82  O   UNL A   1      40.470  19.649  26.197  1.00  0.00    -0.237 OA
ATOM     83  O   UNL A   1      42.603  19.167  25.040  1.00  0.00    -0.237 OA
ATOM     84  O   UNL A   1      42.394  18.749  27.459  1.00  0.00    -0.744 OA
ENDBRANCH  80  81
ENDBRANCH  48  73
BRANCH  60  85
ATOM     85  C   UNL A   1      49.380  27.104  26.648  1.00  0.00     0.058 A 
ATOM     86  C   UNL A   1      50.277  26.594  27.599  1.00  0.00     0.135 A 
ATOM     87  C   UNL A   1      49.798  27.148  25.308  1.00  0.00     0.135 A 
ATOM     88  F   UNL A   1      49.927  26.531  28.893  1.00  0.00    -0.206 F 
ATOM     89  C   UNL A   1      51.560  26.190  27.243  1.00  0.00     0.059 A 
ATOM     90  C   UNL A   1      51.066  26.721  24.925  1.00  0.00     0.059 A 
ATOM     91  F   UNL A   1      48.973  27.610  24.356  1.00  0.00    -0.206 F 
ATOM     92  C   UNL A   1      51.947  26.265  25.904  1.00  0.00     0.060 A 
BRANCH  92  93
ATOM     93  S   UNL A   1      53.618  25.749  25.452  1.00  0.00     0.124 S 
ATOM     94  O   UNL A   1      54.006  24.962  26.618  1.00  0.00    -0.237 OA
ATOM     95  O   UNL A   1      53.393  24.994  24.222  1.00  0.00    -0.237 OA
ATOM     96  O   UNL A   1      54.328  27.013  25.282  1.00  0.00    -0.744 OA
ENDBRANCH  92  93
ENDBRANCH  60  85
ENDBRANCH  34  35
ENDBRANCH  27  29
ENDBRANCH  26  27
ENDBRANCH  25  26
ENDBRANCH  24  25
ENDBRANCH   1  24
TORSDOF 20
ENDMDL
