MODEL 1
REMARK VINA RESULT:     -11.1      0.000      0.000
REMARK SMILES C[C@H]1SC[C@H](C(=O)OCCOCCOC(=O)c2ccc(-c3c4nc(c(-c5c(F)cc(S(=O)(=O)[O-])cc5F)c5ccc([nH]5)c(-c5c(F)cc(S(=O)(=O)[O-])cc5F)c5nc(c(-c6c(F)cc(S(=O)(=O)[O-])cc6F)c6ccc3[nH]6)C=C5)C=C4)cc2)N1C(=O)[C@H]1CSc2ccccc21
REMARK SMILES IDX 12 1 11 2 10 3 9 4 8 5 6 6 7 7 5 8 1 9 2 10 3 11 83 12 4 13
REMARK SMILES IDX 84 14 85 15 86 16 87 17 94 18 88 19 89 20 93 21 90 22 92 23
REMARK SMILES IDX 91 24 13 25 14 26 15 27 16 28 17 29 18 30 82 31 19 32 81 33
REMARK SMILES IDX 20 34 21 35 22 36 75 37 23 38 80 39 74 40 76 41 24 42 79 43
REMARK SMILES IDX 73 44 72 45 25 47 59 48 38 49 58 50 39 51 42 52 57 53 77 54
REMARK SMILES IDX 40 55 41 56 56 58 78 59 43 60 26 61 27 62 36 63 28 64 29 65
REMARK SMILES IDX 35 66 37 67 30 68 31 69 32 70 33 71 34 72 60 73 61 74 70 75
REMARK SMILES IDX 62 76 63 77 69 78 71 79 64 80 65 81 66 82 67 83 68 84 44 85
REMARK SMILES IDX 45 86 54 87 46 88 47 89 53 90 55 91 48 92 49 93 50 94 51 95
REMARK SMILES IDX 52 96
REMARK H PARENT 76 46 42 57
REMARK Flexibility Score: inf
ROOT
ATOM      1  C   UNL A   1      40.231  21.755  26.895  1.00  0.00     0.202 C 
ENDROOT
BRANCH   1   2
ATOM      2  O   UNL A   1      39.432  21.991  25.741  1.00  0.00    -0.374 OA
BRANCH   2   3
ATOM      3  C   UNL A   1      38.068  22.357  25.959  1.00  0.00     0.202 C 
BRANCH   3   4
ATOM      4  C   UNL A   1      37.588  23.670  25.327  1.00  0.00     0.261 C 
BRANCH   4   5
ATOM      5  O   UNL A   1      36.175  23.665  25.030  1.00  0.00    -0.462 OA
BRANCH   5   6
ATOM      6  C   UNL A   1      35.845  23.099  23.838  1.00  0.00     0.329 C 
ATOM      7  O   UNL A   1      36.551  23.133  22.835  1.00  0.00    -0.250 OA
BRANCH   6   8
ATOM      8  C   UNL A   1      34.535  22.304  23.882  1.00  0.00     0.206 C 
ATOM      9  C   UNL A   1      32.012  21.065  22.595  1.00  0.00     0.043 C 
ATOM     10  C   UNL A   1      32.153  22.136  23.685  1.00  0.00     0.141 C 
ATOM     11  S   UNL A   1      32.490  21.287  25.266  1.00  0.00    -0.135 SA
ATOM     12  N   UNL A   1      33.312  23.004  23.495  1.00  0.00    -0.316 N 
ATOM     13  C   UNL A   1      34.242  21.776  25.289  1.00  0.00     0.109 C 
BRANCH  12  14
ATOM     14  C   UNL A   1      33.333  23.872  22.425  1.00  0.00     0.232 C 
ATOM     15  O   UNL A   1      33.703  23.474  21.319  1.00  0.00    -0.274 OA
BRANCH  14  16
ATOM     16  C   UNL A   1      33.174  25.369  22.727  1.00  0.00     0.120 C 
ATOM     17  C   UNL A   1      32.338  25.994  21.591  1.00  0.00     0.093 C 
ATOM     18  C   UNL A   1      32.574  25.798  24.049  1.00  0.00    -0.021 A 
ATOM     19  S   UNL A   1      31.185  27.208  22.287  1.00  0.00    -0.125 SA
ATOM     20  C   UNL A   1      31.532  26.721  23.945  1.00  0.00     0.011 A 
ATOM     21  C   UNL A   1      33.042  25.454  25.319  1.00  0.00     0.006 A 
ATOM     22  C   UNL A   1      30.892  27.227  25.070  1.00  0.00     0.015 A 
ATOM     23  C   UNL A   1      32.384  25.926  26.456  1.00  0.00     0.000 A 
ATOM     24  C   UNL A   1      31.305  26.804  26.332  1.00  0.00     0.001 A 
ENDBRANCH  14  16
ENDBRANCH  12  14
ENDBRANCH   6   8
ENDBRANCH   5   6
ENDBRANCH   4   5
ENDBRANCH   3   4
ENDBRANCH   2   3
ENDBRANCH   1   2
BRANCH   1  25
ATOM     25  C   UNL A   1      41.745  21.940  26.749  1.00  0.00     0.261 C 
BRANCH  25  26
ATOM     26  O   UNL A   1      42.217  23.095  27.464  1.00  0.00    -0.460 OA
BRANCH  26  27
ATOM     27  C   UNL A   1      42.215  24.238  26.742  1.00  0.00     0.338 C 
ATOM     28  O   UNL A   1      42.398  24.343  25.532  1.00  0.00    -0.246 OA
BRANCH  27  29
ATOM     29  C   UNL A   1      41.763  25.369  27.570  1.00  0.00     0.060 A 
ATOM     30  C   UNL A   1      42.623  26.470  27.674  1.00  0.00     0.016 A 
ATOM     31  C   UNL A   1      40.564  25.335  28.284  1.00  0.00     0.016 A 
ATOM     32  C   UNL A   1      42.317  27.516  28.541  1.00  0.00     0.010 A 
ATOM     33  C   UNL A   1      40.262  26.384  29.162  1.00  0.00     0.010 A 
ATOM     34  C   UNL A   1      41.156  27.457  29.323  1.00  0.00    -0.014 A 
BRANCH  34  35
ATOM     35  C   UNL A   1      40.969  28.439  30.418  1.00  0.00     0.031 A 
ATOM     36  C   UNL A   1      41.853  28.351  31.633  1.00  0.00     0.074 A 
ATOM     37  C   UNL A   1      40.053  29.418  30.317  1.00  0.00     0.049 A 
ATOM     38  N   UNL A   1      41.848  29.081  32.718  1.00  0.00    -0.248 NA
ATOM     39  C   UNL A   1      42.878  27.296  31.622  1.00  0.00     0.031 C 
ATOM     40  C   UNL A   1      39.164  29.626  29.175  1.00  0.00     0.029 A 
ATOM     41  N   UNL A   1      39.713  30.415  31.196  1.00  0.00    -0.354 N 
ATOM     42  C   UNL A   1      42.864  28.575  33.519  1.00  0.00     0.074 A 
ATOM     43  C   UNL A   1      43.440  27.452  32.811  1.00  0.00     0.031 C 
ATOM     44  C   UNL A   1      38.364  30.675  29.433  1.00  0.00     0.029 A 
ATOM     45  C   UNL A   1      38.666  31.193  30.766  1.00  0.00     0.049 A 
ATOM     46  H   UNL A   1      40.176  30.559  32.053  1.00  0.00     0.167 HD
ATOM     47  C   UNL A   1      43.290  29.015  34.728  1.00  0.00     0.037 A 
ATOM     48  C   UNL A   1      38.009  32.191  31.389  1.00  0.00     0.037 A 
ATOM     49  C   UNL A   1      42.706  30.128  35.431  1.00  0.00     0.049 A 
ATOM     50  C   UNL A   1      38.454  32.627  32.760  1.00  0.00     0.074 A 
ATOM     51  C   UNL A   1      43.064  30.655  36.659  1.00  0.00     0.029 A 
ATOM     52  N   UNL A   1      41.635  30.881  34.971  1.00  0.00    -0.354 N 
ATOM     53  N   UNL A   1      39.428  32.152  33.500  1.00  0.00    -0.248 NA
ATOM     54  C   UNL A   1      37.717  33.738  33.379  1.00  0.00     0.031 C 
ATOM     55  C   UNL A   1      42.180  31.696  36.963  1.00  0.00     0.029 A 
ATOM     56  C   UNL A   1      41.305  31.855  35.900  1.00  0.00     0.049 A 
ATOM     57  H   UNL A   1      41.178  30.745  34.110  1.00  0.00     0.167 HD
ATOM     58  C   UNL A   1      39.435  32.918  34.662  1.00  0.00     0.074 A 
ATOM     59  C   UNL A   1      38.375  33.895  34.520  1.00  0.00     0.031 C 
ATOM     60  C   UNL A   1      40.245  32.821  35.745  1.00  0.00     0.037 A 
BRANCH  47  61
ATOM     61  C   UNL A   1      44.424  28.267  35.373  1.00  0.00     0.058 A 
ATOM     62  C   UNL A   1      45.765  28.611  35.137  1.00  0.00     0.135 A 
ATOM     63  C   UNL A   1      44.169  27.189  36.237  1.00  0.00     0.135 A 
ATOM     64  F   UNL A   1      46.068  29.622  34.306  1.00  0.00    -0.206 F 
ATOM     65  C   UNL A   1      46.812  27.890  35.702  1.00  0.00     0.059 A 
ATOM     66  C   UNL A   1      45.200  26.472  36.835  1.00  0.00     0.059 A 
ATOM     67  F   UNL A   1      42.907  26.816  36.497  1.00  0.00    -0.206 F 
ATOM     68  C   UNL A   1      46.519  26.817  36.545  1.00  0.00     0.060 A 
BRANCH  68  69
ATOM     69  S   UNL A   1      47.887  25.873  37.248  1.00  0.00     0.124 S 
ATOM     70  O   UNL A   1      47.942  26.409  38.605  1.00  0.00    -0.237 OA
ATOM     71  O   UNL A   1      47.413  24.498  37.131  1.00  0.00    -0.237 OA
ATOM     72  O   UNL A   1      49.016  26.218  36.391  1.00  0.00    -0.744 OA
ENDBRANCH  68  69
ENDBRANCH  47  61
BRANCH  48  73
ATOM     73  C   UNL A   1      36.847  32.832  30.719  1.00  0.00     0.058 A 
ATOM     74  C   UNL A   1      35.530  32.485  31.050  1.00  0.00     0.135 A 
ATOM     75  C   UNL A   1      37.036  33.833  29.752  1.00  0.00     0.135 A 
ATOM     76  F   UNL A   1      35.298  31.526  31.961  1.00  0.00    -0.206 F 
ATOM     77  C   UNL A   1      34.440  33.104  30.446  1.00  0.00     0.059 A 
ATOM     78  C   UNL A   1      35.964  34.484  29.152  1.00  0.00     0.059 A 
ATOM     79  F   UNL A   1      38.278  34.209  29.408  1.00  0.00    -0.206 F 
ATOM     80  C   UNL A   1      34.668  34.109  29.504  1.00  0.00     0.060 A 
BRANCH  80  81
ATOM     81  S   UNL A   1      33.247  34.956  28.779  1.00  0.00     0.124 S 
ATOM     82  O   UNL A   1      33.868  36.155  28.230  1.00  0.00    -0.237 OA
ATOM     83  O   UNL A   1      32.774  33.978  27.804  1.00  0.00    -0.237 OA
ATOM     84  O   UNL A   1      32.365  35.167  29.922  1.00  0.00    -0.744 OA
ENDBRANCH  80  81
ENDBRANCH  48  73
BRANCH  60  85
ATOM     85  C   UNL A   1      40.041  33.816  36.857  1.00  0.00     0.058 A 
ATOM     86  C   UNL A   1      40.610  35.097  36.815  1.00  0.00     0.135 A 
ATOM     87  C   UNL A   1      39.217  33.499  37.949  1.00  0.00     0.135 A 
ATOM     88  F   UNL A   1      41.410  35.449  35.796  1.00  0.00    -0.206 F 
ATOM     89  C   UNL A   1      40.386  36.025  37.828  1.00  0.00     0.059 A 
ATOM     90  C   UNL A   1      38.957  34.421  38.960  1.00  0.00     0.059 A 
ATOM     91  F   UNL A   1      38.638  32.291  38.033  1.00  0.00    -0.206 F 
ATOM     92  C   UNL A   1      39.555  35.678  38.895  1.00  0.00     0.060 A 
BRANCH  92  93
ATOM     93  S   UNL A   1      39.244  36.903  40.185  1.00  0.00     0.124 S 
ATOM     94  O   UNL A   1      40.587  37.129  40.707  1.00  0.00    -0.237 OA
ATOM     95  O   UNL A   1      38.663  38.010  39.431  1.00  0.00    -0.237 OA
ATOM     96  O   UNL A   1      38.324  36.218  41.089  1.00  0.00    -0.744 OA
ENDBRANCH  92  93
ENDBRANCH  60  85
ENDBRANCH  34  35
ENDBRANCH  27  29
ENDBRANCH  26  27
ENDBRANCH  25  26
ENDBRANCH   1  25
TORSDOF 19
ENDMDL
MODEL 2
REMARK VINA RESULT:     -11.0      5.241     12.520
REMARK SMILES C[C@H]1SC[C@H](C(=O)OCCOCCOC(=O)c2ccc(-c3c4nc(c(-c5c(F)cc(S(=O)(=O)[O-])cc5F)c5ccc([nH]5)c(-c5c(F)cc(S(=O)(=O)[O-])cc5F)c5nc(c(-c6c(F)cc(S(=O)(=O)[O-])cc6F)c6ccc3[nH]6)C=C5)C=C4)cc2)N1C(=O)[C@H]1CSc2ccccc21
REMARK SMILES IDX 12 1 11 2 10 3 9 4 8 5 6 6 7 7 5 8 1 9 2 10 3 11 83 12 4 13
REMARK SMILES IDX 84 14 85 15 86 16 87 17 94 18 88 19 89 20 93 21 90 22 92 23
REMARK SMILES IDX 91 24 13 25 14 26 15 27 16 28 17 29 18 30 82 31 19 32 81 33
REMARK SMILES IDX 20 34 21 35 22 36 75 37 23 38 80 39 74 40 76 41 24 42 79 43
REMARK SMILES IDX 73 44 72 45 25 47 59 48 38 49 58 50 39 51 42 52 57 53 77 54
REMARK SMILES IDX 40 55 41 56 56 58 78 59 43 60 26 61 27 62 36 63 28 64 29 65
REMARK SMILES IDX 35 66 37 67 30 68 31 69 32 70 33 71 34 72 60 73 61 74 70 75
REMARK SMILES IDX 62 76 63 77 69 78 71 79 64 80 65 81 66 82 67 83 68 84 44 85
REMARK SMILES IDX 45 86 54 87 46 88 47 89 53 90 55 91 48 92 49 93 50 94 51 95
REMARK SMILES IDX 52 96
REMARK H PARENT 76 46 42 57
REMARK Flexibility Score: inf
ROOT
ATOM      1  C   UNL A   1      34.145  34.326  30.761  1.00  0.00     0.202 C 
ENDROOT
BRANCH   1   2
ATOM      2  O   UNL A   1      33.927  33.658  32.000  1.00  0.00    -0.374 OA
BRANCH   2   3
ATOM      3  C   UNL A   1      34.659  34.132  33.131  1.00  0.00     0.202 C 
BRANCH   3   4
ATOM      4  C   UNL A   1      35.543  33.117  33.867  1.00  0.00     0.261 C 
BRANCH   4   5
ATOM      5  O   UNL A   1      36.117  33.648  35.081  1.00  0.00    -0.462 OA
BRANCH   5   6
ATOM      6  C   UNL A   1      37.263  33.037  35.483  1.00  0.00     0.329 C 
ATOM      7  O   UNL A   1      37.305  31.987  36.115  1.00  0.00    -0.250 OA
BRANCH   6   8
ATOM      8  C   UNL A   1      38.533  33.732  34.979  1.00  0.00     0.206 C 
ATOM      9  C   UNL A   1      40.504  34.617  32.765  1.00  0.00     0.043 C 
ATOM     10  C   UNL A   1      40.710  33.699  33.977  1.00  0.00     0.141 C 
ATOM     11  S   UNL A   1      40.956  34.754  35.447  1.00  0.00    -0.135 SA
ATOM     12  N   UNL A   1      39.531  32.902  34.306  1.00  0.00    -0.316 N 
ATOM     13  C   UNL A   1      39.303  34.403  36.120  1.00  0.00     0.109 C 
BRANCH  12  14
ATOM     14  C   UNL A   1      39.122  31.916  33.436  1.00  0.00     0.232 C 
ATOM     15  O   UNL A   1      38.360  32.194  32.507  1.00  0.00    -0.274 OA
BRANCH  14  16
ATOM     16  C   UNL A   1      39.399  30.460  33.837  1.00  0.00     0.120 C 
ATOM     17  C   UNL A   1      38.228  29.597  33.323  1.00  0.00     0.093 C 
ATOM     18  C   UNL A   1      40.695  29.807  33.406  1.00  0.00    -0.021 A 
ATOM     19  S   UNL A   1      38.869  28.025  32.686  1.00  0.00    -0.125 SA
ATOM     20  C   UNL A   1      40.545  28.566  32.784  1.00  0.00     0.011 A 
ATOM     21  C   UNL A   1      41.984  30.269  33.679  1.00  0.00     0.006 A 
ATOM     22  C   UNL A   1      41.641  27.832  32.349  1.00  0.00     0.015 A 
ATOM     23  C   UNL A   1      43.093  29.559  33.213  1.00  0.00     0.000 A 
ATOM     24  C   UNL A   1      42.921  28.346  32.542  1.00  0.00     0.001 A 
ENDBRANCH  14  16
ENDBRANCH  12  14
ENDBRANCH   6   8
ENDBRANCH   5   6
ENDBRANCH   4   5
ENDBRANCH   3   4
ENDBRANCH   2   3
ENDBRANCH   1   2
BRANCH   1  25
ATOM     25  C   UNL A   1      34.660  33.482  29.591  1.00  0.00     0.261 C 
BRANCH  25  26
ATOM     26  O   UNL A   1      34.513  32.073  29.839  1.00  0.00    -0.460 OA
BRANCH  26  27
ATOM     27  C   UNL A   1      34.629  31.297  28.738  1.00  0.00     0.338 C 
ATOM     28  O   UNL A   1      33.867  31.269  27.775  1.00  0.00    -0.246 OA
BRANCH  27  29
ATOM     29  C   UNL A   1      35.924  30.597  28.735  1.00  0.00     0.060 A 
ATOM     30  C   UNL A   1      36.441  30.201  29.976  1.00  0.00     0.016 A 
ATOM     31  C   UNL A   1      36.654  30.388  27.563  1.00  0.00     0.016 A 
ATOM     32  C   UNL A   1      37.718  29.651  30.058  1.00  0.00     0.010 A 
ATOM     33  C   UNL A   1      37.941  29.842  27.648  1.00  0.00     0.010 A 
ATOM     34  C   UNL A   1      38.492  29.510  28.899  1.00  0.00    -0.014 A 
BRANCH  34  35
ATOM     35  C   UNL A   1      39.929  29.166  29.025  1.00  0.00     0.031 A 
ATOM     36  C   UNL A   1      40.892  30.223  29.492  1.00  0.00     0.074 A 
ATOM     37  C   UNL A   1      40.365  27.921  28.764  1.00  0.00     0.049 A 
ATOM     38  N   UNL A   1      42.189  30.156  29.646  1.00  0.00    -0.248 NA
ATOM     39  C   UNL A   1      40.313  31.534  29.827  1.00  0.00     0.031 C 
ATOM     40  C   UNL A   1      39.522  26.804  28.339  1.00  0.00     0.029 A 
ATOM     41  N   UNL A   1      41.630  27.392  28.810  1.00  0.00    -0.354 N 
ATOM     42  C   UNL A   1      42.582  31.411  30.095  1.00  0.00     0.074 A 
ATOM     43  C   UNL A   1      41.391  32.232  30.150  1.00  0.00     0.031 C 
ATOM     44  C   UNL A   1      40.299  25.725  28.142  1.00  0.00     0.029 A 
ATOM     45  C   UNL A   1      41.693  26.082  28.402  1.00  0.00     0.049 A 
ATOM     46  H   UNL A   1      42.418  27.902  29.108  1.00  0.00     0.167 HD
ATOM     47  C   UNL A   1      43.820  31.838  30.442  1.00  0.00     0.037 A 
ATOM     48  C   UNL A   1      42.756  25.273  28.230  1.00  0.00     0.037 A 
ATOM     49  C   UNL A   1      45.003  31.019  30.375  1.00  0.00     0.049 A 
ATOM     50  C   UNL A   1      44.135  25.782  28.561  1.00  0.00     0.074 A 
ATOM     51  C   UNL A   1      46.304  31.354  30.705  1.00  0.00     0.029 A 
ATOM     52  N   UNL A   1      45.029  29.701  29.940  1.00  0.00    -0.354 N 
ATOM     53  N   UNL A   1      44.491  26.966  29.001  1.00  0.00    -0.248 NA
ATOM     54  C   UNL A   1      45.253  24.847  28.379  1.00  0.00     0.031 C 
ATOM     55  C   UNL A   1      47.123  30.255  30.426  1.00  0.00     0.029 A 
ATOM     56  C   UNL A   1      46.326  29.215  29.972  1.00  0.00     0.049 A 
ATOM     57  H   UNL A   1      44.241  29.186  29.650  1.00  0.00     0.167 HD
ATOM     58  C   UNL A   1      45.872  26.912  29.168  1.00  0.00     0.074 A 
ATOM     59  C   UNL A   1      46.282  25.574  28.794  1.00  0.00     0.031 C 
ATOM     60  C   UNL A   1      46.720  27.880  29.595  1.00  0.00     0.037 A 
BRANCH  47  61
ATOM     61  C   UNL A   1      43.955  33.265  30.898  1.00  0.00     0.058 A 
ATOM     62  C   UNL A   1      44.054  33.599  32.258  1.00  0.00     0.135 A 
ATOM     63  C   UNL A   1      43.982  34.313  29.964  1.00  0.00     0.135 A 
ATOM     64  F   UNL A   1      44.016  32.639  33.196  1.00  0.00    -0.206 F 
ATOM     65  C   UNL A   1      44.135  34.923  32.678  1.00  0.00     0.059 A 
ATOM     66  C   UNL A   1      44.090  35.642  30.360  1.00  0.00     0.059 A 
ATOM     67  F   UNL A   1      43.889  34.051  28.651  1.00  0.00    -0.206 F 
ATOM     68  C   UNL A   1      44.146  35.939  31.721  1.00  0.00     0.060 A 
BRANCH  68  69
ATOM     69  S   UNL A   1      44.223  37.653  32.280  1.00  0.00     0.124 S 
ATOM     70  O   UNL A   1      43.895  38.374  31.054  1.00  0.00    -0.237 OA
ATOM     71  O   UNL A   1      43.206  37.688  33.326  1.00  0.00    -0.237 OA
ATOM     72  O   UNL A   1      45.599  37.799  32.744  1.00  0.00    -0.744 OA
ENDBRANCH  68  69
ENDBRANCH  47  61
BRANCH  48  73
ATOM     73  C   UNL A   1      42.552  23.898  27.702  1.00  0.00     0.058 A 
ATOM     74  C   UNL A   1      42.478  23.648  26.325  1.00  0.00     0.135 A 
ATOM     75  C   UNL A   1      42.460  22.799  28.572  1.00  0.00     0.135 A 
ATOM     76  F   UNL A   1      42.550  24.667  25.453  1.00  0.00    -0.206 F 
ATOM     77  C   UNL A   1      42.317  22.359  25.826  1.00  0.00     0.059 A 
ATOM     78  C   UNL A   1      42.324  21.499  28.097  1.00  0.00     0.059 A 
ATOM     79  F   UNL A   1      42.537  22.984  29.899  1.00  0.00    -0.206 F 
ATOM     80  C   UNL A   1      42.249  21.290  26.722  1.00  0.00     0.060 A 
BRANCH  80  81
ATOM     81  S   UNL A   1      42.113  19.614  26.062  1.00  0.00     0.124 S 
ATOM     82  O   UNL A   1      42.528  18.812  27.206  1.00  0.00    -0.237 OA
ATOM     83  O   UNL A   1      40.698  19.540  25.709  1.00  0.00    -0.237 OA
ATOM     84  O   UNL A   1      43.033  19.625  24.929  1.00  0.00    -0.744 OA
ENDBRANCH  80  81
ENDBRANCH  48  73
BRANCH  60  85
ATOM     85  C   UNL A   1      48.179  27.525  29.709  1.00  0.00     0.058 A 
ATOM     86  C   UNL A   1      49.086  27.787  28.671  1.00  0.00     0.135 A 
ATOM     87  C   UNL A   1      48.684  26.971  30.897  1.00  0.00     0.135 A 
ATOM     88  F   UNL A   1      48.654  28.310  27.513  1.00  0.00    -0.206 F 
ATOM     89  C   UNL A   1      50.440  27.491  28.797  1.00  0.00     0.059 A 
ATOM     90  C   UNL A   1      50.039  26.693  31.055  1.00  0.00     0.059 A 
ATOM     91  F   UNL A   1      47.862  26.712  31.926  1.00  0.00    -0.206 F 
ATOM     92  C   UNL A   1      50.908  26.947  29.995  1.00  0.00     0.060 A 
BRANCH  92  93
ATOM     93  S   UNL A   1      52.672  26.603  30.160  1.00  0.00     0.124 S 
ATOM     94  O   UNL A   1      52.676  25.568  31.188  1.00  0.00    -0.237 OA
ATOM     95  O   UNL A   1      53.031  26.162  28.816  1.00  0.00    -0.237 OA
ATOM     96  O   UNL A   1      53.233  27.890  30.561  1.00  0.00    -0.744 OA
ENDBRANCH  92  93
ENDBRANCH  60  85
ENDBRANCH  34  35
ENDBRANCH  27  29
ENDBRANCH  26  27
ENDBRANCH  25  26
ENDBRANCH   1  25
TORSDOF 19
ENDMDL
MODEL 3
REMARK VINA RESULT:     -10.8      5.963     11.709
REMARK SMILES C[C@H]1SC[C@H](C(=O)OCCOCCOC(=O)c2ccc(-c3c4nc(c(-c5c(F)cc(S(=O)(=O)[O-])cc5F)c5ccc([nH]5)c(-c5c(F)cc(S(=O)(=O)[O-])cc5F)c5nc(c(-c6c(F)cc(S(=O)(=O)[O-])cc6F)c6ccc3[nH]6)C=C5)C=C4)cc2)N1C(=O)[C@H]1CSc2ccccc21
REMARK SMILES IDX 12 1 11 2 10 3 9 4 8 5 6 6 7 7 5 8 1 9 2 10 3 11 83 12 4 13
REMARK SMILES IDX 84 14 85 15 86 16 87 17 94 18 88 19 89 20 93 21 90 22 92 23
REMARK SMILES IDX 91 24 13 25 14 26 15 27 16 28 17 29 18 30 82 31 19 32 81 33
REMARK SMILES IDX 20 34 21 35 22 36 75 37 23 38 80 39 74 40 76 41 24 42 79 43
REMARK SMILES IDX 73 44 72 45 25 47 59 48 38 49 58 50 39 51 42 52 57 53 77 54
REMARK SMILES IDX 40 55 41 56 56 58 78 59 43 60 26 61 27 62 36 63 28 64 29 65
REMARK SMILES IDX 35 66 37 67 30 68 31 69 32 70 33 71 34 72 60 73 61 74 70 75
REMARK SMILES IDX 62 76 63 77 69 78 71 79 64 80 65 81 66 82 67 83 68 84 44 85
REMARK SMILES IDX 45 86 54 87 46 88 47 89 53 90 55 91 48 92 49 93 50 94 51 95
REMARK SMILES IDX 52 96
REMARK H PARENT 76 46 42 57
REMARK Flexibility Score: inf
ROOT
ATOM      1  C   UNL A   1      35.007  32.300  27.972  1.00  0.00     0.202 C 
ENDROOT
BRANCH   1   2
ATOM      2  O   UNL A   1      34.482  31.034  27.586  1.00  0.00    -0.374 OA
BRANCH   2   3
ATOM      3  C   UNL A   1      33.082  30.966  27.315  1.00  0.00     0.202 C 
BRANCH   3   4
ATOM      4  C   UNL A   1      32.519  29.605  26.884  1.00  0.00     0.261 C 
BRANCH   4   5
ATOM      5  O   UNL A   1      33.534  28.714  26.373  1.00  0.00    -0.462 OA
BRANCH   5   6
ATOM      6  C   UNL A   1      33.280  28.212  25.135  1.00  0.00     0.329 C 
ATOM      7  O   UNL A   1      34.082  28.215  24.207  1.00  0.00    -0.250 OA
BRANCH   6   8
ATOM      8  C   UNL A   1      31.911  27.530  25.023  1.00  0.00     0.206 C 
ATOM      9  C   UNL A   1      29.744  25.521  25.934  1.00  0.00     0.043 C 
ATOM     10  C   UNL A   1      30.525  25.619  24.616  1.00  0.00     0.141 C 
ATOM     11  S   UNL A   1      29.742  26.913  23.594  1.00  0.00    -0.135 SA
ATOM     12  N   UNL A   1      31.897  26.087  24.791  1.00  0.00    -0.316 N 
ATOM     13  C   UNL A   1      31.083  28.109  23.872  1.00  0.00     0.109 C 
BRANCH  12  14
ATOM     14  C   UNL A   1      32.803  25.282  25.446  1.00  0.00     0.232 C 
ATOM     15  O   UNL A   1      33.018  25.451  26.648  1.00  0.00    -0.274 OA
BRANCH  14  16
ATOM     16  C   UNL A   1      33.722  24.406  24.583  1.00  0.00     0.120 C 
ATOM     17  C   UNL A   1      35.179  24.688  25.005  1.00  0.00     0.093 C 
ATOM     18  C   UNL A   1      33.514  22.906  24.568  1.00  0.00    -0.021 A 
ATOM     19  S   UNL A   1      36.116  23.136  25.018  1.00  0.00    -0.125 SA
ATOM     20  C   UNL A   1      34.668  22.155  24.803  1.00  0.00     0.011 A 
ATOM     21  C   UNL A   1      32.335  22.238  24.230  1.00  0.00     0.006 A 
ATOM     22  C   UNL A   1      34.645  20.765  24.801  1.00  0.00     0.015 A 
ATOM     23  C   UNL A   1      32.290  20.843  24.263  1.00  0.00     0.000 A 
ATOM     24  C   UNL A   1      33.441  20.108  24.556  1.00  0.00     0.001 A 
ENDBRANCH  14  16
ENDBRANCH  12  14
ENDBRANCH   6   8
ENDBRANCH   5   6
ENDBRANCH   4   5
ENDBRANCH   3   4
ENDBRANCH   2   3
ENDBRANCH   1   2
BRANCH   1  25
ATOM     25  C   UNL A   1      35.104  32.590  29.474  1.00  0.00     0.261 C 
BRANCH  25  26
ATOM     26  O   UNL A   1      36.457  32.501  29.951  1.00  0.00    -0.460 OA
BRANCH  26  27
ATOM     27  C   UNL A   1      36.698  31.436  30.750  1.00  0.00     0.338 C 
ATOM     28  O   UNL A   1      35.997  31.038  31.675  1.00  0.00    -0.246 OA
BRANCH  27  29
ATOM     29  C   UNL A   1      37.847  30.664  30.246  1.00  0.00     0.060 A 
ATOM     30  C   UNL A   1      38.742  30.155  31.195  1.00  0.00     0.016 A 
ATOM     31  C   UNL A   1      38.088  30.496  28.880  1.00  0.00     0.016 A 
ATOM     32  C   UNL A   1      39.916  29.528  30.783  1.00  0.00     0.010 A 
ATOM     33  C   UNL A   1      39.271  29.872  28.468  1.00  0.00     0.010 A 
ATOM     34  C   UNL A   1      40.207  29.423  29.417  1.00  0.00    -0.014 A 
BRANCH  34  35
ATOM     35  C   UNL A   1      41.562  28.989  28.996  1.00  0.00     0.031 A 
ATOM     36  C   UNL A   1      42.677  29.999  28.979  1.00  0.00     0.074 A 
ATOM     37  C   UNL A   1      41.805  27.707  28.670  1.00  0.00     0.049 A 
ATOM     38  N   UNL A   1      43.926  29.851  28.621  1.00  0.00    -0.248 NA
ATOM     39  C   UNL A   1      42.335  31.359  29.425  1.00  0.00     0.031 C 
ATOM     40  C   UNL A   1      40.814  26.632  28.683  1.00  0.00     0.029 A 
ATOM     41  N   UNL A   1      42.961  27.097  28.256  1.00  0.00    -0.354 N 
ATOM     42  C   UNL A   1      44.519  31.096  28.796  1.00  0.00     0.074 A 
ATOM     43  C   UNL A   1      43.484  31.997  29.255  1.00  0.00     0.031 C 
ATOM     44  C   UNL A   1      41.402  25.495  28.272  1.00  0.00     0.029 A 
ATOM     45  C   UNL A   1      42.800  25.769  27.944  1.00  0.00     0.049 A 
ATOM     46  H   UNL A   1      43.824  27.566  28.189  1.00  0.00     0.167 HD
ATOM     47  C   UNL A   1      45.812  31.453  28.604  1.00  0.00     0.037 A 
ATOM     48  C   UNL A   1      43.674  24.883  27.427  1.00  0.00     0.037 A 
ATOM     49  C   UNL A   1      46.835  30.554  28.137  1.00  0.00     0.049 A 
ATOM     50  C   UNL A   1      45.092  25.313  27.160  1.00  0.00     0.074 A 
ATOM     51  C   UNL A   1      48.175  30.816  27.913  1.00  0.00     0.029 A 
ATOM     52  N   UNL A   1      46.630  29.220  27.816  1.00  0.00    -0.354 N 
ATOM     53  N   UNL A   1      45.646  26.489  27.346  1.00  0.00    -0.248 NA
ATOM     54  C   UNL A   1      46.007  24.297  26.620  1.00  0.00     0.031 C 
ATOM     55  C   UNL A   1      48.769  29.652  27.410  1.00  0.00     0.029 A 
ATOM     56  C   UNL A   1      47.813  28.650  27.373  1.00  0.00     0.049 A 
ATOM     57  H   UNL A   1      45.770  28.747  27.891  1.00  0.00     0.167 HD
ATOM     58  C   UNL A   1      46.977  26.349  26.966  1.00  0.00     0.074 A 
ATOM     59  C   UNL A   1      47.148  24.971  26.552  1.00  0.00     0.031 C 
ATOM     60  C   UNL A   1      47.967  27.276  26.963  1.00  0.00     0.037 A 
BRANCH  47  61
ATOM     61  C   UNL A   1      46.178  32.887  28.876  1.00  0.00     0.058 A 
ATOM     62  C   UNL A   1      46.093  33.872  27.878  1.00  0.00     0.135 A 
ATOM     63  C   UNL A   1      46.621  33.282  30.148  1.00  0.00     0.135 A 
ATOM     64  F   UNL A   1      45.692  33.547  26.639  1.00  0.00    -0.206 F 
ATOM     65  C   UNL A   1      46.473  35.188  28.121  1.00  0.00     0.059 A 
ATOM     66  C   UNL A   1      46.980  34.598  30.421  1.00  0.00     0.059 A 
ATOM     67  F   UNL A   1      46.722  32.382  31.138  1.00  0.00    -0.206 F 
ATOM     68  C   UNL A   1      46.921  35.540  29.395  1.00  0.00     0.060 A 
BRANCH  68  69
ATOM     69  S   UNL A   1      47.438  37.245  29.690  1.00  0.00     0.124 S 
ATOM     70  O   UNL A   1      48.238  37.515  28.499  1.00  0.00    -0.237 OA
ATOM     71  O   UNL A   1      46.162  37.950  29.768  1.00  0.00    -0.237 OA
ATOM     72  O   UNL A   1      48.183  37.164  30.941  1.00  0.00    -0.744 OA
ENDBRANCH  68  69
ENDBRANCH  47  61
BRANCH  48  73
ATOM     73  C   UNL A   1      43.218  23.503  27.113  1.00  0.00     0.058 A 
ATOM     74  C   UNL A   1      42.933  23.110  25.798  1.00  0.00     0.135 A 
ATOM     75  C   UNL A   1      43.089  22.540  28.127  1.00  0.00     0.135 A 
ATOM     76  F   UNL A   1      43.031  23.997  24.796  1.00  0.00    -0.206 F 
ATOM     77  C   UNL A   1      42.535  21.811  25.497  1.00  0.00     0.059 A 
ATOM     78  C   UNL A   1      42.717  21.230  27.848  1.00  0.00     0.059 A 
ATOM     79  F   UNL A   1      43.361  22.865  29.400  1.00  0.00    -0.206 F 
ATOM     80  C   UNL A   1      42.437  20.876  26.530  1.00  0.00     0.060 A 
BRANCH  80  81
ATOM     81  S   UNL A   1      41.990  19.175  26.119  1.00  0.00     0.124 S 
ATOM     82  O   UNL A   1      42.396  18.464  27.326  1.00  0.00    -0.237 OA
ATOM     83  O   UNL A   1      40.551  19.284  25.895  1.00  0.00    -0.237 OA
ATOM     84  O   UNL A   1      42.783  18.899  24.925  1.00  0.00    -0.744 OA
ENDBRANCH  80  81
ENDBRANCH  48  73
BRANCH  60  85
ATOM     85  C   UNL A   1      49.336  26.829  26.524  1.00  0.00     0.058 A 
ATOM     86  C   UNL A   1      50.236  26.223  27.414  1.00  0.00     0.135 A 
ATOM     87  C   UNL A   1      49.728  26.958  25.181  1.00  0.00     0.135 A 
ATOM     88  F   UNL A   1      49.913  26.081  28.709  1.00  0.00    -0.206 F 
ATOM     89  C   UNL A   1      51.486  25.778  26.993  1.00  0.00     0.059 A 
ATOM     90  C   UNL A   1      50.962  26.495  24.733  1.00  0.00     0.059 A 
ATOM     91  F   UNL A   1      48.901  27.520  24.286  1.00  0.00    -0.206 F 
ATOM     92  C   UNL A   1      51.839  25.916  25.649  1.00  0.00     0.060 A 
BRANCH  92  93
ATOM     93  S   UNL A   1      53.448  25.301  25.108  1.00  0.00     0.124 S 
ATOM     94  O   UNL A   1      53.310  23.868  25.340  1.00  0.00    -0.237 OA
ATOM     95  O   UNL A   1      53.487  25.716  23.709  1.00  0.00    -0.237 OA
ATOM     96  O   UNL A   1      54.388  25.993  25.987  1.00  0.00    -0.744 OA
ENDBRANCH  92  93
ENDBRANCH  60  85
ENDBRANCH  34  35
ENDBRANCH  27  29
ENDBRANCH  26  27
ENDBRANCH  25  26
ENDBRANCH   1  25
TORSDOF 19
ENDMDL
