MODEL 1
REMARK VINA RESULT:     -11.3      0.000      0.000
REMARK SMILES O=C(C[C@@H]1C(=O)NCCN1C(=O)OCC1c2ccccc2-c2ccccc21)OCCOCCOC(=O)c1ccc(-c2c3nc(c(-c4c(F)cc(S(=O)(=O)[O-])cc4F)c4ccc([nH]4)c(-c4c(F)cc(S(=O)(=O)[O-])cc4F)c4nc(c(-c5c(F)cc(S(=O)(=O)[O-])cc5F)c5ccc2[nH]5)C=C4)C=C3)cc1
REMARK SMILES IDX 30 1 29 2 28 3 2 4 1 5 3 6 4 7 5 8 10 9 6 10 7 11 9 12 8 13
REMARK SMILES IDX 11 15 12 16 13 17 14 18 15 19 16 20 27 21 17 22 21 23 22 24
REMARK SMILES IDX 26 25 18 26 20 27 23 28 25 29 19 30 24 31 31 32 32 33 33 34
REMARK SMILES IDX 34 35 35 36 36 37 37 38 38 39 102 40 39 41 101 42 40 43
REMARK SMILES IDX 41 44 42 45 95 46 43 47 100 48 94 49 96 50 44 51 99 52 93 53
REMARK SMILES IDX 92 54 45 56 79 57 58 58 78 59 59 60 62 61 77 62 97 63 60 64
REMARK SMILES IDX 61 65 76 67 98 68 63 69 46 70 47 71 56 72 48 73 49 74 55 75
REMARK SMILES IDX 57 76 50 77 51 78 52 79 53 80 54 81 80 82 81 83 90 84 82 85
REMARK SMILES IDX 83 86 89 87 91 88 84 89 85 90 86 91 87 92 88 93 64 94 65 95
REMARK SMILES IDX 74 96 66 97 67 98 73 99 75 100 68 101 69 102 70 103 71 104
REMARK SMILES IDX 72 105
REMARK H PARENT 7 14 96 55 62 66
REMARK Flexibility Score: inf
ROOT
ATOM      1  C   UNL A   1      35.151  31.648  27.634  1.00  0.00     0.202 C 
ENDROOT
BRANCH   1   2
ATOM      2  C   UNL A   1      34.129  30.518  27.704  1.00  0.00     0.261 C 
BRANCH   2   3
ATOM      3  O   UNL A   1      33.639  30.052  26.450  1.00  0.00    -0.463 OA
BRANCH   3   4
ATOM      4  C   UNL A   1      32.907  28.952  26.227  1.00  0.00     0.308 C 
ATOM      5  O   UNL A   1      31.994  28.696  27.020  1.00  0.00    -0.252 OA
BRANCH   4   6
ATOM      6  C   UNL A   1      33.226  27.962  25.136  1.00  0.00     0.158 C 
BRANCH   6   7
ATOM      7  C   UNL A   1      32.201  27.187  24.288  1.00  0.00     0.189 C 
ATOM      8  C   UNL A   1      31.451  28.200  23.365  1.00  0.00     0.243 C 
ATOM      9  N   UNL A   1      31.365  26.097  24.850  1.00  0.00    -0.294 N 
ATOM     10  O   UNL A   1      32.017  29.137  22.806  1.00  0.00    -0.273 OA
ATOM     11  N   UNL A   1      30.122  27.999  23.117  1.00  0.00    -0.353 N 
ATOM     12  C   UNL A   1      30.191  25.725  24.053  1.00  0.00     0.145 C 
ATOM     13  C   UNL A   1      29.337  26.944  23.714  1.00  0.00     0.137 C 
ATOM     14  H   UNL A   1      29.671  28.613  22.492  1.00  0.00     0.163 HD
BRANCH   9  15
ATOM     15  C   UNL A   1      31.781  25.186  25.811  1.00  0.00     0.410 C 
ATOM     16  O   UNL A   1      31.336  25.156  26.953  1.00  0.00    -0.224 OA
BRANCH  15  17
ATOM     17  O   UNL A   1      32.805  24.430  25.384  1.00  0.00    -0.448 OA
BRANCH  17  18
ATOM     18  C   UNL A   1      32.749  22.981  25.476  1.00  0.00     0.248 C 
BRANCH  18  19
ATOM     19  C   UNL A   1      33.596  22.310  24.366  1.00  0.00     0.088 C 
ATOM     20  C   UNL A   1      35.085  22.470  24.654  1.00  0.00    -0.029 A 
ATOM     21  C   UNL A   1      33.468  20.785  24.341  1.00  0.00    -0.029 A 
ATOM     22  C   UNL A   1      35.848  23.626  24.637  1.00  0.00     0.005 A 
ATOM     23  C   UNL A   1      35.660  21.225  24.976  1.00  0.00    -0.014 A 
ATOM     24  C   UNL A   1      34.687  20.185  24.728  1.00  0.00    -0.014 A 
ATOM     25  C   UNL A   1      32.399  20.013  23.907  1.00  0.00     0.005 A 
ATOM     26  C   UNL A   1      37.168  23.553  25.073  1.00  0.00     0.000 A 
ATOM     27  C   UNL A   1      36.974  21.149  25.407  1.00  0.00     0.009 A 
ATOM     28  C   UNL A   1      34.839  18.807  24.707  1.00  0.00     0.009 A 
ATOM     29  C   UNL A   1      32.558  18.623  23.873  1.00  0.00     0.000 A 
ATOM     30  C   UNL A   1      37.719  22.329  25.478  1.00  0.00     0.001 A 
ATOM     31  C   UNL A   1      33.764  18.025  24.274  1.00  0.00     0.001 A 
ENDBRANCH  18  19
ENDBRANCH  17  18
ENDBRANCH  15  17
ENDBRANCH   9  15
ENDBRANCH   6   7
ENDBRANCH   4   6
ENDBRANCH   3   4
ENDBRANCH   2   3
ENDBRANCH   1   2
BRANCH   1  32
ATOM     32  O   UNL A   1      35.095  32.702  28.568  1.00  0.00    -0.374 OA
BRANCH  32  33
ATOM     33  C   UNL A   1      34.507  32.550  29.853  1.00  0.00     0.202 C 
BRANCH  33  34
ATOM     34  C   UNL A   1      35.224  32.808  31.190  1.00  0.00     0.261 C 
BRANCH  34  35
ATOM     35  O   UNL A   1      36.343  31.983  31.513  1.00  0.00    -0.460 OA
BRANCH  35  36
ATOM     36  C   UNL A   1      37.528  32.511  31.133  1.00  0.00     0.338 C 
ATOM     37  O   UNL A   1      37.913  33.655  31.308  1.00  0.00    -0.246 OA
BRANCH  36  38
ATOM     38  C   UNL A   1      38.397  31.451  30.603  1.00  0.00     0.060 A 
ATOM     39  C   UNL A   1      39.342  30.894  31.473  1.00  0.00     0.016 A 
ATOM     40  C   UNL A   1      38.390  31.134  29.244  1.00  0.00     0.016 A 
ATOM     41  C   UNL A   1      40.355  30.095  30.966  1.00  0.00     0.010 A 
ATOM     42  C   UNL A   1      39.417  30.340  28.732  1.00  0.00     0.010 A 
ATOM     43  C   UNL A   1      40.439  29.885  29.584  1.00  0.00    -0.014 A 
BRANCH  43  44
ATOM     44  C   UNL A   1      41.731  29.424  29.032  1.00  0.00     0.031 A 
ATOM     45  C   UNL A   1      42.874  30.405  28.985  1.00  0.00     0.074 A 
ATOM     46  C   UNL A   1      41.903  28.140  28.679  1.00  0.00     0.049 A 
ATOM     47  N   UNL A   1      44.104  30.227  28.581  1.00  0.00    -0.248 NA
ATOM     48  C   UNL A   1      42.593  31.771  29.459  1.00  0.00     0.031 C 
ATOM     49  C   UNL A   1      40.873  27.104  28.743  1.00  0.00     0.029 A 
ATOM     50  N   UNL A   1      43.010  27.490  28.207  1.00  0.00    -0.354 N 
ATOM     51  C   UNL A   1      44.734  31.457  28.736  1.00  0.00     0.074 A 
ATOM     52  C   UNL A   1      43.746  32.382  29.240  1.00  0.00     0.031 C 
ATOM     53  C   UNL A   1      41.400  25.941  28.326  1.00  0.00     0.029 A 
ATOM     54  C   UNL A   1      42.791  26.160  27.937  1.00  0.00     0.049 A 
ATOM     55  H   UNL A   1      43.880  27.931  28.075  1.00  0.00     0.167 HD
ATOM     56  C   UNL A   1      46.025  31.781  28.486  1.00  0.00     0.037 A 
ATOM     57  C   UNL A   1      43.623  25.236  27.421  1.00  0.00     0.037 A 
ATOM     58  C   UNL A   1      46.997  30.841  27.993  1.00  0.00     0.049 A 
ATOM     59  C   UNL A   1      45.042  25.634  27.103  1.00  0.00     0.074 A 
ATOM     60  C   UNL A   1      48.336  31.051  27.717  1.00  0.00     0.029 A 
ATOM     61  N   UNL A   1      46.731  29.511  27.697  1.00  0.00    -0.354 N 
ATOM     62  N   UNL A   1      45.630  26.797  27.262  1.00  0.00    -0.248 NA
ATOM     63  C   UNL A   1      45.912  24.589  26.549  1.00  0.00     0.031 C 
ATOM     64  C   UNL A   1      48.865  29.865  27.198  1.00  0.00     0.029 A 
ATOM     65  C   UNL A   1      47.875  28.894  27.219  1.00  0.00     0.049 A 
ATOM     66  H   UNL A   1      45.858  29.072  27.811  1.00  0.00     0.167 HD
ATOM     67  C   UNL A   1      46.951  26.612  26.865  1.00  0.00     0.074 A 
ATOM     68  C   UNL A   1      47.073  25.224  26.468  1.00  0.00     0.031 C 
ATOM     69  C   UNL A   1      47.973  27.506  26.839  1.00  0.00     0.037 A 
BRANCH  56  70
ATOM     70  C   UNL A   1      46.445  33.212  28.699  1.00  0.00     0.058 A 
ATOM     71  C   UNL A   1      46.362  34.178  27.682  1.00  0.00     0.135 A 
ATOM     72  C   UNL A   1      46.919  33.628  29.954  1.00  0.00     0.135 A 
ATOM     73  F   UNL A   1      45.937  33.835  26.456  1.00  0.00    -0.206 F 
ATOM     74  C   UNL A   1      46.758  35.495  27.895  1.00  0.00     0.059 A 
ATOM     75  C   UNL A   1      47.290  34.947  30.198  1.00  0.00     0.059 A 
ATOM     76  F   UNL A   1      47.026  32.747  30.961  1.00  0.00    -0.206 F 
ATOM     77  C   UNL A   1      47.219  35.870  29.158  1.00  0.00     0.060 A 
BRANCH  77  78
ATOM     78  S   UNL A   1      47.717  37.586  29.422  1.00  0.00     0.124 S 
ATOM     79  O   UNL A   1      47.587  37.708  30.870  1.00  0.00    -0.237 OA
ATOM     80  O   UNL A   1      49.081  37.596  28.905  1.00  0.00    -0.237 OA
ATOM     81  O   UNL A   1      46.747  38.346  28.640  1.00  0.00    -0.744 OA
ENDBRANCH  77  78
ENDBRANCH  56  70
BRANCH  57  82
ATOM     82  C   UNL A   1      43.138  23.851  27.181  1.00  0.00     0.058 A 
ATOM     83  C   UNL A   1      43.121  22.898  28.210  1.00  0.00     0.135 A 
ATOM     84  C   UNL A   1      42.675  23.455  25.917  1.00  0.00     0.135 A 
ATOM     85  F   UNL A   1      43.558  23.226  29.435  1.00  0.00    -0.206 F 
ATOM     86  C   UNL A   1      42.679  21.597  27.991  1.00  0.00     0.059 A 
ATOM     87  C   UNL A   1      42.200  22.169  25.680  1.00  0.00     0.059 A 
ATOM     88  F   UNL A   1      42.657  24.332  24.901  1.00  0.00    -0.206 F 
ATOM     89  C   UNL A   1      42.217  21.244  26.723  1.00  0.00     0.060 A 
BRANCH  89  90
ATOM     90  S   UNL A   1      41.602  19.567  26.463  1.00  0.00     0.124 S 
ATOM     91  O   UNL A   1      42.064  18.893  27.671  1.00  0.00    -0.237 OA
ATOM     92  O   UNL A   1      40.161  19.784  26.363  1.00  0.00    -0.237 OA
ATOM     93  O   UNL A   1      42.253  19.158  25.222  1.00  0.00    -0.744 OA
ENDBRANCH  89  90
ENDBRANCH  57  82
BRANCH  69  94
ATOM     94  C   UNL A   1      49.327  26.991  26.426  1.00  0.00     0.058 A 
ATOM     95  C   UNL A   1      50.208  26.390  27.337  1.00  0.00     0.135 A 
ATOM     96  C   UNL A   1      49.732  27.080  25.084  1.00  0.00     0.135 A 
ATOM     97  F   UNL A   1      49.872  26.279  28.633  1.00  0.00    -0.206 F 
ATOM     98  C   UNL A   1      51.463  25.939  26.943  1.00  0.00     0.059 A 
ATOM     99  C   UNL A   1      50.966  26.602  24.660  1.00  0.00     0.059 A 
ATOM    100  F   UNL A   1      48.920  27.630  24.166  1.00  0.00    -0.206 F 
ATOM    101  C   UNL A   1      51.834  26.053  25.601  1.00  0.00     0.060 A 
BRANCH 101 102
ATOM    102  S   UNL A   1      53.467  25.467  25.101  1.00  0.00     0.124 S 
ATOM    103  O   UNL A   1      53.384  24.048  25.436  1.00  0.00    -0.237 OA
ATOM    104  O   UNL A   1      53.488  25.783  23.676  1.00  0.00    -0.237 OA
ATOM    105  O   UNL A   1      54.378  26.254  25.926  1.00  0.00    -0.744 OA
ENDBRANCH 101 102
ENDBRANCH  69  94
ENDBRANCH  43  44
ENDBRANCH  36  38
ENDBRANCH  35  36
ENDBRANCH  34  35
ENDBRANCH  33  34
ENDBRANCH  32  33
ENDBRANCH   1  32
TORSDOF 22
ENDMDL
MODEL 2
REMARK VINA RESULT:     -11.0      2.227      8.401
REMARK SMILES O=C(C[C@@H]1C(=O)NCCN1C(=O)OCC1c2ccccc2-c2ccccc21)OCCOCCOC(=O)c1ccc(-c2c3nc(c(-c4c(F)cc(S(=O)(=O)[O-])cc4F)c4ccc([nH]4)c(-c4c(F)cc(S(=O)(=O)[O-])cc4F)c4nc(c(-c5c(F)cc(S(=O)(=O)[O-])cc5F)c5ccc2[nH]5)C=C4)C=C3)cc1
REMARK SMILES IDX 30 1 29 2 28 3 2 4 1 5 3 6 4 7 5 8 10 9 6 10 7 11 9 12 8 13
REMARK SMILES IDX 11 15 12 16 13 17 14 18 15 19 16 20 27 21 17 22 21 23 22 24
REMARK SMILES IDX 26 25 18 26 20 27 23 28 25 29 19 30 24 31 31 32 32 33 33 34
REMARK SMILES IDX 34 35 35 36 36 37 37 38 38 39 102 40 39 41 101 42 40 43
REMARK SMILES IDX 41 44 42 45 95 46 43 47 100 48 94 49 96 50 44 51 99 52 93 53
REMARK SMILES IDX 92 54 45 56 79 57 58 58 78 59 59 60 62 61 77 62 97 63 60 64
REMARK SMILES IDX 61 65 76 67 98 68 63 69 46 70 47 71 56 72 48 73 49 74 55 75
REMARK SMILES IDX 57 76 50 77 51 78 52 79 53 80 54 81 80 82 81 83 90 84 82 85
REMARK SMILES IDX 83 86 89 87 91 88 84 89 85 90 86 91 87 92 88 93 64 94 65 95
REMARK SMILES IDX 74 96 66 97 67 98 73 99 75 100 68 101 69 102 70 103 71 104
REMARK SMILES IDX 72 105
REMARK H PARENT 7 14 96 55 62 66
REMARK Flexibility Score: inf
ROOT
ATOM      1  C   UNL A   1      32.129  28.521  26.110  1.00  0.00     0.202 C 
ENDROOT
BRANCH   1   2
ATOM      2  C   UNL A   1      31.165  27.375  25.818  1.00  0.00     0.261 C 
BRANCH   2   3
ATOM      3  O   UNL A   1      30.164  27.648  24.841  1.00  0.00    -0.463 OA
BRANCH   3   4
ATOM      4  C   UNL A   1      29.581  26.769  24.015  1.00  0.00     0.308 C 
ATOM      5  O   UNL A   1      28.448  27.034  23.598  1.00  0.00    -0.252 OA
BRANCH   4   6
ATOM      6  C   UNL A   1      30.188  25.431  23.680  1.00  0.00     0.158 C 
BRANCH   6   7
ATOM      7  C   UNL A   1      31.651  25.176  23.271  1.00  0.00     0.189 C 
ATOM      8  C   UNL A   1      31.822  25.562  21.767  1.00  0.00     0.243 C 
ATOM      9  N   UNL A   1      32.402  23.974  23.710  1.00  0.00    -0.294 N 
ATOM     10  O   UNL A   1      31.284  26.548  21.266  1.00  0.00    -0.273 OA
ATOM     11  N   UNL A   1      32.655  24.808  20.988  1.00  0.00    -0.353 N 
ATOM     12  C   UNL A   1      33.620  23.676  22.947  1.00  0.00     0.145 C 
ATOM     13  C   UNL A   1      33.341  23.623  21.447  1.00  0.00     0.137 C 
ATOM     14  H   UNL A   1      32.796  25.091  20.056  1.00  0.00     0.163 HD
BRANCH   9  15
ATOM     15  C   UNL A   1      32.276  23.362  24.949  1.00  0.00     0.410 C 
ATOM     16  O   UNL A   1      32.707  23.845  25.990  1.00  0.00    -0.224 OA
BRANCH  15  17
ATOM     17  O   UNL A   1      31.742  22.133  24.856  1.00  0.00    -0.448 OA
BRANCH  17  18
ATOM     18  C   UNL A   1      32.502  21.032  24.287  1.00  0.00     0.248 C 
BRANCH  18  19
ATOM     19  C   UNL A   1      33.392  20.348  25.356  1.00  0.00     0.088 C 
ATOM     20  C   UNL A   1      33.463  18.844  25.113  1.00  0.00    -0.029 A 
ATOM     21  C   UNL A   1      34.871  20.729  25.251  1.00  0.00    -0.029 A 
ATOM     22  C   UNL A   1      32.458  17.900  25.242  1.00  0.00     0.005 A 
ATOM     23  C   UNL A   1      34.759  18.474  24.700  1.00  0.00    -0.014 A 
ATOM     24  C   UNL A   1      35.635  19.615  24.841  1.00  0.00    -0.014 A 
ATOM     25  C   UNL A   1      35.482  21.927  25.596  1.00  0.00     0.005 A 
ATOM     26  C   UNL A   1      32.718  16.597  24.829  1.00  0.00     0.000 A 
ATOM     27  C   UNL A   1      35.021  17.177  24.292  1.00  0.00     0.009 A 
ATOM     28  C   UNL A   1      37.017  19.696  24.750  1.00  0.00     0.009 A 
ATOM     29  C   UNL A   1      36.877  22.004  25.517  1.00  0.00     0.000 A 
ATOM     30  C   UNL A   1      33.982  16.243  24.335  1.00  0.00     0.001 A 
ATOM     31  C   UNL A   1      37.637  20.900  25.093  1.00  0.00     0.001 A 
ENDBRANCH  18  19
ENDBRANCH  17  18
ENDBRANCH  15  17
ENDBRANCH   9  15
ENDBRANCH   6   7
ENDBRANCH   4   6
ENDBRANCH   3   4
ENDBRANCH   2   3
ENDBRANCH   1   2
BRANCH   1  32
ATOM     32  O   UNL A   1      31.726  29.577  26.954  1.00  0.00    -0.374 OA
BRANCH  32  33
ATOM     33  C   UNL A   1      32.279  30.882  26.857  1.00  0.00     0.202 C 
BRANCH  33  34
ATOM     34  C   UNL A   1      33.543  31.363  27.592  1.00  0.00     0.261 C 
BRANCH  34  35
ATOM     35  O   UNL A   1      34.424  30.371  28.117  1.00  0.00    -0.460 OA
BRANCH  35  36
ATOM     36  C   UNL A   1      35.390  30.878  28.914  1.00  0.00     0.338 C 
ATOM     37  O   UNL A   1      35.287  31.809  29.694  1.00  0.00    -0.246 OA
BRANCH  36  38
ATOM     38  C   UNL A   1      36.590  30.031  28.841  1.00  0.00     0.060 A 
ATOM     39  C   UNL A   1      37.041  29.445  30.029  1.00  0.00     0.016 A 
ATOM     40  C   UNL A   1      37.338  29.953  27.665  1.00  0.00     0.016 A 
ATOM     41  C   UNL A   1      38.300  28.866  30.073  1.00  0.00     0.010 A 
ATOM     42  C   UNL A   1      38.610  29.381  27.713  1.00  0.00     0.010 A 
ATOM     43  C   UNL A   1      39.117  28.907  28.936  1.00  0.00    -0.014 A 
BRANCH  43  44
ATOM     44  C   UNL A   1      40.569  28.699  29.120  1.00  0.00     0.031 A 
ATOM     45  C   UNL A   1      41.160  27.384  28.682  1.00  0.00     0.074 A 
ATOM     46  C   UNL A   1      41.349  29.695  29.571  1.00  0.00     0.049 A 
ATOM     47  N   UNL A   1      42.403  26.983  28.708  1.00  0.00    -0.248 NA
ATOM     48  C   UNL A   1      40.221  26.386  28.140  1.00  0.00     0.031 C 
ATOM     49  C   UNL A   1      40.877  31.021  29.966  1.00  0.00     0.029 A 
ATOM     50  N   UNL A   1      42.703  29.745  29.762  1.00  0.00    -0.354 N 
ATOM     51  C   UNL A   1      42.393  25.686  28.205  1.00  0.00     0.074 A 
ATOM     52  C   UNL A   1      41.018  25.354  27.910  1.00  0.00     0.031 C 
ATOM     53  C   UNL A   1      41.931  31.760  30.351  1.00  0.00     0.029 A 
ATOM     54  C   UNL A   1      43.142  30.948  30.261  1.00  0.00     0.049 A 
ATOM     55  H   UNL A   1      43.305  28.992  29.560  1.00  0.00     0.167 HD
ATOM     56  C   UNL A   1      43.439  24.852  28.001  1.00  0.00     0.037 A 
ATOM     57  C   UNL A   1      44.382  31.334  30.614  1.00  0.00     0.037 A 
ATOM     58  C   UNL A   1      44.804  25.206  28.291  1.00  0.00     0.049 A 
ATOM     59  C   UNL A   1      45.524  30.370  30.425  1.00  0.00     0.074 A 
ATOM     60  C   UNL A   1      45.948  24.449  28.112  1.00  0.00     0.029 A 
ATOM     61  N   UNL A   1      45.208  26.421  28.829  1.00  0.00    -0.354 N 
ATOM     62  N   UNL A   1      45.505  29.150  29.940  1.00  0.00    -0.248 NA
ATOM     63  C   UNL A   1      46.858  30.840  30.819  1.00  0.00     0.031 C 
ATOM     64  C   UNL A   1      47.035  25.183  28.597  1.00  0.00     0.029 A 
ATOM     65  C   UNL A   1      46.580  26.426  29.011  1.00  0.00     0.049 A 
ATOM     66  H   UNL A   1      44.606  27.168  29.049  1.00  0.00     0.167 HD
ATOM     67  C   UNL A   1      46.829  28.722  29.932  1.00  0.00     0.074 A 
ATOM     68  C   UNL A   1      47.620  29.819  30.454  1.00  0.00     0.031 C 
ATOM     69  C   UNL A   1      47.346  27.535  29.523  1.00  0.00     0.037 A 
BRANCH  56  70
ATOM     70  C   UNL A   1      43.146  23.469  27.479  1.00  0.00     0.058 A 
ATOM     71  C   UNL A   1      43.211  23.154  26.112  1.00  0.00     0.135 A 
ATOM     72  C   UNL A   1      42.816  22.435  28.370  1.00  0.00     0.135 A 
ATOM     73  F   UNL A   1      43.500  24.106  25.210  1.00  0.00    -0.206 F 
ATOM     74  C   UNL A   1      42.933  21.872  25.646  1.00  0.00     0.059 A 
ATOM     75  C   UNL A   1      42.567  21.139  27.930  1.00  0.00     0.059 A 
ATOM     76  F   UNL A   1      42.733  22.680  29.688  1.00  0.00    -0.206 F 
ATOM     77  C   UNL A   1      42.614  20.870  26.564  1.00  0.00     0.060 A 
BRANCH  77  78
ATOM     78  S   UNL A   1      42.268  19.209  25.946  1.00  0.00     0.124 S 
ATOM     79  O   UNL A   1      43.096  19.168  24.744  1.00  0.00    -0.237 OA
ATOM     80  O   UNL A   1      42.712  18.367  27.051  1.00  0.00    -0.237 OA
ATOM     81  O   UNL A   1      40.828  19.226  25.712  1.00  0.00    -0.744 OA
ENDBRANCH  77  78
ENDBRANCH  56  70
BRANCH  57  82
ATOM     82  C   UNL A   1      44.605  32.693  31.175  1.00  0.00     0.058 A 
ATOM     83  C   UNL A   1      44.911  33.781  30.344  1.00  0.00     0.135 A 
ATOM     84  C   UNL A   1      44.510  32.933  32.555  1.00  0.00     0.135 A 
ATOM     85  F   UNL A   1      45.017  33.603  29.018  1.00  0.00    -0.206 F 
ATOM     86  C   UNL A   1      45.132  35.053  30.861  1.00  0.00     0.059 A 
ATOM     87  C   UNL A   1      44.697  34.202  33.093  1.00  0.00     0.059 A 
ATOM     88  F   UNL A   1      44.206  31.930  33.393  1.00  0.00    -0.206 F 
ATOM     89  C   UNL A   1      45.019  35.254  32.237  1.00  0.00     0.060 A 
BRANCH  89  90
ATOM     90  S   UNL A   1      45.261  36.919  32.891  1.00  0.00     0.124 S 
ATOM     91  O   UNL A   1      45.991  37.560  31.803  1.00  0.00    -0.237 OA
ATOM     92  O   UNL A   1      43.887  37.369  33.093  1.00  0.00    -0.237 OA
ATOM     93  O   UNL A   1      46.023  36.692  34.116  1.00  0.00    -0.744 OA
ENDBRANCH  89  90
ENDBRANCH  57  82
BRANCH  69  94
ATOM     94  C   UNL A   1      48.845  27.387  29.565  1.00  0.00     0.058 A 
ATOM     95  C   UNL A   1      49.516  26.885  30.689  1.00  0.00     0.135 A 
ATOM     96  C   UNL A   1      49.615  27.732  28.441  1.00  0.00     0.135 A 
ATOM     97  F   UNL A   1      48.829  26.541  31.791  1.00  0.00    -0.206 F 
ATOM     98  C   UNL A   1      50.903  26.775  30.718  1.00  0.00     0.059 A 
ATOM     99  C   UNL A   1      50.998  27.595  28.433  1.00  0.00     0.059 A 
ATOM    100  F   UNL A   1      49.023  28.201  27.331  1.00  0.00    -0.206 F 
ATOM    101  C   UNL A   1      51.635  27.136  29.585  1.00  0.00     0.060 A 
BRANCH 101 102
ATOM    102  S   UNL A   1      53.434  26.991  29.634  1.00  0.00     0.124 S 
ATOM    103  O   UNL A   1      53.824  28.336  30.045  1.00  0.00    -0.237 OA
ATOM    104  O   UNL A   1      53.635  25.939  30.625  1.00  0.00    -0.237 OA
ATOM    105  O   UNL A   1      53.784  26.628  28.264  1.00  0.00    -0.744 OA
ENDBRANCH 101 102
ENDBRANCH  69  94
ENDBRANCH  43  44
ENDBRANCH  36  38
ENDBRANCH  35  36
ENDBRANCH  34  35
ENDBRANCH  33  34
ENDBRANCH  32  33
ENDBRANCH   1  32
TORSDOF 22
ENDMDL
MODEL 3
REMARK VINA RESULT:     -10.9      1.281      8.130
REMARK SMILES O=C(C[C@@H]1C(=O)NCCN1C(=O)OCC1c2ccccc2-c2ccccc21)OCCOCCOC(=O)c1ccc(-c2c3nc(c(-c4c(F)cc(S(=O)(=O)[O-])cc4F)c4ccc([nH]4)c(-c4c(F)cc(S(=O)(=O)[O-])cc4F)c4nc(c(-c5c(F)cc(S(=O)(=O)[O-])cc5F)c5ccc2[nH]5)C=C4)C=C3)cc1
REMARK SMILES IDX 30 1 29 2 28 3 2 4 1 5 3 6 4 7 5 8 10 9 6 10 7 11 9 12 8 13
REMARK SMILES IDX 11 15 12 16 13 17 14 18 15 19 16 20 27 21 17 22 21 23 22 24
REMARK SMILES IDX 26 25 18 26 20 27 23 28 25 29 19 30 24 31 31 32 32 33 33 34
REMARK SMILES IDX 34 35 35 36 36 37 37 38 38 39 102 40 39 41 101 42 40 43
REMARK SMILES IDX 41 44 42 45 95 46 43 47 100 48 94 49 96 50 44 51 99 52 93 53
REMARK SMILES IDX 92 54 45 56 79 57 58 58 78 59 59 60 62 61 77 62 97 63 60 64
REMARK SMILES IDX 61 65 76 67 98 68 63 69 46 70 47 71 56 72 48 73 49 74 55 75
REMARK SMILES IDX 57 76 50 77 51 78 52 79 53 80 54 81 80 82 81 83 90 84 82 85
REMARK SMILES IDX 83 86 89 87 91 88 84 89 85 90 86 91 87 92 88 93 64 94 65 95
REMARK SMILES IDX 74 96 66 97 67 98 73 99 75 100 68 101 69 102 70 103 71 104
REMARK SMILES IDX 72 105
REMARK H PARENT 7 14 96 55 62 66
REMARK Flexibility Score: inf
ROOT
ATOM      1  C   UNL A   1      34.566  29.157  27.008  1.00  0.00     0.202 C 
ENDROOT
BRANCH   1   2
ATOM      2  C   UNL A   1      33.999  27.830  26.510  1.00  0.00     0.261 C 
BRANCH   2   3
ATOM      3  O   UNL A   1      32.598  27.653  26.692  1.00  0.00    -0.463 OA
BRANCH   3   4
ATOM      4  C   UNL A   1      31.825  26.705  26.144  1.00  0.00     0.308 C 
ATOM      5  O   UNL A   1      31.433  25.788  26.875  1.00  0.00    -0.252 OA
BRANCH   4   6
ATOM      6  C   UNL A   1      31.524  26.644  24.669  1.00  0.00     0.158 C 
BRANCH   6   7
ATOM      7  C   UNL A   1      32.446  26.065  23.579  1.00  0.00     0.189 C 
ATOM      8  C   UNL A   1      32.815  27.209  22.581  1.00  0.00     0.243 C 
ATOM      9  N   UNL A   1      32.214  24.734  22.965  1.00  0.00    -0.294 N 
ATOM     10  O   UNL A   1      33.063  28.357  22.946  1.00  0.00    -0.273 OA
ATOM     11  N   UNL A   1      32.932  26.906  21.253  1.00  0.00    -0.353 N 
ATOM     12  C   UNL A   1      32.920  24.488  21.703  1.00  0.00     0.145 C 
ATOM     13  C   UNL A   1      32.662  25.604  20.692  1.00  0.00     0.137 C 
ATOM     14  H   UNL A   1      33.217  27.623  20.641  1.00  0.00     0.163 HD
BRANCH   9  15
ATOM     15  C   UNL A   1      31.724  23.620  23.633  1.00  0.00     0.410 C 
ATOM     16  O   UNL A   1      30.633  23.113  23.397  1.00  0.00    -0.224 OA
BRANCH  15  17
ATOM     17  O   UNL A   1      32.526  23.242  24.643  1.00  0.00    -0.448 OA
BRANCH  17  18
ATOM     18  C   UNL A   1      32.077  22.266  25.623  1.00  0.00     0.248 C 
BRANCH  18  19
ATOM     19  C   UNL A   1      33.274  21.536  26.282  1.00  0.00     0.088 C 
ATOM     20  C   UNL A   1      33.390  20.109  25.756  1.00  0.00    -0.029 A 
ATOM     21  C   UNL A   1      34.635  22.107  25.875  1.00  0.00    -0.029 A 
ATOM     22  C   UNL A   1      32.533  19.041  25.961  1.00  0.00     0.005 A 
ATOM     23  C   UNL A   1      34.548  19.971  24.964  1.00  0.00    -0.014 A 
ATOM     24  C   UNL A   1      35.340  21.174  25.084  1.00  0.00    -0.014 A 
ATOM     25  C   UNL A   1      35.224  23.301  26.268  1.00  0.00     0.005 A 
ATOM     26  C   UNL A   1      32.769  17.861  25.261  1.00  0.00     0.000 A 
ATOM     27  C   UNL A   1      34.786  18.797  24.270  1.00  0.00     0.009 A 
ATOM     28  C   UNL A   1      36.634  21.437  24.660  1.00  0.00     0.009 A 
ATOM     29  C   UNL A   1      36.535  23.559  25.851  1.00  0.00     0.000 A 
ATOM     30  C   UNL A   1      33.873  17.748  24.404  1.00  0.00     0.001 A 
ATOM     31  C   UNL A   1      37.232  22.638  25.050  1.00  0.00     0.001 A 
ENDBRANCH  18  19
ENDBRANCH  17  18
ENDBRANCH  15  17
ENDBRANCH   9  15
ENDBRANCH   6   7
ENDBRANCH   4   6
ENDBRANCH   3   4
ENDBRANCH   2   3
ENDBRANCH   1   2
BRANCH   1  32
ATOM     32  O   UNL A   1      33.701  30.123  27.562  1.00  0.00    -0.374 OA
BRANCH  32  33
ATOM     33  C   UNL A   1      34.109  31.463  27.801  1.00  0.00     0.202 C 
BRANCH  33  34
ATOM     34  C   UNL A   1      34.777  31.967  29.092  1.00  0.00     0.261 C 
BRANCH  34  35
ATOM     35  O   UNL A   1      36.185  31.781  29.227  1.00  0.00    -0.460 OA
BRANCH  35  36
ATOM     36  C   UNL A   1      36.520  30.913  30.207  1.00  0.00     0.338 C 
ATOM     37  O   UNL A   1      35.938  30.735  31.263  1.00  0.00    -0.246 OA
BRANCH  36  38
ATOM     38  C   UNL A   1      37.628  30.059  29.757  1.00  0.00     0.060 A 
ATOM     39  C   UNL A   1      38.483  29.537  30.735  1.00  0.00     0.016 A 
ATOM     40  C   UNL A   1      37.910  29.913  28.397  1.00  0.00     0.016 A 
ATOM     41  C   UNL A   1      39.684  28.957  30.358  1.00  0.00     0.010 A 
ATOM     42  C   UNL A   1      39.125  29.340  28.019  1.00  0.00     0.010 A 
ATOM     43  C   UNL A   1      40.042  28.932  29.004  1.00  0.00    -0.014 A 
BRANCH  43  44
ATOM     44  C   UNL A   1      41.468  28.729  28.669  1.00  0.00     0.031 A 
ATOM     45  C   UNL A   1      41.903  27.360  28.215  1.00  0.00     0.074 A 
ATOM     46  C   UNL A   1      42.324  29.764  28.676  1.00  0.00     0.049 A 
ATOM     47  N   UNL A   1      43.083  26.948  27.835  1.00  0.00    -0.248 NA
ATOM     48  C   UNL A   1      40.866  26.314  28.183  1.00  0.00     0.031 C 
ATOM     49  C   UNL A   1      41.983  31.137  29.045  1.00  0.00     0.029 A 
ATOM     50  N   UNL A   1      43.652  29.819  28.350  1.00  0.00    -0.354 N 
ATOM     51  C   UNL A   1      42.935  25.598  27.538  1.00  0.00     0.074 A 
ATOM     52  C   UNL A   1      41.560  25.250  27.810  1.00  0.00     0.031 C 
ATOM     53  C   UNL A   1      43.079  31.904  28.922  1.00  0.00     0.029 A 
ATOM     54  C   UNL A   1      44.201  31.070  28.499  1.00  0.00     0.049 A 
ATOM     55  H   UNL A   1      44.165  29.038  28.039  1.00  0.00     0.167 HD
ATOM     56  C   UNL A   1      43.863  24.730  27.072  1.00  0.00     0.037 A 
ATOM     57  C   UNL A   1      45.470  31.481  28.323  1.00  0.00     0.037 A 
ATOM     58  C   UNL A   1      45.227  25.099  26.797  1.00  0.00     0.049 A 
ATOM     59  C   UNL A   1      46.497  30.484  27.852  1.00  0.00     0.074 A 
ATOM     60  C   UNL A   1      46.252  24.309  26.308  1.00  0.00     0.029 A 
ATOM     61  N   UNL A   1      45.757  26.367  26.993  1.00  0.00    -0.354 N 
ATOM     62  N   UNL A   1      46.345  29.212  27.565  1.00  0.00    -0.248 NA
ATOM     63  C   UNL A   1      47.866  30.983  27.669  1.00  0.00     0.031 C 
ATOM     64  C   UNL A   1      47.416  25.083  26.266  1.00  0.00     0.029 A 
ATOM     65  C   UNL A   1      47.100  26.376  26.658  1.00  0.00     0.049 A 
ATOM     66  H   UNL A   1      45.252  27.145  27.321  1.00  0.00     0.167 HD
ATOM     67  C   UNL A   1      47.589  28.769  27.128  1.00  0.00     0.074 A 
ATOM     68  C   UNL A   1      48.477  29.912  27.182  1.00  0.00     0.031 C 
ATOM     69  C   UNL A   1      47.962  27.531  26.711  1.00  0.00     0.037 A 
BRANCH  56  70
ATOM     70  C   UNL A   1      43.448  23.295  26.872  1.00  0.00     0.058 A 
ATOM     71  C   UNL A   1      43.227  22.421  27.950  1.00  0.00     0.135 A 
ATOM     72  C   UNL A   1      43.245  22.794  25.576  1.00  0.00     0.135 A 
ATOM     73  F   UNL A   1      43.426  22.837  29.211  1.00  0.00    -0.206 F 
ATOM     74  C   UNL A   1      42.847  21.098  27.748  1.00  0.00     0.059 A 
ATOM     75  C   UNL A   1      42.833  21.484  25.352  1.00  0.00     0.059 A 
ATOM     76  F   UNL A   1      43.447  23.581  24.508  1.00  0.00    -0.206 F 
ATOM     77  C   UNL A   1      42.650  20.639  26.444  1.00  0.00     0.060 A 
BRANCH  77  78
ATOM     78  S   UNL A   1      42.145  18.922  26.199  1.00  0.00     0.124 S 
ATOM     79  O   UNL A   1      40.767  19.085  25.747  1.00  0.00    -0.237 OA
ATOM     80  O   UNL A   1      43.093  18.460  25.191  1.00  0.00    -0.237 OA
ATOM     81  O   UNL A   1      42.303  18.329  27.523  1.00  0.00    -0.744 OA
ENDBRANCH  77  78
ENDBRANCH  56  70
BRANCH  57  82
ATOM     82  C   UNL A   1      45.835  32.898  28.587  1.00  0.00     0.058 A 
ATOM     83  C   UNL A   1      46.334  33.300  29.835  1.00  0.00     0.135 A 
ATOM     84  C   UNL A   1      45.698  33.879  27.592  1.00  0.00     0.135 A 
ATOM     85  F   UNL A   1      46.479  32.401  30.821  1.00  0.00    -0.206 F 
ATOM     86  C   UNL A   1      46.666  34.626  30.094  1.00  0.00     0.059 A 
ATOM     87  C   UNL A   1      46.053  35.206  27.818  1.00  0.00     0.059 A 
ATOM     88  F   UNL A   1      45.239  33.546  26.376  1.00  0.00    -0.206 F 
ATOM     89  C   UNL A   1      46.526  35.571  29.077  1.00  0.00     0.060 A 
BRANCH  89  90
ATOM     90  S   UNL A   1      47.006  37.278  29.410  1.00  0.00     0.124 S 
ATOM     91  O   UNL A   1      46.787  37.904  28.111  1.00  0.00    -0.237 OA
ATOM     92  O   UNL A   1      46.072  37.656  30.467  1.00  0.00    -0.237 OA
ATOM     93  O   UNL A   1      48.399  37.161  29.828  1.00  0.00    -0.744 OA
ENDBRANCH  89  90
ENDBRANCH  57  82
BRANCH  69  94
ATOM     94  C   UNL A   1      49.377  27.369  26.220  1.00  0.00     0.058 A 
ATOM     95  C   UNL A   1      50.448  27.122  27.092  1.00  0.00     0.135 A 
ATOM     96  C   UNL A   1      49.654  27.435  24.844  1.00  0.00     0.135 A 
ATOM     97  F   UNL A   1      50.240  27.049  28.417  1.00  0.00    -0.206 F 
ATOM     98  C   UNL A   1      51.751  26.995  26.623  1.00  0.00     0.059 A 
ATOM     99  C   UNL A   1      50.943  27.275  24.350  1.00  0.00     0.059 A 
ATOM    100  F   UNL A   1      48.664  27.652  23.963  1.00  0.00    -0.206 F 
ATOM    101  C   UNL A   1      51.989  27.076  25.249  1.00  0.00     0.060 A 
BRANCH 101 102
ATOM    102  S   UNL A   1      53.684  26.913  24.652  1.00  0.00     0.124 S 
ATOM    103  O   UNL A   1      53.962  28.269  24.187  1.00  0.00    -0.237 OA
ATOM    104  O   UNL A   1      54.399  26.495  25.854  1.00  0.00    -0.237 OA
ATOM    105  O   UNL A   1      53.581  25.900  23.607  1.00  0.00    -0.744 OA
ENDBRANCH 101 102
ENDBRANCH  69  94
ENDBRANCH  43  44
ENDBRANCH  36  38
ENDBRANCH  35  36
ENDBRANCH  34  35
ENDBRANCH  33  34
ENDBRANCH  32  33
ENDBRANCH   1  32
TORSDOF 22
ENDMDL
