MODEL 1
REMARK VINA RESULT:     -12.5      0.000      0.000
REMARK SMILES Cc1cc(C(=O)N[C@H]2C=C[C@H](C(=O)OCCOCCOC(=O)c3ccc(-c4c5nc(c(-c6c(F)cc(S(=O)(=O)[O-])cc6F)c6ccc([nH]6)c(-c6c(F)cc(S(=O)(=O)[O-])cc6F)c6nc(c(-c7c(F)cc(S(=O)(=O)[O-])cc7F)c7ccc4[nH]7)C=C6)C=C5)cc3)C2)ccc1F
REMARK SMILES IDX 18 1 17 2 16 3 15 4 14 5 12 6 13 7 11 8 8 9 9 10 89 11 10 12
REMARK SMILES IDX 7 13 5 14 6 15 4 17 1 18 2 19 3 20 92 21 91 22 93 23 90 24
REMARK SMILES IDX 19 25 20 26 21 27 22 28 23 29 24 30 88 31 25 32 87 33 26 34
REMARK SMILES IDX 27 35 28 36 81 37 29 38 86 39 80 40 82 41 30 42 85 43 79 44
REMARK SMILES IDX 78 45 31 47 65 48 44 49 64 50 45 51 48 52 63 53 83 54 46 55
REMARK SMILES IDX 47 56 62 58 84 59 49 60 32 61 33 62 42 63 34 64 35 65 41 66
REMARK SMILES IDX 43 67 36 68 37 69 38 70 39 71 40 72 66 73 67 74 76 75 68 76
REMARK SMILES IDX 69 77 75 78 77 79 70 80 71 81 72 82 73 83 74 84 50 85 51 86
REMARK SMILES IDX 60 87 52 88 53 89 59 90 61 91 54 92 55 93 56 94 57 95 58 96
REMARK H PARENT 7 16 82 46 48 57
REMARK Flexibility Score: inf
ROOT
ATOM      1  C   UNL A   1      33.895  31.369  27.778  1.00  0.00     0.202 C 
ENDROOT
BRANCH   1   2
ATOM      2  O   UNL A   1      33.878  30.227  26.901  1.00  0.00    -0.374 OA
BRANCH   2   3
ATOM      3  C   UNL A   1      32.774  30.261  25.983  1.00  0.00     0.202 C 
BRANCH   3   4
ATOM      4  C   UNL A   1      31.800  29.092  26.212  1.00  0.00     0.261 C 
BRANCH   4   5
ATOM      5  O   UNL A   1      32.371  27.852  25.766  1.00  0.00    -0.463 OA
BRANCH   5   6
ATOM      6  C   UNL A   1      31.798  27.370  24.633  1.00  0.00     0.312 C 
ATOM      7  O   UNL A   1      32.310  27.438  23.519  1.00  0.00    -0.252 OA
BRANCH   6   8
ATOM      8  C   UNL A   1      30.487  26.635  24.934  1.00  0.00     0.124 C 
ATOM      9  C   UNL A   1      31.185  24.362  24.610  1.00  0.00     0.106 C 
ATOM     10  C   UNL A   1      30.182  24.749  23.562  1.00  0.00    -0.006 C 
ATOM     11  C   UNL A   1      30.815  25.355  25.718  1.00  0.00     0.048 C 
ATOM     12  C   UNL A   1      29.841  26.039  23.713  1.00  0.00    -0.014 C 
BRANCH   9  13
ATOM     13  N   UNL A   1      31.101  22.980  24.973  1.00  0.00    -0.346 N 
ATOM     14  C   UNL A   1      32.095  22.039  25.120  1.00  0.00     0.251 C 
ATOM     15  O   UNL A   1      31.731  20.869  25.267  1.00  0.00    -0.269 OA
ATOM     16  H   UNL A   1      30.190  22.649  25.145  1.00  0.00     0.164 HD
BRANCH  14  17
ATOM     17  C   UNL A   1      33.568  22.342  25.175  1.00  0.00     0.040 A 
ATOM     18  C   UNL A   1      36.714  22.794  23.051  1.00  0.00     0.047 C 
ATOM     19  C   UNL A   1      35.813  22.701  24.248  1.00  0.00    -0.015 A 
ATOM     20  C   UNL A   1      34.475  22.284  24.108  1.00  0.00     0.020 A 
ATOM     21  C   UNL A   1      36.260  23.117  25.498  1.00  0.00     0.126 A 
ATOM     22  C   UNL A   1      35.406  23.120  26.592  1.00  0.00     0.040 A 
ATOM     23  F   UNL A   1      37.528  23.519  25.661  1.00  0.00    -0.207 F 
ATOM     24  C   UNL A   1      34.070  22.743  26.428  1.00  0.00     0.017 A 
ENDBRANCH  14  17
ENDBRANCH   9  13
ENDBRANCH   6   8
ENDBRANCH   5   6
ENDBRANCH   4   5
ENDBRANCH   3   4
ENDBRANCH   2   3
ENDBRANCH   1   2
BRANCH   1  25
ATOM     25  C   UNL A   1      35.301  31.949  27.966  1.00  0.00     0.261 C 
BRANCH  25  26
ATOM     26  O   UNL A   1      35.956  31.531  29.168  1.00  0.00    -0.460 OA
BRANCH  26  27
ATOM     27  C   UNL A   1      37.244  31.198  29.012  1.00  0.00     0.338 C 
ATOM     28  O   UNL A   1      38.220  31.949  29.065  1.00  0.00    -0.246 OA
BRANCH  27  29
ATOM     29  C   UNL A   1      37.399  29.806  28.571  1.00  0.00     0.060 A 
ATOM     30  C   UNL A   1      37.434  28.890  29.636  1.00  0.00     0.016 A 
ATOM     31  C   UNL A   1      38.226  29.675  27.456  1.00  0.00     0.016 A 
ATOM     32  C   UNL A   1      38.575  28.131  29.796  1.00  0.00     0.010 A 
ATOM     33  C   UNL A   1      39.369  28.936  27.625  1.00  0.00     0.010 A 
ATOM     34  C   UNL A   1      39.577  28.263  28.837  1.00  0.00    -0.014 A 
BRANCH  34  35
ATOM     35  C   UNL A   1      40.914  27.754  29.036  1.00  0.00     0.031 A 
ATOM     36  C   UNL A   1      41.210  26.390  28.583  1.00  0.00     0.074 A 
ATOM     37  C   UNL A   1      41.870  28.539  29.577  1.00  0.00     0.049 A 
ATOM     38  N   UNL A   1      42.138  25.647  29.078  1.00  0.00    -0.248 NA
ATOM     39  C   UNL A   1      40.411  25.731  27.555  1.00  0.00     0.031 C 
ATOM     40  C   UNL A   1      43.303  28.291  29.538  1.00  0.00     0.029 A 
ATOM     41  N   UNL A   1      41.729  29.630  30.444  1.00  0.00    -0.354 N 
ATOM     42  C   UNL A   1      42.244  24.545  28.266  1.00  0.00     0.074 A 
ATOM     43  C   UNL A   1      41.102  24.602  27.381  1.00  0.00     0.031 C 
ATOM     44  C   UNL A   1      43.882  28.980  30.531  1.00  0.00     0.029 A 
ATOM     45  C   UNL A   1      42.821  29.581  31.325  1.00  0.00     0.049 A 
ATOM     46  H   UNL A   1      41.005  30.298  30.438  1.00  0.00     0.167 HD
ATOM     47  C   UNL A   1      43.367  23.777  28.318  1.00  0.00     0.037 A 
ATOM     48  C   UNL A   1      42.738  29.513  32.683  1.00  0.00     0.037 A 
ATOM     49  C   UNL A   1      44.308  24.278  29.313  1.00  0.00     0.049 A 
ATOM     50  C   UNL A   1      43.432  28.300  33.257  1.00  0.00     0.074 A 
ATOM     51  C   UNL A   1      45.362  25.172  29.216  1.00  0.00     0.029 A 
ATOM     52  N   UNL A   1      44.022  24.150  30.667  1.00  0.00    -0.354 N 
ATOM     53  N   UNL A   1      43.777  27.266  32.539  1.00  0.00    -0.248 NA
ATOM     54  C   UNL A   1      43.760  28.124  34.670  1.00  0.00     0.031 C 
ATOM     55  C   UNL A   1      45.672  25.630  30.519  1.00  0.00     0.029 A 
ATOM     56  C   UNL A   1      44.817  25.004  31.410  1.00  0.00     0.049 A 
ATOM     57  H   UNL A   1      43.349  23.538  31.043  1.00  0.00     0.167 HD
ATOM     58  C   UNL A   1      44.312  26.297  33.346  1.00  0.00     0.074 A 
ATOM     59  C   UNL A   1      44.305  26.893  34.670  1.00  0.00     0.031 C 
ATOM     60  C   UNL A   1      44.692  25.079  32.858  1.00  0.00     0.037 A 
BRANCH  47  61
ATOM     61  C   UNL A   1      43.711  22.799  27.227  1.00  0.00     0.058 A 
ATOM     62  C   UNL A   1      42.957  21.621  27.048  1.00  0.00     0.135 A 
ATOM     63  C   UNL A   1      44.814  22.946  26.363  1.00  0.00     0.135 A 
ATOM     64  F   UNL A   1      41.851  21.381  27.763  1.00  0.00    -0.206 F 
ATOM     65  C   UNL A   1      43.323  20.623  26.148  1.00  0.00     0.059 A 
ATOM     66  C   UNL A   1      45.231  21.936  25.491  1.00  0.00     0.059 A 
ATOM     67  F   UNL A   1      45.518  24.089  26.334  1.00  0.00    -0.206 F 
ATOM     68  C   UNL A   1      44.479  20.772  25.395  1.00  0.00     0.060 A 
BRANCH  68  69
ATOM     69  S   UNL A   1      44.979  19.424  24.308  1.00  0.00     0.124 S 
ATOM     70  O   UNL A   1      44.451  19.853  23.017  1.00  0.00    -0.237 OA
ATOM     71  O   UNL A   1      46.430  19.452  24.444  1.00  0.00    -0.237 OA
ATOM     72  O   UNL A   1      44.315  18.258  24.888  1.00  0.00    -0.744 OA
ENDBRANCH  68  69
ENDBRANCH  47  61
BRANCH  48  73
ATOM     73  C   UNL A   1      41.606  30.242  33.304  1.00  0.00     0.058 A 
ATOM     74  C   UNL A   1      41.741  31.629  33.474  1.00  0.00     0.135 A 
ATOM     75  C   UNL A   1      40.309  29.706  33.339  1.00  0.00     0.135 A 
ATOM     76  F   UNL A   1      42.961  32.189  33.479  1.00  0.00    -0.206 F 
ATOM     77  C   UNL A   1      40.632  32.468  33.534  1.00  0.00     0.059 A 
ATOM     78  C   UNL A   1      39.181  30.530  33.379  1.00  0.00     0.059 A 
ATOM     79  F   UNL A   1      40.125  28.387  33.167  1.00  0.00    -0.206 F 
ATOM     80  C   UNL A   1      39.357  31.914  33.421  1.00  0.00     0.060 A 
BRANCH  80  81
ATOM     81  S   UNL A   1      37.964  33.054  33.218  1.00  0.00     0.124 S 
ATOM     82  O   UNL A   1      37.072  32.293  32.349  1.00  0.00    -0.237 OA
ATOM     83  O   UNL A   1      37.497  33.212  34.594  1.00  0.00    -0.237 OA
ATOM     84  O   UNL A   1      38.558  34.236  32.599  1.00  0.00    -0.744 OA
ENDBRANCH  80  81
ENDBRANCH  48  73
BRANCH  60  85
ATOM     85  C   UNL A   1      45.063  23.876  33.689  1.00  0.00     0.058 A 
ATOM     86  C   UNL A   1      44.140  22.903  34.106  1.00  0.00     0.135 A 
ATOM     87  C   UNL A   1      46.421  23.591  33.971  1.00  0.00     0.135 A 
ATOM     88  F   UNL A   1      42.839  22.998  33.795  1.00  0.00    -0.206 F 
ATOM     89  C   UNL A   1      44.523  21.766  34.818  1.00  0.00     0.059 A 
ATOM     90  C   UNL A   1      46.831  22.435  34.630  1.00  0.00     0.059 A 
ATOM     91  F   UNL A   1      47.403  24.427  33.597  1.00  0.00    -0.206 F 
ATOM     92  C   UNL A   1      45.871  21.539  35.078  1.00  0.00     0.060 A 
BRANCH  92  93
ATOM     93  S   UNL A   1      46.378  20.047  35.950  1.00  0.00     0.124 S 
ATOM     94  O   UNL A   1      47.821  20.243  36.042  1.00  0.00    -0.237 OA
ATOM     95  O   UNL A   1      45.648  20.143  37.210  1.00  0.00    -0.237 OA
ATOM     96  O   UNL A   1      45.939  18.977  35.060  1.00  0.00    -0.744 OA
ENDBRANCH  92  93
ENDBRANCH  60  85
ENDBRANCH  34  35
ENDBRANCH  27  29
ENDBRANCH  26  27
ENDBRANCH  25  26
ENDBRANCH   1  25
TORSDOF 19
ENDMDL
MODEL 2
REMARK VINA RESULT:     -11.5      1.739      2.242
REMARK SMILES Cc1cc(C(=O)N[C@H]2C=C[C@H](C(=O)OCCOCCOC(=O)c3ccc(-c4c5nc(c(-c6c(F)cc(S(=O)(=O)[O-])cc6F)c6ccc([nH]6)c(-c6c(F)cc(S(=O)(=O)[O-])cc6F)c6nc(c(-c7c(F)cc(S(=O)(=O)[O-])cc7F)c7ccc4[nH]7)C=C6)C=C5)cc3)C2)ccc1F
REMARK SMILES IDX 18 1 17 2 16 3 15 4 14 5 12 6 13 7 11 8 8 9 9 10 89 11 10 12
REMARK SMILES IDX 7 13 5 14 6 15 4 17 1 18 2 19 3 20 92 21 91 22 93 23 90 24
REMARK SMILES IDX 19 25 20 26 21 27 22 28 23 29 24 30 88 31 25 32 87 33 26 34
REMARK SMILES IDX 27 35 28 36 81 37 29 38 86 39 80 40 82 41 30 42 85 43 79 44
REMARK SMILES IDX 78 45 31 47 65 48 44 49 64 50 45 51 48 52 63 53 83 54 46 55
REMARK SMILES IDX 47 56 62 58 84 59 49 60 32 61 33 62 42 63 34 64 35 65 41 66
REMARK SMILES IDX 43 67 36 68 37 69 38 70 39 71 40 72 66 73 67 74 76 75 68 76
REMARK SMILES IDX 69 77 75 78 77 79 70 80 71 81 72 82 73 83 74 84 50 85 51 86
REMARK SMILES IDX 60 87 52 88 53 89 59 90 61 91 54 92 55 93 56 94 57 95 58 96
REMARK H PARENT 7 16 82 46 48 57
REMARK Flexibility Score: inf
ROOT
ATOM      1  C   UNL A   1      33.617  32.425  27.574  1.00  0.00     0.202 C 
ENDROOT
BRANCH   1   2
ATOM      2  O   UNL A   1      32.917  31.194  27.833  1.00  0.00    -0.374 OA
BRANCH   2   3
ATOM      3  C   UNL A   1      33.133  30.217  26.803  1.00  0.00     0.202 C 
BRANCH   3   4
ATOM      4  C   UNL A   1      32.154  29.036  26.916  1.00  0.00     0.261 C 
BRANCH   4   5
ATOM      5  O   UNL A   1      32.332  28.114  25.829  1.00  0.00    -0.463 OA
BRANCH   5   6
ATOM      6  C   UNL A   1      31.499  27.042  25.889  1.00  0.00     0.312 C 
ATOM      7  O   UNL A   1      31.412  26.292  26.857  1.00  0.00    -0.252 OA
BRANCH   6   8
ATOM      8  C   UNL A   1      30.608  26.952  24.646  1.00  0.00     0.124 C 
ATOM      9  C   UNL A   1      32.100  25.844  23.128  1.00  0.00     0.106 C 
ATOM     10  C   UNL A   1      31.821  27.240  22.651  1.00  0.00    -0.006 C 
ATOM     11  C   UNL A   1      30.846  25.592  23.972  1.00  0.00     0.048 C 
ATOM     12  C   UNL A   1      31.034  27.874  23.536  1.00  0.00    -0.014 C 
BRANCH   9  13
ATOM     13  N   UNL A   1      32.309  24.923  22.051  1.00  0.00    -0.346 N 
ATOM     14  C   UNL A   1      33.165  23.850  21.955  1.00  0.00     0.251 C 
ATOM     15  O   UNL A   1      33.274  23.328  20.842  1.00  0.00    -0.269 OA
ATOM     16  H   UNL A   1      31.753  25.082  21.254  1.00  0.00     0.164 HD
BRANCH  14  17
ATOM     17  C   UNL A   1      33.918  23.242  23.108  1.00  0.00     0.040 A 
ATOM     18  C   UNL A   1      36.929  23.694  25.419  1.00  0.00     0.047 C 
ATOM     19  C   UNL A   1      35.706  23.099  24.784  1.00  0.00    -0.015 A 
ATOM     20  C   UNL A   1      35.147  23.674  23.627  1.00  0.00     0.020 A 
ATOM     21  C   UNL A   1      35.052  22.028  25.386  1.00  0.00     0.126 A 
ATOM     22  C   UNL A   1      33.870  21.530  24.856  1.00  0.00     0.040 A 
ATOM     23  F   UNL A   1      35.561  21.461  26.488  1.00  0.00    -0.207 F 
ATOM     24  C   UNL A   1      33.305  22.138  23.732  1.00  0.00     0.017 A 
ENDBRANCH  14  17
ENDBRANCH   9  13
ENDBRANCH   6   8
ENDBRANCH   5   6
ENDBRANCH   4   5
ENDBRANCH   3   4
ENDBRANCH   2   3
ENDBRANCH   1   2
BRANCH   1  25
ATOM     25  C   UNL A   1      34.248  33.025  28.836  1.00  0.00     0.261 C 
BRANCH  25  26
ATOM     26  O   UNL A   1      35.651  32.778  28.969  1.00  0.00    -0.460 OA
BRANCH  26  27
ATOM     27  C   UNL A   1      35.978  31.959  29.977  1.00  0.00     0.338 C 
ATOM     28  O   UNL A   1      36.142  32.262  31.160  1.00  0.00    -0.246 OA
BRANCH  27  29
ATOM     29  C   UNL A   1      36.321  30.613  29.499  1.00  0.00     0.060 A 
ATOM     30  C   UNL A   1      36.494  29.685  30.539  1.00  0.00     0.016 A 
ATOM     31  C   UNL A   1      37.146  30.626  28.375  1.00  0.00     0.016 A 
ATOM     32  C   UNL A   1      37.731  29.088  30.671  1.00  0.00     0.010 A 
ATOM     33  C   UNL A   1      38.382  30.049  28.516  1.00  0.00     0.010 A 
ATOM     34  C   UNL A   1      38.694  29.382  29.709  1.00  0.00    -0.014 A 
BRANCH  34  35
ATOM     35  C   UNL A   1      40.091  29.059  29.885  1.00  0.00     0.031 A 
ATOM     36  C   UNL A   1      40.599  27.825  29.274  1.00  0.00     0.074 A 
ATOM     37  C   UNL A   1      40.908  29.903  30.550  1.00  0.00     0.049 A 
ATOM     38  N   UNL A   1      41.623  27.173  29.702  1.00  0.00    -0.248 NA
ATOM     39  C   UNL A   1      39.923  27.192  28.147  1.00  0.00     0.031 C 
ATOM     40  C   UNL A   1      42.363  29.881  30.526  1.00  0.00     0.029 A 
ATOM     41  N   UNL A   1      40.590  30.839  31.543  1.00  0.00    -0.354 N 
ATOM     42  C   UNL A   1      41.908  26.214  28.761  1.00  0.00     0.074 A 
ATOM     43  C   UNL A   1      40.782  26.212  27.854  1.00  0.00     0.031 C 
ATOM     44  C   UNL A   1      42.816  30.516  31.616  1.00  0.00     0.029 A 
ATOM     45  C   UNL A   1      41.666  30.842  32.445  1.00  0.00     0.049 A 
ATOM     46  H   UNL A   1      39.773  31.386  31.598  1.00  0.00     0.167 HD
ATOM     47  C   UNL A   1      43.135  25.624  28.752  1.00  0.00     0.037 A 
ATOM     48  C   UNL A   1      41.578  30.588  33.781  1.00  0.00     0.037 A 
ATOM     49  C   UNL A   1      43.975  26.128  29.832  1.00  0.00     0.049 A 
ATOM     50  C   UNL A   1      42.443  29.430  34.220  1.00  0.00     0.074 A 
ATOM     51  C   UNL A   1      44.881  27.177  29.882  1.00  0.00     0.029 A 
ATOM     52  N   UNL A   1      43.696  25.786  31.149  1.00  0.00    -0.354 N 
ATOM     53  N   UNL A   1      42.951  28.561  33.389  1.00  0.00    -0.248 NA
ATOM     54  C   UNL A   1      42.776  29.125  35.609  1.00  0.00     0.031 C 
ATOM     55  C   UNL A   1      45.100  27.504  31.241  1.00  0.00     0.029 A 
ATOM     56  C   UNL A   1      44.341  26.646  32.019  1.00  0.00     0.049 A 
ATOM     57  H   UNL A   1      43.120  25.036  31.424  1.00  0.00     0.167 HD
ATOM     58  C   UNL A   1      43.619  27.588  34.085  1.00  0.00     0.074 A 
ATOM     59  C   UNL A   1      43.504  28.001  35.472  1.00  0.00     0.031 C 
ATOM     60  C   UNL A   1      44.187  26.514  33.460  1.00  0.00     0.037 A 
BRANCH  47  61
ATOM     61  C   UNL A   1      43.638  24.858  27.559  1.00  0.00     0.058 A 
ATOM     62  C   UNL A   1      43.583  23.450  27.528  1.00  0.00     0.135 A 
ATOM     63  C   UNL A   1      44.241  25.462  26.438  1.00  0.00     0.135 A 
ATOM     64  F   UNL A   1      42.987  22.749  28.502  1.00  0.00    -0.206 F 
ATOM     65  C   UNL A   1      44.165  22.695  26.511  1.00  0.00     0.059 A 
ATOM     66  C   UNL A   1      44.878  24.728  25.434  1.00  0.00     0.059 A 
ATOM     67  F   UNL A   1      44.220  26.796  26.281  1.00  0.00    -0.206 F 
ATOM     68  C   UNL A   1      44.838  23.340  25.483  1.00  0.00     0.060 A 
BRANCH  68  69
ATOM     69  S   UNL A   1      45.661  22.337  24.232  1.00  0.00     0.124 S 
ATOM     70  O   UNL A   1      46.476  23.323  23.530  1.00  0.00    -0.237 OA
ATOM     71  O   UNL A   1      46.391  21.375  25.050  1.00  0.00    -0.237 OA
ATOM     72  O   UNL A   1      44.553  21.788  23.454  1.00  0.00    -0.744 OA
ENDBRANCH  68  69
ENDBRANCH  47  61
BRANCH  48  73
ATOM     73  C   UNL A   1      40.340  31.052  34.452  1.00  0.00     0.058 A 
ATOM     74  C   UNL A   1      40.337  32.350  34.985  1.00  0.00     0.135 A 
ATOM     75  C   UNL A   1      39.097  30.443  34.218  1.00  0.00     0.135 A 
ATOM     76  F   UNL A   1      41.498  32.967  35.257  1.00  0.00    -0.206 F 
ATOM     77  C   UNL A   1      39.157  33.069  35.148  1.00  0.00     0.059 A 
ATOM     78  C   UNL A   1      37.900  31.152  34.355  1.00  0.00     0.059 A 
ATOM     79  F   UNL A   1      39.045  29.207  33.694  1.00  0.00    -0.206 F 
ATOM     80  C   UNL A   1      37.948  32.484  34.769  1.00  0.00     0.060 A 
BRANCH  80  81
ATOM     81  S   UNL A   1      36.481  33.544  34.728  1.00  0.00     0.124 S 
ATOM     82  O   UNL A   1      36.207  33.740  36.148  1.00  0.00    -0.237 OA
ATOM     83  O   UNL A   1      36.978  34.727  34.028  1.00  0.00    -0.237 OA
ATOM     84  O   UNL A   1      35.484  32.747  34.019  1.00  0.00    -0.744 OA
ENDBRANCH  80  81
ENDBRANCH  48  73
BRANCH  60  85
ATOM     85  C   UNL A   1      44.729  25.284  34.145  1.00  0.00     0.058 A 
ATOM     86  C   UNL A   1      43.917  24.270  34.679  1.00  0.00     0.135 A 
ATOM     87  C   UNL A   1      46.120  25.020  34.151  1.00  0.00     0.135 A 
ATOM     88  F   UNL A   1      42.579  24.347  34.624  1.00  0.00    -0.206 F 
ATOM     89  C   UNL A   1      44.446  23.111  35.249  1.00  0.00     0.059 A 
ATOM     90  C   UNL A   1      46.666  23.846  34.662  1.00  0.00     0.059 A 
ATOM     91  F   UNL A   1      46.999  25.898  33.641  1.00  0.00    -0.206 F 
ATOM     92  C   UNL A   1      45.822  22.907  35.238  1.00  0.00     0.060 A 
BRANCH  92  93
ATOM     93  S   UNL A   1      46.510  21.390  35.923  1.00  0.00     0.124 S 
ATOM     94  O   UNL A   1      45.325  20.540  35.989  1.00  0.00    -0.237 OA
ATOM     95  O   UNL A   1      47.505  21.005  34.927  1.00  0.00    -0.237 OA
ATOM     96  O   UNL A   1      47.053  21.822  37.206  1.00  0.00    -0.744 OA
ENDBRANCH  92  93
ENDBRANCH  60  85
ENDBRANCH  34  35
ENDBRANCH  27  29
ENDBRANCH  26  27
ENDBRANCH  25  26
ENDBRANCH   1  25
TORSDOF 19
ENDMDL
MODEL 3
REMARK VINA RESULT:     -11.4      4.936     11.416
REMARK SMILES Cc1cc(C(=O)N[C@H]2C=C[C@H](C(=O)OCCOCCOC(=O)c3ccc(-c4c5nc(c(-c6c(F)cc(S(=O)(=O)[O-])cc6F)c6ccc([nH]6)c(-c6c(F)cc(S(=O)(=O)[O-])cc6F)c6nc(c(-c7c(F)cc(S(=O)(=O)[O-])cc7F)c7ccc4[nH]7)C=C6)C=C5)cc3)C2)ccc1F
REMARK SMILES IDX 18 1 17 2 16 3 15 4 14 5 12 6 13 7 11 8 8 9 9 10 89 11 10 12
REMARK SMILES IDX 7 13 5 14 6 15 4 17 1 18 2 19 3 20 92 21 91 22 93 23 90 24
REMARK SMILES IDX 19 25 20 26 21 27 22 28 23 29 24 30 88 31 25 32 87 33 26 34
REMARK SMILES IDX 27 35 28 36 81 37 29 38 86 39 80 40 82 41 30 42 85 43 79 44
REMARK SMILES IDX 78 45 31 47 65 48 44 49 64 50 45 51 48 52 63 53 83 54 46 55
REMARK SMILES IDX 47 56 62 58 84 59 49 60 32 61 33 62 42 63 34 64 35 65 41 66
REMARK SMILES IDX 43 67 36 68 37 69 38 70 39 71 40 72 66 73 67 74 76 75 68 76
REMARK SMILES IDX 69 77 75 78 77 79 70 80 71 81 72 82 73 83 74 84 50 85 51 86
REMARK SMILES IDX 60 87 52 88 53 89 59 90 61 91 54 92 55 93 56 94 57 95 58 96
REMARK H PARENT 7 16 82 46 48 57
REMARK Flexibility Score: inf
ROOT
ATOM      1  C   UNL A   1      39.148  22.614  25.847  1.00  0.00     0.202 C 
ENDROOT
BRANCH   1   2
ATOM      2  O   UNL A   1      38.001  21.748  25.764  1.00  0.00    -0.374 OA
BRANCH   2   3
ATOM      3  C   UNL A   1      36.781  22.424  26.105  1.00  0.00     0.202 C 
BRANCH   3   4
ATOM      4  C   UNL A   1      35.602  21.956  25.236  1.00  0.00     0.261 C 
BRANCH   4   5
ATOM      5  O   UNL A   1      35.649  22.560  23.933  1.00  0.00    -0.463 OA
BRANCH   5   6
ATOM      6  C   UNL A   1      34.653  23.458  23.718  1.00  0.00     0.312 C 
ATOM      7  O   UNL A   1      34.699  24.635  24.067  1.00  0.00    -0.252 OA
BRANCH   6   8
ATOM      8  C   UNL A   1      33.516  22.848  22.892  1.00  0.00     0.124 C 
ATOM      9  C   UNL A   1      31.643  24.054  23.786  1.00  0.00     0.106 C 
ATOM     10  C   UNL A   1      31.537  22.600  24.140  1.00  0.00    -0.006 C 
ATOM     11  C   UNL A   1      32.522  23.964  22.533  1.00  0.00     0.048 C 
ATOM     12  C   UNL A   1      32.617  21.941  23.689  1.00  0.00    -0.014 C 
BRANCH   9  13
ATOM     13  N   UNL A   1      30.365  24.672  23.594  1.00  0.00    -0.346 N 
ATOM     14  C   UNL A   1      29.909  25.907  23.994  1.00  0.00     0.251 C 
ATOM     15  O   UNL A   1      28.701  26.122  23.853  1.00  0.00    -0.269 OA
ATOM     16  H   UNL A   1      29.711  24.129  23.099  1.00  0.00     0.164 HD
BRANCH  14  17
ATOM     17  C   UNL A   1      30.776  27.018  24.523  1.00  0.00     0.040 A 
ATOM     18  C   UNL A   1      33.964  27.784  26.488  1.00  0.00     0.047 C 
ATOM     19  C   UNL A   1      32.691  27.983  25.718  1.00  0.00    -0.015 A 
ATOM     20  C   UNL A   1      31.880  26.884  25.377  1.00  0.00     0.020 A 
ATOM     21  C   UNL A   1      32.343  29.246  25.250  1.00  0.00     0.126 A 
ATOM     22  C   UNL A   1      31.216  29.425  24.460  1.00  0.00     0.040 A 
ATOM     23  F   UNL A   1      33.096  30.310  25.559  1.00  0.00    -0.207 F 
ATOM     24  C   UNL A   1      30.444  28.318  24.094  1.00  0.00     0.017 A 
ENDBRANCH  14  17
ENDBRANCH   9  13
ENDBRANCH   6   8
ENDBRANCH   5   6
ENDBRANCH   4   5
ENDBRANCH   3   4
ENDBRANCH   2   3
ENDBRANCH   1   2
BRANCH   1  25
ATOM     25  C   UNL A   1      40.108  22.219  26.975  1.00  0.00     0.261 C 
BRANCH  25  26
ATOM     26  O   UNL A   1      40.259  23.211  27.996  1.00  0.00    -0.460 OA
BRANCH  26  27
ATOM     27  C   UNL A   1      40.758  24.378  27.568  1.00  0.00     0.338 C 
ATOM     28  O   UNL A   1      41.946  24.680  27.442  1.00  0.00    -0.246 OA
BRANCH  27  29
ATOM     29  C   UNL A   1      39.711  25.397  27.416  1.00  0.00     0.060 A 
ATOM     30  C   UNL A   1      40.087  26.453  26.569  1.00  0.00     0.016 A 
ATOM     31  C   UNL A   1      38.982  25.610  28.585  1.00  0.00     0.016 A 
ATOM     32  C   UNL A   1      40.133  27.724  27.106  1.00  0.00     0.010 A 
ATOM     33  C   UNL A   1      39.047  26.869  29.126  1.00  0.00     0.010 A 
ATOM     34  C   UNL A   1      39.718  27.881  28.426  1.00  0.00    -0.014 A 
BRANCH  34  35
ATOM     35  C   UNL A   1      39.984  29.081  29.185  1.00  0.00     0.031 A 
ATOM     36  C   UNL A   1      38.963  30.135  29.194  1.00  0.00     0.074 A 
ATOM     37  C   UNL A   1      41.121  29.196  29.904  1.00  0.00     0.049 A 
ATOM     38  N   UNL A   1      39.209  31.382  29.399  1.00  0.00    -0.248 NA
ATOM     39  C   UNL A   1      37.563  29.850  28.900  1.00  0.00     0.031 C 
ATOM     40  C   UNL A   1      41.374  30.173  30.953  1.00  0.00     0.029 A 
ATOM     41  N   UNL A   1      42.360  28.574  29.701  1.00  0.00    -0.354 N 
ATOM     42  C   UNL A   1      37.997  32.012  29.542  1.00  0.00     0.074 A 
ATOM     43  C   UNL A   1      37.004  31.037  29.147  1.00  0.00     0.031 C 
ATOM     44  C   UNL A   1      42.699  30.299  31.105  1.00  0.00     0.029 A 
ATOM     45  C   UNL A   1      43.339  29.512  30.062  1.00  0.00     0.049 A 
ATOM     46  H   UNL A   1      42.513  27.660  29.369  1.00  0.00     0.167 HD
ATOM     47  C   UNL A   1      37.943  33.240  30.126  1.00  0.00     0.037 A 
ATOM     48  C   UNL A   1      44.336  29.966  29.251  1.00  0.00     0.037 A 
ATOM     49  C   UNL A   1      39.272  33.713  30.494  1.00  0.00     0.049 A 
ATOM     50  C   UNL A   1      44.315  31.467  29.074  1.00  0.00     0.074 A 
ATOM     51  C   UNL A   1      40.001  33.589  31.667  1.00  0.00     0.029 A 
ATOM     52  N   UNL A   1      40.172  34.098  29.509  1.00  0.00    -0.354 N 
ATOM     53  N   UNL A   1      43.284  32.209  29.374  1.00  0.00    -0.248 NA
ATOM     54  C   UNL A   1      45.414  32.250  28.516  1.00  0.00     0.031 C 
ATOM     55  C   UNL A   1      41.361  33.844  31.367  1.00  0.00     0.029 A 
ATOM     56  C   UNL A   1      41.457  34.138  30.018  1.00  0.00     0.049 A 
ATOM     57  H   UNL A   1      39.928  34.312  28.579  1.00  0.00     0.167 HD
ATOM     58  C   UNL A   1      43.534  33.511  29.032  1.00  0.00     0.074 A 
ATOM     59  C   UNL A   1      44.893  33.491  28.523  1.00  0.00     0.031 C 
ATOM     60  C   UNL A   1      42.590  34.489  29.174  1.00  0.00     0.037 A 
BRANCH  47  61
ATOM     61  C   UNL A   1      36.652  33.816  30.643  1.00  0.00     0.058 A 
ATOM     62  C   UNL A   1      35.631  34.212  29.756  1.00  0.00     0.135 A 
ATOM     63  C   UNL A   1      36.392  34.054  32.007  1.00  0.00     0.135 A 
ATOM     64  F   UNL A   1      35.722  33.993  28.438  1.00  0.00    -0.206 F 
ATOM     65  C   UNL A   1      34.482  34.878  30.179  1.00  0.00     0.059 A 
ATOM     66  C   UNL A   1      35.275  34.767  32.450  1.00  0.00     0.059 A 
ATOM     67  F   UNL A   1      37.219  33.588  32.957  1.00  0.00    -0.206 F 
ATOM     68  C   UNL A   1      34.325  35.181  31.524  1.00  0.00     0.060 A 
BRANCH  68  69
ATOM     69  S   UNL A   1      32.876  36.126  32.030  1.00  0.00     0.124 S 
ATOM     70  O   UNL A   1      32.531  36.843  30.807  1.00  0.00    -0.237 OA
ATOM     71  O   UNL A   1      31.954  35.070  32.431  1.00  0.00    -0.237 OA
ATOM     72  O   UNL A   1      33.381  36.965  33.114  1.00  0.00    -0.744 OA
ENDBRANCH  68  69
ENDBRANCH  47  61
BRANCH  48  73
ATOM     73  C   UNL A   1      44.891  28.984  28.289  1.00  0.00     0.058 A 
ATOM     74  C   UNL A   1      44.310  28.926  27.012  1.00  0.00     0.135 A 
ATOM     75  C   UNL A   1      46.174  28.438  28.445  1.00  0.00     0.135 A 
ATOM     76  F   UNL A   1      43.072  29.406  26.815  1.00  0.00    -0.206 F 
ATOM     77  C   UNL A   1      45.023  28.474  25.907  1.00  0.00     0.059 A 
ATOM     78  C   UNL A   1      46.917  27.996  27.346  1.00  0.00     0.059 A 
ATOM     79  F   UNL A   1      46.780  28.482  29.642  1.00  0.00    -0.206 F 
ATOM     80  C   UNL A   1      46.349  28.072  26.073  1.00  0.00     0.060 A 
BRANCH  80  81
ATOM     81  S   UNL A   1      47.325  27.764  24.579  1.00  0.00     0.124 S 
ATOM     82  O   UNL A   1      48.683  28.032  25.042  1.00  0.00    -0.237 OA
ATOM     83  O   UNL A   1      47.033  26.358  24.308  1.00  0.00    -0.237 OA
ATOM     84  O   UNL A   1      46.808  28.728  23.610  1.00  0.00    -0.744 OA
ENDBRANCH  80  81
ENDBRANCH  48  73
BRANCH  60  85
ATOM     85  C   UNL A   1      42.680  35.887  28.613  1.00  0.00     0.058 A 
ATOM     86  C   UNL A   1      42.302  36.224  27.303  1.00  0.00     0.135 A 
ATOM     87  C   UNL A   1      43.024  36.975  29.451  1.00  0.00     0.135 A 
ATOM     88  F   UNL A   1      41.842  35.298  26.450  1.00  0.00    -0.206 F 
ATOM     89  C   UNL A   1      42.334  37.537  26.831  1.00  0.00     0.059 A 
ATOM     90  C   UNL A   1      43.008  38.298  29.018  1.00  0.00     0.059 A 
ATOM     91  F   UNL A   1      43.374  36.786  30.733  1.00  0.00    -0.206 F 
ATOM     92  C   UNL A   1      42.689  38.569  27.695  1.00  0.00     0.060 A 
BRANCH  92  93
ATOM     93  S   UNL A   1      42.682  40.272  27.109  1.00  0.00     0.124 S 
ATOM     94  O   UNL A   1      41.250  40.545  27.032  1.00  0.00    -0.237 OA
ATOM     95  O   UNL A   1      43.402  40.982  28.161  1.00  0.00    -0.237 OA
ATOM     96  O   UNL A   1      43.380  40.186  25.830  1.00  0.00    -0.744 OA
ENDBRANCH  92  93
ENDBRANCH  60  85
ENDBRANCH  34  35
ENDBRANCH  27  29
ENDBRANCH  26  27
ENDBRANCH  25  26
ENDBRANCH   1  25
TORSDOF 19
ENDMDL
