MODEL 1
REMARK VINA RESULT:     -12.0      0.000      0.000
REMARK SMILES COc1cccc(-c2c(C(=O)OCCOCCOC(=O)c3ccc(-c4c5nc(c(-c6c(F)cc(S(=O)(=O)[O-])cc6F)c6ccc([nH]6)c(-c6c(F)cc(S(=O)(=O)[O-])cc6F)c6nc(c(-c7c(F)cc(S(=O)(=O)[O-])cc7F)c7ccc4[nH]7)C=C6)C=C5)cc3)nnn2Cc2ccc(OC(F)(F)F)cc2)c1
REMARK SMILES IDX 14 1 13 2 12 3 10 4 11 5 9 6 8 7 89 8 87 9 88 10 7 11 3 12
REMARK SMILES IDX 4 13 102 14 5 15 6 16 2 17 1 18 90 19 91 20 92 21 101 22
REMARK SMILES IDX 93 23 100 24 94 25 95 26 96 27 97 28 98 29 99 30 15 31 16 32
REMARK SMILES IDX 17 33 18 34 19 35 20 36 21 37 22 38 86 39 23 40 85 41 24 42
REMARK SMILES IDX 25 43 26 44 79 45 27 46 84 47 78 48 80 49 28 50 83 51 77 52
REMARK SMILES IDX 76 53 29 55 63 56 42 57 62 58 43 59 46 60 61 61 81 62 44 63
REMARK SMILES IDX 45 64 60 66 82 67 47 68 30 69 31 70 40 71 32 72 33 73 39 74
REMARK SMILES IDX 41 75 34 76 35 77 36 78 37 79 38 80 64 81 65 82 74 83 66 84
REMARK SMILES IDX 67 85 73 86 75 87 68 88 69 89 70 90 71 91 72 92 48 93 49 94
REMARK SMILES IDX 58 95 50 96 51 97 57 98 59 99 52 100 53 101 54 102 55 103
REMARK SMILES IDX 56 104
REMARK H PARENT 80 54 46 65
REMARK Flexibility Score: inf
ROOT
ATOM      1  C   UNL A   1      39.899  21.725  26.689  1.00  0.00     0.202 C 
ENDROOT
BRANCH   1   2
ATOM      2  C   UNL A   1      38.836  21.285  25.681  1.00  0.00     0.261 C 
BRANCH   2   3
ATOM      3  O   UNL A   1      37.584  21.967  25.860  1.00  0.00    -0.458 OA
BRANCH   3   4
ATOM      4  C   UNL A   1      36.490  21.267  25.437  1.00  0.00     0.361 C 
ATOM      5  O   UNL A   1      36.528  20.111  25.031  1.00  0.00    -0.244 OA
BRANCH   4   6
ATOM      6  C   UNL A   1      35.237  21.977  25.628  1.00  0.00     0.198 A 
ATOM      7  C   UNL A   1      33.914  21.594  25.405  1.00  0.00     0.104 A 
ATOM      8  N   UNL A   1      33.215  22.651  25.965  1.00  0.00    -0.239 N 
ATOM      9  N   UNL A   1      35.265  23.274  26.086  1.00  0.00    -0.122 NA
ATOM     10  N   UNL A   1      34.025  23.705  26.185  1.00  0.00    -0.066 NA
BRANCH   7  11
ATOM     11  C   UNL A   1      33.304  20.369  24.890  1.00  0.00     0.006 A 
ATOM     12  C   UNL A   1      32.736  18.018  25.180  1.00  0.00     0.119 A 
ATOM     13  C   UNL A   1      32.317  17.964  23.853  1.00  0.00     0.046 A 
ATOM     14  C   UNL A   1      33.208  19.224  25.704  1.00  0.00     0.056 A 
ATOM     15  C   UNL A   1      32.350  19.106  23.054  1.00  0.00     0.005 A 
ATOM     16  C   UNL A   1      32.850  20.303  23.568  1.00  0.00     0.011 A 
BRANCH  12  17
ATOM     17  O   UNL A   1      32.732  16.818  25.835  1.00  0.00    -0.497 OA
ATOM     18  C   UNL A   1      33.084  15.675  25.065  1.00  0.00     0.278 C 
ENDBRANCH  12  17
ENDBRANCH   7  11
BRANCH   8  19
ATOM     19  C   UNL A   1      31.817  22.744  26.371  1.00  0.00     0.182 C 
BRANCH  19  20
ATOM     20  C   UNL A   1      31.075  23.841  25.633  1.00  0.00    -0.026 A 
ATOM     21  C   UNL A   1      30.447  24.882  26.327  1.00  0.00     0.009 A 
ATOM     22  C   UNL A   1      30.990  23.835  24.232  1.00  0.00     0.009 A 
ATOM     23  C   UNL A   1      29.769  25.891  25.632  1.00  0.00     0.047 A 
ATOM     24  C   UNL A   1      30.327  24.852  23.537  1.00  0.00     0.047 A 
ATOM     25  C   UNL A   1      29.713  25.889  24.234  1.00  0.00     0.129 A 
BRANCH  25  26
ATOM     26  O   UNL A   1      29.032  26.938  23.686  1.00  0.00    -0.406 OA
BRANCH  26  27
ATOM     27  C   UNL A   1      29.791  28.033  23.204  1.00  0.00     0.573 C 
ATOM     28  F   UNL A   1      30.842  28.297  24.010  1.00  0.00    -0.132 F 
ATOM     29  F   UNL A   1      30.230  27.812  21.946  1.00  0.00    -0.132 F 
ATOM     30  F   UNL A   1      29.001  29.131  23.180  1.00  0.00    -0.132 F 
ENDBRANCH  26  27
ENDBRANCH  25  26
ENDBRANCH  19  20
ENDBRANCH   8  19
ENDBRANCH   4   6
ENDBRANCH   3   4
ENDBRANCH   2   3
ENDBRANCH   1   2
BRANCH   1  31
ATOM     31  O   UNL A   1      40.451  20.743  27.565  1.00  0.00    -0.374 OA
BRANCH  31  32
ATOM     32  C   UNL A   1      41.802  20.319  27.410  1.00  0.00     0.202 C 
BRANCH  32  33
ATOM     33  C   UNL A   1      42.277  19.874  26.035  1.00  0.00     0.261 C 
BRANCH  33  34
ATOM     34  O   UNL A   1      43.686  19.956  25.896  1.00  0.00    -0.460 OA
BRANCH  34  35
ATOM     35  C   UNL A   1      44.086  20.517  24.729  1.00  0.00     0.338 C 
ATOM     36  O   UNL A   1      44.315  19.952  23.679  1.00  0.00    -0.246 OA
BRANCH  35  37
ATOM     37  C   UNL A   1      44.360  21.937  24.973  1.00  0.00     0.060 A 
ATOM     38  C   UNL A   1      45.321  22.221  25.945  1.00  0.00     0.016 A 
ATOM     39  C   UNL A   1      43.445  22.895  24.517  1.00  0.00     0.016 A 
ATOM     40  C   UNL A   1      45.204  23.398  26.645  1.00  0.00     0.010 A 
ATOM     41  C   UNL A   1      43.307  24.048  25.243  1.00  0.00     0.010 A 
ATOM     42  C   UNL A   1      44.130  24.239  26.347  1.00  0.00    -0.014 A 
BRANCH  42  43
ATOM     43  C   UNL A   1      43.935  25.424  27.149  1.00  0.00     0.031 A 
ATOM     44  C   UNL A   1      44.992  26.427  26.902  1.00  0.00     0.074 A 
ATOM     45  C   UNL A   1      42.826  25.606  27.892  1.00  0.00     0.049 A 
ATOM     46  N   UNL A   1      45.946  26.776  27.697  1.00  0.00    -0.248 NA
ATOM     47  C   UNL A   1      45.154  26.922  25.521  1.00  0.00     0.031 C 
ATOM     48  C   UNL A   1      41.617  24.779  27.942  1.00  0.00     0.029 A 
ATOM     49  N   UNL A   1      42.502  26.660  28.685  1.00  0.00    -0.354 N 
ATOM     50  C   UNL A   1      46.653  27.749  27.002  1.00  0.00     0.074 A 
ATOM     51  C   UNL A   1      46.298  27.598  25.619  1.00  0.00     0.031 C 
ATOM     52  C   UNL A   1      40.619  25.485  28.523  1.00  0.00     0.029 A 
ATOM     53  C   UNL A   1      41.146  26.753  28.994  1.00  0.00     0.049 A 
ATOM     54  H   UNL A   1      43.170  27.304  29.014  1.00  0.00     0.167 HD
ATOM     55  C   UNL A   1      47.206  28.805  27.658  1.00  0.00     0.037 A 
ATOM     56  C   UNL A   1      40.535  27.864  29.490  1.00  0.00     0.037 A 
ATOM     57  C   UNL A   1      47.359  28.520  29.064  1.00  0.00     0.049 A 
ATOM     58  C   UNL A   1      41.615  28.714  30.077  1.00  0.00     0.074 A 
ATOM     59  C   UNL A   1      47.982  27.511  29.777  1.00  0.00     0.029 A 
ATOM     60  N   UNL A   1      46.467  29.095  29.939  1.00  0.00    -0.354 N 
ATOM     61  N   UNL A   1      42.317  28.369  31.124  1.00  0.00    -0.248 NA
ATOM     62  C   UNL A   1      42.251  29.684  29.194  1.00  0.00     0.031 C 
ATOM     63  C   UNL A   1      47.086  27.206  30.844  1.00  0.00     0.029 A 
ATOM     64  C   UNL A   1      46.019  28.102  30.776  1.00  0.00     0.049 A 
ATOM     65  H   UNL A   1      46.199  30.041  29.960  1.00  0.00     0.167 HD
ATOM     66  C   UNL A   1      43.621  28.734  30.815  1.00  0.00     0.074 A 
ATOM     67  C   UNL A   1      43.510  29.580  29.628  1.00  0.00     0.031 C 
ATOM     68  C   UNL A   1      44.695  28.086  31.357  1.00  0.00     0.037 A 
BRANCH  55  69
ATOM     69  C   UNL A   1      47.212  30.207  27.098  1.00  0.00     0.058 A 
ATOM     70  C   UNL A   1      48.400  30.960  27.156  1.00  0.00     0.135 A 
ATOM     71  C   UNL A   1      46.047  30.937  26.758  1.00  0.00     0.135 A 
ATOM     72  F   UNL A   1      49.562  30.376  27.487  1.00  0.00    -0.206 F 
ATOM     73  C   UNL A   1      48.418  32.340  26.955  1.00  0.00     0.059 A 
ATOM     74  C   UNL A   1      46.053  32.298  26.494  1.00  0.00     0.059 A 
ATOM     75  F   UNL A   1      44.825  30.395  26.757  1.00  0.00    -0.206 F 
ATOM     76  C   UNL A   1      47.235  33.000  26.634  1.00  0.00     0.060 A 
BRANCH  76  77
ATOM     77  S   UNL A   1      47.235  34.790  26.454  1.00  0.00     0.124 S 
ATOM     78  O   UNL A   1      48.254  35.177  27.422  1.00  0.00    -0.237 OA
ATOM     79  O   UNL A   1      47.591  34.948  25.048  1.00  0.00    -0.237 OA
ATOM     80  O   UNL A   1      45.864  35.161  26.794  1.00  0.00    -0.744 OA
ENDBRANCH  76  77
ENDBRANCH  55  69
BRANCH  56  81
ATOM     81  C   UNL A   1      39.207  28.426  29.102  1.00  0.00     0.058 A 
ATOM     82  C   UNL A   1      38.167  28.541  30.045  1.00  0.00     0.135 A 
ATOM     83  C   UNL A   1      39.022  29.132  27.896  1.00  0.00     0.135 A 
ATOM     84  F   UNL A   1      38.256  27.911  31.228  1.00  0.00    -0.206 F 
ATOM     85  C   UNL A   1      37.050  29.361  29.835  1.00  0.00     0.059 A 
ATOM     86  C   UNL A   1      37.914  29.945  27.661  1.00  0.00     0.059 A 
ATOM     87  F   UNL A   1      39.961  29.138  26.940  1.00  0.00    -0.206 F 
ATOM     88  C   UNL A   1      36.947  30.083  28.648  1.00  0.00     0.060 A 
BRANCH  88  89
ATOM     89  S   UNL A   1      35.627  31.305  28.448  1.00  0.00     0.124 S 
ATOM     90  O   UNL A   1      35.255  31.579  29.831  1.00  0.00    -0.237 OA
ATOM     91  O   UNL A   1      36.311  32.385  27.745  1.00  0.00    -0.237 OA
ATOM     92  O   UNL A   1      34.624  30.592  27.661  1.00  0.00    -0.744 OA
ENDBRANCH  88  89
ENDBRANCH  56  81
BRANCH  68  93
ATOM     93  C   UNL A   1      44.471  27.141  32.511  1.00  0.00     0.058 A 
ATOM     94  C   UNL A   1      44.198  25.766  32.390  1.00  0.00     0.135 A 
ATOM     95  C   UNL A   1      44.688  27.634  33.807  1.00  0.00     0.135 A 
ATOM     96  F   UNL A   1      44.092  25.188  31.185  1.00  0.00    -0.206 F 
ATOM     97  C   UNL A   1      44.089  24.936  33.510  1.00  0.00     0.059 A 
ATOM     98  C   UNL A   1      44.620  26.821  34.933  1.00  0.00     0.059 A 
ATOM     99  F   UNL A   1      45.016  28.924  33.989  1.00  0.00    -0.206 F 
ATOM    100  C   UNL A   1      44.299  25.475  34.780  1.00  0.00     0.060 A 
BRANCH 100 101
ATOM    101  S   UNL A   1      44.188  24.405  36.230  1.00  0.00     0.124 S 
ATOM    102  O   UNL A   1      44.421  23.085  35.654  1.00  0.00    -0.237 OA
ATOM    103  O   UNL A   1      45.253  24.921  37.085  1.00  0.00    -0.237 OA
ATOM    104  O   UNL A   1      42.835  24.640  36.726  1.00  0.00    -0.744 OA
ENDBRANCH 100 101
ENDBRANCH  68  93
ENDBRANCH  42  43
ENDBRANCH  35  37
ENDBRANCH  34  35
ENDBRANCH  33  34
ENDBRANCH  32  33
ENDBRANCH  31  32
ENDBRANCH   1  31
TORSDOF 23
ENDMDL
MODEL 2
REMARK VINA RESULT:     -10.7      1.721      2.063
REMARK SMILES COc1cccc(-c2c(C(=O)OCCOCCOC(=O)c3ccc(-c4c5nc(c(-c6c(F)cc(S(=O)(=O)[O-])cc6F)c6ccc([nH]6)c(-c6c(F)cc(S(=O)(=O)[O-])cc6F)c6nc(c(-c7c(F)cc(S(=O)(=O)[O-])cc7F)c7ccc4[nH]7)C=C6)C=C5)cc3)nnn2Cc2ccc(OC(F)(F)F)cc2)c1
REMARK SMILES IDX 14 1 13 2 12 3 10 4 11 5 9 6 8 7 89 8 87 9 88 10 7 11 3 12
REMARK SMILES IDX 4 13 102 14 5 15 6 16 2 17 1 18 90 19 91 20 92 21 101 22
REMARK SMILES IDX 93 23 100 24 94 25 95 26 96 27 97 28 98 29 99 30 15 31 16 32
REMARK SMILES IDX 17 33 18 34 19 35 20 36 21 37 22 38 86 39 23 40 85 41 24 42
REMARK SMILES IDX 25 43 26 44 79 45 27 46 84 47 78 48 80 49 28 50 83 51 77 52
REMARK SMILES IDX 76 53 29 55 63 56 42 57 62 58 43 59 46 60 61 61 81 62 44 63
REMARK SMILES IDX 45 64 60 66 82 67 47 68 30 69 31 70 40 71 32 72 33 73 39 74
REMARK SMILES IDX 41 75 34 76 35 77 36 78 37 79 38 80 64 81 65 82 74 83 66 84
REMARK SMILES IDX 67 85 73 86 75 87 68 88 69 89 70 90 71 91 72 92 48 93 49 94
REMARK SMILES IDX 58 95 50 96 51 97 57 98 59 99 52 100 53 101 54 102 55 103
REMARK SMILES IDX 56 104
REMARK H PARENT 80 54 46 65
REMARK Flexibility Score: inf
ROOT
ATOM      1  C   UNL A   1      39.859  21.619  26.904  1.00  0.00     0.202 C 
ENDROOT
BRANCH   1   2
ATOM      2  C   UNL A   1      39.253  20.930  25.680  1.00  0.00     0.261 C 
BRANCH   2   3
ATOM      3  O   UNL A   1      38.304  21.757  24.988  1.00  0.00    -0.458 OA
BRANCH   3   4
ATOM      4  C   UNL A   1      37.005  21.346  25.098  1.00  0.00     0.361 C 
ATOM      5  O   UNL A   1      36.644  20.179  25.010  1.00  0.00    -0.244 OA
BRANCH   4   6
ATOM      6  C   UNL A   1      36.088  22.414  25.458  1.00  0.00     0.198 A 
ATOM      7  C   UNL A   1      34.742  22.617  25.153  1.00  0.00     0.104 A 
ATOM      8  N   UNL A   1      34.431  23.705  25.953  1.00  0.00    -0.239 N 
ATOM      9  N   UNL A   1      36.547  23.466  26.215  1.00  0.00    -0.122 NA
ATOM     10  N   UNL A   1      35.547  24.298  26.417  1.00  0.00    -0.066 NA
BRANCH   7  11
ATOM     11  C   UNL A   1      33.773  21.860  24.361  1.00  0.00     0.006 A 
ATOM     12  C   UNL A   1      32.574  19.785  23.924  1.00  0.00     0.119 A 
ATOM     13  C   UNL A   1      32.072  20.333  22.745  1.00  0.00     0.046 A 
ATOM     14  C   UNL A   1      33.405  20.555  24.741  1.00  0.00     0.056 A 
ATOM     15  C   UNL A   1      32.381  21.644  22.388  1.00  0.00     0.005 A 
ATOM     16  C   UNL A   1      33.235  22.403  23.189  1.00  0.00     0.011 A 
BRANCH  12  17
ATOM     17  O   UNL A   1      32.268  18.468  24.124  1.00  0.00    -0.497 OA
ATOM     18  C   UNL A   1      33.345  17.617  24.501  1.00  0.00     0.278 C 
ENDBRANCH  12  17
ENDBRANCH   7  11
BRANCH   8  19
ATOM     19  C   UNL A   1      33.134  24.223  26.373  1.00  0.00     0.182 C 
BRANCH  19  20
ATOM     20  C   UNL A   1      32.721  25.450  25.583  1.00  0.00    -0.026 A 
ATOM     21  C   UNL A   1      31.586  26.190  25.938  1.00  0.00     0.009 A 
ATOM     22  C   UNL A   1      33.462  25.870  24.468  1.00  0.00     0.009 A 
ATOM     23  C   UNL A   1      31.219  27.322  25.201  1.00  0.00     0.047 A 
ATOM     24  C   UNL A   1      33.105  27.012  23.743  1.00  0.00     0.047 A 
ATOM     25  C   UNL A   1      31.981  27.748  24.107  1.00  0.00     0.129 A 
BRANCH  25  26
ATOM     26  O   UNL A   1      31.517  28.874  23.489  1.00  0.00    -0.406 OA
BRANCH  26  27
ATOM     27  C   UNL A   1      30.417  28.732  22.607  1.00  0.00     0.573 C 
ATOM     28  F   UNL A   1      30.425  27.526  21.999  1.00  0.00    -0.132 F 
ATOM     29  F   UNL A   1      29.244  28.905  23.253  1.00  0.00    -0.132 F 
ATOM     30  F   UNL A   1      30.505  29.681  21.647  1.00  0.00    -0.132 F 
ENDBRANCH  26  27
ENDBRANCH  25  26
ENDBRANCH  19  20
ENDBRANCH   8  19
ENDBRANCH   4   6
ENDBRANCH   3   4
ENDBRANCH   2   3
ENDBRANCH   1   2
BRANCH   1  31
ATOM     31  O   UNL A   1      41.004  22.449  26.717  1.00  0.00    -0.374 OA
BRANCH  31  32
ATOM     32  C   UNL A   1      41.949  22.151  25.694  1.00  0.00     0.202 C 
BRANCH  32  33
ATOM     33  C   UNL A   1      42.994  21.077  25.952  1.00  0.00     0.261 C 
BRANCH  33  34
ATOM     34  O   UNL A   1      44.290  21.618  26.153  1.00  0.00    -0.460 OA
BRANCH  34  35
ATOM     35  C   UNL A   1      44.720  22.394  25.129  1.00  0.00     0.338 C 
ATOM     36  O   UNL A   1      45.035  22.035  24.013  1.00  0.00    -0.246 OA
BRANCH  35  37
ATOM     37  C   UNL A   1      44.903  23.759  25.634  1.00  0.00     0.060 A 
ATOM     38  C   UNL A   1      45.448  23.875  26.914  1.00  0.00     0.016 A 
ATOM     39  C   UNL A   1      44.227  24.814  25.006  1.00  0.00     0.016 A 
ATOM     40  C   UNL A   1      45.098  24.968  27.669  1.00  0.00     0.010 A 
ATOM     41  C   UNL A   1      43.847  25.881  25.774  1.00  0.00     0.010 A 
ATOM     42  C   UNL A   1      44.215  25.898  27.115  1.00  0.00    -0.014 A 
BRANCH  42  43
ATOM     43  C   UNL A   1      43.755  26.992  27.937  1.00  0.00     0.031 A 
ATOM     44  C   UNL A   1      44.679  28.145  27.874  1.00  0.00     0.074 A 
ATOM     45  C   UNL A   1      42.550  26.973  28.539  1.00  0.00     0.049 A 
ATOM     46  N   UNL A   1      45.469  28.571  28.800  1.00  0.00    -0.248 NA
ATOM     47  C   UNL A   1      44.933  28.743  26.549  1.00  0.00     0.031 C 
ATOM     48  C   UNL A   1      41.476  25.986  28.395  1.00  0.00     0.029 A 
ATOM     49  N   UNL A   1      41.984  27.920  29.329  1.00  0.00    -0.354 N 
ATOM     50  C   UNL A   1      46.107  29.674  28.246  1.00  0.00     0.074 A 
ATOM     51  C   UNL A   1      45.948  29.562  26.823  1.00  0.00     0.031 C 
ATOM     52  C   UNL A   1      40.323  26.510  28.874  1.00  0.00     0.029 A 
ATOM     53  C   UNL A   1      40.601  27.806  29.465  1.00  0.00     0.049 A 
ATOM     54  H   UNL A   1      42.506  28.629  29.771  1.00  0.00     0.167 HD
ATOM     55  C   UNL A   1      46.418  30.752  29.014  1.00  0.00     0.037 A 
ATOM     56  C   UNL A   1      39.781  28.790  29.928  1.00  0.00     0.037 A 
ATOM     57  C   UNL A   1      46.439  30.404  30.414  1.00  0.00     0.049 A 
ATOM     58  C   UNL A   1      40.647  29.742  30.686  1.00  0.00     0.074 A 
ATOM     59  C   UNL A   1      47.110  29.448  31.155  1.00  0.00     0.029 A 
ATOM     60  N   UNL A   1      45.374  30.795  31.191  1.00  0.00    -0.354 N 
ATOM     61  N   UNL A   1      41.260  29.432  31.799  1.00  0.00    -0.248 NA
ATOM     62  C   UNL A   1      41.239  30.844  29.937  1.00  0.00     0.031 C 
ATOM     63  C   UNL A   1      46.145  28.956  32.083  1.00  0.00     0.029 A 
ATOM     64  C   UNL A   1      44.976  29.699  31.919  1.00  0.00     0.049 A 
ATOM     65  H   UNL A   1      44.971  31.692  31.220  1.00  0.00     0.167 HD
ATOM     66  C   UNL A   1      42.525  29.992  31.677  1.00  0.00     0.074 A 
ATOM     67  C   UNL A   1      42.437  30.886  30.524  1.00  0.00     0.031 C 
ATOM     68  C   UNL A   1      43.608  29.465  32.323  1.00  0.00     0.037 A 
BRANCH  55  69
ATOM     69  C   UNL A   1      46.289  32.175  28.523  1.00  0.00     0.058 A 
ATOM     70  C   UNL A   1      47.359  33.066  28.725  1.00  0.00     0.135 A 
ATOM     71  C   UNL A   1      45.072  32.770  28.111  1.00  0.00     0.135 A 
ATOM     72  F   UNL A   1      48.555  32.614  29.134  1.00  0.00    -0.206 F 
ATOM     73  C   UNL A   1      47.215  34.447  28.591  1.00  0.00     0.059 A 
ATOM     74  C   UNL A   1      44.924  34.135  27.912  1.00  0.00     0.059 A 
ATOM     75  F   UNL A   1      43.936  32.080  27.972  1.00  0.00    -0.206 F 
ATOM     76  C   UNL A   1      45.988  34.971  28.193  1.00  0.00     0.060 A 
BRANCH  76  77
ATOM     77  S   UNL A   1      45.770  36.753  28.097  1.00  0.00     0.124 S 
ATOM     78  O   UNL A   1      46.722  37.214  29.100  1.00  0.00    -0.237 OA
ATOM     79  O   UNL A   1      46.121  37.022  26.707  1.00  0.00    -0.237 OA
ATOM     80  O   UNL A   1      44.360  36.937  28.429  1.00  0.00    -0.744 OA
ENDBRANCH  76  77
ENDBRANCH  55  69
BRANCH  56  81
ATOM     81  C   UNL A   1      38.442  29.186  29.398  1.00  0.00     0.058 A 
ATOM     82  C   UNL A   1      37.349  29.382  30.265  1.00  0.00     0.135 A 
ATOM     83  C   UNL A   1      38.277  29.670  28.084  1.00  0.00     0.135 A 
ATOM     84  F   UNL A   1      37.416  28.962  31.539  1.00  0.00    -0.206 F 
ATOM     85  C   UNL A   1      36.196  30.077  29.876  1.00  0.00     0.059 A 
ATOM     86  C   UNL A   1      37.134  30.354  27.671  1.00  0.00     0.059 A 
ATOM     87  F   UNL A   1      39.261  29.585  27.180  1.00  0.00    -0.206 F 
ATOM     88  C   UNL A   1      36.110  30.585  28.581  1.00  0.00     0.060 A 
BRANCH  88  89
ATOM     89  S   UNL A   1      34.729  31.663  28.126  1.00  0.00     0.124 S 
ATOM     90  O   UNL A   1      34.213  32.061  29.430  1.00  0.00    -0.237 OA
ATOM     91  O   UNL A   1      35.395  32.708  27.356  1.00  0.00    -0.237 OA
ATOM     92  O   UNL A   1      33.857  30.784  27.351  1.00  0.00    -0.744 OA
ENDBRANCH  88  89
ENDBRANCH  56  81
BRANCH  68  93
ATOM     93  C   UNL A   1      43.385  28.428  33.395  1.00  0.00     0.058 A 
ATOM     94  C   UNL A   1      43.417  27.036  33.194  1.00  0.00     0.135 A 
ATOM     95  C   UNL A   1      43.275  28.876  34.721  1.00  0.00     0.135 A 
ATOM     96  F   UNL A   1      43.635  26.520  31.975  1.00  0.00    -0.206 F 
ATOM     97  C   UNL A   1      43.287  26.135  34.255  1.00  0.00     0.059 A 
ATOM     98  C   UNL A   1      43.181  27.999  35.796  1.00  0.00     0.059 A 
ATOM     99  F   UNL A   1      43.303  30.192  34.990  1.00  0.00    -0.206 F 
ATOM    100  C   UNL A   1      43.166  26.628  35.555  1.00  0.00     0.060 A 
BRANCH 100 101
ATOM    101  S   UNL A   1      43.027  25.473  36.936  1.00  0.00     0.124 S 
ATOM    102  O   UNL A   1      43.293  26.335  38.083  1.00  0.00    -0.237 OA
ATOM    103  O   UNL A   1      41.654  24.992  36.808  1.00  0.00    -0.237 OA
ATOM    104  O   UNL A   1      44.055  24.476  36.654  1.00  0.00    -0.744 OA
ENDBRANCH 100 101
ENDBRANCH  68  93
ENDBRANCH  42  43
ENDBRANCH  35  37
ENDBRANCH  34  35
ENDBRANCH  33  34
ENDBRANCH  32  33
ENDBRANCH  31  32
ENDBRANCH   1  31
TORSDOF 23
ENDMDL
MODEL 3
REMARK VINA RESULT:     -10.6      3.407      5.615
REMARK SMILES COc1cccc(-c2c(C(=O)OCCOCCOC(=O)c3ccc(-c4c5nc(c(-c6c(F)cc(S(=O)(=O)[O-])cc6F)c6ccc([nH]6)c(-c6c(F)cc(S(=O)(=O)[O-])cc6F)c6nc(c(-c7c(F)cc(S(=O)(=O)[O-])cc7F)c7ccc4[nH]7)C=C6)C=C5)cc3)nnn2Cc2ccc(OC(F)(F)F)cc2)c1
REMARK SMILES IDX 14 1 13 2 12 3 10 4 11 5 9 6 8 7 89 8 87 9 88 10 7 11 3 12
REMARK SMILES IDX 4 13 102 14 5 15 6 16 2 17 1 18 90 19 91 20 92 21 101 22
REMARK SMILES IDX 93 23 100 24 94 25 95 26 96 27 97 28 98 29 99 30 15 31 16 32
REMARK SMILES IDX 17 33 18 34 19 35 20 36 21 37 22 38 86 39 23 40 85 41 24 42
REMARK SMILES IDX 25 43 26 44 79 45 27 46 84 47 78 48 80 49 28 50 83 51 77 52
REMARK SMILES IDX 76 53 29 55 63 56 42 57 62 58 43 59 46 60 61 61 81 62 44 63
REMARK SMILES IDX 45 64 60 66 82 67 47 68 30 69 31 70 40 71 32 72 33 73 39 74
REMARK SMILES IDX 41 75 34 76 35 77 36 78 37 79 38 80 64 81 65 82 74 83 66 84
REMARK SMILES IDX 67 85 73 86 75 87 68 88 69 89 70 90 71 91 72 92 48 93 49 94
REMARK SMILES IDX 58 95 50 96 51 97 57 98 59 99 52 100 53 101 54 102 55 103
REMARK SMILES IDX 56 104
REMARK H PARENT 80 54 46 65
REMARK Flexibility Score: inf
ROOT
ATOM      1  C   UNL A   1      35.304  24.705  25.176  1.00  0.00     0.202 C 
ENDROOT
BRANCH   1   2
ATOM      2  C   UNL A   1      34.305  24.234  26.234  1.00  0.00     0.261 C 
BRANCH   2   3
ATOM      3  O   UNL A   1      33.174  25.110  26.363  1.00  0.00    -0.458 OA
BRANCH   3   4
ATOM      4  C   UNL A   1      31.970  24.474  26.477  1.00  0.00     0.361 C 
ATOM      5  O   UNL A   1      31.056  24.857  27.196  1.00  0.00    -0.244 OA
BRANCH   4   6
ATOM      6  C   UNL A   1      31.817  23.354  25.563  1.00  0.00     0.198 A 
ATOM      7  C   UNL A   1      31.854  23.287  24.170  1.00  0.00     0.104 A 
ATOM      8  N   UNL A   1      31.832  21.919  23.952  1.00  0.00    -0.239 N 
ATOM      9  N   UNL A   1      31.567  22.102  26.074  1.00  0.00    -0.122 NA
ATOM     10  N   UNL A   1      31.473  21.257  25.069  1.00  0.00    -0.066 NA
BRANCH   7  11
ATOM     11  C   UNL A   1      32.037  24.296  23.128  1.00  0.00     0.006 A 
ATOM     12  C   UNL A   1      31.383  26.408  22.105  1.00  0.00     0.119 A 
ATOM     13  C   UNL A   1      32.235  26.144  21.035  1.00  0.00     0.046 A 
ATOM     14  C   UNL A   1      31.301  25.496  23.161  1.00  0.00     0.056 A 
ATOM     15  C   UNL A   1      33.014  24.988  21.020  1.00  0.00     0.005 A 
ATOM     16  C   UNL A   1      32.909  24.063  22.059  1.00  0.00     0.011 A 
BRANCH  12  17
ATOM     17  O   UNL A   1      30.613  27.529  21.967  1.00  0.00    -0.497 OA
ATOM     18  C   UNL A   1      31.001  28.663  22.734  1.00  0.00     0.278 C 
ENDBRANCH  12  17
ENDBRANCH   7  11
BRANCH   8  19
ATOM     19  C   UNL A   1      32.178  21.151  22.762  1.00  0.00     0.182 C 
BRANCH  19  20
ATOM     20  C   UNL A   1      32.608  19.735  23.094  1.00  0.00    -0.026 A 
ATOM     21  C   UNL A   1      33.381  19.462  24.229  1.00  0.00     0.009 A 
ATOM     22  C   UNL A   1      32.248  18.661  22.265  1.00  0.00     0.009 A 
ATOM     23  C   UNL A   1      33.767  18.149  24.525  1.00  0.00     0.047 A 
ATOM     24  C   UNL A   1      32.619  17.348  22.571  1.00  0.00     0.047 A 
ATOM     25  C   UNL A   1      33.380  17.083  23.707  1.00  0.00     0.129 A 
BRANCH  25  26
ATOM     26  O   UNL A   1      33.813  15.856  24.119  1.00  0.00    -0.406 OA
BRANCH  26  27
ATOM     27  C   UNL A   1      33.249  15.327  25.307  1.00  0.00     0.573 C 
ATOM     28  F   UNL A   1      33.810  14.143  25.635  1.00  0.00    -0.132 F 
ATOM     29  F   UNL A   1      33.376  16.190  26.339  1.00  0.00    -0.132 F 
ATOM     30  F   UNL A   1      31.927  15.117  25.104  1.00  0.00    -0.132 F 
ENDBRANCH  26  27
ENDBRANCH  25  26
ENDBRANCH  19  20
ENDBRANCH   8  19
ENDBRANCH   4   6
ENDBRANCH   3   4
ENDBRANCH   2   3
ENDBRANCH   1   2
BRANCH   1  31
ATOM     31  O   UNL A   1      36.558  24.033  25.080  1.00  0.00    -0.374 OA
BRANCH  31  32
ATOM     32  C   UNL A   1      36.709  22.715  25.597  1.00  0.00     0.202 C 
BRANCH  32  33
ATOM     33  C   UNL A   1      38.111  22.148  25.759  1.00  0.00     0.261 C 
BRANCH  33  34
ATOM     34  O   UNL A   1      38.852  22.813  26.770  1.00  0.00    -0.460 OA
BRANCH  34  35
ATOM     35  C   UNL A   1      40.190  22.803  26.559  1.00  0.00     0.338 C 
ATOM     36  O   UNL A   1      40.902  21.835  26.382  1.00  0.00    -0.246 OA
BRANCH  35  37
ATOM     37  C   UNL A   1      40.692  24.169  26.737  1.00  0.00     0.060 A 
ATOM     38  C   UNL A   1      41.871  24.302  27.474  1.00  0.00     0.016 A 
ATOM     39  C   UNL A   1      39.832  25.248  26.493  1.00  0.00     0.016 A 
ATOM     40  C   UNL A   1      42.063  25.463  28.182  1.00  0.00     0.010 A 
ATOM     41  C   UNL A   1      40.006  26.387  27.232  1.00  0.00     0.010 A 
ATOM     42  C   UNL A   1      41.068  26.442  28.128  1.00  0.00    -0.014 A 
BRANCH  42  43
ATOM     43  C   UNL A   1      41.207  27.618  28.953  1.00  0.00     0.031 A 
ATOM     44  C   UNL A   1      42.261  28.520  28.440  1.00  0.00     0.074 A 
ATOM     45  C   UNL A   1      40.352  27.888  29.958  1.00  0.00     0.049 A 
ATOM     46  N   UNL A   1      43.418  28.752  28.961  1.00  0.00    -0.248 NA
ATOM     47  C   UNL A   1      42.110  29.033  27.065  1.00  0.00     0.031 C 
ATOM     48  C   UNL A   1      39.119  27.183  30.320  1.00  0.00     0.029 A 
ATOM     49  N   UNL A   1      40.352  28.947  30.808  1.00  0.00    -0.354 N 
ATOM     50  C   UNL A   1      44.017  29.669  28.107  1.00  0.00     0.074 A 
ATOM     51  C   UNL A   1      43.304  29.591  26.863  1.00  0.00     0.031 C 
ATOM     52  C   UNL A   1      38.382  27.967  31.140  1.00  0.00     0.029 A 
ATOM     53  C   UNL A   1      39.138  29.164  31.458  1.00  0.00     0.049 A 
ATOM     54  H   UNL A   1      41.144  29.514  30.953  1.00  0.00     0.167 HD
ATOM     55  C   UNL A   1      44.824  30.648  28.596  1.00  0.00     0.037 A 
ATOM     56  C   UNL A   1      38.792  30.316  32.096  1.00  0.00     0.037 A 
ATOM     57  C   UNL A   1      45.305  30.312  29.915  1.00  0.00     0.049 A 
ATOM     58  C   UNL A   1      40.067  31.041  32.383  1.00  0.00     0.074 A 
ATOM     59  C   UNL A   1      45.985  29.229  30.442  1.00  0.00     0.029 A 
ATOM     60  N   UNL A   1      44.732  30.948  30.991  1.00  0.00    -0.354 N 
ATOM     61  N   UNL A   1      40.977  30.601  33.212  1.00  0.00    -0.248 NA
ATOM     62  C   UNL A   1      40.549  31.967  31.365  1.00  0.00     0.031 C 
ATOM     63  C   UNL A   1      45.369  28.985  31.704  1.00  0.00     0.029 A 
ATOM     64  C   UNL A   1      44.417  29.982  31.916  1.00  0.00     0.049 A 
ATOM     65  H   UNL A   1      44.576  31.916  31.082  1.00  0.00     0.167 HD
ATOM     66  C   UNL A   1      42.187  30.845  32.576  1.00  0.00     0.074 A 
ATOM     67  C   UNL A   1      41.860  31.729  31.458  1.00  0.00     0.031 C 
ATOM     68  C   UNL A   1      43.294  30.080  32.821  1.00  0.00     0.037 A 
BRANCH  55  69
ATOM     69  C   UNL A   1      44.828  32.058  28.054  1.00  0.00     0.058 A 
ATOM     70  C   UNL A   1      46.003  32.559  27.465  1.00  0.00     0.135 A 
ATOM     71  C   UNL A   1      43.827  33.022  28.329  1.00  0.00     0.135 A 
ATOM     72  F   UNL A   1      47.026  31.738  27.178  1.00  0.00    -0.206 F 
ATOM     73  C   UNL A   1      46.195  33.920  27.225  1.00  0.00     0.059 A 
ATOM     74  C   UNL A   1      43.973  34.371  28.042  1.00  0.00     0.059 A 
ATOM     75  F   UNL A   1      42.694  32.729  28.977  1.00  0.00    -0.206 F 
ATOM     76  C   UNL A   1      45.175  34.818  27.528  1.00  0.00     0.060 A 
BRANCH  76  77
ATOM     77  S   UNL A   1      45.445  36.581  27.299  1.00  0.00     0.124 S 
ATOM     78  O   UNL A   1      44.110  37.032  26.928  1.00  0.00    -0.237 OA
ATOM     79  O   UNL A   1      45.916  36.984  28.620  1.00  0.00    -0.237 OA
ATOM     80  O   UNL A   1      46.449  36.632  26.239  1.00  0.00    -0.744 OA
ENDBRANCH  76  77
ENDBRANCH  55  69
BRANCH  56  81
ATOM     81  C   UNL A   1      37.473  31.015  32.067  1.00  0.00     0.058 A 
ATOM     82  C   UNL A   1      36.914  31.555  33.241  1.00  0.00     0.135 A 
ATOM     83  C   UNL A   1      36.879  31.430  30.857  1.00  0.00     0.135 A 
ATOM     84  F   UNL A   1      37.417  31.225  34.441  1.00  0.00    -0.206 F 
ATOM     85  C   UNL A   1      35.880  32.502  33.215  1.00  0.00     0.059 A 
ATOM     86  C   UNL A   1      35.843  32.362  30.808  1.00  0.00     0.059 A 
ATOM     87  F   UNL A   1      37.351  31.023  29.672  1.00  0.00    -0.206 F 
ATOM     88  C   UNL A   1      35.370  32.921  31.988  1.00  0.00     0.060 A 
BRANCH  88  89
ATOM     89  S   UNL A   1      34.189  34.291  31.923  1.00  0.00     0.124 S 
ATOM     90  O   UNL A   1      35.031  35.432  32.265  1.00  0.00    -0.237 OA
ATOM     91  O   UNL A   1      33.723  34.232  30.542  1.00  0.00    -0.237 OA
ATOM     92  O   UNL A   1      33.195  33.927  32.928  1.00  0.00    -0.744 OA
ENDBRANCH  88  89
ENDBRANCH  56  81
BRANCH  68  93
ATOM     93  C   UNL A   1      43.281  29.132  33.993  1.00  0.00     0.058 A 
ATOM     94  C   UNL A   1      43.559  29.488  35.325  1.00  0.00     0.135 A 
ATOM     95  C   UNL A   1      42.821  27.825  33.767  1.00  0.00     0.135 A 
ATOM     96  F   UNL A   1      43.892  30.747  35.647  1.00  0.00    -0.206 F 
ATOM     97  C   UNL A   1      43.441  28.570  36.373  1.00  0.00     0.059 A 
ATOM     98  C   UNL A   1      42.662  26.906  34.798  1.00  0.00     0.059 A 
ATOM     99  F   UNL A   1      42.475  27.439  32.528  1.00  0.00    -0.206 F 
ATOM    100  C   UNL A   1      42.993  27.277  36.097  1.00  0.00     0.060 A 
BRANCH 100 101
ATOM    101  S   UNL A   1      42.810  26.092  37.447  1.00  0.00     0.124 S 
ATOM    102  O   UNL A   1      43.210  24.841  36.812  1.00  0.00    -0.237 OA
ATOM    103  O   UNL A   1      43.730  26.615  38.454  1.00  0.00    -0.237 OA
ATOM    104  O   UNL A   1      41.396  26.189  37.799  1.00  0.00    -0.744 OA
ENDBRANCH 100 101
ENDBRANCH  68  93
ENDBRANCH  42  43
ENDBRANCH  35  37
ENDBRANCH  34  35
ENDBRANCH  33  34
ENDBRANCH  32  33
ENDBRANCH  31  32
ENDBRANCH   1  31
TORSDOF 23
ENDMDL
