MODEL 1
REMARK VINA RESULT:     -11.3      0.000      0.000
REMARK SMILES Cc1cc2nc(SCC(=O)OCCOCCOC(=O)c3ccc(-c4c5nc(c(-c6c(F)cc(S(=O)(=O)[O-])cc6F)c6ccc([nH]6)c(-c6c(F)cc(S(=O)(=O)[O-])cc6F)c6nc(c(-c7c(F)cc(S(=O)(=O)[O-])cc7F)c7ccc4[nH]7)C=C6)C=C5)cc3)n(CC(C)C)c(=O)c2[nH]1
REMARK SMILES IDX 13 1 12 2 11 3 9 4 10 5 8 6 7 7 6 8 1 9 2 10 3 11 94 12 4 13
REMARK SMILES IDX 93 14 5 16 91 17 86 18 92 19 87 20 88 21 89 22 90 23 14 24
REMARK SMILES IDX 15 25 16 26 17 27 18 28 19 29 20 30 21 31 85 32 22 33 84 34
REMARK SMILES IDX 23 35 24 36 25 37 78 38 26 39 83 40 77 41 79 42 27 43 82 44
REMARK SMILES IDX 76 45 75 46 28 48 62 49 41 50 61 51 42 52 45 53 60 54 80 55
REMARK SMILES IDX 43 56 44 57 59 59 81 60 46 61 29 62 30 63 39 64 31 65 32 66
REMARK SMILES IDX 38 67 40 68 33 69 34 70 35 71 36 72 37 73 63 74 64 75 73 76
REMARK SMILES IDX 65 77 66 78 72 79 74 80 67 81 68 82 69 83 70 84 71 85 47 86
REMARK SMILES IDX 48 87 57 88 49 89 50 90 56 91 58 92 51 93 52 94 53 95 54 96
REMARK SMILES IDX 55 97
REMARK H PARENT 94 15 79 47 45 58
REMARK Flexibility Score: inf
ROOT
ATOM      1  C   UNL A   1      41.481  20.395  26.439  1.00  0.00     0.202 C 
ENDROOT
BRANCH   1   2
ATOM      2  C   UNL A   1      40.019  20.775  26.145  1.00  0.00     0.261 C 
BRANCH   2   3
ATOM      3  O   UNL A   1      39.792  22.215  26.124  1.00  0.00    -0.463 OA
BRANCH   3   4
ATOM      4  C   UNL A   1      38.494  22.621  26.004  1.00  0.00     0.316 C 
ATOM      5  O   UNL A   1      38.099  23.735  26.345  1.00  0.00    -0.251 OA
BRANCH   4   6
ATOM      6  C   UNL A   1      37.513  21.571  25.499  1.00  0.00     0.200 C 
BRANCH   6   7
ATOM      7  S   UNL A   1      36.280  22.002  24.301  1.00  0.00    -0.076 SA
BRANCH   7   8
ATOM      8  C   UNL A   1      34.679  22.604  24.753  1.00  0.00     0.172 A 
ATOM      9  C   UNL A   1      31.910  27.361  26.912  1.00  0.00     0.064 C 
ATOM     10  C   UNL A   1      32.434  26.170  26.192  1.00  0.00     0.014 A 
ATOM     11  C   UNL A   1      33.604  25.993  25.466  1.00  0.00     0.052 A 
ATOM     12  N   UNL A   1      31.775  24.956  26.221  1.00  0.00    -0.353 N 
ATOM     13  C   UNL A   1      33.672  24.624  25.157  1.00  0.00     0.097 A 
ATOM     14  C   UNL A   1      32.544  24.014  25.590  1.00  0.00     0.131 A 
ATOM     15  H   UNL A   1      30.894  24.794  26.630  1.00  0.00     0.166 HD
ATOM     16  N   UNL A   1      34.735  23.908  24.638  1.00  0.00    -0.222 NA
ATOM     17  C   UNL A   1      32.345  22.616  25.466  1.00  0.00     0.278 A 
ATOM     18  N   UNL A   1      33.542  21.895  25.228  1.00  0.00    -0.286 N 
ATOM     19  O   UNL A   1      31.235  22.104  25.578  1.00  0.00    -0.267 OA
BRANCH  18  20
ATOM     20  C   UNL A   1      33.382  20.448  25.477  1.00  0.00     0.131 C 
BRANCH  20  21
ATOM     21  C   UNL A   1      33.612  19.503  24.243  1.00  0.00     0.003 C 
ATOM     22  C   UNL A   1      34.285  18.148  24.468  1.00  0.00     0.009 C 
ATOM     23  C   UNL A   1      32.328  19.321  23.437  1.00  0.00     0.009 C 
ENDBRANCH  20  21
ENDBRANCH  18  20
ENDBRANCH   7   8
ENDBRANCH   6   7
ENDBRANCH   4   6
ENDBRANCH   3   4
ENDBRANCH   2   3
ENDBRANCH   1   2
BRANCH   1  24
ATOM     24  O   UNL A   1      41.980  19.383  25.570  1.00  0.00    -0.374 OA
BRANCH  24  25
ATOM     25  C   UNL A   1      43.044  18.654  26.169  1.00  0.00     0.202 C 
BRANCH  25  26
ATOM     26  C   UNL A   1      44.252  18.528  25.264  1.00  0.00     0.261 C 
BRANCH  26  27
ATOM     27  O   UNL A   1      44.903  19.762  25.255  1.00  0.00    -0.460 OA
BRANCH  27  28
ATOM     28  C   UNL A   1      44.801  20.469  24.118  1.00  0.00     0.338 C 
ATOM     29  O   UNL A   1      44.531  20.077  22.993  1.00  0.00    -0.246 OA
BRANCH  28  30
ATOM     30  C   UNL A   1      45.274  21.782  24.529  1.00  0.00     0.060 A 
ATOM     31  C   UNL A   1      45.669  21.804  25.858  1.00  0.00     0.016 A 
ATOM     32  C   UNL A   1      44.723  22.892  23.855  1.00  0.00     0.016 A 
ATOM     33  C   UNL A   1      45.214  22.854  26.609  1.00  0.00     0.010 A 
ATOM     34  C   UNL A   1      44.190  23.887  24.624  1.00  0.00     0.010 A 
ATOM     35  C   UNL A   1      44.401  23.825  25.998  1.00  0.00    -0.014 A 
BRANCH  35  36
ATOM     36  C   UNL A   1      44.089  25.000  26.768  1.00  0.00     0.031 A 
ATOM     37  C   UNL A   1      45.173  25.980  26.549  1.00  0.00     0.074 A 
ATOM     38  C   UNL A   1      42.985  25.162  27.509  1.00  0.00     0.049 A 
ATOM     39  N   UNL A   1      46.263  26.049  27.240  1.00  0.00    -0.248 NA
ATOM     40  C   UNL A   1      45.259  26.647  25.236  1.00  0.00     0.031 C 
ATOM     41  C   UNL A   1      41.782  24.342  27.573  1.00  0.00     0.029 A 
ATOM     42  N   UNL A   1      42.710  26.181  28.359  1.00  0.00    -0.354 N 
ATOM     43  C   UNL A   1      47.014  27.019  26.600  1.00  0.00     0.074 A 
ATOM     44  C   UNL A   1      46.526  27.067  25.251  1.00  0.00     0.031 C 
ATOM     45  C   UNL A   1      40.815  25.018  28.242  1.00  0.00     0.029 A 
ATOM     46  C   UNL A   1      41.382  26.244  28.776  1.00  0.00     0.049 A 
ATOM     47  H   UNL A   1      43.392  26.825  28.658  1.00  0.00     0.167 HD
ATOM     48  C   UNL A   1      47.661  27.960  27.337  1.00  0.00     0.037 A 
ATOM     49  C   UNL A   1      40.839  27.295  29.451  1.00  0.00     0.037 A 
ATOM     50  C   UNL A   1      47.770  27.531  28.714  1.00  0.00     0.049 A 
ATOM     51  C   UNL A   1      41.988  28.004  30.097  1.00  0.00     0.074 A 
ATOM     52  C   UNL A   1      48.341  26.443  29.346  1.00  0.00     0.029 A 
ATOM     53  N   UNL A   1      46.846  28.047  29.594  1.00  0.00    -0.354 N 
ATOM     54  N   UNL A   1      42.734  27.460  31.026  1.00  0.00    -0.248 NA
ATOM     55  C   UNL A   1      42.624  29.073  29.337  1.00  0.00     0.031 C 
ATOM     56  C   UNL A   1      47.431  26.095  30.386  1.00  0.00     0.029 A 
ATOM     57  C   UNL A   1      46.398  27.036  30.404  1.00  0.00     0.049 A 
ATOM     58  H   UNL A   1      46.554  28.986  29.634  1.00  0.00     0.167 HD
ATOM     59  C   UNL A   1      44.038  27.811  30.692  1.00  0.00     0.074 A 
ATOM     60  C   UNL A   1      43.899  28.845  29.666  1.00  0.00     0.031 C 
ATOM     61  C   UNL A   1      45.097  27.024  31.046  1.00  0.00     0.037 A 
BRANCH  48  62
ATOM     62  C   UNL A   1      47.753  29.411  26.929  1.00  0.00     0.058 A 
ATOM     63  C   UNL A   1      49.002  30.052  27.025  1.00  0.00     0.135 A 
ATOM     64  C   UNL A   1      46.647  30.267  26.708  1.00  0.00     0.135 A 
ATOM     65  F   UNL A   1      50.120  29.342  27.244  1.00  0.00    -0.206 F 
ATOM     66  C   UNL A   1      49.132  31.439  26.973  1.00  0.00     0.059 A 
ATOM     67  C   UNL A   1      46.762  31.643  26.600  1.00  0.00     0.059 A 
ATOM     68  F   UNL A   1      45.381  29.843  26.676  1.00  0.00    -0.206 F 
ATOM     69  C   UNL A   1      48.003  32.225  26.767  1.00  0.00     0.060 A 
BRANCH  69  70
ATOM     70  S   UNL A   1      48.153  34.014  26.757  1.00  0.00     0.124 S 
ATOM     71  O   UNL A   1      47.507  34.354  25.496  1.00  0.00    -0.237 OA
ATOM     72  O   UNL A   1      47.427  34.377  27.970  1.00  0.00    -0.237 OA
ATOM     73  O   UNL A   1      49.595  34.232  26.809  1.00  0.00    -0.744 OA
ENDBRANCH  69  70
ENDBRANCH  48  62
BRANCH  49  74
ATOM     74  C   UNL A   1      39.531  27.967  29.189  1.00  0.00     0.058 A 
ATOM     75  C   UNL A   1      38.560  28.093  30.203  1.00  0.00     0.135 A 
ATOM     76  C   UNL A   1      39.319  28.756  28.039  1.00  0.00     0.135 A 
ATOM     77  F   UNL A   1      38.682  27.391  31.341  1.00  0.00    -0.206 F 
ATOM     78  C   UNL A   1      37.485  28.988  30.110  1.00  0.00     0.059 A 
ATOM     79  C   UNL A   1      38.254  29.650  27.922  1.00  0.00     0.059 A 
ATOM     80  F   UNL A   1      40.194  28.748  27.024  1.00  0.00    -0.206 F 
ATOM     81  C   UNL A   1      37.354  29.783  28.973  1.00  0.00     0.060 A 
BRANCH  81  82
ATOM     82  S   UNL A   1      36.074  31.063  28.917  1.00  0.00     0.124 S 
ATOM     83  O   UNL A   1      36.796  32.188  28.330  1.00  0.00    -0.237 OA
ATOM     84  O   UNL A   1      35.059  30.447  28.070  1.00  0.00    -0.237 OA
ATOM     85  O   UNL A   1      35.698  31.229  30.318  1.00  0.00    -0.744 OA
ENDBRANCH  81  82
ENDBRANCH  49  74
BRANCH  61  86
ATOM     86  C   UNL A   1      44.888  25.926  32.060  1.00  0.00     0.058 A 
ATOM     87  C   UNL A   1      44.473  24.616  31.755  1.00  0.00     0.135 A 
ATOM     88  C   UNL A   1      45.368  26.161  33.357  1.00  0.00     0.135 A 
ATOM     89  F   UNL A   1      44.073  24.292  30.516  1.00  0.00    -0.206 F 
ATOM     90  C   UNL A   1      44.543  23.586  32.701  1.00  0.00     0.059 A 
ATOM     91  C   UNL A   1      45.475  25.148  34.303  1.00  0.00     0.059 A 
ATOM     92  F   UNL A   1      45.826  27.379  33.690  1.00  0.00    -0.206 F 
ATOM     93  C   UNL A   1      45.063  23.860  33.968  1.00  0.00     0.060 A 
BRANCH  93  94
ATOM     94  S   UNL A   1      45.280  22.511  35.153  1.00  0.00     0.124 S 
ATOM     95  O   UNL A   1      44.436  21.465  34.586  1.00  0.00    -0.237 OA
ATOM     96  O   UNL A   1      46.718  22.268  35.094  1.00  0.00    -0.237 OA
ATOM     97  O   UNL A   1      44.805  23.082  36.411  1.00  0.00    -0.744 OA
ENDBRANCH  93  94
ENDBRANCH  61  86
ENDBRANCH  35  36
ENDBRANCH  28  30
ENDBRANCH  27  28
ENDBRANCH  26  27
ENDBRANCH  25  26
ENDBRANCH  24  25
ENDBRANCH   1  24
TORSDOF 21
ENDMDL
MODEL 2
REMARK VINA RESULT:     -10.8      3.533      5.220
REMARK SMILES Cc1cc2nc(SCC(=O)OCCOCCOC(=O)c3ccc(-c4c5nc(c(-c6c(F)cc(S(=O)(=O)[O-])cc6F)c6ccc([nH]6)c(-c6c(F)cc(S(=O)(=O)[O-])cc6F)c6nc(c(-c7c(F)cc(S(=O)(=O)[O-])cc7F)c7ccc4[nH]7)C=C6)C=C5)cc3)n(CC(C)C)c(=O)c2[nH]1
REMARK SMILES IDX 13 1 12 2 11 3 9 4 10 5 8 6 7 7 6 8 1 9 2 10 3 11 94 12 4 13
REMARK SMILES IDX 93 14 5 16 91 17 86 18 92 19 87 20 88 21 89 22 90 23 14 24
REMARK SMILES IDX 15 25 16 26 17 27 18 28 19 29 20 30 21 31 85 32 22 33 84 34
REMARK SMILES IDX 23 35 24 36 25 37 78 38 26 39 83 40 77 41 79 42 27 43 82 44
REMARK SMILES IDX 76 45 75 46 28 48 62 49 41 50 61 51 42 52 45 53 60 54 80 55
REMARK SMILES IDX 43 56 44 57 59 59 81 60 46 61 29 62 30 63 39 64 31 65 32 66
REMARK SMILES IDX 38 67 40 68 33 69 34 70 35 71 36 72 37 73 63 74 64 75 73 76
REMARK SMILES IDX 65 77 66 78 72 79 74 80 67 81 68 82 69 83 70 84 71 85 47 86
REMARK SMILES IDX 48 87 57 88 49 89 50 90 56 91 58 92 51 93 52 94 53 95 54 96
REMARK SMILES IDX 55 97
REMARK H PARENT 94 15 79 47 45 58
REMARK Flexibility Score: inf
ROOT
ATOM      1  C   UNL A   1      35.756  23.183  26.081  1.00  0.00     0.202 C 
ENDROOT
BRANCH   1   2
ATOM      2  C   UNL A   1      34.735  24.058  25.334  1.00  0.00     0.261 C 
BRANCH   2   3
ATOM      3  O   UNL A   1      34.793  23.901  23.886  1.00  0.00    -0.463 OA
BRANCH   3   4
ATOM      4  C   UNL A   1      33.605  23.666  23.254  1.00  0.00     0.316 C 
ATOM      5  O   UNL A   1      32.885  22.701  23.504  1.00  0.00    -0.251 OA
BRANCH   4   6
ATOM      6  C   UNL A   1      33.247  24.631  22.131  1.00  0.00     0.200 C 
BRANCH   6   7
ATOM      7  S   UNL A   1      32.875  26.325  22.494  1.00  0.00    -0.076 SA
BRANCH   7   8
ATOM      8  C   UNL A   1      31.225  26.900  22.775  1.00  0.00     0.172 A 
ATOM      9  C   UNL A   1      27.911  31.797  22.745  1.00  0.00     0.064 C 
ATOM     10  C   UNL A   1      28.566  30.468  22.611  1.00  0.00     0.014 A 
ATOM     11  C   UNL A   1      29.719  30.091  21.937  1.00  0.00     0.052 A 
ATOM     12  N   UNL A   1      28.083  29.351  23.268  1.00  0.00    -0.353 N 
ATOM     13  C   UNL A   1      29.963  28.754  22.294  1.00  0.00     0.097 A 
ATOM     14  C   UNL A   1      28.950  28.309  23.072  1.00  0.00     0.131 A 
ATOM     15  H   UNL A   1      27.252  29.312  23.792  1.00  0.00     0.166 HD
ATOM     16  N   UNL A   1      31.094  27.992  22.062  1.00  0.00    -0.222 NA
ATOM     17  C   UNL A   1      28.943  27.006  23.633  1.00  0.00     0.278 A 
ATOM     18  N   UNL A   1      30.218  26.387  23.637  1.00  0.00    -0.286 N 
ATOM     19  O   UNL A   1      27.919  26.497  24.081  1.00  0.00    -0.267 OA
BRANCH  18  20
ATOM     20  C   UNL A   1      30.271  25.223  24.544  1.00  0.00     0.131 C 
BRANCH  20  21
ATOM     21  C   UNL A   1      31.326  25.296  25.705  1.00  0.00     0.003 C 
ATOM     22  C   UNL A   1      31.468  26.602  26.489  1.00  0.00     0.009 C 
ATOM     23  C   UNL A   1      31.175  24.121  26.668  1.00  0.00     0.009 C 
ENDBRANCH  20  21
ENDBRANCH  18  20
ENDBRANCH   7   8
ENDBRANCH   6   7
ENDBRANCH   4   6
ENDBRANCH   3   4
ENDBRANCH   2   3
ENDBRANCH   1   2
BRANCH   1  24
ATOM     24  O   UNL A   1      37.095  23.386  25.638  1.00  0.00    -0.374 OA
BRANCH  24  25
ATOM     25  C   UNL A   1      37.692  22.173  25.198  1.00  0.00     0.202 C 
BRANCH  25  26
ATOM     26  C   UNL A   1      38.929  21.806  25.992  1.00  0.00     0.261 C 
BRANCH  26  27
ATOM     27  O   UNL A   1      39.472  22.988  26.497  1.00  0.00    -0.460 OA
BRANCH  27  28
ATOM     28  C   UNL A   1      40.753  22.921  26.892  1.00  0.00     0.338 C 
ATOM     29  O   UNL A   1      41.369  21.965  27.338  1.00  0.00    -0.246 OA
BRANCH  28  30
ATOM     30  C   UNL A   1      41.167  24.314  26.830  1.00  0.00     0.060 A 
ATOM     31  C   UNL A   1      42.226  24.585  27.683  1.00  0.00     0.016 A 
ATOM     32  C   UNL A   1      40.172  25.255  26.490  1.00  0.00     0.016 A 
ATOM     33  C   UNL A   1      42.112  25.709  28.454  1.00  0.00     0.010 A 
ATOM     34  C   UNL A   1      40.014  26.323  27.325  1.00  0.00     0.010 A 
ATOM     35  C   UNL A   1      40.959  26.505  28.329  1.00  0.00    -0.014 A 
BRANCH  35  36
ATOM     36  C   UNL A   1      40.953  27.766  29.021  1.00  0.00     0.031 A 
ATOM     37  C   UNL A   1      42.030  28.598  28.446  1.00  0.00     0.074 A 
ATOM     38  C   UNL A   1      40.087  28.110  29.984  1.00  0.00     0.049 A 
ATOM     39  N   UNL A   1      43.259  28.603  28.845  1.00  0.00    -0.248 NA
ATOM     40  C   UNL A   1      41.845  29.142  27.087  1.00  0.00     0.031 C 
ATOM     41  C   UNL A   1      38.870  27.437  30.422  1.00  0.00     0.029 A 
ATOM     42  N   UNL A   1      40.123  29.219  30.762  1.00  0.00    -0.354 N 
ATOM     43  C   UNL A   1      43.909  29.427  27.944  1.00  0.00     0.074 A 
ATOM     44  C   UNL A   1      43.107  29.419  26.754  1.00  0.00     0.031 C 
ATOM     45  C   UNL A   1      38.164  28.269  31.227  1.00  0.00     0.029 A 
ATOM     46  C   UNL A   1      38.951  29.463  31.476  1.00  0.00     0.049 A 
ATOM     47  H   UNL A   1      40.912  29.805  30.819  1.00  0.00     0.167 HD
ATOM     48  C   UNL A   1      44.799  30.347  28.400  1.00  0.00     0.037 A 
ATOM     49  C   UNL A   1      38.688  30.620  32.145  1.00  0.00     0.037 A 
ATOM     50  C   UNL A   1      45.210  30.023  29.748  1.00  0.00     0.049 A 
ATOM     51  C   UNL A   1      40.019  31.247  32.417  1.00  0.00     0.074 A 
ATOM     52  C   UNL A   1      45.823  28.933  30.337  1.00  0.00     0.029 A 
ATOM     53  N   UNL A   1      44.583  30.708  30.764  1.00  0.00    -0.354 N 
ATOM     54  N   UNL A   1      40.922  30.701  33.193  1.00  0.00    -0.248 NA
ATOM     55  C   UNL A   1      40.537  32.173  31.418  1.00  0.00     0.031 C 
ATOM     56  C   UNL A   1      45.173  28.775  31.596  1.00  0.00     0.029 A 
ATOM     57  C   UNL A   1      44.264  29.823  31.761  1.00  0.00     0.049 A 
ATOM     58  H   UNL A   1      44.394  31.674  30.772  1.00  0.00     0.167 HD
ATOM     59  C   UNL A   1      42.128  30.877  32.522  1.00  0.00     0.074 A 
ATOM     60  C   UNL A   1      41.829  31.832  31.454  1.00  0.00     0.031 C 
ATOM     61  C   UNL A   1      43.168  30.008  32.693  1.00  0.00     0.037 A 
BRANCH  48  62
ATOM     62  C   UNL A   1      44.914  31.741  27.830  1.00  0.00     0.058 A 
ATOM     63  C   UNL A   1      46.119  32.107  27.202  1.00  0.00     0.135 A 
ATOM     64  C   UNL A   1      44.021  32.807  28.097  1.00  0.00     0.135 A 
ATOM     65  F   UNL A   1      47.046  31.182  26.909  1.00  0.00    -0.206 F 
ATOM     66  C   UNL A   1      46.440  33.435  26.925  1.00  0.00     0.059 A 
ATOM     67  C   UNL A   1      44.297  34.127  27.780  1.00  0.00     0.059 A 
ATOM     68  F   UNL A   1      42.872  32.657  28.762  1.00  0.00    -0.206 F 
ATOM     69  C   UNL A   1      45.522  34.438  27.225  1.00  0.00     0.060 A 
BRANCH  69  70
ATOM     70  S   UNL A   1      45.950  36.155  26.925  1.00  0.00     0.124 S 
ATOM     71  O   UNL A   1      44.633  36.773  26.837  1.00  0.00    -0.237 OA
ATOM     72  O   UNL A   1      46.734  36.475  28.113  1.00  0.00    -0.237 OA
ATOM     73  O   UNL A   1      46.708  36.101  25.678  1.00  0.00    -0.744 OA
ENDBRANCH  69  70
ENDBRANCH  48  62
BRANCH  49  74
ATOM     74  C   UNL A   1      37.420  31.410  32.134  1.00  0.00     0.058 A 
ATOM     75  C   UNL A   1      36.841  31.876  33.332  1.00  0.00     0.135 A 
ATOM     76  C   UNL A   1      36.908  31.975  30.948  1.00  0.00     0.135 A 
ATOM     77  F   UNL A   1      37.271  31.406  34.513  1.00  0.00    -0.206 F 
ATOM     78  C   UNL A   1      35.864  32.882  33.355  1.00  0.00     0.059 A 
ATOM     79  C   UNL A   1      35.933  32.974  30.946  1.00  0.00     0.059 A 
ATOM     80  F   UNL A   1      37.405  31.637  29.749  1.00  0.00    -0.206 F 
ATOM     81  C   UNL A   1      35.434  33.444  32.154  1.00  0.00     0.060 A 
BRANCH  81  82
ATOM     82  S   UNL A   1      34.305  34.859  32.182  1.00  0.00     0.124 S 
ATOM     83  O   UNL A   1      33.144  34.308  32.874  1.00  0.00    -0.237 OA
ATOM     84  O   UNL A   1      35.075  35.853  32.922  1.00  0.00    -0.237 OA
ATOM     85  O   UNL A   1      34.101  35.158  30.767  1.00  0.00    -0.744 OA
ENDBRANCH  81  82
ENDBRANCH  49  74
BRANCH  61  86
ATOM     86  C   UNL A   1      43.122  29.027  33.839  1.00  0.00     0.058 A 
ATOM     87  C   UNL A   1      43.380  29.348  35.185  1.00  0.00     0.135 A 
ATOM     88  C   UNL A   1      42.553  27.773  33.577  1.00  0.00     0.135 A 
ATOM     89  F   UNL A   1      43.852  30.557  35.526  1.00  0.00    -0.206 F 
ATOM     90  C   UNL A   1      43.075  28.458  36.222  1.00  0.00     0.059 A 
ATOM     91  C   UNL A   1      42.214  26.885  34.592  1.00  0.00     0.059 A 
ATOM     92  F   UNL A   1      42.237  27.432  32.316  1.00  0.00    -0.206 F 
ATOM     93  C   UNL A   1      42.475  27.235  35.914  1.00  0.00     0.060 A 
BRANCH  93  94
ATOM     94  S   UNL A   1      41.958  26.134  37.253  1.00  0.00     0.124 S 
ATOM     95  O   UNL A   1      40.630  26.645  37.575  1.00  0.00    -0.237 OA
ATOM     96  O   UNL A   1      41.996  24.822  36.614  1.00  0.00    -0.237 OA
ATOM     97  O   UNL A   1      42.974  26.346  38.282  1.00  0.00    -0.744 OA
ENDBRANCH  93  94
ENDBRANCH  61  86
ENDBRANCH  35  36
ENDBRANCH  28  30
ENDBRANCH  27  28
ENDBRANCH  26  27
ENDBRANCH  25  26
ENDBRANCH  24  25
ENDBRANCH   1  24
TORSDOF 21
ENDMDL
MODEL 3
REMARK VINA RESULT:     -10.8      2.843      7.884
REMARK SMILES Cc1cc2nc(SCC(=O)OCCOCCOC(=O)c3ccc(-c4c5nc(c(-c6c(F)cc(S(=O)(=O)[O-])cc6F)c6ccc([nH]6)c(-c6c(F)cc(S(=O)(=O)[O-])cc6F)c6nc(c(-c7c(F)cc(S(=O)(=O)[O-])cc7F)c7ccc4[nH]7)C=C6)C=C5)cc3)n(CC(C)C)c(=O)c2[nH]1
REMARK SMILES IDX 13 1 12 2 11 3 9 4 10 5 8 6 7 7 6 8 1 9 2 10 3 11 94 12 4 13
REMARK SMILES IDX 93 14 5 16 91 17 86 18 92 19 87 20 88 21 89 22 90 23 14 24
REMARK SMILES IDX 15 25 16 26 17 27 18 28 19 29 20 30 21 31 85 32 22 33 84 34
REMARK SMILES IDX 23 35 24 36 25 37 78 38 26 39 83 40 77 41 79 42 27 43 82 44
REMARK SMILES IDX 76 45 75 46 28 48 62 49 41 50 61 51 42 52 45 53 60 54 80 55
REMARK SMILES IDX 43 56 44 57 59 59 81 60 46 61 29 62 30 63 39 64 31 65 32 66
REMARK SMILES IDX 38 67 40 68 33 69 34 70 35 71 36 72 37 73 63 74 64 75 73 76
REMARK SMILES IDX 65 77 66 78 72 79 74 80 67 81 68 82 69 83 70 84 71 85 47 86
REMARK SMILES IDX 48 87 57 88 49 89 50 90 56 91 58 92 51 93 52 94 53 95 54 96
REMARK SMILES IDX 55 97
REMARK H PARENT 94 15 79 47 45 58
REMARK Flexibility Score: inf
ROOT
ATOM      1  C   UNL A   1      35.138  21.027  25.136  1.00  0.00     0.202 C 
ENDROOT
BRANCH   1   2
ATOM      2  C   UNL A   1      33.638  20.911  25.460  1.00  0.00     0.261 C 
BRANCH   2   3
ATOM      3  O   UNL A   1      32.957  22.199  25.503  1.00  0.00    -0.463 OA
BRANCH   3   4
ATOM      4  C   UNL A   1      32.570  22.639  26.736  1.00  0.00     0.316 C 
ATOM      5  O   UNL A   1      33.073  22.242  27.785  1.00  0.00    -0.251 OA
BRANCH   4   6
ATOM      6  C   UNL A   1      31.390  23.603  26.757  1.00  0.00     0.200 C 
BRANCH   6   7
ATOM      7  S   UNL A   1      31.113  24.706  25.399  1.00  0.00    -0.076 SA
BRANCH   7   8
ATOM      8  C   UNL A   1      32.131  26.121  25.095  1.00  0.00     0.172 A 
ATOM      9  C   UNL A   1      34.025  31.139  27.584  1.00  0.00     0.064 C 
ATOM     10  C   UNL A   1      33.788  29.835  26.909  1.00  0.00     0.014 A 
ATOM     11  C   UNL A   1      33.370  28.614  27.420  1.00  0.00     0.052 A 
ATOM     12  N   UNL A   1      33.907  29.694  25.540  1.00  0.00    -0.353 N 
ATOM     13  C   UNL A   1      33.145  27.781  26.311  1.00  0.00     0.097 A 
ATOM     14  C   UNL A   1      33.505  28.434  25.183  1.00  0.00     0.131 A 
ATOM     15  H   UNL A   1      34.229  30.388  24.920  1.00  0.00     0.166 HD
ATOM     16  N   UNL A   1      32.523  26.545  26.272  1.00  0.00    -0.222 NA
ATOM     17  C   UNL A   1      33.344  27.865  23.894  1.00  0.00     0.278 A 
ATOM     18  N   UNL A   1      32.444  26.770  23.870  1.00  0.00    -0.286 N 
ATOM     19  O   UNL A   1      33.925  28.310  22.909  1.00  0.00    -0.267 OA
BRANCH  18  20
ATOM     20  C   UNL A   1      32.001  26.440  22.501  1.00  0.00     0.131 C 
BRANCH  20  21
ATOM     21  C   UNL A   1      32.912  25.443  21.699  1.00  0.00     0.003 C 
ATOM     22  C   UNL A   1      33.041  24.002  22.195  1.00  0.00     0.009 C 
ATOM     23  C   UNL A   1      32.573  25.455  20.210  1.00  0.00     0.009 C 
ENDBRANCH  20  21
ENDBRANCH  18  20
ENDBRANCH   7   8
ENDBRANCH   6   7
ENDBRANCH   4   6
ENDBRANCH   3   4
ENDBRANCH   2   3
ENDBRANCH   1   2
BRANCH   1  24
ATOM     24  O   UNL A   1      35.553  22.368  24.890  1.00  0.00    -0.374 OA
BRANCH  24  25
ATOM     25  C   UNL A   1      36.968  22.497  24.943  1.00  0.00     0.202 C 
BRANCH  25  26
ATOM     26  C   UNL A   1      37.676  21.161  25.039  1.00  0.00     0.261 C 
BRANCH  26  27
ATOM     27  O   UNL A   1      38.899  21.377  25.675  1.00  0.00    -0.460 OA
BRANCH  27  28
ATOM     28  C   UNL A   1      39.743  20.333  25.691  1.00  0.00     0.338 C 
ATOM     29  O   UNL A   1      39.530  19.171  25.382  1.00  0.00    -0.246 OA
BRANCH  28  30
ATOM     30  C   UNL A   1      40.916  20.896  26.343  1.00  0.00     0.060 A 
ATOM     31  C   UNL A   1      40.833  20.822  27.725  1.00  0.00     0.016 A 
ATOM     32  C   UNL A   1      41.593  21.921  25.650  1.00  0.00     0.016 A 
ATOM     33  C   UNL A   1      41.160  21.958  28.414  1.00  0.00     0.010 A 
ATOM     34  C   UNL A   1      41.828  23.082  26.329  1.00  0.00     0.010 A 
ATOM     35  C   UNL A   1      41.559  23.098  27.694  1.00  0.00    -0.014 A 
BRANCH  35  36
ATOM     36  C   UNL A   1      42.062  24.212  28.453  1.00  0.00     0.031 A 
ATOM     37  C   UNL A   1      41.132  25.343  28.260  1.00  0.00     0.074 A 
ATOM     38  C   UNL A   1      43.159  24.185  29.221  1.00  0.00     0.049 A 
ATOM     39  N   UNL A   1      41.204  26.209  27.303  1.00  0.00    -0.248 NA
ATOM     40  C   UNL A   1      39.805  25.277  28.902  1.00  0.00     0.031 C 
ATOM     41  C   UNL A   1      43.972  23.049  29.639  1.00  0.00     0.029 A 
ATOM     42  N   UNL A   1      43.753  25.234  29.841  1.00  0.00    -0.354 N 
ATOM     43  C   UNL A   1      40.070  26.986  27.457  1.00  0.00     0.074 A 
ATOM     44  C   UNL A   1      39.132  26.174  28.178  1.00  0.00     0.031 C 
ATOM     45  C   UNL A   1      44.815  23.442  30.626  1.00  0.00     0.029 A 
ATOM     46  C   UNL A   1      44.702  24.879  30.798  1.00  0.00     0.049 A 
ATOM     47  H   UNL A   1      43.533  26.171  29.632  1.00  0.00     0.167 HD
ATOM     48  C   UNL A   1      40.164  28.337  27.350  1.00  0.00     0.037 A 
ATOM     49  C   UNL A   1      45.261  25.750  31.683  1.00  0.00     0.037 A 
ATOM     50  C   UNL A   1      41.395  28.704  26.685  1.00  0.00     0.049 A 
ATOM     51  C   UNL A   1      45.106  27.108  31.073  1.00  0.00     0.074 A 
ATOM     52  C   UNL A   1      41.946  28.427  25.448  1.00  0.00     0.029 A 
ATOM     53  N   UNL A   1      42.440  29.091  27.494  1.00  0.00    -0.354 N 
ATOM     54  N   UNL A   1      45.693  27.463  29.957  1.00  0.00    -0.248 NA
ATOM     55  C   UNL A   1      43.898  27.854  31.404  1.00  0.00     0.031 C 
ATOM     56  C   UNL A   1      43.338  28.238  25.693  1.00  0.00     0.029 A 
ATOM     57  C   UNL A   1      43.590  28.498  27.042  1.00  0.00     0.049 A 
ATOM     58  H   UNL A   1      42.370  29.694  28.269  1.00  0.00     0.167 HD
ATOM     59  C   UNL A   1      44.722  28.162  29.247  1.00  0.00     0.074 A 
ATOM     60  C   UNL A   1      43.651  28.407  30.212  1.00  0.00     0.031 C 
ATOM     61  C   UNL A   1      44.736  28.204  27.881  1.00  0.00     0.037 A 
BRANCH  48  62
ATOM     62  C   UNL A   1      39.409  29.294  28.243  1.00  0.00     0.058 A 
ATOM     63  C   UNL A   1      39.753  29.344  29.606  1.00  0.00     0.135 A 
ATOM     64  C   UNL A   1      38.207  29.957  27.895  1.00  0.00     0.135 A 
ATOM     65  F   UNL A   1      40.866  28.742  30.054  1.00  0.00    -0.206 F 
ATOM     66  C   UNL A   1      38.933  29.947  30.559  1.00  0.00     0.059 A 
ATOM     67  C   UNL A   1      37.405  30.608  28.818  1.00  0.00     0.059 A 
ATOM     68  F   UNL A   1      37.684  29.939  26.666  1.00  0.00    -0.206 F 
ATOM     69  C   UNL A   1      37.757  30.571  30.153  1.00  0.00     0.060 A 
BRANCH  69  70
ATOM     70  S   UNL A   1      36.666  31.299  31.378  1.00  0.00     0.124 S 
ATOM     71  O   UNL A   1      35.807  32.132  30.547  1.00  0.00    -0.237 OA
ATOM     72  O   UNL A   1      36.046  30.114  31.961  1.00  0.00    -0.237 OA
ATOM     73  O   UNL A   1      37.582  32.017  32.261  1.00  0.00    -0.744 OA
ENDBRANCH  69  70
ENDBRANCH  48  62
BRANCH  49  74
ATOM     74  C   UNL A   1      45.468  25.552  33.149  1.00  0.00     0.058 A 
ATOM     75  C   UNL A   1      44.377  25.342  34.017  1.00  0.00     0.135 A 
ATOM     76  C   UNL A   1      46.740  25.271  33.688  1.00  0.00     0.135 A 
ATOM     77  F   UNL A   1      43.125  25.571  33.591  1.00  0.00    -0.206 F 
ATOM     78  C   UNL A   1      44.533  24.827  35.312  1.00  0.00     0.059 A 
ATOM     79  C   UNL A   1      46.921  24.761  34.975  1.00  0.00     0.059 A 
ATOM     80  F   UNL A   1      47.850  25.397  32.945  1.00  0.00    -0.206 F 
ATOM     81  C   UNL A   1      45.811  24.515  35.774  1.00  0.00     0.060 A 
BRANCH  81  82
ATOM     82  S   UNL A   1      46.009  23.689  37.373  1.00  0.00     0.124 S 
ATOM     83  O   UNL A   1      45.503  22.350  37.087  1.00  0.00    -0.237 OA
ATOM     84  O   UNL A   1      47.446  23.792  37.598  1.00  0.00    -0.237 OA
ATOM     85  O   UNL A   1      45.181  24.487  38.272  1.00  0.00    -0.744 OA
ENDBRANCH  81  82
ENDBRANCH  49  74
BRANCH  61  86
ATOM     86  C   UNL A   1      45.973  27.747  27.147  1.00  0.00     0.058 A 
ATOM     87  C   UNL A   1      46.165  26.458  26.617  1.00  0.00     0.135 A 
ATOM     88  C   UNL A   1      46.884  28.741  26.760  1.00  0.00     0.135 A 
ATOM     89  F   UNL A   1      45.294  25.470  26.876  1.00  0.00    -0.206 F 
ATOM     90  C   UNL A   1      47.215  26.177  25.734  1.00  0.00     0.059 A 
ATOM     91  C   UNL A   1      47.916  28.493  25.863  1.00  0.00     0.059 A 
ATOM     92  F   UNL A   1      46.721  30.002  27.193  1.00  0.00    -0.206 F 
ATOM     93  C   UNL A   1      48.076  27.208  25.350  1.00  0.00     0.060 A 
BRANCH  93  94
ATOM     94  S   UNL A   1      49.354  26.887  24.112  1.00  0.00     0.124 S 
ATOM     95  O   UNL A   1      48.607  26.189  23.072  1.00  0.00    -0.237 OA
ATOM     96  O   UNL A   1      49.809  28.232  23.773  1.00  0.00    -0.237 OA
ATOM     97  O   UNL A   1      50.330  26.072  24.831  1.00  0.00    -0.744 OA
ENDBRANCH  93  94
ENDBRANCH  61  86
ENDBRANCH  35  36
ENDBRANCH  28  30
ENDBRANCH  27  28
ENDBRANCH  26  27
ENDBRANCH  25  26
ENDBRANCH  24  25
ENDBRANCH   1  24
TORSDOF 21
ENDMDL
