MODEL 1
REMARK VINA RESULT:      -9.8      0.000      0.000
REMARK SMILES CCn1cnc(S(=O)(=O)N[C@H](Cc2cnc[nH]2)C(=O)OCCOCCOC(=O)c2ccc(-c3c4nc(c(-c5c(F)cc(S(=O)(=O)[O-])cc5F)c5ccc([nH]5)c(-c5c(F)cc(S(=O)(=O)[O-])cc5F)c5nc(c(-c6c(F)cc(S(=O)(=O)[O-])cc6F)c6ccc3[nH]6)C=C5)C=C4)cc2)c1
REMARK SMILES IDX 22 1 21 2 20 3 18 4 19 5 11 6 10 7 7 9 8 10 9 11 6 12 3 13
REMARK SMILES IDX 4 14 95 15 5 16 2 17 1 18 12 19 13 20 14 21 17 22 15 23
REMARK SMILES IDX 16 24 23 26 24 27 25 28 26 29 27 30 28 31 29 32 30 33 94 34
REMARK SMILES IDX 31 35 93 36 32 37 33 38 34 39 87 40 35 41 92 42 86 43 88 44
REMARK SMILES IDX 36 45 91 46 85 47 84 48 37 50 71 51 50 52 70 53 51 54 54 55
REMARK SMILES IDX 69 56 89 57 52 58 53 59 68 61 90 62 55 63 38 64 39 65 48 66
REMARK SMILES IDX 40 67 41 68 47 69 49 70 42 71 43 72 44 73 45 74 46 75 72 76
REMARK SMILES IDX 73 77 82 78 74 79 75 80 81 81 83 82 76 83 77 84 78 85 79 86
REMARK SMILES IDX 80 87 56 88 57 89 66 90 58 91 59 92 65 93 67 94 60 95 61 96
REMARK SMILES IDX 62 97 63 98 64 99
REMARK H PARENT 10 8 17 25 88 49 54 60
REMARK Flexibility Score: inf
ROOT
ATOM      1  C   UNL A   1      33.908  29.713  27.256  1.00  0.00     0.202 C 
ENDROOT
BRANCH   1   2
ATOM      2  C   UNL A   1      32.724  28.748  27.374  1.00  0.00     0.261 C 
BRANCH   2   3
ATOM      3  O   UNL A   1      32.268  28.298  26.084  1.00  0.00    -0.462 OA
BRANCH   3   4
ATOM      4  C   UNL A   1      32.070  26.962  25.974  1.00  0.00     0.324 C 
ATOM      5  O   UNL A   1      31.272  26.304  26.634  1.00  0.00    -0.250 OA
BRANCH   4   6
ATOM      6  C   UNL A   1      32.961  26.318  24.932  1.00  0.00     0.185 C 
BRANCH   6   7
ATOM      7  N   UNL A   1      32.332  25.748  23.710  1.00  0.00    -0.195 NA
ATOM      8  H   UNL A   1      32.901  24.954  23.414  1.00  0.00     0.142 HD
BRANCH   7   9
ATOM      9  S   UNL A   1      32.160  26.786  22.367  1.00  0.00     0.260 S 
ATOM     10  O   UNL A   1      31.898  25.924  21.239  1.00  0.00    -0.205 OA
ATOM     11  O   UNL A   1      33.298  27.678  22.409  1.00  0.00    -0.205 OA
BRANCH   9  12
ATOM     12  C   UNL A   1      30.761  27.813  22.545  1.00  0.00     0.188 A 
ATOM     13  N   UNL A   1      29.479  29.574  22.697  1.00  0.00    -0.336 N 
ATOM     14  C   UNL A   1      28.834  28.478  23.207  1.00  0.00     0.201 A 
ATOM     15  C   UNL A   1      30.677  29.150  22.197  1.00  0.00     0.129 A 
ATOM     16  N   UNL A   1      29.577  27.398  23.128  1.00  0.00    -0.224 NA
BRANCH  13  17
ATOM     17  C   UNL A   1      28.949  30.922  22.748  1.00  0.00     0.120 C 
ATOM     18  C   UNL A   1      27.709  31.116  23.607  1.00  0.00     0.027 C 
ENDBRANCH  13  17
ENDBRANCH   9  12
ENDBRANCH   7   9
ENDBRANCH   6   7
BRANCH   6  19
ATOM     19  C   UNL A   1      34.084  25.420  25.473  1.00  0.00     0.087 C 
BRANCH  19  20
ATOM     20  C   UNL A   1      33.781  24.059  26.006  1.00  0.00     0.037 A 
ATOM     21  C   UNL A   1      34.651  23.135  26.554  1.00  0.00     0.134 A 
ATOM     22  N   UNL A   1      32.570  23.410  25.991  1.00  0.00    -0.348 N 
ATOM     23  N   UNL A   1      34.015  21.963  26.840  1.00  0.00    -0.245 NA
ATOM     24  C   UNL A   1      32.763  22.157  26.504  1.00  0.00     0.196 A 
ATOM     25  H   UNL A   1      31.716  23.781  25.668  1.00  0.00     0.167 HD
ENDBRANCH  19  20
ENDBRANCH   6  19
ENDBRANCH   4   6
ENDBRANCH   3   4
ENDBRANCH   2   3
ENDBRANCH   1   2
BRANCH   1  26
ATOM     26  O   UNL A   1      33.615  31.070  27.595  1.00  0.00    -0.374 OA
BRANCH  26  27
ATOM     27  C   UNL A   1      32.357  31.573  27.147  1.00  0.00     0.202 C 
BRANCH  27  28
ATOM     28  C   UNL A   1      32.214  33.096  27.194  1.00  0.00     0.261 C 
BRANCH  28  29
ATOM     29  O   UNL A   1      33.467  33.707  27.547  1.00  0.00    -0.460 OA
BRANCH  29  30
ATOM     30  C   UNL A   1      33.416  34.558  28.600  1.00  0.00     0.338 C 
ATOM     31  O   UNL A   1      32.545  35.382  28.828  1.00  0.00    -0.246 OA
BRANCH  30  32
ATOM     32  C   UNL A   1      34.480  34.227  29.573  1.00  0.00     0.060 A 
ATOM     33  C   UNL A   1      35.805  34.298  29.125  1.00  0.00     0.016 A 
ATOM     34  C   UNL A   1      34.202  33.825  30.880  1.00  0.00     0.016 A 
ATOM     35  C   UNL A   1      36.849  33.907  29.962  1.00  0.00     0.010 A 
ATOM     36  C   UNL A   1      35.252  33.442  31.723  1.00  0.00     0.010 A 
ATOM     37  C   UNL A   1      36.576  33.435  31.252  1.00  0.00    -0.014 A 
BRANCH  37  38
ATOM     38  C   UNL A   1      37.654  32.772  32.030  1.00  0.00     0.031 A 
ATOM     39  C   UNL A   1      38.340  31.571  31.435  1.00  0.00     0.074 A 
ATOM     40  C   UNL A   1      38.053  33.256  33.221  1.00  0.00     0.049 A 
ATOM     41  N   UNL A   1      39.315  30.847  31.920  1.00  0.00    -0.248 NA
ATOM     42  C   UNL A   1      37.862  31.128  30.115  1.00  0.00     0.031 C 
ATOM     43  C   UNL A   1      37.485  34.424  33.894  1.00  0.00     0.029 A 
ATOM     44  N   UNL A   1      39.037  32.822  34.074  1.00  0.00    -0.354 N 
ATOM     45  C   UNL A   1      39.561  29.860  30.972  1.00  0.00     0.074 A 
ATOM     46  C   UNL A   1      38.608  30.054  29.901  1.00  0.00     0.031 C 
ATOM     47  C   UNL A   1      38.133  34.614  35.057  1.00  0.00     0.029 A 
ATOM     48  C   UNL A   1      39.143  33.569  35.223  1.00  0.00     0.049 A 
ATOM     49  H   UNL A   1      39.612  32.047  33.882  1.00  0.00     0.167 HD
ATOM     50  C   UNL A   1      40.505  28.889  30.981  1.00  0.00     0.037 A 
ATOM     51  C   UNL A   1      39.957  33.422  36.287  1.00  0.00     0.037 A 
ATOM     52  C   UNL A   1      41.461  28.704  32.039  1.00  0.00     0.049 A 
ATOM     53  C   UNL A   1      40.973  32.307  36.297  1.00  0.00     0.074 A 
ATOM     54  C   UNL A   1      42.476  27.766  32.127  1.00  0.00     0.029 A 
ATOM     55  N   UNL A   1      41.521  29.467  33.194  1.00  0.00    -0.354 N 
ATOM     56  N   UNL A   1      41.216  31.405  35.376  1.00  0.00    -0.248 NA
ATOM     57  C   UNL A   1      41.830  32.196  37.486  1.00  0.00     0.031 C 
ATOM     58  C   UNL A   1      43.122  27.936  33.357  1.00  0.00     0.029 A 
ATOM     59  C   UNL A   1      42.541  29.010  34.012  1.00  0.00     0.049 A 
ATOM     60  H   UNL A   1      40.926  30.224  33.403  1.00  0.00     0.167 HD
ATOM     61  C   UNL A   1      42.270  30.637  35.864  1.00  0.00     0.074 A 
ATOM     62  C   UNL A   1      42.625  31.188  37.155  1.00  0.00     0.031 C 
ATOM     63  C   UNL A   1      42.890  29.575  35.292  1.00  0.00     0.037 A 
BRANCH  50  64
ATOM     64  C   UNL A   1      40.537  27.943  29.813  1.00  0.00     0.058 A 
ATOM     65  C   UNL A   1      39.607  26.899  29.681  1.00  0.00     0.135 A 
ATOM     66  C   UNL A   1      41.498  28.095  28.801  1.00  0.00     0.135 A 
ATOM     67  F   UNL A   1      38.678  26.697  30.629  1.00  0.00    -0.206 F 
ATOM     68  C   UNL A   1      39.646  26.023  28.601  1.00  0.00     0.059 A 
ATOM     69  C   UNL A   1      41.540  27.246  27.699  1.00  0.00     0.059 A 
ATOM     70  F   UNL A   1      42.413  29.075  28.879  1.00  0.00    -0.206 F 
ATOM     71  C   UNL A   1      40.617  26.204  27.615  1.00  0.00     0.060 A 
BRANCH  71  72
ATOM     72  S   UNL A   1      40.655  25.059  26.220  1.00  0.00     0.124 S 
ATOM     73  O   UNL A   1      41.595  24.049  26.697  1.00  0.00    -0.237 OA
ATOM     74  O   UNL A   1      39.262  24.635  26.126  1.00  0.00    -0.237 OA
ATOM     75  O   UNL A   1      41.131  25.885  25.115  1.00  0.00    -0.744 OA
ENDBRANCH  71  72
ENDBRANCH  50  64
BRANCH  51  76
ATOM     76  C   UNL A   1      39.849  34.356  37.440  1.00  0.00     0.058 A 
ATOM     77  C   UNL A   1      39.045  34.051  38.549  1.00  0.00     0.135 A 
ATOM     78  C   UNL A   1      40.541  35.577  37.452  1.00  0.00     0.135 A 
ATOM     79  F   UNL A   1      38.354  32.902  38.580  1.00  0.00    -0.206 F 
ATOM     80  C   UNL A   1      38.920  34.928  39.622  1.00  0.00     0.059 A 
ATOM     81  C   UNL A   1      40.451  36.460  38.523  1.00  0.00     0.059 A 
ATOM     82  F   UNL A   1      41.333  35.911  36.421  1.00  0.00    -0.206 F 
ATOM     83  C   UNL A   1      39.628  36.130  39.599  1.00  0.00     0.060 A 
BRANCH  83  84
ATOM     84  S   UNL A   1      39.495  37.243  41.016  1.00  0.00     0.124 S 
ATOM     85  O   UNL A   1      40.888  37.624  41.222  1.00  0.00    -0.237 OA
ATOM     86  O   UNL A   1      38.616  38.288  40.503  1.00  0.00    -0.237 OA
ATOM     87  O   UNL A   1      38.912  36.397  42.052  1.00  0.00    -0.744 OA
ENDBRANCH  83  84
ENDBRANCH  51  76
BRANCH  63  88
ATOM     88  C   UNL A   1      44.041  28.954  36.037  1.00  0.00     0.058 A 
ATOM     89  C   UNL A   1      45.337  29.488  35.972  1.00  0.00     0.135 A 
ATOM     90  C   UNL A   1      43.830  27.848  36.877  1.00  0.00     0.135 A 
ATOM     91  F   UNL A   1      45.595  30.542  35.181  1.00  0.00    -0.206 F 
ATOM     92  C   UNL A   1      46.389  28.935  36.697  1.00  0.00     0.059 A 
ATOM     93  C   UNL A   1      44.859  27.295  37.631  1.00  0.00     0.059 A 
ATOM     94  F   UNL A   1      42.606  27.306  36.986  1.00  0.00    -0.206 F 
ATOM     95  C   UNL A   1      46.138  27.839  37.526  1.00  0.00     0.060 A 
BRANCH  95  96
ATOM     96  S   UNL A   1      47.502  27.153  38.491  1.00  0.00     0.124 S 
ATOM     97  O   UNL A   1      47.750  25.894  37.798  1.00  0.00    -0.237 OA
ATOM     98  O   UNL A   1      48.536  28.174  38.342  1.00  0.00    -0.237 OA
ATOM     99  O   UNL A   1      46.941  27.032  39.833  1.00  0.00    -0.744 OA
ENDBRANCH  95  96
ENDBRANCH  63  88
ENDBRANCH  37  38
ENDBRANCH  30  32
ENDBRANCH  29  30
ENDBRANCH  28  29
ENDBRANCH  27  28
ENDBRANCH  26  27
ENDBRANCH   1  26
TORSDOF 23
ENDMDL
MODEL 2
REMARK VINA RESULT:      -9.7      2.506      8.562
REMARK SMILES CCn1cnc(S(=O)(=O)N[C@H](Cc2cnc[nH]2)C(=O)OCCOCCOC(=O)c2ccc(-c3c4nc(c(-c5c(F)cc(S(=O)(=O)[O-])cc5F)c5ccc([nH]5)c(-c5c(F)cc(S(=O)(=O)[O-])cc5F)c5nc(c(-c6c(F)cc(S(=O)(=O)[O-])cc6F)c6ccc3[nH]6)C=C5)C=C4)cc2)c1
REMARK SMILES IDX 22 1 21 2 20 3 18 4 19 5 11 6 10 7 7 9 8 10 9 11 6 12 3 13
REMARK SMILES IDX 4 14 95 15 5 16 2 17 1 18 12 19 13 20 14 21 17 22 15 23
REMARK SMILES IDX 16 24 23 26 24 27 25 28 26 29 27 30 28 31 29 32 30 33 94 34
REMARK SMILES IDX 31 35 93 36 32 37 33 38 34 39 87 40 35 41 92 42 86 43 88 44
REMARK SMILES IDX 36 45 91 46 85 47 84 48 37 50 71 51 50 52 70 53 51 54 54 55
REMARK SMILES IDX 69 56 89 57 52 58 53 59 68 61 90 62 55 63 38 64 39 65 48 66
REMARK SMILES IDX 40 67 41 68 47 69 49 70 42 71 43 72 44 73 45 74 46 75 72 76
REMARK SMILES IDX 73 77 82 78 74 79 75 80 81 81 83 82 76 83 77 84 78 85 79 86
REMARK SMILES IDX 80 87 56 88 57 89 66 90 58 91 59 92 65 93 67 94 60 95 61 96
REMARK SMILES IDX 62 97 63 98 64 99
REMARK H PARENT 10 8 17 25 88 49 54 60
REMARK Flexibility Score: inf
ROOT
ATOM      1  C   UNL A   1      39.277  20.157  25.676  1.00  0.00     0.202 C 
ENDROOT
BRANCH   1   2
ATOM      2  C   UNL A   1      38.320  21.345  25.532  1.00  0.00     0.261 C 
BRANCH   2   3
ATOM      3  O   UNL A   1      37.415  21.176  24.425  1.00  0.00    -0.462 OA
BRANCH   3   4
ATOM      4  C   UNL A   1      36.597  22.227  24.180  1.00  0.00     0.324 C 
ATOM      5  O   UNL A   1      36.961  23.354  23.862  1.00  0.00    -0.250 OA
BRANCH   4   6
ATOM      6  C   UNL A   1      35.130  21.884  24.348  1.00  0.00     0.185 C 
BRANCH   6   7
ATOM      7  N   UNL A   1      34.147  22.995  24.460  1.00  0.00    -0.195 NA
ATOM      8  H   UNL A   1      33.537  22.786  25.251  1.00  0.00     0.142 HD
BRANCH   7   9
ATOM      9  S   UNL A   1      33.150  23.292  23.108  1.00  0.00     0.260 S 
ATOM     10  O   UNL A   1      32.315  22.122  22.974  1.00  0.00    -0.205 OA
ATOM     11  O   UNL A   1      34.036  23.732  22.053  1.00  0.00    -0.205 OA
BRANCH   9  12
ATOM     12  C   UNL A   1      32.079  24.637  23.402  1.00  0.00     0.188 A 
ATOM     13  N   UNL A   1      31.249  26.509  24.161  1.00  0.00    -0.336 N 
ATOM     14  C   UNL A   1      30.249  25.724  23.653  1.00  0.00     0.201 A 
ATOM     15  C   UNL A   1      32.433  25.865  23.935  1.00  0.00     0.129 A 
ATOM     16  N   UNL A   1      30.713  24.589  23.183  1.00  0.00    -0.224 NA
BRANCH  13  17
ATOM     17  C   UNL A   1      31.025  27.768  24.844  1.00  0.00     0.120 C 
ATOM     18  C   UNL A   1      31.157  29.019  23.989  1.00  0.00     0.027 C 
ENDBRANCH  13  17
ENDBRANCH   9  12
ENDBRANCH   7   9
ENDBRANCH   6   7
BRANCH   6  19
ATOM     19  C   UNL A   1      34.817  20.739  25.322  1.00  0.00     0.087 C 
BRANCH  19  20
ATOM     20  C   UNL A   1      34.243  19.453  24.826  1.00  0.00     0.037 A 
ATOM     21  C   UNL A   1      32.919  19.136  24.587  1.00  0.00     0.134 A 
ATOM     22  N   UNL A   1      34.917  18.283  24.576  1.00  0.00    -0.348 N 
ATOM     23  N   UNL A   1      32.778  17.828  24.230  1.00  0.00    -0.245 NA
ATOM     24  C   UNL A   1      33.994  17.339  24.220  1.00  0.00     0.196 A 
ATOM     25  H   UNL A   1      35.891  18.147  24.642  1.00  0.00     0.167 HD
ENDBRANCH  19  20
ENDBRANCH   6  19
ENDBRANCH   4   6
ENDBRANCH   3   4
ENDBRANCH   2   3
ENDBRANCH   1   2
BRANCH   1  26
ATOM     26  O   UNL A   1      40.423  20.402  26.492  1.00  0.00    -0.374 OA
BRANCH  26  27
ATOM     27  C   UNL A   1      40.492  21.688  27.110  1.00  0.00     0.202 C 
BRANCH  27  28
ATOM     28  C   UNL A   1      41.599  22.603  26.579  1.00  0.00     0.261 C 
BRANCH  28  29
ATOM     29  O   UNL A   1      41.079  23.916  26.311  1.00  0.00    -0.460 OA
BRANCH  29  30
ATOM     30  C   UNL A   1      41.973  24.925  26.439  1.00  0.00     0.338 C 
ATOM     31  O   UNL A   1      42.985  25.089  25.778  1.00  0.00    -0.246 OA
BRANCH  30  32
ATOM     32  C   UNL A   1      41.458  25.943  27.381  1.00  0.00     0.060 A 
ATOM     33  C   UNL A   1      42.132  27.170  27.432  1.00  0.00     0.016 A 
ATOM     34  C   UNL A   1      40.370  25.706  28.221  1.00  0.00     0.016 A 
ATOM     35  C   UNL A   1      41.758  28.137  28.365  1.00  0.00     0.010 A 
ATOM     36  C   UNL A   1      39.989  26.680  29.151  1.00  0.00     0.010 A 
ATOM     37  C   UNL A   1      40.711  27.880  29.261  1.00  0.00    -0.014 A 
BRANCH  37  38
ATOM     38  C   UNL A   1      40.499  28.790  30.415  1.00  0.00     0.031 A 
ATOM     39  C   UNL A   1      41.379  28.635  31.628  1.00  0.00     0.074 A 
ATOM     40  C   UNL A   1      39.578  29.770  30.371  1.00  0.00     0.049 A 
ATOM     41  N   UNL A   1      41.390  29.323  32.739  1.00  0.00    -0.248 NA
ATOM     42  C   UNL A   1      42.382  27.558  31.579  1.00  0.00     0.031 C 
ATOM     43  C   UNL A   1      38.680  30.039  29.248  1.00  0.00     0.029 A 
ATOM     44  N   UNL A   1      39.248  30.726  31.300  1.00  0.00    -0.354 N 
ATOM     45  C   UNL A   1      42.389  28.760  33.524  1.00  0.00     0.074 A 
ATOM     46  C   UNL A   1      42.938  27.649  32.778  1.00  0.00     0.031 C 
ATOM     47  C   UNL A   1      37.902  31.092  29.555  1.00  0.00     0.029 A 
ATOM     48  C   UNL A   1      38.229  31.556  30.903  1.00  0.00     0.049 A 
ATOM     49  H   UNL A   1      39.700  30.807  32.171  1.00  0.00     0.167 HD
ATOM     50  C   UNL A   1      42.825  29.141  34.748  1.00  0.00     0.037 A 
ATOM     51  C   UNL A   1      37.625  32.570  31.554  1.00  0.00     0.037 A 
ATOM     52  C   UNL A   1      42.290  30.254  35.485  1.00  0.00     0.049 A 
ATOM     53  C   UNL A   1      38.097  32.951  32.935  1.00  0.00     0.074 A 
ATOM     54  C   UNL A   1      42.684  30.738  36.721  1.00  0.00     0.029 A 
ATOM     55  N   UNL A   1      41.243  31.056  35.057  1.00  0.00    -0.354 N 
ATOM     56  N   UNL A   1      39.067  32.430  33.648  1.00  0.00    -0.248 NA
ATOM     57  C   UNL A   1      37.397  34.062  33.596  1.00  0.00     0.031 C 
ATOM     58  C   UNL A   1      41.846  31.806  37.059  1.00  0.00     0.029 A 
ATOM     59  C   UNL A   1      40.963  32.019  36.013  1.00  0.00     0.049 A 
ATOM     60  H   UNL A   1      40.769  30.957  34.199  1.00  0.00     0.167 HD
ATOM     61  C   UNL A   1      39.111  33.168  34.828  1.00  0.00     0.074 A 
ATOM     62  C   UNL A   1      38.077  34.176  34.729  1.00  0.00     0.031 C 
ATOM     63  C   UNL A   1      39.936  33.024  35.896  1.00  0.00     0.037 A 
BRANCH  50  64
ATOM     64  C   UNL A   1      43.930  28.335  35.372  1.00  0.00     0.058 A 
ATOM     65  C   UNL A   1      43.664  27.245  36.217  1.00  0.00     0.135 A 
ATOM     66  C   UNL A   1      45.274  28.643  35.105  1.00  0.00     0.135 A 
ATOM     67  F   UNL A   1      42.397  26.919  36.520  1.00  0.00    -0.206 F 
ATOM     68  C   UNL A   1      44.691  26.507  36.797  1.00  0.00     0.059 A 
ATOM     69  C   UNL A   1      46.316  27.902  35.653  1.00  0.00     0.059 A 
ATOM     70  F   UNL A   1      45.585  29.676  34.306  1.00  0.00    -0.206 F 
ATOM     71  C   UNL A   1      46.014  26.844  36.510  1.00  0.00     0.060 A 
BRANCH  71  72
ATOM     72  S   UNL A   1      47.336  25.876  37.269  1.00  0.00     0.124 S 
ATOM     73  O   UNL A   1      46.923  25.869  38.670  1.00  0.00    -0.237 OA
ATOM     74  O   UNL A   1      47.230  24.600  36.570  1.00  0.00    -0.237 OA
ATOM     75  O   UNL A   1      48.537  26.650  36.974  1.00  0.00    -0.744 OA
ENDBRANCH  71  72
ENDBRANCH  50  64
BRANCH  51  76
ATOM     76  C   UNL A   1      36.501  33.302  30.911  1.00  0.00     0.058 A 
ATOM     77  C   UNL A   1      36.723  34.175  29.835  1.00  0.00     0.135 A 
ATOM     78  C   UNL A   1      35.182  33.151  31.367  1.00  0.00     0.135 A 
ATOM     79  F   UNL A   1      37.967  34.362  29.371  1.00  0.00    -0.206 F 
ATOM     80  C   UNL A   1      35.681  34.881  29.242  1.00  0.00     0.059 A 
ATOM     81  C   UNL A   1      34.120  33.828  30.776  1.00  0.00     0.059 A 
ATOM     82  F   UNL A   1      34.914  32.320  32.387  1.00  0.00    -0.206 F 
ATOM     83  C   UNL A   1      34.382  34.699  29.720  1.00  0.00     0.060 A 
BRANCH  83  84
ATOM     84  S   UNL A   1      33.030  35.586  28.916  1.00  0.00     0.124 S 
ATOM     85  O   UNL A   1      32.423  34.531  28.113  1.00  0.00    -0.237 OA
ATOM     86  O   UNL A   1      32.247  36.052  30.056  1.00  0.00    -0.237 OA
ATOM     87  O   UNL A   1      33.716  36.635  28.167  1.00  0.00    -0.744 OA
ENDBRANCH  83  84
ENDBRANCH  51  76
BRANCH  63  88
ATOM     88  C   UNL A   1      39.784  33.999  37.032  1.00  0.00     0.058 A 
ATOM     89  C   UNL A   1      39.057  33.677  38.189  1.00  0.00     0.135 A 
ATOM     90  C   UNL A   1      40.427  35.246  36.989  1.00  0.00     0.135 A 
ATOM     91  F   UNL A   1      38.420  32.499  38.281  1.00  0.00    -0.206 F 
ATOM     92  C   UNL A   1      38.956  34.566  39.255  1.00  0.00     0.059 A 
ATOM     93  C   UNL A   1      40.362  36.140  38.053  1.00  0.00     0.059 A 
ATOM     94  F   UNL A   1      41.145  35.599  35.911  1.00  0.00    -0.206 F 
ATOM     95  C   UNL A   1      39.615  35.795  39.178  1.00  0.00     0.060 A 
BRANCH  95  96
ATOM     96  S   UNL A   1      39.508  36.926  40.582  1.00  0.00     0.124 S 
ATOM     97  O   UNL A   1      40.864  36.861  41.117  1.00  0.00    -0.237 OA
ATOM     98  O   UNL A   1      39.137  38.185  39.944  1.00  0.00    -0.237 OA
ATOM     99  O   UNL A   1      38.473  36.328  41.420  1.00  0.00    -0.744 OA
ENDBRANCH  95  96
ENDBRANCH  63  88
ENDBRANCH  37  38
ENDBRANCH  30  32
ENDBRANCH  29  30
ENDBRANCH  28  29
ENDBRANCH  27  28
ENDBRANCH  26  27
ENDBRANCH   1  26
TORSDOF 23
ENDMDL
MODEL 3
REMARK VINA RESULT:      -9.6      1.015      8.684
REMARK SMILES CCn1cnc(S(=O)(=O)N[C@H](Cc2cnc[nH]2)C(=O)OCCOCCOC(=O)c2ccc(-c3c4nc(c(-c5c(F)cc(S(=O)(=O)[O-])cc5F)c5ccc([nH]5)c(-c5c(F)cc(S(=O)(=O)[O-])cc5F)c5nc(c(-c6c(F)cc(S(=O)(=O)[O-])cc6F)c6ccc3[nH]6)C=C5)C=C4)cc2)c1
REMARK SMILES IDX 22 1 21 2 20 3 18 4 19 5 11 6 10 7 7 9 8 10 9 11 6 12 3 13
REMARK SMILES IDX 4 14 95 15 5 16 2 17 1 18 12 19 13 20 14 21 17 22 15 23
REMARK SMILES IDX 16 24 23 26 24 27 25 28 26 29 27 30 28 31 29 32 30 33 94 34
REMARK SMILES IDX 31 35 93 36 32 37 33 38 34 39 87 40 35 41 92 42 86 43 88 44
REMARK SMILES IDX 36 45 91 46 85 47 84 48 37 50 71 51 50 52 70 53 51 54 54 55
REMARK SMILES IDX 69 56 89 57 52 58 53 59 68 61 90 62 55 63 38 64 39 65 48 66
REMARK SMILES IDX 40 67 41 68 47 69 49 70 42 71 43 72 44 73 45 74 46 75 72 76
REMARK SMILES IDX 73 77 82 78 74 79 75 80 81 81 83 82 76 83 77 84 78 85 79 86
REMARK SMILES IDX 80 87 56 88 57 89 66 90 58 91 59 92 65 93 67 94 60 95 61 96
REMARK SMILES IDX 62 97 63 98 64 99
REMARK H PARENT 10 8 17 25 88 49 54 60
REMARK Flexibility Score: inf
ROOT
ATOM      1  C   UNL A   1      34.368  29.778  27.465  1.00  0.00     0.202 C 
ENDROOT
BRANCH   1   2
ATOM      2  C   UNL A   1      33.230  28.790  27.185  1.00  0.00     0.261 C 
BRANCH   2   3
ATOM      3  O   UNL A   1      33.582  27.842  26.160  1.00  0.00    -0.462 OA
BRANCH   3   4
ATOM      4  C   UNL A   1      33.254  28.207  24.897  1.00  0.00     0.324 C 
ATOM      5  O   UNL A   1      34.039  28.617  24.048  1.00  0.00    -0.250 OA
BRANCH   4   6
ATOM      6  C   UNL A   1      31.773  28.070  24.610  1.00  0.00     0.185 C 
BRANCH   6   7
ATOM      7  N   UNL A   1      31.316  26.960  23.731  1.00  0.00    -0.195 NA
ATOM      8  H   UNL A   1      30.655  27.351  23.060  1.00  0.00     0.142 HD
BRANCH   7   9
ATOM      9  S   UNL A   1      30.556  25.633  24.486  1.00  0.00     0.260 S 
ATOM     10  O   UNL A   1      29.565  25.163  23.547  1.00  0.00    -0.205 OA
ATOM     11  O   UNL A   1      30.206  26.082  25.816  1.00  0.00    -0.205 OA
BRANCH   9  12
ATOM     12  C   UNL A   1      31.679  24.319  24.724  1.00  0.00     0.188 A 
ATOM     13  N   UNL A   1      33.463  23.177  25.251  1.00  0.00    -0.336 N 
ATOM     14  C   UNL A   1      32.682  22.455  24.389  1.00  0.00     0.201 A 
ATOM     15  C   UNL A   1      32.798  24.334  25.538  1.00  0.00     0.129 A 
ATOM     16  N   UNL A   1      31.595  23.111  24.053  1.00  0.00    -0.224 NA
BRANCH  13  17
ATOM     17  C   UNL A   1      34.773  22.753  25.707  1.00  0.00     0.120 C 
ATOM     18  C   UNL A   1      35.859  23.817  25.688  1.00  0.00     0.027 C 
ENDBRANCH  13  17
ENDBRANCH   9  12
ENDBRANCH   7   9
ENDBRANCH   6   7
BRANCH   6  19
ATOM     19  C   UNL A   1      31.023  29.379  24.318  1.00  0.00     0.087 C 
BRANCH  19  20
ATOM     20  C   UNL A   1      29.971  29.435  23.261  1.00  0.00     0.037 A 
ATOM     21  C   UNL A   1      30.038  30.016  22.009  1.00  0.00     0.134 A 
ATOM     22  N   UNL A   1      28.678  28.979  23.349  1.00  0.00    -0.348 N 
ATOM     23  N   UNL A   1      28.839  29.946  21.364  1.00  0.00    -0.245 NA
ATOM     24  C   UNL A   1      28.041  29.308  22.185  1.00  0.00     0.196 A 
ATOM     25  H   UNL A   1      28.282  28.501  24.114  1.00  0.00     0.167 HD
ENDBRANCH  19  20
ENDBRANCH   6  19
ENDBRANCH   4   6
ENDBRANCH   3   4
ENDBRANCH   2   3
ENDBRANCH   1   2
BRANCH   1  26
ATOM     26  O   UNL A   1      33.978  31.153  27.490  1.00  0.00    -0.374 OA
BRANCH  26  27
ATOM     27  C   UNL A   1      32.623  31.429  27.139  1.00  0.00     0.202 C 
BRANCH  27  28
ATOM     28  C   UNL A   1      32.205  32.896  27.271  1.00  0.00     0.261 C 
BRANCH  28  29
ATOM     29  O   UNL A   1      33.363  33.736  27.422  1.00  0.00    -0.460 OA
BRANCH  29  30
ATOM     30  C   UNL A   1      33.364  34.520  28.526  1.00  0.00     0.338 C 
ATOM     31  O   UNL A   1      32.499  35.316  28.854  1.00  0.00    -0.246 OA
BRANCH  30  32
ATOM     32  C   UNL A   1      34.488  34.147  29.413  1.00  0.00     0.060 A 
ATOM     33  C   UNL A   1      35.785  34.325  28.916  1.00  0.00     0.016 A 
ATOM     34  C   UNL A   1      34.292  33.605  30.684  1.00  0.00     0.016 A 
ATOM     35  C   UNL A   1      36.885  33.905  29.662  1.00  0.00     0.010 A 
ATOM     36  C   UNL A   1      35.397  33.193  31.436  1.00  0.00     0.010 A 
ATOM     37  C   UNL A   1      36.696  33.295  30.909  1.00  0.00    -0.014 A 
BRANCH  37  38
ATOM     38  C   UNL A   1      37.838  32.613  31.569  1.00  0.00     0.031 A 
ATOM     39  C   UNL A   1      38.300  33.114  32.912  1.00  0.00     0.074 A 
ATOM     40  C   UNL A   1      38.423  31.536  31.013  1.00  0.00     0.049 A 
ATOM     41  N   UNL A   1      39.259  32.666  33.680  1.00  0.00    -0.248 NA
ATOM     42  C   UNL A   1      37.584  34.277  33.462  1.00  0.00     0.031 C 
ATOM     43  C   UNL A   1      38.054  30.940  29.730  1.00  0.00     0.029 A 
ATOM     44  N   UNL A   1      39.454  30.749  31.464  1.00  0.00    -0.354 N 
ATOM     45  C   UNL A   1      39.268  33.494  34.797  1.00  0.00     0.074 A 
ATOM     46  C   UNL A   1      38.245  34.496  34.590  1.00  0.00     0.031 C 
ATOM     47  C   UNL A   1      38.848  29.879  29.498  1.00  0.00     0.029 A 
ATOM     48  C   UNL A   1      39.795  29.735  30.602  1.00  0.00     0.049 A 
ATOM     49  H   UNL A   1      39.907  30.899  32.325  1.00  0.00     0.167 HD
ATOM     50  C   UNL A   1      40.044  33.421  35.904  1.00  0.00     0.037 A 
ATOM     51  C   UNL A   1      40.765  28.803  30.692  1.00  0.00     0.037 A 
ATOM     52  C   UNL A   1      41.052  32.417  36.117  1.00  0.00     0.049 A 
ATOM     53  C   UNL A   1      41.648  28.766  31.914  1.00  0.00     0.074 A 
ATOM     54  C   UNL A   1      41.872  32.241  37.218  1.00  0.00     0.029 A 
ATOM     55  N   UNL A   1      41.382  31.421  35.210  1.00  0.00    -0.354 N 
ATOM     56  N   UNL A   1      41.619  29.534  32.976  1.00  0.00    -0.248 NA
ATOM     57  C   UNL A   1      42.689  27.728  31.952  1.00  0.00     0.031 C 
ATOM     58  C   UNL A   1      42.727  31.164  36.959  1.00  0.00     0.029 A 
ATOM     59  C   UNL A   1      42.407  30.640  35.717  1.00  0.00     0.049 A 
ATOM     60  H   UNL A   1      40.950  31.289  34.335  1.00  0.00     0.167 HD
ATOM     61  C   UNL A   1      42.618  29.056  33.820  1.00  0.00     0.074 A 
ATOM     62  C   UNL A   1      43.226  27.927  33.149  1.00  0.00     0.031 C 
ATOM     63  C   UNL A   1      42.996  29.510  35.041  1.00  0.00     0.037 A 
BRANCH  50  64
ATOM     64  C   UNL A   1      39.840  34.466  36.964  1.00  0.00     0.058 A 
ATOM     65  C   UNL A   1      40.437  35.734  36.877  1.00  0.00     0.135 A 
ATOM     66  C   UNL A   1      39.019  34.204  38.073  1.00  0.00     0.135 A 
ATOM     67  F   UNL A   1      41.246  36.031  35.847  1.00  0.00    -0.206 F 
ATOM     68  C   UNL A   1      40.250  36.696  37.865  1.00  0.00     0.059 A 
ATOM     69  C   UNL A   1      38.796  35.159  39.060  1.00  0.00     0.059 A 
ATOM     70  F   UNL A   1      38.426  33.007  38.207  1.00  0.00    -0.206 F 
ATOM     71  C   UNL A   1      39.428  36.399  38.954  1.00  0.00     0.060 A 
BRANCH  71  72
ATOM     72  S   UNL A   1      39.194  37.656  40.227  1.00  0.00     0.124 S 
ATOM     73  O   UNL A   1      38.778  36.843  41.366  1.00  0.00    -0.237 OA
ATOM     74  O   UNL A   1      40.522  38.252  40.326  1.00  0.00    -0.237 OA
ATOM     75  O   UNL A   1      38.162  38.522  39.666  1.00  0.00    -0.744 OA
ENDBRANCH  71  72
ENDBRANCH  50  64
BRANCH  51  76
ATOM     76  C   UNL A   1      40.958  27.823  29.589  1.00  0.00     0.058 A 
ATOM     77  C   UNL A   1      40.071  26.751  29.406  1.00  0.00     0.135 A 
ATOM     78  C   UNL A   1      42.040  27.934  28.702  1.00  0.00     0.135 A 
ATOM     79  F   UNL A   1      39.029  26.595  30.235  1.00  0.00    -0.206 F 
ATOM     80  C   UNL A   1      40.257  25.817  28.391  1.00  0.00     0.059 A 
ATOM     81  C   UNL A   1      42.234  27.027  27.666  1.00  0.00     0.059 A 
ATOM     82  F   UNL A   1      42.911  28.948  28.827  1.00  0.00    -0.206 F 
ATOM     83  C   UNL A   1      41.341  25.965  27.526  1.00  0.00     0.060 A 
BRANCH  83  84
ATOM     84  S   UNL A   1      41.550  24.773  26.185  1.00  0.00     0.124 S 
ATOM     85  O   UNL A   1      41.293  25.602  25.013  1.00  0.00    -0.237 OA
ATOM     86  O   UNL A   1      42.931  24.340  26.371  1.00  0.00    -0.237 OA
ATOM     87  O   UNL A   1      40.539  23.761  26.477  1.00  0.00    -0.744 OA
ENDBRANCH  83  84
ENDBRANCH  51  76
BRANCH  63  88
ATOM     88  C   UNL A   1      44.095  28.769  35.753  1.00  0.00     0.058 A 
ATOM     89  C   UNL A   1      45.442  29.138  35.620  1.00  0.00     0.135 A 
ATOM     90  C   UNL A   1      43.788  27.716  36.630  1.00  0.00     0.135 A 
ATOM     91  F   UNL A   1      45.791  30.136  34.791  1.00  0.00    -0.206 F 
ATOM     92  C   UNL A   1      46.450  28.475  36.315  1.00  0.00     0.059 A 
ATOM     93  C   UNL A   1      44.776  27.056  37.356  1.00  0.00     0.059 A 
ATOM     94  F   UNL A   1      42.513  27.331  36.805  1.00  0.00    -0.206 F 
ATOM     95  C   UNL A   1      46.105  27.437  37.183  1.00  0.00     0.060 A 
BRANCH  95  96
ATOM     96  S   UNL A   1      47.417  26.609  38.108  1.00  0.00     0.124 S 
ATOM     97  O   UNL A   1      47.724  27.600  39.134  1.00  0.00    -0.237 OA
ATOM     98  O   UNL A   1      46.754  25.395  38.575  1.00  0.00    -0.237 OA
ATOM     99  O   UNL A   1      48.458  26.400  37.106  1.00  0.00    -0.744 OA
ENDBRANCH  95  96
ENDBRANCH  63  88
ENDBRANCH  37  38
ENDBRANCH  30  32
ENDBRANCH  29  30
ENDBRANCH  28  29
ENDBRANCH  27  28
ENDBRANCH  26  27
ENDBRANCH   1  26
TORSDOF 23
ENDMDL
