MODEL 1
REMARK VINA RESULT:     -12.5      0.000      0.000
REMARK SMILES Cc1ccccc1C(=O)Nc1ccc(OCC(=O)OCCOCCOC(=O)c2ccc(-c3c4nc(c(-c5c(F)cc(S(=O)(=O)[O-])cc5F)c5ccc([nH]5)c(-c5c(F)cc(S(=O)(=O)[O-])cc5F)c5nc(c(-c6c(F)cc(S(=O)(=O)[O-])cc6F)c6ccc3[nH]6)C=C5)C=C4)cc2)c(-c2nc3ccccc3s2)c1
REMARK SMILES IDX 21 1 20 2 19 3 17 4 18 5 16 6 15 7 14 8 11 9 12 10 104 11
REMARK SMILES IDX 13 12 94 13 10 14 8 15 9 16 7 18 1 19 2 20 3 21 4 22 6 23
REMARK SMILES IDX 5 24 95 25 96 26 103 27 97 28 102 29 98 30 101 31 99 32
REMARK SMILES IDX 100 33 22 34 23 35 24 36 25 37 26 38 27 39 28 40 29 41 93 42
REMARK SMILES IDX 30 43 92 44 31 45 32 46 33 47 86 48 34 49 91 50 85 51 87 52
REMARK SMILES IDX 35 53 90 54 84 55 83 56 36 58 70 59 49 60 69 61 50 62 53 63
REMARK SMILES IDX 68 64 88 65 51 66 52 67 67 69 89 70 54 71 37 72 38 73 47 74
REMARK SMILES IDX 39 75 40 76 46 77 48 78 41 79 42 80 43 81 44 82 45 83 71 84
REMARK SMILES IDX 72 85 81 86 73 87 74 88 80 89 82 90 75 91 76 92 77 93 78 94
REMARK SMILES IDX 79 95 55 96 56 97 65 98 57 99 58 100 64 101 66 102 59 103
REMARK SMILES IDX 60 104 61 105 62 106 63 107
REMARK H PARENT 10 17 87 57 53 68
REMARK Flexibility Score: inf
ROOT
ATOM      1  C   UNL A   1      35.013  32.018  28.426  1.00  0.00     0.202 C 
ENDROOT
BRANCH   1   2
ATOM      2  C   UNL A   1      33.935  31.249  27.677  1.00  0.00     0.261 C 
BRANCH   2   3
ATOM      3  O   UNL A   1      34.501  30.015  27.249  1.00  0.00    -0.461 OA
BRANCH   3   4
ATOM      4  C   UNL A   1      33.791  29.142  26.526  1.00  0.00     0.344 C 
ATOM      5  O   UNL A   1      34.154  28.574  25.507  1.00  0.00    -0.248 OA
BRANCH   4   6
ATOM      6  C   UNL A   1      32.441  28.929  27.215  1.00  0.00     0.352 C 
BRANCH   6   7
ATOM      7  O   UNL A   1      31.466  27.919  26.968  1.00  0.00    -0.481 OA
BRANCH   7   8
ATOM      8  C   UNL A   1      31.541  26.926  26.027  1.00  0.00     0.130 A 
ATOM      9  C   UNL A   1      31.427  24.521  24.474  1.00  0.00     0.042 A 
ATOM     10  C   UNL A   1      31.638  24.471  25.849  1.00  0.00     0.030 A 
ATOM     11  C   UNL A   1      31.217  25.767  23.893  1.00  0.00     0.041 A 
ATOM     12  C   UNL A   1      31.753  25.654  26.596  1.00  0.00     0.049 A 
ATOM     13  C   UNL A   1      31.181  26.985  24.660  1.00  0.00     0.055 A 
BRANCH   9  14
ATOM     14  N   UNL A   1      31.360  23.298  23.774  1.00  0.00    -0.322 N 
ATOM     15  C   UNL A   1      32.318  22.488  23.193  1.00  0.00     0.255 C 
ATOM     16  O   UNL A   1      31.964  21.707  22.304  1.00  0.00    -0.269 OA
ATOM     17  H   UNL A   1      30.444  22.949  23.681  1.00  0.00     0.170 HD
BRANCH  15  18
ATOM     18  C   UNL A   1      33.721  22.381  23.698  1.00  0.00     0.043 A 
ATOM     19  C   UNL A   1      33.272  20.252  25.018  1.00  0.00     0.045 C 
ATOM     20  C   UNL A   1      34.146  21.397  24.605  1.00  0.00    -0.038 A 
ATOM     21  C   UNL A   1      35.485  21.392  25.042  1.00  0.00     0.004 A 
ATOM     22  C   UNL A   1      36.436  22.213  24.446  1.00  0.00     0.000 A 
ATOM     23  C   UNL A   1      34.706  23.146  23.045  1.00  0.00     0.014 A 
ATOM     24  C   UNL A   1      36.057  23.045  23.401  1.00  0.00     0.001 A 
ENDBRANCH  15  18
ENDBRANCH   9  14
BRANCH  13  25
ATOM     25  C   UNL A   1      30.773  28.178  23.880  1.00  0.00     0.128 A 
ATOM     26  N   UNL A   1      30.591  29.369  24.429  1.00  0.00    -0.236 NA
ATOM     27  S   UNL A   1      30.530  28.241  22.176  1.00  0.00    -0.114 S 
ATOM     28  C   UNL A   1      29.734  30.112  23.646  1.00  0.00     0.082 A 
ATOM     29  C   UNL A   1      29.394  29.518  22.433  1.00  0.00     0.055 A 
ATOM     30  C   UNL A   1      29.128  31.327  24.007  1.00  0.00     0.030 A 
ATOM     31  C   UNL A   1      28.325  29.987  21.654  1.00  0.00     0.021 A 
ATOM     32  C   UNL A   1      28.090  31.832  23.222  1.00  0.00     0.002 A 
ATOM     33  C   UNL A   1      27.663  31.142  22.088  1.00  0.00     0.002 A 
ENDBRANCH  13  25
ENDBRANCH   7   8
ENDBRANCH   6   7
ENDBRANCH   4   6
ENDBRANCH   3   4
ENDBRANCH   2   3
ENDBRANCH   1   2
BRANCH   1  34
ATOM     34  O   UNL A   1      36.158  31.246  28.803  1.00  0.00    -0.374 OA
BRANCH  34  35
ATOM     35  C   UNL A   1      36.267  30.803  30.155  1.00  0.00     0.202 C 
BRANCH  35  36
ATOM     36  C   UNL A   1      36.624  29.342  30.338  1.00  0.00     0.261 C 
BRANCH  36  37
ATOM     37  O   UNL A   1      37.944  29.158  30.823  1.00  0.00    -0.460 OA
BRANCH  37  38
ATOM     38  C   UNL A   1      38.745  28.302  30.106  1.00  0.00     0.338 C 
ATOM     39  O   UNL A   1      38.893  27.130  30.188  1.00  0.00    -0.246 OA
BRANCH  38  40
ATOM     40  C   UNL A   1      39.216  29.177  29.004  1.00  0.00     0.060 A 
ATOM     41  C   UNL A   1      39.188  28.640  27.712  1.00  0.00     0.016 A 
ATOM     42  C   UNL A   1      40.218  30.055  29.412  1.00  0.00     0.016 A 
ATOM     43  C   UNL A   1      40.356  28.690  26.966  1.00  0.00     0.010 A 
ATOM     44  C   UNL A   1      41.390  30.058  28.684  1.00  0.00     0.010 A 
ATOM     45  C   UNL A   1      41.502  29.193  27.590  1.00  0.00    -0.014 A 
BRANCH  45  46
ATOM     46  C   UNL A   1      42.807  28.544  27.391  1.00  0.00     0.031 A 
ATOM     47  C   UNL A   1      42.841  27.138  27.009  1.00  0.00     0.074 A 
ATOM     48  C   UNL A   1      43.974  29.227  27.420  1.00  0.00     0.049 A 
ATOM     49  N   UNL A   1      42.839  26.157  27.846  1.00  0.00    -0.248 NA
ATOM     50  C   UNL A   1      42.821  26.759  25.595  1.00  0.00     0.031 C 
ATOM     51  C   UNL A   1      45.321  28.701  27.242  1.00  0.00     0.029 A 
ATOM     52  N   UNL A   1      44.178  30.576  27.688  1.00  0.00    -0.354 N 
ATOM     53  C   UNL A   1      43.129  25.054  27.075  1.00  0.00     0.074 A 
ATOM     54  C   UNL A   1      42.857  25.431  25.694  1.00  0.00     0.031 C 
ATOM     55  C   UNL A   1      46.201  29.628  27.671  1.00  0.00     0.029 A 
ATOM     56  C   UNL A   1      45.470  30.795  28.153  1.00  0.00     0.049 A 
ATOM     57  H   UNL A   1      43.501  31.280  27.564  1.00  0.00     0.167 HD
ATOM     58  C   UNL A   1      44.119  24.177  27.409  1.00  0.00     0.037 A 
ATOM     59  C   UNL A   1      45.647  31.392  29.364  1.00  0.00     0.037 A 
ATOM     60  C   UNL A   1      45.117  24.822  28.271  1.00  0.00     0.049 A 
ATOM     61  C   UNL A   1      45.713  30.315  30.436  1.00  0.00     0.074 A 
ATOM     62  C   UNL A   1      46.410  25.255  28.016  1.00  0.00     0.029 A 
ATOM     63  N   UNL A   1      44.751  25.422  29.478  1.00  0.00    -0.354 N 
ATOM     64  N   UNL A   1      45.623  29.039  30.155  1.00  0.00    -0.248 NA
ATOM     65  C   UNL A   1      45.924  30.530  31.864  1.00  0.00     0.031 C 
ATOM     66  C   UNL A   1      46.794  26.157  29.043  1.00  0.00     0.029 A 
ATOM     67  C   UNL A   1      45.750  26.263  29.945  1.00  0.00     0.049 A 
ATOM     68  H   UNL A   1      43.895  25.266  29.939  1.00  0.00     0.167 HD
ATOM     69  C   UNL A   1      45.727  28.281  31.283  1.00  0.00     0.074 A 
ATOM     70  C   UNL A   1      45.927  29.263  32.334  1.00  0.00     0.031 C 
ATOM     71  C   UNL A   1      45.642  26.916  31.250  1.00  0.00     0.037 A 
BRANCH  58  72
ATOM     72  C   UNL A   1      44.311  22.930  26.568  1.00  0.00     0.058 A 
ATOM     73  C   UNL A   1      45.437  22.705  25.758  1.00  0.00     0.135 A 
ATOM     74  C   UNL A   1      43.375  21.862  26.602  1.00  0.00     0.135 A 
ATOM     75  F   UNL A   1      46.438  23.592  25.693  1.00  0.00    -0.206 F 
ATOM     76  C   UNL A   1      45.586  21.551  24.981  1.00  0.00     0.059 A 
ATOM     77  C   UNL A   1      43.484  20.718  25.811  1.00  0.00     0.059 A 
ATOM     78  F   UNL A   1      42.301  21.912  27.410  1.00  0.00    -0.206 F 
ATOM     79  C   UNL A   1      44.601  20.567  25.004  1.00  0.00     0.060 A 
BRANCH  79  80
ATOM     80  S   UNL A   1      44.803  19.093  23.984  1.00  0.00     0.124 S 
ATOM     81  O   UNL A   1      46.229  18.816  24.119  1.00  0.00    -0.237 OA
ATOM     82  O   UNL A   1      43.904  18.150  24.639  1.00  0.00    -0.237 OA
ATOM     83  O   UNL A   1      44.385  19.539  22.657  1.00  0.00    -0.744 OA
ENDBRANCH  79  80
ENDBRANCH  58  72
BRANCH  59  84
ATOM     84  C   UNL A   1      45.084  32.782  29.371  1.00  0.00     0.058 A 
ATOM     85  C   UNL A   1      45.607  33.660  28.392  1.00  0.00     0.135 A 
ATOM     86  C   UNL A   1      43.840  33.137  29.913  1.00  0.00     0.135 A 
ATOM     87  F   UNL A   1      46.791  33.382  27.818  1.00  0.00    -0.206 F 
ATOM     88  C   UNL A   1      44.894  34.750  27.891  1.00  0.00     0.059 A 
ATOM     89  C   UNL A   1      43.098  34.228  29.420  1.00  0.00     0.059 A 
ATOM     90  F   UNL A   1      43.257  32.344  30.824  1.00  0.00    -0.206 F 
ATOM     91  C   UNL A   1      43.621  35.012  28.387  1.00  0.00     0.060 A 
BRANCH  91  92
ATOM     92  S   UNL A   1      42.575  36.217  27.503  1.00  0.00     0.124 S 
ATOM     93  O   UNL A   1      41.238  35.684  27.727  1.00  0.00    -0.237 OA
ATOM     94  O   UNL A   1      42.886  37.468  28.194  1.00  0.00    -0.237 OA
ATOM     95  O   UNL A   1      43.079  36.132  26.136  1.00  0.00    -0.744 OA
ENDBRANCH  91  92
ENDBRANCH  59  84
BRANCH  71  96
ATOM     96  C   UNL A   1      45.545  26.027  32.461  1.00  0.00     0.058 A 
ATOM     97  C   UNL A   1      46.631  25.312  32.983  1.00  0.00     0.135 A 
ATOM     98  C   UNL A   1      44.363  26.025  33.243  1.00  0.00     0.135 A 
ATOM     99  F   UNL A   1      47.821  25.305  32.365  1.00  0.00    -0.206 F 
ATOM    100  C   UNL A   1      46.545  24.615  34.189  1.00  0.00     0.059 A 
ATOM    101  C   UNL A   1      44.276  25.390  34.473  1.00  0.00     0.059 A 
ATOM    102  F   UNL A   1      43.254  26.663  32.837  1.00  0.00    -0.206 F 
ATOM    103  C   UNL A   1      45.368  24.669  34.931  1.00  0.00     0.060 A 
BRANCH 103 104
ATOM    104  S   UNL A   1      45.276  23.841  36.527  1.00  0.00     0.124 S 
ATOM    105  O   UNL A   1      44.213  24.597  37.181  1.00  0.00    -0.237 OA
ATOM    106  O   UNL A   1      44.941  22.469  36.159  1.00  0.00    -0.237 OA
ATOM    107  O   UNL A   1      46.615  24.025  37.076  1.00  0.00    -0.744 OA
ENDBRANCH 103 104
ENDBRANCH  71  96
ENDBRANCH  45  46
ENDBRANCH  38  40
ENDBRANCH  37  38
ENDBRANCH  36  37
ENDBRANCH  35  36
ENDBRANCH  34  35
ENDBRANCH   1  34
TORSDOF 22
ENDMDL
MODEL 2
REMARK VINA RESULT:     -12.5      4.107      9.866
REMARK SMILES Cc1ccccc1C(=O)Nc1ccc(OCC(=O)OCCOCCOC(=O)c2ccc(-c3c4nc(c(-c5c(F)cc(S(=O)(=O)[O-])cc5F)c5ccc([nH]5)c(-c5c(F)cc(S(=O)(=O)[O-])cc5F)c5nc(c(-c6c(F)cc(S(=O)(=O)[O-])cc6F)c6ccc3[nH]6)C=C5)C=C4)cc2)c(-c2nc3ccccc3s2)c1
REMARK SMILES IDX 21 1 20 2 19 3 17 4 18 5 16 6 15 7 14 8 11 9 12 10 104 11
REMARK SMILES IDX 13 12 94 13 10 14 8 15 9 16 7 18 1 19 2 20 3 21 4 22 6 23
REMARK SMILES IDX 5 24 95 25 96 26 103 27 97 28 102 29 98 30 101 31 99 32
REMARK SMILES IDX 100 33 22 34 23 35 24 36 25 37 26 38 27 39 28 40 29 41 93 42
REMARK SMILES IDX 30 43 92 44 31 45 32 46 33 47 86 48 34 49 91 50 85 51 87 52
REMARK SMILES IDX 35 53 90 54 84 55 83 56 36 58 70 59 49 60 69 61 50 62 53 63
REMARK SMILES IDX 68 64 88 65 51 66 52 67 67 69 89 70 54 71 37 72 38 73 47 74
REMARK SMILES IDX 39 75 40 76 46 77 48 78 41 79 42 80 43 81 44 82 45 83 71 84
REMARK SMILES IDX 72 85 81 86 73 87 74 88 80 89 82 90 75 91 76 92 77 93 78 94
REMARK SMILES IDX 79 95 55 96 56 97 65 98 57 99 58 100 64 101 66 102 59 103
REMARK SMILES IDX 60 104 61 105 62 106 63 107
REMARK H PARENT 10 17 87 57 53 68
REMARK Flexibility Score: inf
ROOT
ATOM      1  C   UNL A   1      34.765  30.956  28.010  1.00  0.00     0.202 C 
ENDROOT
BRANCH   1   2
ATOM      2  C   UNL A   1      34.334  29.770  27.161  1.00  0.00     0.261 C 
BRANCH   2   3
ATOM      3  O   UNL A   1      32.923  29.635  27.289  1.00  0.00    -0.461 OA
BRANCH   3   4
ATOM      4  C   UNL A   1      32.209  28.943  26.394  1.00  0.00     0.344 C 
ATOM      5  O   UNL A   1      31.401  28.059  26.632  1.00  0.00    -0.248 OA
BRANCH   4   6
ATOM      6  C   UNL A   1      32.539  29.478  24.998  1.00  0.00     0.352 C 
BRANCH   6   7
ATOM      7  O   UNL A   1      33.060  28.770  23.876  1.00  0.00    -0.481 OA
BRANCH   7   8
ATOM      8  C   UNL A   1      32.668  27.534  23.437  1.00  0.00     0.130 A 
ATOM      9  C   UNL A   1      32.094  24.757  23.026  1.00  0.00     0.042 A 
ATOM     10  C   UNL A   1      33.275  25.155  23.647  1.00  0.00     0.030 A 
ATOM     11  C   UNL A   1      31.183  25.744  22.666  1.00  0.00     0.041 A 
ATOM     12  C   UNL A   1      33.579  26.518  23.792  1.00  0.00     0.049 A 
ATOM     13  C   UNL A   1      31.404  27.140  22.939  1.00  0.00     0.055 A 
BRANCH   9  14
ATOM     14  N   UNL A   1      31.866  23.373  22.875  1.00  0.00    -0.322 N 
ATOM     15  C   UNL A   1      32.426  22.252  23.460  1.00  0.00     0.255 C 
ATOM     16  O   UNL A   1      32.343  21.175  22.863  1.00  0.00    -0.269 OA
ATOM     17  H   UNL A   1      31.164  23.161  22.218  1.00  0.00     0.170 HD
BRANCH  15  18
ATOM     18  C   UNL A   1      32.973  22.238  24.851  1.00  0.00     0.043 A 
ATOM     19  C   UNL A   1      30.698  22.581  25.940  1.00  0.00     0.045 C 
ATOM     20  C   UNL A   1      32.191  22.470  25.995  1.00  0.00    -0.038 A 
ATOM     21  C   UNL A   1      32.803  22.461  27.264  1.00  0.00     0.004 A 
ATOM     22  C   UNL A   1      34.116  22.032  27.423  1.00  0.00     0.000 A 
ATOM     23  C   UNL A   1      34.272  21.728  25.034  1.00  0.00     0.014 A 
ATOM     24  C   UNL A   1      34.831  21.603  26.312  1.00  0.00     0.001 A 
ENDBRANCH  15  18
ENDBRANCH   9  14
BRANCH  13  25
ATOM     25  C   UNL A   1      30.240  28.006  22.634  1.00  0.00     0.128 A 
ATOM     26  N   UNL A   1      30.264  28.942  21.697  1.00  0.00    -0.236 NA
ATOM     27  S   UNL A   1      28.686  27.914  23.373  1.00  0.00    -0.114 S 
ATOM     28  C   UNL A   1      29.319  29.904  21.981  1.00  0.00     0.082 A 
ATOM     29  C   UNL A   1      28.490  29.603  23.059  1.00  0.00     0.055 A 
ATOM     30  C   UNL A   1      29.198  31.155  21.352  1.00  0.00     0.030 A 
ATOM     31  C   UNL A   1      27.679  30.576  23.662  1.00  0.00     0.021 A 
ATOM     32  C   UNL A   1      28.364  32.123  21.915  1.00  0.00     0.002 A 
ATOM     33  C   UNL A   1      27.654  31.850  23.083  1.00  0.00     0.002 A 
ENDBRANCH  13  25
ENDBRANCH   7   8
ENDBRANCH   6   7
ENDBRANCH   4   6
ENDBRANCH   3   4
ENDBRANCH   2   3
ENDBRANCH   1   2
BRANCH   1  34
ATOM     34  O   UNL A   1      36.113  30.901  28.487  1.00  0.00    -0.374 OA
BRANCH  34  35
ATOM     35  C   UNL A   1      37.108  30.303  27.657  1.00  0.00     0.202 C 
BRANCH  35  36
ATOM     36  C   UNL A   1      37.638  28.965  28.132  1.00  0.00     0.261 C 
BRANCH  36  37
ATOM     37  O   UNL A   1      39.046  28.967  28.308  1.00  0.00    -0.460 OA
BRANCH  37  38
ATOM     38  C   UNL A   1      39.713  27.833  27.909  1.00  0.00     0.338 C 
ATOM     39  O   UNL A   1      40.111  27.505  26.844  1.00  0.00    -0.246 OA
BRANCH  38  40
ATOM     40  C   UNL A   1      40.049  27.204  29.211  1.00  0.00     0.060 A 
ATOM     41  C   UNL A   1      38.979  26.874  30.050  1.00  0.00     0.016 A 
ATOM     42  C   UNL A   1      41.269  27.647  29.718  1.00  0.00     0.016 A 
ATOM     43  C   UNL A   1      39.013  27.341  31.355  1.00  0.00     0.010 A 
ATOM     44  C   UNL A   1      41.274  28.150  31.002  1.00  0.00     0.010 A 
ATOM     45  C   UNL A   1      40.069  28.184  31.715  1.00  0.00    -0.014 A 
BRANCH  45  46
ATOM     46  C   UNL A   1      39.830  29.368  32.553  1.00  0.00     0.031 A 
ATOM     47  C   UNL A   1      38.722  30.254  32.216  1.00  0.00     0.074 A 
ATOM     48  C   UNL A   1      40.510  29.601  33.698  1.00  0.00     0.049 A 
ATOM     49  N   UNL A   1      38.808  31.246  31.398  1.00  0.00    -0.248 NA
ATOM     50  C   UNL A   1      37.391  30.011  32.775  1.00  0.00     0.031 C 
ATOM     51  C   UNL A   1      40.367  30.731  34.607  1.00  0.00     0.029 A 
ATOM     52  N   UNL A   1      41.548  28.861  34.252  1.00  0.00    -0.354 N 
ATOM     53  C   UNL A   1      37.628  31.934  31.575  1.00  0.00     0.074 A 
ATOM     54  C   UNL A   1      36.705  31.013  32.225  1.00  0.00     0.031 C 
ATOM     55  C   UNL A   1      41.438  30.759  35.425  1.00  0.00     0.029 A 
ATOM     56  C   UNL A   1      42.329  29.654  35.085  1.00  0.00     0.049 A 
ATOM     57  H   UNL A   1      41.708  27.905  34.079  1.00  0.00     0.167 HD
ATOM     58  C   UNL A   1      37.603  33.277  31.811  1.00  0.00     0.037 A 
ATOM     59  C   UNL A   1      43.663  29.765  34.837  1.00  0.00     0.037 A 
ATOM     60  C   UNL A   1      38.876  33.729  32.386  1.00  0.00     0.049 A 
ATOM     61  C   UNL A   1      43.892  30.950  33.911  1.00  0.00     0.074 A 
ATOM     62  C   UNL A   1      39.217  34.117  33.673  1.00  0.00     0.029 A 
ATOM     63  N   UNL A   1      40.087  33.507  31.727  1.00  0.00    -0.354 N 
ATOM     64  N   UNL A   1      42.911  31.704  33.479  1.00  0.00    -0.248 NA
ATOM     65  C   UNL A   1      45.182  31.430  33.426  1.00  0.00     0.031 C 
ATOM     66  C   UNL A   1      40.631  34.072  33.798  1.00  0.00     0.029 A 
ATOM     67  C   UNL A   1      41.165  33.681  32.583  1.00  0.00     0.049 A 
ATOM     68  H   UNL A   1      40.166  33.260  30.776  1.00  0.00     0.167 HD
ATOM     69  C   UNL A   1      43.378  32.704  32.681  1.00  0.00     0.074 A 
ATOM     70  C   UNL A   1      44.816  32.499  32.685  1.00  0.00     0.031 C 
ATOM     71  C   UNL A   1      42.541  33.611  32.091  1.00  0.00     0.037 A 
BRANCH  58  72
ATOM     72  C   UNL A   1      36.264  33.984  31.893  1.00  0.00     0.058 A 
ATOM     73  C   UNL A   1      35.446  34.229  30.777  1.00  0.00     0.135 A 
ATOM     74  C   UNL A   1      35.716  34.391  33.138  1.00  0.00     0.135 A 
ATOM     75  F   UNL A   1      35.801  33.827  29.550  1.00  0.00    -0.206 F 
ATOM     76  C   UNL A   1      34.219  34.894  30.876  1.00  0.00     0.059 A 
ATOM     77  C   UNL A   1      34.512  35.086  33.258  1.00  0.00     0.059 A 
ATOM     78  F   UNL A   1      36.356  34.131  34.292  1.00  0.00    -0.206 F 
ATOM     79  C   UNL A   1      33.764  35.330  32.117  1.00  0.00     0.060 A 
BRANCH  79  80
ATOM     80  S   UNL A   1      32.187  36.200  32.223  1.00  0.00     0.124 S 
ATOM     81  O   UNL A   1      31.258  35.119  32.533  1.00  0.00    -0.237 OA
ATOM     82  O   UNL A   1      32.442  37.152  33.299  1.00  0.00    -0.237 OA
ATOM     83  O   UNL A   1      32.033  36.785  30.893  1.00  0.00    -0.744 OA
ENDBRANCH  79  80
ENDBRANCH  58  72
BRANCH  59  84
ATOM     84  C   UNL A   1      44.349  28.437  34.956  1.00  0.00     0.058 A 
ATOM     85  C   UNL A   1      44.338  27.856  36.246  1.00  0.00     0.135 A 
ATOM     86  C   UNL A   1      44.578  27.558  33.887  1.00  0.00     0.135 A 
ATOM     87  F   UNL A   1      44.115  28.632  37.320  1.00  0.00    -0.206 F 
ATOM     88  C   UNL A   1      44.425  26.479  36.459  1.00  0.00     0.059 A 
ATOM     89  C   UNL A   1      44.662  26.165  34.075  1.00  0.00     0.059 A 
ATOM     90  F   UNL A   1      44.573  28.021  32.628  1.00  0.00    -0.206 F 
ATOM     91  C   UNL A   1      44.554  25.631  35.363  1.00  0.00     0.060 A 
BRANCH  91  92
ATOM     92  S   UNL A   1      44.331  23.839  35.620  1.00  0.00     0.124 S 
ATOM     93  O   UNL A   1      44.876  23.651  36.957  1.00  0.00    -0.237 OA
ATOM     94  O   UNL A   1      42.882  23.682  35.495  1.00  0.00    -0.237 OA
ATOM     95  O   UNL A   1      45.105  23.263  34.525  1.00  0.00    -0.744 OA
ENDBRANCH  91  92
ENDBRANCH  59  84
BRANCH  71  96
ATOM     96  C   UNL A   1      42.952  34.613  31.044  1.00  0.00     0.058 A 
ATOM     97  C   UNL A   1      43.380  35.913  31.345  1.00  0.00     0.135 A 
ATOM     98  C   UNL A   1      43.097  34.205  29.695  1.00  0.00     0.135 A 
ATOM     99  F   UNL A   1      43.357  36.380  32.602  1.00  0.00    -0.206 F 
ATOM    100  C   UNL A   1      43.892  36.766  30.367  1.00  0.00     0.059 A 
ATOM    101  C   UNL A   1      43.661  35.015  28.721  1.00  0.00     0.059 A 
ATOM    102  F   UNL A   1      42.707  32.987  29.286  1.00  0.00    -0.206 F 
ATOM    103  C   UNL A   1      44.038  36.305  29.062  1.00  0.00     0.060 A 
BRANCH 103 104
ATOM    104  S   UNL A   1      44.775  37.371  27.812  1.00  0.00     0.124 S 
ATOM    105  O   UNL A   1      43.774  38.428  27.709  1.00  0.00    -0.237 OA
ATOM    106  O   UNL A   1      46.041  37.760  28.427  1.00  0.00    -0.237 OA
ATOM    107  O   UNL A   1      44.894  36.494  26.652  1.00  0.00    -0.744 OA
ENDBRANCH 103 104
ENDBRANCH  71  96
ENDBRANCH  45  46
ENDBRANCH  38  40
ENDBRANCH  37  38
ENDBRANCH  36  37
ENDBRANCH  35  36
ENDBRANCH  34  35
ENDBRANCH   1  34
TORSDOF 22
ENDMDL
MODEL 3
REMARK VINA RESULT:     -12.1      3.894     11.032
REMARK SMILES Cc1ccccc1C(=O)Nc1ccc(OCC(=O)OCCOCCOC(=O)c2ccc(-c3c4nc(c(-c5c(F)cc(S(=O)(=O)[O-])cc5F)c5ccc([nH]5)c(-c5c(F)cc(S(=O)(=O)[O-])cc5F)c5nc(c(-c6c(F)cc(S(=O)(=O)[O-])cc6F)c6ccc3[nH]6)C=C5)C=C4)cc2)c(-c2nc3ccccc3s2)c1
REMARK SMILES IDX 21 1 20 2 19 3 17 4 18 5 16 6 15 7 14 8 11 9 12 10 104 11
REMARK SMILES IDX 13 12 94 13 10 14 8 15 9 16 7 18 1 19 2 20 3 21 4 22 6 23
REMARK SMILES IDX 5 24 95 25 96 26 103 27 97 28 102 29 98 30 101 31 99 32
REMARK SMILES IDX 100 33 22 34 23 35 24 36 25 37 26 38 27 39 28 40 29 41 93 42
REMARK SMILES IDX 30 43 92 44 31 45 32 46 33 47 86 48 34 49 91 50 85 51 87 52
REMARK SMILES IDX 35 53 90 54 84 55 83 56 36 58 70 59 49 60 69 61 50 62 53 63
REMARK SMILES IDX 68 64 88 65 51 66 52 67 67 69 89 70 54 71 37 72 38 73 47 74
REMARK SMILES IDX 39 75 40 76 46 77 48 78 41 79 42 80 43 81 44 82 45 83 71 84
REMARK SMILES IDX 72 85 81 86 73 87 74 88 80 89 82 90 75 91 76 92 77 93 78 94
REMARK SMILES IDX 79 95 55 96 56 97 65 98 57 99 58 100 64 101 66 102 59 103
REMARK SMILES IDX 60 104 61 105 62 106 63 107
REMARK H PARENT 10 17 87 57 53 68
REMARK Flexibility Score: inf
ROOT
ATOM      1  C   UNL A   1      34.550  28.967  26.617  1.00  0.00     0.202 C 
ENDROOT
BRANCH   1   2
ATOM      2  C   UNL A   1      33.656  27.739  26.683  1.00  0.00     0.261 C 
BRANCH   2   3
ATOM      3  O   UNL A   1      33.837  27.005  25.477  1.00  0.00    -0.461 OA
BRANCH   3   4
ATOM      4  C   UNL A   1      33.471  25.722  25.386  1.00  0.00     0.344 C 
ATOM      5  O   UNL A   1      32.331  25.284  25.415  1.00  0.00    -0.248 OA
BRANCH   4   6
ATOM      6  C   UNL A   1      34.731  24.874  25.191  1.00  0.00     0.352 C 
BRANCH   6   7
ATOM      7  O   UNL A   1      35.320  23.937  26.089  1.00  0.00    -0.481 OA
BRANCH   7   8
ATOM      8  C   UNL A   1      36.451  23.196  25.869  1.00  0.00     0.130 A 
ATOM      9  C   UNL A   1      39.026  21.939  25.880  1.00  0.00     0.042 A 
ATOM     10  C   UNL A   1      38.886  23.279  26.232  1.00  0.00     0.030 A 
ATOM     11  C   UNL A   1      37.873  21.222  25.581  1.00  0.00     0.041 A 
ATOM     12  C   UNL A   1      37.631  23.905  26.167  1.00  0.00     0.049 A 
ATOM     13  C   UNL A   1      36.557  21.802  25.652  1.00  0.00     0.055 A 
BRANCH   9  14
ATOM     14  N   UNL A   1      40.319  21.379  25.929  1.00  0.00    -0.322 N 
ATOM     15  C   UNL A   1      41.589  21.925  25.885  1.00  0.00     0.255 C 
ATOM     16  O   UNL A   1      42.526  21.202  25.532  1.00  0.00    -0.269 OA
ATOM     17  H   UNL A   1      40.318  20.398  26.010  1.00  0.00     0.170 HD
BRANCH  15  18
ATOM     18  C   UNL A   1      41.916  23.287  26.406  1.00  0.00     0.043 A 
ATOM     19  C   UNL A   1      42.164  22.503  28.814  1.00  0.00     0.045 C 
ATOM     20  C   UNL A   1      42.102  23.574  27.767  1.00  0.00    -0.038 A 
ATOM     21  C   UNL A   1      42.384  24.896  28.164  1.00  0.00     0.004 A 
ATOM     22  C   UNL A   1      42.677  25.878  27.224  1.00  0.00     0.000 A 
ATOM     23  C   UNL A   1      42.294  24.267  25.468  1.00  0.00     0.014 A 
ATOM     24  C   UNL A   1      42.695  25.546  25.876  1.00  0.00     0.001 A 
ENDBRANCH  15  18
ENDBRANCH   9  14
BRANCH  13  25
ATOM     25  C   UNL A   1      35.456  20.827  25.464  1.00  0.00     0.128 A 
ATOM     26  N   UNL A   1      35.666  19.538  25.245  1.00  0.00    -0.236 NA
ATOM     27  S   UNL A   1      33.770  21.171  25.556  1.00  0.00    -0.114 S 
ATOM     28  C   UNL A   1      34.577  18.997  24.595  1.00  0.00     0.082 A 
ATOM     29  C   UNL A   1      33.493  19.861  24.461  1.00  0.00     0.055 A 
ATOM     30  C   UNL A   1      34.518  17.727  23.998  1.00  0.00     0.030 A 
ATOM     31  C   UNL A   1      32.431  19.585  23.588  1.00  0.00     0.021 A 
ATOM     32  C   UNL A   1      33.447  17.418  23.157  1.00  0.00     0.002 A 
ATOM     33  C   UNL A   1      32.444  18.355  22.918  1.00  0.00     0.002 A 
ENDBRANCH  13  25
ENDBRANCH   7   8
ENDBRANCH   6   7
ENDBRANCH   4   6
ENDBRANCH   3   4
ENDBRANCH   2   3
ENDBRANCH   1   2
BRANCH   1  34
ATOM     34  O   UNL A   1      35.601  29.004  27.588  1.00  0.00    -0.374 OA
BRANCH  34  35
ATOM     35  C   UNL A   1      36.465  30.140  27.617  1.00  0.00     0.202 C 
BRANCH  35  36
ATOM     36  C   UNL A   1      37.897  29.862  28.028  1.00  0.00     0.261 C 
BRANCH  36  37
ATOM     37  O   UNL A   1      38.144  28.483  28.249  1.00  0.00    -0.460 OA
BRANCH  37  38
ATOM     38  C   UNL A   1      39.382  28.017  27.877  1.00  0.00     0.338 C 
ATOM     39  O   UNL A   1      40.020  28.212  26.899  1.00  0.00    -0.246 OA
BRANCH  38  40
ATOM     40  C   UNL A   1      39.860  27.386  29.132  1.00  0.00     0.060 A 
ATOM     41  C   UNL A   1      38.883  26.952  30.035  1.00  0.00     0.016 A 
ATOM     42  C   UNL A   1      41.076  27.912  29.564  1.00  0.00     0.016 A 
ATOM     43  C   UNL A   1      38.976  27.390  31.348  1.00  0.00     0.010 A 
ATOM     44  C   UNL A   1      41.136  28.383  30.859  1.00  0.00     0.010 A 
ATOM     45  C   UNL A   1      39.988  28.305  31.656  1.00  0.00    -0.014 A 
BRANCH  45  46
ATOM     46  C   UNL A   1      39.719  29.446  32.543  1.00  0.00     0.031 A 
ATOM     47  C   UNL A   1      38.607  30.334  32.228  1.00  0.00     0.074 A 
ATOM     48  C   UNL A   1      40.377  29.634  33.710  1.00  0.00     0.049 A 
ATOM     49  N   UNL A   1      38.695  31.364  31.457  1.00  0.00    -0.248 NA
ATOM     50  C   UNL A   1      37.269  30.051  32.751  1.00  0.00     0.031 C 
ATOM     51  C   UNL A   1      40.205  30.720  34.667  1.00  0.00     0.029 A 
ATOM     52  N   UNL A   1      41.414  28.881  34.248  1.00  0.00    -0.354 N 
ATOM     53  C   UNL A   1      37.504  32.030  31.645  1.00  0.00     0.074 A 
ATOM     54  C   UNL A   1      36.581  31.070  32.235  1.00  0.00     0.031 C 
ATOM     55  C   UNL A   1      41.261  30.721  35.505  1.00  0.00     0.029 A 
ATOM     56  C   UNL A   1      42.171  29.644  35.130  1.00  0.00     0.049 A 
ATOM     57  H   UNL A   1      41.588  27.936  34.034  1.00  0.00     0.167 HD
ATOM     58  C   UNL A   1      37.459  33.361  31.942  1.00  0.00     0.037 A 
ATOM     59  C   UNL A   1      43.507  29.781  34.911  1.00  0.00     0.037 A 
ATOM     60  C   UNL A   1      38.716  33.800  32.559  1.00  0.00     0.049 A 
ATOM     61  C   UNL A   1      43.738  31.010  34.045  1.00  0.00     0.074 A 
ATOM     62  C   UNL A   1      39.030  34.132  33.869  1.00  0.00     0.029 A 
ATOM     63  N   UNL A   1      39.941  33.622  31.912  1.00  0.00    -0.354 N 
ATOM     64  N   UNL A   1      42.756  31.771  33.631  1.00  0.00    -0.248 NA
ATOM     65  C   UNL A   1      45.030  31.526  33.605  1.00  0.00     0.031 C 
ATOM     66  C   UNL A   1      40.442  34.097  34.017  1.00  0.00     0.029 A 
ATOM     67  C   UNL A   1      41.002  33.768  32.795  1.00  0.00     0.049 A 
ATOM     68  H   UNL A   1      40.039  33.420  30.954  1.00  0.00     0.167 HD
ATOM     69  C   UNL A   1      43.224  32.813  32.887  1.00  0.00     0.074 A 
ATOM     70  C   UNL A   1      44.664  32.623  32.908  1.00  0.00     0.031 C 
ATOM     71  C   UNL A   1      42.387  33.737  32.326  1.00  0.00     0.037 A 
BRANCH  58  72
ATOM     72  C   UNL A   1      36.110  34.048  32.032  1.00  0.00     0.058 A 
ATOM     73  C   UNL A   1      35.572  34.550  33.229  1.00  0.00     0.135 A 
ATOM     74  C   UNL A   1      35.323  34.288  30.874  1.00  0.00     0.135 A 
ATOM     75  F   UNL A   1      36.244  34.464  34.385  1.00  0.00    -0.206 F 
ATOM     76  C   UNL A   1      34.320  35.170  33.289  1.00  0.00     0.059 A 
ATOM     77  C   UNL A   1      34.057  34.873  30.914  1.00  0.00     0.059 A 
ATOM     78  F   UNL A   1      35.767  33.942  29.654  1.00  0.00    -0.206 F 
ATOM     79  C   UNL A   1      33.562  35.318  32.131  1.00  0.00     0.060 A 
BRANCH  79  80
ATOM     80  S   UNL A   1      31.943  36.105  32.230  1.00  0.00     0.124 S 
ATOM     81  O   UNL A   1      31.107  35.028  32.751  1.00  0.00    -0.237 OA
ATOM     82  O   UNL A   1      32.202  37.211  33.146  1.00  0.00    -0.237 OA
ATOM     83  O   UNL A   1      31.666  36.487  30.848  1.00  0.00    -0.744 OA
ENDBRANCH  79  80
ENDBRANCH  58  72
BRANCH  59  84
ATOM     84  C   UNL A   1      44.207  28.457  34.981  1.00  0.00     0.058 A 
ATOM     85  C   UNL A   1      44.288  27.874  36.269  1.00  0.00     0.135 A 
ATOM     86  C   UNL A   1      44.367  27.580  33.898  1.00  0.00     0.135 A 
ATOM     87  F   UNL A   1      44.135  28.648  37.357  1.00  0.00    -0.206 F 
ATOM     88  C   UNL A   1      44.397  26.497  36.473  1.00  0.00     0.059 A 
ATOM     89  C   UNL A   1      44.471  26.187  34.079  1.00  0.00     0.059 A 
ATOM     90  F   UNL A   1      44.273  28.043  32.644  1.00  0.00    -0.206 F 
ATOM     91  C   UNL A   1      44.455  25.651  35.371  1.00  0.00     0.060 A 
BRANCH  91  92
ATOM     92  S   UNL A   1      44.260  23.858  35.640  1.00  0.00     0.124 S 
ATOM     93  O   UNL A   1      44.795  23.690  36.984  1.00  0.00    -0.237 OA
ATOM     94  O   UNL A   1      42.815  23.676  35.503  1.00  0.00    -0.237 OA
ATOM     95  O   UNL A   1      45.053  23.286  34.557  1.00  0.00    -0.744 OA
ENDBRANCH  91  92
ENDBRANCH  59  84
BRANCH  71  96
ATOM     96  C   UNL A   1      42.804  34.790  31.333  1.00  0.00     0.058 A 
ATOM     97  C   UNL A   1      43.421  35.994  31.698  1.00  0.00     0.135 A 
ATOM     98  C   UNL A   1      42.749  34.513  29.945  1.00  0.00     0.135 A 
ATOM     99  F   UNL A   1      43.592  36.325  32.987  1.00  0.00    -0.206 F 
ATOM    100  C   UNL A   1      43.926  36.882  30.748  1.00  0.00     0.059 A 
ATOM    101  C   UNL A   1      43.301  35.352  28.988  1.00  0.00     0.059 A 
ATOM    102  F   UNL A   1      42.169  33.397  29.476  1.00  0.00    -0.206 F 
ATOM    103  C   UNL A   1      43.871  36.547  29.398  1.00  0.00     0.060 A 
BRANCH 103 104
ATOM    104  S   UNL A   1      44.596  37.649  28.172  1.00  0.00     0.124 S 
ATOM    105  O   UNL A   1      46.021  37.394  28.364  1.00  0.00    -0.237 OA
ATOM    106  O   UNL A   1      44.031  37.155  26.920  1.00  0.00    -0.237 OA
ATOM    107  O   UNL A   1      44.126  38.966  28.587  1.00  0.00    -0.744 OA
ENDBRANCH 103 104
ENDBRANCH  71  96
ENDBRANCH  45  46
ENDBRANCH  38  40
ENDBRANCH  37  38
ENDBRANCH  36  37
ENDBRANCH  35  36
ENDBRANCH  34  35
ENDBRANCH   1  34
TORSDOF 22
ENDMDL
