MODEL 1
REMARK VINA RESULT:     -12.6      0.000      0.000
REMARK SMILES O=C(OCCOCCOC(=O)C1CCN(C2=[NH+]C(Cl)=[NH+]C3=[NH+]C=N[C@@H]32)CC1)c1ccc(-c2c3nc(c(-c4c(F)cc(S(=O)(=O)[O-])cc4F)c4ccc([nH]4)c(-c4c(F)cc(S(=O)(=O)[O-])cc4F)c4nc(c(-c5c(F)cc(S(=O)(=O)[O-])cc5F)c5ccc2[nH]5)C=C4)C=C3)cc1
REMARK SMILES IDX 4 1 3 2 2 3 1 4 28 5 29 6 93 7 30 8 92 9 31 10 32 11 33 12
REMARK SMILES IDX 86 13 34 14 91 15 85 16 87 17 35 18 90 19 84 20 83 21 36 23
REMARK SMILES IDX 70 24 49 25 69 26 50 27 53 28 68 29 88 30 51 31 52 32 67 34
REMARK SMILES IDX 89 35 54 36 37 37 38 38 47 39 39 40 40 41 46 42 48 43 41 44
REMARK SMILES IDX 42 45 43 46 44 47 45 48 71 49 72 50 81 51 73 52 74 53 80 54
REMARK SMILES IDX 82 55 75 56 76 57 77 58 78 59 79 60 55 61 56 62 65 63 57 64
REMARK SMILES IDX 58 65 64 66 66 67 59 68 60 69 61 70 62 71 63 72 5 73 6 74
REMARK SMILES IDX 7 75 8 76 9 77 10 78 11 79 12 80 13 81 27 82 14 83 26 84
REMARK SMILES IDX 15 85 16 86 17 87 25 88 18 89 21 91 24 92 19 93 20 94 22 95
REMARK SMILES IDX 23 96
REMARK H PARENT 87 22 53 33 17 90 20 97 22 98
REMARK Flexibility Score: inf
ROOT
ATOM      1  C   UNL A   1      42.505  19.138  26.104  1.00  0.00     0.261 C 
ENDROOT
BRANCH   1   2
ATOM      2  O   UNL A   1      43.114  19.817  25.004  1.00  0.00    -0.460 OA
BRANCH   2   3
ATOM      3  C   UNL A   1      44.235  20.586  25.018  1.00  0.00     0.338 C 
ATOM      4  O   UNL A   1      45.256  20.135  24.528  1.00  0.00    -0.246 OA
BRANCH   3   5
ATOM      5  C   UNL A   1      44.246  21.982  25.538  1.00  0.00     0.060 A 
ATOM      6  C   UNL A   1      45.119  22.499  26.492  1.00  0.00     0.016 A 
ATOM      7  C   UNL A   1      43.252  22.822  25.014  1.00  0.00     0.016 A 
ATOM      8  C   UNL A   1      44.829  23.697  27.118  1.00  0.00     0.010 A 
ATOM      9  C   UNL A   1      43.034  24.082  25.552  1.00  0.00     0.010 A 
ATOM     10  C   UNL A   1      43.760  24.474  26.671  1.00  0.00    -0.014 A 
BRANCH  10  11
ATOM     11  C   UNL A   1      43.538  25.743  27.353  1.00  0.00     0.031 A 
ATOM     12  C   UNL A   1      44.578  26.781  27.103  1.00  0.00     0.074 A 
ATOM     13  C   UNL A   1      42.441  26.020  28.082  1.00  0.00     0.049 A 
ATOM     14  N   UNL A   1      45.356  27.364  27.956  1.00  0.00    -0.248 NA
ATOM     15  C   UNL A   1      44.874  27.105  25.699  1.00  0.00     0.031 C 
ATOM     16  C   UNL A   1      41.210  25.235  28.198  1.00  0.00     0.029 A 
ATOM     17  N   UNL A   1      42.157  27.151  28.786  1.00  0.00    -0.354 N 
ATOM     18  C   UNL A   1      46.105  28.281  27.221  1.00  0.00     0.074 A 
ATOM     19  C   UNL A   1      45.881  27.967  25.834  1.00  0.00     0.031 C 
ATOM     20  C   UNL A   1      40.238  26.018  28.713  1.00  0.00     0.029 A 
ATOM     21  C   UNL A   1      40.811  27.302  29.082  1.00  0.00     0.049 A 
ATOM     22  H   UNL A   1      42.844  27.801  29.061  1.00  0.00     0.167 HD
ATOM     23  C   UNL A   1      46.690  29.365  27.799  1.00  0.00     0.037 A 
ATOM     24  C   UNL A   1      40.202  28.435  29.508  1.00  0.00     0.037 A 
ATOM     25  C   UNL A   1      46.849  29.189  29.219  1.00  0.00     0.049 A 
ATOM     26  C   UNL A   1      41.246  29.322  30.084  1.00  0.00     0.074 A 
ATOM     27  C   UNL A   1      47.492  28.261  30.017  1.00  0.00     0.029 A 
ATOM     28  N   UNL A   1      46.015  29.883  30.062  1.00  0.00    -0.354 N 
ATOM     29  N   UNL A   1      41.895  29.075  31.189  1.00  0.00    -0.248 NA
ATOM     30  C   UNL A   1      41.860  30.313  29.214  1.00  0.00     0.031 C 
ATOM     31  C   UNL A   1      46.667  28.124  31.170  1.00  0.00     0.029 A 
ATOM     32  C   UNL A   1      45.592  29.001  31.022  1.00  0.00     0.049 A 
ATOM     33  H   UNL A   1      45.768  30.833  29.989  1.00  0.00     0.167 HD
ATOM     34  C   UNL A   1      43.177  29.551  30.964  1.00  0.00     0.074 A 
ATOM     35  C   UNL A   1      43.065  30.399  29.782  1.00  0.00     0.031 C 
ATOM     36  C   UNL A   1      44.261  29.001  31.587  1.00  0.00     0.037 A 
BRANCH  23  37
ATOM     37  C   UNL A   1      46.792  30.720  27.131  1.00  0.00     0.058 A 
ATOM     38  C   UNL A   1      48.033  31.391  27.108  1.00  0.00     0.135 A 
ATOM     39  C   UNL A   1      45.672  31.509  26.783  1.00  0.00     0.135 A 
ATOM     40  F   UNL A   1      49.167  30.742  27.415  1.00  0.00    -0.206 F 
ATOM     41  C   UNL A   1      48.138  32.762  26.864  1.00  0.00     0.059 A 
ATOM     42  C   UNL A   1      45.761  32.862  26.480  1.00  0.00     0.059 A 
ATOM     43  F   UNL A   1      44.420  31.037  26.819  1.00  0.00    -0.206 F 
ATOM     44  C   UNL A   1      46.989  33.491  26.578  1.00  0.00     0.060 A 
BRANCH  44  45
ATOM     45  S   UNL A   1      47.087  35.283  26.421  1.00  0.00     0.124 S 
ATOM     46  O   UNL A   1      47.173  35.687  27.820  1.00  0.00    -0.237 OA
ATOM     47  O   UNL A   1      48.299  35.454  25.627  1.00  0.00    -0.237 OA
ATOM     48  O   UNL A   1      45.843  35.626  25.738  1.00  0.00    -0.744 OA
ENDBRANCH  44  45
ENDBRANCH  23  37
BRANCH  24  49
ATOM     49  C   UNL A   1      38.840  28.913  29.157  1.00  0.00     0.058 A 
ATOM     50  C   UNL A   1      37.874  29.135  30.152  1.00  0.00     0.135 A 
ATOM     51  C   UNL A   1      38.539  29.414  27.873  1.00  0.00     0.135 A 
ATOM     52  F   UNL A   1      38.090  28.717  31.408  1.00  0.00    -0.206 F 
ATOM     53  C   UNL A   1      36.700  29.851  29.901  1.00  0.00     0.059 A 
ATOM     54  C   UNL A   1      37.366  30.112  27.595  1.00  0.00     0.059 A 
ATOM     55  F   UNL A   1      39.417  29.324  26.864  1.00  0.00    -0.206 F 
ATOM     56  C   UNL A   1      36.464  30.352  28.622  1.00  0.00     0.060 A 
BRANCH  56  57
ATOM     57  S   UNL A   1      35.040  31.427  28.334  1.00  0.00     0.124 S 
ATOM     58  O   UNL A   1      34.679  31.819  29.693  1.00  0.00    -0.237 OA
ATOM     59  O   UNL A   1      35.610  32.476  27.497  1.00  0.00    -0.237 OA
ATOM     60  O   UNL A   1      34.083  30.550  27.664  1.00  0.00    -0.744 OA
ENDBRANCH  56  57
ENDBRANCH  24  49
BRANCH  36  61
ATOM     61  C   UNL A   1      44.033  28.119  32.786  1.00  0.00     0.058 A 
ATOM     62  C   UNL A   1      43.884  28.590  34.102  1.00  0.00     0.135 A 
ATOM     63  C   UNL A   1      43.811  26.750  32.566  1.00  0.00     0.135 A 
ATOM     64  F   UNL A   1      43.966  29.899  34.382  1.00  0.00    -0.206 F 
ATOM     65  C   UNL A   1      43.578  27.729  35.158  1.00  0.00     0.059 A 
ATOM     66  C   UNL A   1      43.471  25.880  33.598  1.00  0.00     0.059 A 
ATOM     67  F   UNL A   1      43.873  26.250  31.320  1.00  0.00    -0.206 F 
ATOM     68  C   UNL A   1      43.371  26.374  34.895  1.00  0.00     0.060 A 
BRANCH  68  69
ATOM     69  S   UNL A   1      42.890  25.282  36.249  1.00  0.00     0.124 S 
ATOM     70  O   UNL A   1      44.168  24.698  36.641  1.00  0.00    -0.237 OA
ATOM     71  O   UNL A   1      42.293  26.206  37.209  1.00  0.00    -0.237 OA
ATOM     72  O   UNL A   1      41.947  24.357  35.623  1.00  0.00    -0.744 OA
ENDBRANCH  68  69
ENDBRANCH  36  61
ENDBRANCH  10  11
ENDBRANCH   3   5
ENDBRANCH   2   3
ENDBRANCH   1   2
BRANCH   1  73
ATOM     73  C   UNL A   1      41.061  19.606  26.363  1.00  0.00     0.202 C 
BRANCH  73  74
ATOM     74  O   UNL A   1      40.788  20.347  27.547  1.00  0.00    -0.374 OA
BRANCH  74  75
ATOM     75  C   UNL A   1      40.411  21.722  27.420  1.00  0.00     0.202 C 
BRANCH  75  76
ATOM     76  C   UNL A   1      39.807  22.217  26.103  1.00  0.00     0.261 C 
BRANCH  76  77
ATOM     77  O   UNL A   1      38.364  22.188  26.092  1.00  0.00    -0.463 OA
BRANCH  77  78
ATOM     78  C   UNL A   1      37.766  23.400  25.948  1.00  0.00     0.309 C 
ATOM     79  O   UNL A   1      38.108  24.413  26.545  1.00  0.00    -0.252 OA
BRANCH  78  80
ATOM     80  C   UNL A   1      36.570  23.357  25.002  1.00  0.00     0.108 C 
ATOM     81  C   UNL A   1      35.179  23.299  25.659  1.00  0.00     0.070 C 
ATOM     82  C   UNL A   1      36.755  22.185  24.025  1.00  0.00     0.070 C 
ATOM     83  C   UNL A   1      34.676  21.906  26.045  1.00  0.00     0.277 C 
ATOM     84  C   UNL A   1      36.464  20.855  24.717  1.00  0.00     0.277 C 
ATOM     85  N   UNL A   1      35.061  20.873  25.100  1.00  0.00    -0.230 N 
ATOM     86  C   UNL A   1      34.227  19.805  24.813  1.00  0.00     0.383 C 
ATOM     87  N   UNL A   1      34.662  18.575  24.803  1.00  0.00    -0.155 N 
ATOM     88  C   UNL A   1      32.771  20.070  24.483  1.00  0.00     0.523 C 
ATOM     89  C   UNL A   1      33.776  17.566  24.502  1.00  0.00     0.414 C 
ATOM     90  H   UNL A   1      35.603  18.373  25.008  1.00  0.00     0.367 HD
ATOM     91  C   UNL A   1      32.399  18.986  23.549  1.00  0.00     0.389 C 
ATOM     92  N   UNL A   1      32.576  21.262  23.624  1.00  0.00     0.003 NA
ATOM     93  Cl  UNL A   1      34.238  15.997  25.005  1.00  0.00     0.028 Cl
ATOM     94  N   UNL A   1      32.655  17.699  23.870  1.00  0.00    -0.155 N 
ATOM     95  N   UNL A   1      31.964  19.405  22.415  1.00  0.00    -0.169 N 
ATOM     96  C   UNL A   1      32.102  20.768  22.518  1.00  0.00     0.532 C 
ATOM     97  H   UNL A   1      32.059  16.949  23.646  1.00  0.00     0.367 HD
ATOM     98  H   UNL A   1      31.619  18.880  21.658  1.00  0.00     0.365 HD
ENDBRANCH  78  80
ENDBRANCH  77  78
ENDBRANCH  76  77
ENDBRANCH  75  76
ENDBRANCH  74  75
ENDBRANCH  73  74
ENDBRANCH   1  73
TORSDOF 17
ENDMDL
MODEL 2
REMARK VINA RESULT:     -12.3      2.907      9.362
REMARK SMILES O=C(OCCOCCOC(=O)C1CCN(C2=[NH+]C(Cl)=[NH+]C3=[NH+]C=N[C@@H]32)CC1)c1ccc(-c2c3nc(c(-c4c(F)cc(S(=O)(=O)[O-])cc4F)c4ccc([nH]4)c(-c4c(F)cc(S(=O)(=O)[O-])cc4F)c4nc(c(-c5c(F)cc(S(=O)(=O)[O-])cc5F)c5ccc2[nH]5)C=C4)C=C3)cc1
REMARK SMILES IDX 4 1 3 2 2 3 1 4 28 5 29 6 93 7 30 8 92 9 31 10 32 11 33 12
REMARK SMILES IDX 86 13 34 14 91 15 85 16 87 17 35 18 90 19 84 20 83 21 36 23
REMARK SMILES IDX 70 24 49 25 69 26 50 27 53 28 68 29 88 30 51 31 52 32 67 34
REMARK SMILES IDX 89 35 54 36 37 37 38 38 47 39 39 40 40 41 46 42 48 43 41 44
REMARK SMILES IDX 42 45 43 46 44 47 45 48 71 49 72 50 81 51 73 52 74 53 80 54
REMARK SMILES IDX 82 55 75 56 76 57 77 58 78 59 79 60 55 61 56 62 65 63 57 64
REMARK SMILES IDX 58 65 64 66 66 67 59 68 60 69 61 70 62 71 63 72 5 73 6 74
REMARK SMILES IDX 7 75 8 76 9 77 10 78 11 79 12 80 13 81 27 82 14 83 26 84
REMARK SMILES IDX 15 85 16 86 17 87 25 88 18 89 21 91 24 92 19 93 20 94 22 95
REMARK SMILES IDX 23 96
REMARK H PARENT 87 22 53 33 17 90 20 97 22 98
REMARK Flexibility Score: inf
ROOT
ATOM      1  C   UNL A   1      32.026  30.882  26.831  1.00  0.00     0.261 C 
ENDROOT
BRANCH   1   2
ATOM      2  O   UNL A   1      33.185  30.587  27.613  1.00  0.00    -0.460 OA
BRANCH   2   3
ATOM      3  C   UNL A   1      34.214  31.420  27.923  1.00  0.00     0.338 C 
ATOM      4  O   UNL A   1      33.956  32.560  28.268  1.00  0.00    -0.246 OA
BRANCH   3   5
ATOM      5  C   UNL A   1      35.636  30.973  27.931  1.00  0.00     0.060 A 
ATOM      6  C   UNL A   1      36.118  29.752  27.465  1.00  0.00     0.016 A 
ATOM      7  C   UNL A   1      36.543  31.883  28.492  1.00  0.00     0.016 A 
ATOM      8  C   UNL A   1      37.388  29.331  27.816  1.00  0.00     0.010 A 
ATOM      9  C   UNL A   1      37.859  31.513  28.734  1.00  0.00     0.010 A 
ATOM     10  C   UNL A   1      38.248  30.201  28.485  1.00  0.00    -0.014 A 
BRANCH  10  11
ATOM     11  C   UNL A   1      39.584  29.702  28.789  1.00  0.00     0.031 A 
ATOM     12  C   UNL A   1      39.924  29.662  30.240  1.00  0.00     0.074 A 
ATOM     13  C   UNL A   1      40.433  29.220  27.862  1.00  0.00     0.049 A 
ATOM     14  N   UNL A   1      40.873  30.281  30.863  1.00  0.00    -0.248 NA
ATOM     15  C   UNL A   1      38.996  28.940  31.123  1.00  0.00     0.031 C 
ATOM     16  C   UNL A   1      40.162  28.927  26.454  1.00  0.00     0.029 A 
ATOM     17  N   UNL A   1      41.707  28.771  28.036  1.00  0.00    -0.354 N 
ATOM     18  C   UNL A   1      40.788  29.867  32.191  1.00  0.00     0.074 A 
ATOM     19  C   UNL A   1      39.532  29.177  32.320  1.00  0.00     0.031 C 
ATOM     20  C   UNL A   1      41.142  28.131  25.976  1.00  0.00     0.029 A 
ATOM     21  C   UNL A   1      42.164  27.973  26.998  1.00  0.00     0.049 A 
ATOM     22  H   UNL A   1      42.254  28.993  28.823  1.00  0.00     0.167 HD
ATOM     23  C   UNL A   1      41.850  29.939  33.039  1.00  0.00     0.037 A 
ATOM     24  C   UNL A   1      43.253  27.168  27.019  1.00  0.00     0.037 A 
ATOM     25  C   UNL A   1      42.837  30.879  32.577  1.00  0.00     0.049 A 
ATOM     26  C   UNL A   1      44.147  27.645  28.107  1.00  0.00     0.074 A 
ATOM     27  C   UNL A   1      42.827  32.229  32.277  1.00  0.00     0.029 A 
ATOM     28  N   UNL A   1      44.005  30.393  32.043  1.00  0.00    -0.354 N 
ATOM     29  N   UNL A   1      44.796  28.777  28.086  1.00  0.00    -0.248 NA
ATOM     30  C   UNL A   1      44.015  27.032  29.421  1.00  0.00     0.031 C 
ATOM     31  C   UNL A   1      43.726  32.375  31.181  1.00  0.00     0.029 A 
ATOM     32  C   UNL A   1      44.256  31.114  30.904  1.00  0.00     0.049 A 
ATOM     33  H   UNL A   1      44.557  29.664  32.408  1.00  0.00     0.167 HD
ATOM     34  C   UNL A   1      44.786  29.219  29.399  1.00  0.00     0.074 A 
ATOM     35  C   UNL A   1      44.394  28.057  30.188  1.00  0.00     0.031 C 
ATOM     36  C   UNL A   1      44.829  30.551  29.703  1.00  0.00     0.037 A 
BRANCH  23  37
ATOM     37  C   UNL A   1      42.150  28.898  34.097  1.00  0.00     0.058 A 
ATOM     38  C   UNL A   1      42.438  27.574  33.705  1.00  0.00     0.135 A 
ATOM     39  C   UNL A   1      41.874  29.075  35.473  1.00  0.00     0.135 A 
ATOM     40  F   UNL A   1      42.721  27.285  32.425  1.00  0.00    -0.206 F 
ATOM     41  C   UNL A   1      42.353  26.496  34.590  1.00  0.00     0.059 A 
ATOM     42  C   UNL A   1      41.840  28.025  36.381  1.00  0.00     0.059 A 
ATOM     43  F   UNL A   1      41.520  30.258  35.990  1.00  0.00    -0.206 F 
ATOM     44  C   UNL A   1      42.025  26.733  35.920  1.00  0.00     0.060 A 
BRANCH  44  45
ATOM     45  S   UNL A   1      41.754  25.343  37.032  1.00  0.00     0.124 S 
ATOM     46  O   UNL A   1      41.502  24.264  36.083  1.00  0.00    -0.237 OA
ATOM     47  O   UNL A   1      43.019  25.279  37.756  1.00  0.00    -0.237 OA
ATOM     48  O   UNL A   1      40.604  25.770  37.826  1.00  0.00    -0.744 OA
ENDBRANCH  44  45
ENDBRANCH  23  37
BRANCH  24  49
ATOM     49  C   UNL A   1      43.406  25.840  26.372  1.00  0.00     0.058 A 
ATOM     50  C   UNL A   1      44.403  25.618  25.407  1.00  0.00     0.135 A 
ATOM     51  C   UNL A   1      42.757  24.692  26.873  1.00  0.00     0.135 A 
ATOM     52  F   UNL A   1      45.090  26.650  24.896  1.00  0.00    -0.206 F 
ATOM     53  C   UNL A   1      44.766  24.332  24.997  1.00  0.00     0.059 A 
ATOM     54  C   UNL A   1      43.088  23.403  26.464  1.00  0.00     0.059 A 
ATOM     55  F   UNL A   1      41.841  24.777  27.850  1.00  0.00    -0.206 F 
ATOM     56  C   UNL A   1      44.114  23.229  25.546  1.00  0.00     0.060 A 
BRANCH  56  57
ATOM     57  S   UNL A   1      44.697  21.564  25.155  1.00  0.00     0.124 S 
ATOM     58  O   UNL A   1      44.607  21.547  23.699  1.00  0.00    -0.237 OA
ATOM     59  O   UNL A   1      46.045  21.571  25.711  1.00  0.00    -0.237 OA
ATOM     60  O   UNL A   1      43.745  20.700  25.848  1.00  0.00    -0.744 OA
ENDBRANCH  56  57
ENDBRANCH  24  49
BRANCH  36  61
ATOM     61  C   UNL A   1      45.247  31.522  28.631  1.00  0.00     0.058 A 
ATOM     62  C   UNL A   1      44.383  32.050  27.656  1.00  0.00     0.135 A 
ATOM     63  C   UNL A   1      46.548  32.049  28.689  1.00  0.00     0.135 A 
ATOM     64  F   UNL A   1      43.093  31.686  27.604  1.00  0.00    -0.206 F 
ATOM     65  C   UNL A   1      44.809  33.021  26.748  1.00  0.00     0.059 A 
ATOM     66  C   UNL A   1      46.983  33.042  27.816  1.00  0.00     0.059 A 
ATOM     67  F   UNL A   1      47.400  31.633  29.640  1.00  0.00    -0.206 F 
ATOM     68  C   UNL A   1      46.112  33.513  26.837  1.00  0.00     0.060 A 
BRANCH  68  69
ATOM     69  S   UNL A   1      46.631  34.831  25.718  1.00  0.00     0.124 S 
ATOM     70  O   UNL A   1      46.218  36.029  26.442  1.00  0.00    -0.237 OA
ATOM     71  O   UNL A   1      48.072  34.616  25.617  1.00  0.00    -0.237 OA
ATOM     72  O   UNL A   1      45.884  34.553  24.493  1.00  0.00    -0.744 OA
ENDBRANCH  68  69
ENDBRANCH  36  61
ENDBRANCH  10  11
ENDBRANCH   3   5
ENDBRANCH   2   3
ENDBRANCH   1   2
BRANCH   1  73
ATOM     73  C   UNL A   1      32.047  30.192  25.456  1.00  0.00     0.202 C 
BRANCH  73  74
ATOM     74  O   UNL A   1      31.338  28.968  25.298  1.00  0.00    -0.374 OA
BRANCH  74  75
ATOM     75  C   UNL A   1      30.789  28.657  24.013  1.00  0.00     0.202 C 
BRANCH  75  76
ATOM     76  C   UNL A   1      31.728  28.501  22.813  1.00  0.00     0.261 C 
BRANCH  76  77
ATOM     77  O   UNL A   1      31.629  27.211  22.176  1.00  0.00    -0.463 OA
BRANCH  77  78
ATOM     78  C   UNL A   1      32.757  26.455  22.229  1.00  0.00     0.309 C 
ATOM     79  O   UNL A   1      33.488  26.241  21.269  1.00  0.00    -0.252 OA
BRANCH  78  80
ATOM     80  C   UNL A   1      32.990  25.840  23.605  1.00  0.00     0.108 C 
ATOM     81  C   UNL A   1      34.357  25.169  23.833  1.00  0.00     0.070 C 
ATOM     82  C   UNL A   1      31.849  24.856  23.906  1.00  0.00     0.070 C 
ATOM     83  C   UNL A   1      34.475  23.713  23.377  1.00  0.00     0.277 C 
ATOM     84  C   UNL A   1      32.031  23.561  23.116  1.00  0.00     0.277 C 
ATOM     85  N   UNL A   1      33.261  22.944  23.587  1.00  0.00    -0.230 N 
ATOM     86  C   UNL A   1      33.301  21.605  23.937  1.00  0.00     0.383 C 
ATOM     87  N   UNL A   1      32.569  20.712  23.329  1.00  0.00    -0.155 N 
ATOM     88  C   UNL A   1      34.207  21.163  25.069  1.00  0.00     0.523 C 
ATOM     89  C   UNL A   1      32.657  19.401  23.736  1.00  0.00     0.414 C 
ATOM     90  H   UNL A   1      31.968  20.971  22.595  1.00  0.00     0.367 HD
ATOM     91  C   UNL A   1      33.513  20.002  25.667  1.00  0.00     0.389 C 
ATOM     92  N   UNL A   1      34.215  22.106  26.212  1.00  0.00     0.003 NA
ATOM     93  Cl  UNL A   1      32.110  18.234  22.611  1.00  0.00     0.028 Cl
ATOM     94  N   UNL A   1      33.094  18.987  24.882  1.00  0.00    -0.155 N 
ATOM     95  N   UNL A   1      33.253  20.141  26.918  1.00  0.00    -0.169 N 
ATOM     96  C   UNL A   1      33.687  21.417  27.181  1.00  0.00     0.532 C 
ATOM     97  H   UNL A   1      33.116  18.040  25.151  1.00  0.00     0.367 HD
ATOM     98  H   UNL A   1      32.843  19.494  27.536  1.00  0.00     0.365 HD
ENDBRANCH  78  80
ENDBRANCH  77  78
ENDBRANCH  76  77
ENDBRANCH  75  76
ENDBRANCH  74  75
ENDBRANCH  73  74
ENDBRANCH   1  73
TORSDOF 17
ENDMDL
MODEL 3
REMARK VINA RESULT:     -12.2      4.301     10.388
REMARK SMILES O=C(OCCOCCOC(=O)C1CCN(C2=[NH+]C(Cl)=[NH+]C3=[NH+]C=N[C@@H]32)CC1)c1ccc(-c2c3nc(c(-c4c(F)cc(S(=O)(=O)[O-])cc4F)c4ccc([nH]4)c(-c4c(F)cc(S(=O)(=O)[O-])cc4F)c4nc(c(-c5c(F)cc(S(=O)(=O)[O-])cc5F)c5ccc2[nH]5)C=C4)C=C3)cc1
REMARK SMILES IDX 4 1 3 2 2 3 1 4 28 5 29 6 93 7 30 8 92 9 31 10 32 11 33 12
REMARK SMILES IDX 86 13 34 14 91 15 85 16 87 17 35 18 90 19 84 20 83 21 36 23
REMARK SMILES IDX 70 24 49 25 69 26 50 27 53 28 68 29 88 30 51 31 52 32 67 34
REMARK SMILES IDX 89 35 54 36 37 37 38 38 47 39 39 40 40 41 46 42 48 43 41 44
REMARK SMILES IDX 42 45 43 46 44 47 45 48 71 49 72 50 81 51 73 52 74 53 80 54
REMARK SMILES IDX 82 55 75 56 76 57 77 58 78 59 79 60 55 61 56 62 65 63 57 64
REMARK SMILES IDX 58 65 64 66 66 67 59 68 60 69 61 70 62 71 63 72 5 73 6 74
REMARK SMILES IDX 7 75 8 76 9 77 10 78 11 79 12 80 13 81 27 82 14 83 26 84
REMARK SMILES IDX 15 85 16 86 17 87 25 88 18 89 21 91 24 92 19 93 20 94 22 95
REMARK SMILES IDX 23 96
REMARK H PARENT 87 22 53 33 17 90 20 97 22 98
REMARK Flexibility Score: inf
ROOT
ATOM      1  C   UNL A   1      33.110  35.727  31.162  1.00  0.00     0.261 C 
ENDROOT
BRANCH   1   2
ATOM      2  O   UNL A   1      34.236  35.158  31.835  1.00  0.00    -0.460 OA
BRANCH   2   3
ATOM      3  C   UNL A   1      34.393  33.875  32.255  1.00  0.00     0.338 C 
ATOM      4  O   UNL A   1      33.537  33.389  32.974  1.00  0.00    -0.246 OA
BRANCH   3   5
ATOM      5  C   UNL A   1      35.527  33.017  31.810  1.00  0.00     0.060 A 
ATOM      6  C   UNL A   1      35.514  31.629  31.698  1.00  0.00     0.016 A 
ATOM      7  C   UNL A   1      36.713  33.703  31.510  1.00  0.00     0.016 A 
ATOM      8  C   UNL A   1      36.704  30.933  31.588  1.00  0.00     0.010 A 
ATOM      9  C   UNL A   1      37.891  33.009  31.272  1.00  0.00     0.010 A 
ATOM     10  C   UNL A   1      37.901  31.626  31.412  1.00  0.00    -0.014 A 
BRANCH  10  11
ATOM     11  C   UNL A   1      39.111  30.826  31.265  1.00  0.00     0.031 A 
ATOM     12  C   UNL A   1      39.876  30.607  32.526  1.00  0.00     0.074 A 
ATOM     13  C   UNL A   1      39.485  30.237  30.114  1.00  0.00     0.049 A 
ATOM     14  N   UNL A   1      41.090  30.956  32.803  1.00  0.00    -0.248 NA
ATOM     15  C   UNL A   1      39.137  30.044  33.666  1.00  0.00     0.031 C 
ATOM     16  C   UNL A   1      38.720  30.113  28.872  1.00  0.00     0.029 A 
ATOM     17  N   UNL A   1      40.608  29.508  29.864  1.00  0.00    -0.354 N 
ATOM     18  C   UNL A   1      41.338  30.476  34.088  1.00  0.00     0.074 A 
ATOM     19  C   UNL A   1      40.065  30.071  34.621  1.00  0.00     0.031 C 
ATOM     20  C   UNL A   1      39.285  29.158  28.103  1.00  0.00     0.029 A 
ATOM     21  C   UNL A   1      40.514  28.707  28.736  1.00  0.00     0.049 A 
ATOM     22  H   UNL A   1      41.413  29.547  30.429  1.00  0.00     0.167 HD
ATOM     23  C   UNL A   1      42.601  30.252  34.543  1.00  0.00     0.037 A 
ATOM     24  C   UNL A   1      41.336  27.683  28.404  1.00  0.00     0.037 A 
ATOM     25  C   UNL A   1      43.579  30.983  33.781  1.00  0.00     0.049 A 
ATOM     26  C   UNL A   1      42.614  27.872  29.139  1.00  0.00     0.074 A 
ATOM     27  C   UNL A   1      43.786  32.320  33.496  1.00  0.00     0.029 A 
ATOM     28  N   UNL A   1      44.371  30.292  32.897  1.00  0.00    -0.354 N 
ATOM     29  N   UNL A   1      43.465  28.832  28.904  1.00  0.00    -0.248 NA
ATOM     30  C   UNL A   1      42.769  27.210  30.427  1.00  0.00     0.031 C 
ATOM     31  C   UNL A   1      44.298  32.344  32.167  1.00  0.00     0.029 A 
ATOM     32  C   UNL A   1      44.406  31.021  31.736  1.00  0.00     0.049 A 
ATOM     33  H   UNL A   1      44.826  29.435  33.065  1.00  0.00     0.167 HD
ATOM     34  C   UNL A   1      43.977  29.170  30.147  1.00  0.00     0.074 A 
ATOM     35  C   UNL A   1      43.598  28.068  31.025  1.00  0.00     0.031 C 
ATOM     36  C   UNL A   1      44.420  30.434  30.415  1.00  0.00     0.037 A 
BRANCH  23  37
ATOM     37  C   UNL A   1      42.973  29.097  35.449  1.00  0.00     0.058 A 
ATOM     38  C   UNL A   1      43.769  29.337  36.589  1.00  0.00     0.135 A 
ATOM     39  C   UNL A   1      42.835  27.738  35.084  1.00  0.00     0.135 A 
ATOM     40  F   UNL A   1      43.967  30.588  37.034  1.00  0.00    -0.206 F 
ATOM     41  C   UNL A   1      44.459  28.318  37.248  1.00  0.00     0.059 A 
ATOM     42  C   UNL A   1      43.467  26.703  35.761  1.00  0.00     0.059 A 
ATOM     43  F   UNL A   1      42.167  27.350  33.991  1.00  0.00    -0.206 F 
ATOM     44  C   UNL A   1      44.320  27.007  36.806  1.00  0.00     0.060 A 
BRANCH  44  45
ATOM     45  S   UNL A   1      45.327  25.707  37.542  1.00  0.00     0.124 S 
ATOM     46  O   UNL A   1      46.196  25.353  36.426  1.00  0.00    -0.237 OA
ATOM     47  O   UNL A   1      45.962  26.406  38.654  1.00  0.00    -0.237 OA
ATOM     48  O   UNL A   1      44.342  24.699  37.924  1.00  0.00    -0.744 OA
ENDBRANCH  44  45
ENDBRANCH  23  37
BRANCH  24  49
ATOM     49  C   UNL A   1      40.965  26.404  27.747  1.00  0.00     0.058 A 
ATOM     50  C   UNL A   1      41.808  25.810  26.794  1.00  0.00     0.135 A 
ATOM     51  C   UNL A   1      39.908  25.602  28.229  1.00  0.00     0.135 A 
ATOM     52  F   UNL A   1      42.855  26.490  26.302  1.00  0.00    -0.206 F 
ATOM     53  C   UNL A   1      41.643  24.486  26.376  1.00  0.00     0.059 A 
ATOM     54  C   UNL A   1      39.711  24.288  27.812  1.00  0.00     0.059 A 
ATOM     55  F   UNL A   1      39.084  26.039  29.193  1.00  0.00    -0.206 F 
ATOM     56  C   UNL A   1      40.600  23.727  26.906  1.00  0.00     0.060 A 
BRANCH  56  57
ATOM     57  S   UNL A   1      40.487  21.968  26.508  1.00  0.00     0.124 S 
ATOM     58  O   UNL A   1      41.615  21.792  25.600  1.00  0.00    -0.237 OA
ATOM     59  O   UNL A   1      40.620  21.346  27.820  1.00  0.00    -0.237 OA
ATOM     60  O   UNL A   1      39.167  21.844  25.894  1.00  0.00    -0.744 OA
ENDBRANCH  56  57
ENDBRANCH  24  49
BRANCH  36  61
ATOM     61  C   UNL A   1      44.688  31.364  29.262  1.00  0.00     0.058 A 
ATOM     62  C   UNL A   1      45.880  31.384  28.517  1.00  0.00     0.135 A 
ATOM     63  C   UNL A   1      43.632  32.168  28.804  1.00  0.00     0.135 A 
ATOM     64  F   UNL A   1      46.897  30.563  28.818  1.00  0.00    -0.206 F 
ATOM     65  C   UNL A   1      46.031  32.204  27.398  1.00  0.00     0.059 A 
ATOM     66  C   UNL A   1      43.749  32.967  27.670  1.00  0.00     0.059 A 
ATOM     67  F   UNL A   1      42.445  32.144  29.433  1.00  0.00    -0.206 F 
ATOM     68  C   UNL A   1      44.958  32.992  26.980  1.00  0.00     0.060 A 
BRANCH  68  69
ATOM     69  S   UNL A   1      45.128  33.984  25.481  1.00  0.00     0.124 S 
ATOM     70  O   UNL A   1      44.346  35.172  25.810  1.00  0.00    -0.237 OA
ATOM     71  O   UNL A   1      46.572  34.180  25.391  1.00  0.00    -0.237 OA
ATOM     72  O   UNL A   1      44.559  33.131  24.441  1.00  0.00    -0.744 OA
ENDBRANCH  68  69
ENDBRANCH  36  61
ENDBRANCH  10  11
ENDBRANCH   3   5
ENDBRANCH   2   3
ENDBRANCH   1   2
BRANCH   1  73
ATOM     73  C   UNL A   1      33.166  35.523  29.638  1.00  0.00     0.202 C 
BRANCH  73  74
ATOM     74  O   UNL A   1      32.825  34.246  29.109  1.00  0.00    -0.374 OA
BRANCH  74  75
ATOM     75  C   UNL A   1      33.572  33.746  27.995  1.00  0.00     0.202 C 
BRANCH  75  76
ATOM     76  C   UNL A   1      34.478  32.526  28.185  1.00  0.00     0.261 C 
BRANCH  76  77
ATOM     77  O   UNL A   1      33.768  31.272  28.114  1.00  0.00    -0.463 OA
BRANCH  77  78
ATOM     78  C   UNL A   1      34.429  30.272  27.473  1.00  0.00     0.309 C 
ATOM     79  O   UNL A   1      35.605  30.330  27.135  1.00  0.00    -0.252 OA
BRANCH  78  80
ATOM     80  C   UNL A   1      33.530  29.081  27.157  1.00  0.00     0.108 C 
ATOM     81  C   UNL A   1      33.780  28.372  25.813  1.00  0.00     0.070 C 
ATOM     82  C   UNL A   1      32.064  29.525  27.269  1.00  0.00     0.070 C 
ATOM     83  C   UNL A   1      33.078  28.976  24.595  1.00  0.00     0.277 C 
ATOM     84  C   UNL A   1      31.659  30.360  26.056  1.00  0.00     0.277 C 
ATOM     85  N   UNL A   1      31.753  29.494  24.892  1.00  0.00    -0.230 N 
ATOM     86  C   UNL A   1      30.720  29.414  23.974  1.00  0.00     0.383 C 
ATOM     87  N   UNL A   1      29.966  30.441  23.694  1.00  0.00    -0.155 N 
ATOM     88  C   UNL A   1      30.443  28.091  23.285  1.00  0.00     0.523 C 
ATOM     89  C   UNL A   1      28.953  30.284  22.776  1.00  0.00     0.414 C 
ATOM     90  H   UNL A   1      30.119  31.310  24.130  1.00  0.00     0.367 HD
ATOM     91  C   UNL A   1      28.986  28.103  23.034  1.00  0.00     0.389 C 
ATOM     92  N   UNL A   1      30.564  26.925  24.192  1.00  0.00     0.003 NA
ATOM     93  Cl  UNL A   1      28.358  31.724  22.071  1.00  0.00     0.028 Cl
ATOM     94  N   UNL A   1      28.413  29.162  22.422  1.00  0.00    -0.155 N 
ATOM     95  N   UNL A   1      28.360  27.113  23.563  1.00  0.00    -0.169 N 
ATOM     96  C   UNL A   1      29.353  26.453  24.245  1.00  0.00     0.532 C 
ATOM     97  H   UNL A   1      27.669  29.089  21.782  1.00  0.00     0.367 HD
ATOM     98  H   UNL A   1      27.406  26.883  23.496  1.00  0.00     0.365 HD
ENDBRANCH  78  80
ENDBRANCH  77  78
ENDBRANCH  76  77
ENDBRANCH  75  76
ENDBRANCH  74  75
ENDBRANCH  73  74
ENDBRANCH   1  73
TORSDOF 17
ENDMDL
