MODEL 1
REMARK VINA RESULT:      -9.2      0.000      0.000
REMARK SMILES CC[C@H](C)CN(CC)c1nc(C(=O)OCCOCCOC(=O)c2ccc(-c3c4nc(c(-c5c(F)cc(S(=O)(=O)[O-])cc5F)c5ccc([nH]5)c(-c5c(F)cc(S(=O)(=O)[O-])cc5F)c5nc(c(-c6c(F)cc(S(=O)(=O)[O-])cc6F)c6ccc3[nH]6)C=C5)C=C4)cc2)cc2ccccc12
REMARK SMILES IDX 16 1 15 2 14 3 12 4 13 5 11 6 9 7 10 8 95 9 90 10 94 11
REMARK SMILES IDX 89 12 91 13 93 14 92 15 6 16 5 17 3 18 4 19 2 20 1 21 7 22
REMARK SMILES IDX 8 23 17 24 18 25 19 26 20 27 21 28 22 29 23 30 24 31 88 32
REMARK SMILES IDX 25 33 87 34 26 35 27 36 28 37 81 38 29 39 86 40 80 41 82 42
REMARK SMILES IDX 30 43 85 44 79 45 78 46 31 48 65 49 44 50 64 51 45 52 48 53
REMARK SMILES IDX 63 54 83 55 46 56 47 57 62 59 84 60 49 61 32 62 33 63 42 64
REMARK SMILES IDX 34 65 35 66 41 67 43 68 36 69 37 70 38 71 39 72 40 73 66 74
REMARK SMILES IDX 67 75 76 76 68 77 69 78 75 79 77 80 70 81 71 82 72 83 73 84
REMARK SMILES IDX 74 85 50 86 51 87 60 88 52 89 53 90 59 91 61 92 54 93 55 94
REMARK SMILES IDX 56 95 57 96 58 97
REMARK H PARENT 82 47 48 58
REMARK Flexibility Score: inf
ROOT
ATOM      1  C   UNL A   1      33.499  35.062  29.985  1.00  0.00     0.202 C 
ENDROOT
BRANCH   1   2
ATOM      2  C   UNL A   1      33.317  35.529  31.436  1.00  0.00     0.261 C 
BRANCH   2   3
ATOM      3  O   UNL A   1      33.703  34.532  32.392  1.00  0.00    -0.459 OA
BRANCH   3   4
ATOM      4  C   UNL A   1      34.754  34.900  33.165  1.00  0.00     0.357 C 
ATOM      5  O   UNL A   1      34.753  35.783  34.015  1.00  0.00    -0.244 OA
BRANCH   4   6
ATOM      6  C   UNL A   1      35.907  33.977  33.015  1.00  0.00     0.151 A 
ATOM      7  C   UNL A   1      38.120  33.433  33.489  1.00  0.00     0.137 A 
ATOM      8  N   UNL A   1      37.144  34.370  33.396  1.00  0.00    -0.223 NA
ATOM      9  C   UNL A   1      37.788  32.055  33.330  1.00  0.00     0.024 A 
ATOM     10  C   UNL A   1      36.565  31.728  32.708  1.00  0.00    -0.012 A 
ATOM     11  C   UNL A   1      38.555  30.964  33.792  1.00  0.00     0.012 A 
ATOM     12  C   UNL A   1      35.609  32.711  32.552  1.00  0.00     0.045 A 
ATOM     13  C   UNL A   1      36.280  30.411  32.317  1.00  0.00     0.009 A 
ATOM     14  C   UNL A   1      38.257  29.645  33.436  1.00  0.00     0.001 A 
ATOM     15  C   UNL A   1      37.147  29.376  32.648  1.00  0.00     0.001 A 
BRANCH   7  16
ATOM     16  N   UNL A   1      39.434  33.864  33.762  1.00  0.00    -0.356 N 
BRANCH  16  17
ATOM     17  C   UNL A   1      40.205  34.681  32.769  1.00  0.00     0.121 C 
BRANCH  17  18
ATOM     18  C   UNL A   1      41.122  33.946  31.763  1.00  0.00     0.005 C 
ATOM     19  C   UNL A   1      41.407  32.513  32.230  1.00  0.00     0.009 C 
BRANCH  18  20
ATOM     20  C   UNL A   1      40.535  33.932  30.329  1.00  0.00     0.002 C 
ATOM     21  C   UNL A   1      41.194  34.945  29.392  1.00  0.00     0.004 C 
ENDBRANCH  18  20
ENDBRANCH  17  18
ENDBRANCH  16  17
BRANCH  16  22
ATOM     22  C   UNL A   1      39.637  34.300  35.169  1.00  0.00     0.114 C 
ATOM     23  C   UNL A   1      40.000  35.781  35.332  1.00  0.00     0.027 C 
ENDBRANCH  16  22
ENDBRANCH   7  16
ENDBRANCH   4   6
ENDBRANCH   3   4
ENDBRANCH   2   3
ENDBRANCH   1   2
BRANCH   1  24
ATOM     24  O   UNL A   1      34.634  34.252  29.683  1.00  0.00    -0.374 OA
BRANCH  24  25
ATOM     25  C   UNL A   1      35.013  34.131  28.312  1.00  0.00     0.202 C 
BRANCH  25  26
ATOM     26  C   UNL A   1      36.329  33.414  27.987  1.00  0.00     0.261 C 
BRANCH  26  27
ATOM     27  O   UNL A   1      36.842  32.670  29.105  1.00  0.00    -0.460 OA
BRANCH  27  28
ATOM     28  C   UNL A   1      36.578  31.343  29.072  1.00  0.00     0.338 C 
ATOM     29  O   UNL A   1      35.475  30.811  29.019  1.00  0.00    -0.246 OA
BRANCH  28  30
ATOM     30  C   UNL A   1      37.832  30.587  28.914  1.00  0.00     0.060 A 
ATOM     31  C   UNL A   1      38.828  30.769  29.882  1.00  0.00     0.016 A 
ATOM     32  C   UNL A   1      38.057  29.767  27.808  1.00  0.00     0.016 A 
ATOM     33  C   UNL A   1      40.075  30.169  29.723  1.00  0.00     0.010 A 
ATOM     34  C   UNL A   1      39.312  29.172  27.644  1.00  0.00     0.010 A 
ATOM     35  C   UNL A   1      40.336  29.400  28.582  1.00  0.00    -0.014 A 
BRANCH  35  36
ATOM     36  C   UNL A   1      41.720  28.946  28.303  1.00  0.00     0.031 A 
ATOM     37  C   UNL A   1      42.833  29.959  28.304  1.00  0.00     0.074 A 
ATOM     38  C   UNL A   1      41.983  27.647  28.071  1.00  0.00     0.049 A 
ATOM     39  N   UNL A   1      44.101  29.798  28.031  1.00  0.00    -0.248 NA
ATOM     40  C   UNL A   1      42.463  31.341  28.654  1.00  0.00     0.031 C 
ATOM     41  C   UNL A   1      40.993  26.572  28.083  1.00  0.00     0.029 A 
ATOM     42  N   UNL A   1      43.163  27.016  27.770  1.00  0.00    -0.354 N 
ATOM     43  C   UNL A   1      44.680  31.054  28.167  1.00  0.00     0.074 A 
ATOM     44  C   UNL A   1      43.619  31.974  28.516  1.00  0.00     0.031 C 
ATOM     45  C   UNL A   1      41.605  25.413  27.788  1.00  0.00     0.029 A 
ATOM     46  C   UNL A   1      43.021  25.670  27.532  1.00  0.00     0.049 A 
ATOM     47  H   UNL A   1      44.029  27.484  27.729  1.00  0.00     0.167 HD
ATOM     48  C   UNL A   1      45.980  31.406  28.021  1.00  0.00     0.037 A 
ATOM     49  C   UNL A   1      43.926  24.757  27.127  1.00  0.00     0.037 A 
ATOM     50  C   UNL A   1      47.029  30.481  27.676  1.00  0.00     0.049 A 
ATOM     51  C   UNL A   1      45.354  25.185  26.905  1.00  0.00     0.074 A 
ATOM     52  C   UNL A   1      48.382  30.733  27.526  1.00  0.00     0.029 A 
ATOM     53  N   UNL A   1      46.843  29.131  27.419  1.00  0.00    -0.354 N 
ATOM     54  N   UNL A   1      45.894  26.371  27.059  1.00  0.00    -0.248 NA
ATOM     55  C   UNL A   1      46.297  24.150  26.458  1.00  0.00     0.031 C 
ATOM     56  C   UNL A   1      49.004  29.547  27.123  1.00  0.00     0.029 A 
ATOM     57  C   UNL A   1      48.052  28.542  27.082  1.00  0.00     0.049 A 
ATOM     58  H   UNL A   1      45.980  28.660  27.468  1.00  0.00     0.167 HD
ATOM     59  C   UNL A   1      47.243  26.218  26.754  1.00  0.00     0.074 A 
ATOM     60  C   UNL A   1      47.439  24.823  26.419  1.00  0.00     0.031 C 
ATOM     61  C   UNL A   1      48.231  27.148  26.755  1.00  0.00     0.037 A 
BRANCH  48  62
ATOM     62  C   UNL A   1      46.338  32.856  28.206  1.00  0.00     0.058 A 
ATOM     63  C   UNL A   1      46.751  33.366  29.447  1.00  0.00     0.135 A 
ATOM     64  C   UNL A   1      46.301  33.742  27.116  1.00  0.00     0.135 A 
ATOM     65  F   UNL A   1      46.788  32.570  30.528  1.00  0.00    -0.206 F 
ATOM     66  C   UNL A   1      47.090  34.706  29.607  1.00  0.00     0.059 A 
ATOM     67  C   UNL A   1      46.664  35.079  27.246  1.00  0.00     0.059 A 
ATOM     68  F   UNL A   1      45.911  33.308  25.907  1.00  0.00    -0.206 F 
ATOM     69  C   UNL A   1      47.045  35.555  28.499  1.00  0.00     0.060 A 
BRANCH  69  70
ATOM     70  S   UNL A   1      47.494  37.289  28.722  1.00  0.00     0.124 S 
ATOM     71  O   UNL A   1      46.567  37.950  27.807  1.00  0.00    -0.237 OA
ATOM     72  O   UNL A   1      47.236  37.497  30.143  1.00  0.00    -0.237 OA
ATOM     73  O   UNL A   1      48.899  37.331  28.328  1.00  0.00    -0.744 OA
ENDBRANCH  69  70
ENDBRANCH  48  62
BRANCH  49  74
ATOM     74  C   UNL A   1      43.505  23.350  26.890  1.00  0.00     0.058 A 
ATOM     75  C   UNL A   1      43.263  22.475  27.958  1.00  0.00     0.135 A 
ATOM     76  C   UNL A   1      43.334  22.854  25.587  1.00  0.00     0.135 A 
ATOM     77  F   UNL A   1      43.423  22.898  29.221  1.00  0.00    -0.206 F 
ATOM     78  C   UNL A   1      42.879  21.154  27.746  1.00  0.00     0.059 A 
ATOM     79  C   UNL A   1      42.925  21.545  25.351  1.00  0.00     0.059 A 
ATOM     80  F   UNL A   1      43.544  23.652  24.529  1.00  0.00    -0.206 F 
ATOM     81  C   UNL A   1      42.709  20.700  26.437  1.00  0.00     0.060 A 
BRANCH  81  82
ATOM     82  S   UNL A   1      42.166  18.998  26.174  1.00  0.00     0.124 S 
ATOM     83  O   UNL A   1      40.785  19.193  25.747  1.00  0.00    -0.237 OA
ATOM     84  O   UNL A   1      43.093  18.537  25.145  1.00  0.00    -0.237 OA
ATOM     85  O   UNL A   1      42.340  18.382  27.486  1.00  0.00    -0.744 OA
ENDBRANCH  81  82
ENDBRANCH  49  74
BRANCH  61  86
ATOM     86  C   UNL A   1      49.623  26.685  26.417  1.00  0.00     0.058 A 
ATOM     87  C   UNL A   1      50.416  25.987  27.341  1.00  0.00     0.135 A 
ATOM     88  C   UNL A   1      50.148  26.894  25.131  1.00  0.00     0.135 A 
ATOM     89  F   UNL A   1      49.966  25.764  28.586  1.00  0.00    -0.206 F 
ATOM     90  C   UNL A   1      51.689  25.533  27.010  1.00  0.00     0.059 A 
ATOM     91  C   UNL A   1      51.407  26.422  24.769  1.00  0.00     0.059 A 
ATOM     92  F   UNL A   1      49.428  27.545  24.204  1.00  0.00    -0.206 F 
ATOM     93  C   UNL A   1      52.175  25.752  25.720  1.00  0.00     0.060 A 
BRANCH  93  94
ATOM     94  S   UNL A   1      53.813  25.127  25.294  1.00  0.00     0.124 S 
ATOM     95  O   UNL A   1      53.884  25.431  23.868  1.00  0.00    -0.237 OA
ATOM     96  O   UNL A   1      54.683  25.921  26.156  1.00  0.00    -0.237 OA
ATOM     97  O   UNL A   1      53.735  23.708  25.630  1.00  0.00    -0.744 OA
ENDBRANCH  93  94
ENDBRANCH  61  86
ENDBRANCH  35  36
ENDBRANCH  28  30
ENDBRANCH  27  28
ENDBRANCH  26  27
ENDBRANCH  25  26
ENDBRANCH  24  25
ENDBRANCH   1  24
TORSDOF 22
ENDMDL
MODEL 2
REMARK VINA RESULT:      -9.1      3.946     10.208
REMARK SMILES CC[C@H](C)CN(CC)c1nc(C(=O)OCCOCCOC(=O)c2ccc(-c3c4nc(c(-c5c(F)cc(S(=O)(=O)[O-])cc5F)c5ccc([nH]5)c(-c5c(F)cc(S(=O)(=O)[O-])cc5F)c5nc(c(-c6c(F)cc(S(=O)(=O)[O-])cc6F)c6ccc3[nH]6)C=C5)C=C4)cc2)cc2ccccc12
REMARK SMILES IDX 16 1 15 2 14 3 12 4 13 5 11 6 9 7 10 8 95 9 90 10 94 11
REMARK SMILES IDX 89 12 91 13 93 14 92 15 6 16 5 17 3 18 4 19 2 20 1 21 7 22
REMARK SMILES IDX 8 23 17 24 18 25 19 26 20 27 21 28 22 29 23 30 24 31 88 32
REMARK SMILES IDX 25 33 87 34 26 35 27 36 28 37 81 38 29 39 86 40 80 41 82 42
REMARK SMILES IDX 30 43 85 44 79 45 78 46 31 48 65 49 44 50 64 51 45 52 48 53
REMARK SMILES IDX 63 54 83 55 46 56 47 57 62 59 84 60 49 61 32 62 33 63 42 64
REMARK SMILES IDX 34 65 35 66 41 67 43 68 36 69 37 70 38 71 39 72 40 73 66 74
REMARK SMILES IDX 67 75 76 76 68 77 69 78 75 79 77 80 70 81 71 82 72 83 73 84
REMARK SMILES IDX 74 85 50 86 51 87 60 88 52 89 53 90 59 91 61 92 54 93 55 94
REMARK SMILES IDX 56 95 57 96 58 97
REMARK H PARENT 82 47 48 58
REMARK Flexibility Score: inf
ROOT
ATOM      1  C   UNL A   1      33.957  31.078  27.711  1.00  0.00     0.202 C 
ENDROOT
BRANCH   1   2
ATOM      2  C   UNL A   1      34.680  29.749  27.460  1.00  0.00     0.261 C 
BRANCH   2   3
ATOM      3  O   UNL A   1      33.776  28.660  27.228  1.00  0.00    -0.459 OA
BRANCH   3   4
ATOM      4  C   UNL A   1      33.674  28.308  25.922  1.00  0.00     0.357 C 
ATOM      5  O   UNL A   1      34.059  28.966  24.963  1.00  0.00    -0.244 OA
BRANCH   4   6
ATOM      6  C   UNL A   1      33.201  26.910  25.757  1.00  0.00     0.151 A 
ATOM      7  C   UNL A   1      33.653  24.627  25.724  1.00  0.00     0.137 A 
ATOM      8  N   UNL A   1      34.094  25.904  25.615  1.00  0.00    -0.223 NA
ATOM      9  C   UNL A   1      32.308  24.381  26.129  1.00  0.00     0.024 A 
ATOM     10  C   UNL A   1      31.375  25.435  26.030  1.00  0.00    -0.012 A 
ATOM     11  C   UNL A   1      31.820  23.178  26.681  1.00  0.00     0.012 A 
ATOM     12  C   UNL A   1      31.836  26.723  25.842  1.00  0.00     0.045 A 
ATOM     13  C   UNL A   1      30.001  25.204  26.191  1.00  0.00     0.009 A 
ATOM     14  C   UNL A   1      30.454  22.953  26.879  1.00  0.00     0.001 A 
ATOM     15  C   UNL A   1      29.538  23.952  26.578  1.00  0.00     0.001 A 
BRANCH   7  16
ATOM     16  N   UNL A   1      34.558  23.583  25.449  1.00  0.00    -0.356 N 
BRANCH  16  17
ATOM     17  C   UNL A   1      34.427  22.746  24.212  1.00  0.00     0.121 C 
BRANCH  17  18
ATOM     18  C   UNL A   1      34.041  21.256  24.367  1.00  0.00     0.005 C 
ATOM     19  C   UNL A   1      34.127  20.820  25.836  1.00  0.00     0.009 C 
BRANCH  18  20
ATOM     20  C   UNL A   1      32.632  20.948  23.802  1.00  0.00     0.002 C 
ATOM     21  C   UNL A   1      32.164  21.955  22.751  1.00  0.00     0.004 C 
ENDBRANCH  18  20
ENDBRANCH  17  18
ENDBRANCH  16  17
BRANCH  16  22
ATOM     22  C   UNL A   1      35.968  23.912  25.791  1.00  0.00     0.114 C 
ATOM     23  C   UNL A   1      37.010  23.344  24.820  1.00  0.00     0.027 C 
ENDBRANCH  16  22
ENDBRANCH   7  16
ENDBRANCH   4   6
ENDBRANCH   3   4
ENDBRANCH   2   3
ENDBRANCH   1   2
BRANCH   1  24
ATOM     24  O   UNL A   1      34.635  32.283  27.356  1.00  0.00    -0.374 OA
BRANCH  24  25
ATOM     25  C   UNL A   1      35.731  32.689  28.175  1.00  0.00     0.202 C 
BRANCH  25  26
ATOM     26  C   UNL A   1      35.550  32.647  29.697  1.00  0.00     0.261 C 
BRANCH  26  27
ATOM     27  O   UNL A   1      36.745  32.237  30.383  1.00  0.00    -0.460 OA
BRANCH  27  28
ATOM     28  C   UNL A   1      36.789  30.926  30.712  1.00  0.00     0.338 C 
ATOM     29  O   UNL A   1      35.905  30.270  31.251  1.00  0.00    -0.246 OA
BRANCH  28  30
ATOM     30  C   UNL A   1      38.005  30.309  30.154  1.00  0.00     0.060 A 
ATOM     31  C   UNL A   1      39.013  29.931  31.051  1.00  0.00     0.016 A 
ATOM     32  C   UNL A   1      38.186  30.163  28.778  1.00  0.00     0.016 A 
ATOM     33  C   UNL A   1      40.228  29.450  30.573  1.00  0.00     0.010 A 
ATOM     34  C   UNL A   1      39.411  29.688  28.299  1.00  0.00     0.010 A 
ATOM     35  C   UNL A   1      40.449  29.364  29.192  1.00  0.00    -0.014 A 
BRANCH  35  36
ATOM     36  C   UNL A   1      41.808  29.064  28.682  1.00  0.00     0.031 A 
ATOM     37  C   UNL A   1      42.128  27.662  28.241  1.00  0.00     0.074 A 
ATOM     38  C   UNL A   1      42.738  30.033  28.597  1.00  0.00     0.049 A 
ATOM     39  N   UNL A   1      43.260  27.163  27.818  1.00  0.00    -0.248 NA
ATOM     40  C   UNL A   1      41.022  26.690  28.288  1.00  0.00     0.031 C 
ATOM     41  C   UNL A   1      42.531  31.434  28.959  1.00  0.00     0.029 A 
ATOM     42  N   UNL A   1      44.046  29.979  28.188  1.00  0.00    -0.354 N 
ATOM     43  C   UNL A   1      43.008  25.821  27.557  1.00  0.00     0.074 A 
ATOM     44  C   UNL A   1      41.624  25.575  27.899  1.00  0.00     0.031 C 
ATOM     45  C   UNL A   1      43.679  32.107  28.768  1.00  0.00     0.029 A 
ATOM     46  C   UNL A   1      44.708  31.178  28.306  1.00  0.00     0.049 A 
ATOM     47  H   UNL A   1      44.470  29.160  27.843  1.00  0.00     0.167 HD
ATOM     48  C   UNL A   1      43.854  24.882  27.070  1.00  0.00     0.037 A 
ATOM     49  C   UNL A   1      46.003  31.482  28.090  1.00  0.00     0.037 A 
ATOM     50  C   UNL A   1      45.231  25.138  26.730  1.00  0.00     0.049 A 
ATOM     51  C   UNL A   1      46.943  30.405  27.613  1.00  0.00     0.074 A 
ATOM     52  C   UNL A   1      46.165  24.260  26.208  1.00  0.00     0.029 A 
ATOM     53  N   UNL A   1      45.872  26.358  26.886  1.00  0.00    -0.354 N 
ATOM     54  N   UNL A   1      46.688  29.145  27.348  1.00  0.00    -0.248 NA
ATOM     55  C   UNL A   1      48.345  30.791  27.401  1.00  0.00     0.031 C 
ATOM     56  C   UNL A   1      47.385  24.935  26.101  1.00  0.00     0.029 A 
ATOM     57  C   UNL A   1      47.198  26.249  26.498  1.00  0.00     0.049 A 
ATOM     58  H   UNL A   1      45.448  27.180  27.223  1.00  0.00     0.167 HD
ATOM     59  C   UNL A   1      47.891  28.596  26.913  1.00  0.00     0.074 A 
ATOM     60  C   UNL A   1      48.869  29.663  26.939  1.00  0.00     0.031 C 
ATOM     61  C   UNL A   1      48.160  27.324  26.525  1.00  0.00     0.037 A 
BRANCH  48  62
ATOM     62  C   UNL A   1      43.325  23.483  26.901  1.00  0.00     0.058 A 
ATOM     63  C   UNL A   1      43.001  22.960  25.639  1.00  0.00     0.135 A 
ATOM     64  C   UNL A   1      43.173  22.642  28.016  1.00  0.00     0.135 A 
ATOM     65  F   UNL A   1      43.108  23.724  24.541  1.00  0.00    -0.206 F 
ATOM     66  C   UNL A   1      42.522  21.661  25.492  1.00  0.00     0.059 A 
ATOM     67  C   UNL A   1      42.724  21.331  27.888  1.00  0.00     0.059 A 
ATOM     68  F   UNL A   1      43.466  23.091  29.246  1.00  0.00    -0.206 F 
ATOM     69  C   UNL A   1      42.388  20.854  26.622  1.00  0.00     0.060 A 
BRANCH  69  70
ATOM     70  S   UNL A   1      41.771  19.170  26.413  1.00  0.00     0.124 S 
ATOM     71  O   UNL A   1      41.909  18.639  27.766  1.00  0.00    -0.237 OA
ATOM     72  O   UNL A   1      40.403  19.395  25.958  1.00  0.00    -0.237 OA
ATOM     73  O   UNL A   1      42.674  18.597  25.420  1.00  0.00    -0.744 OA
ENDBRANCH  69  70
ENDBRANCH  48  62
BRANCH  49  74
ATOM     74  C   UNL A   1      46.492  32.865  28.341  1.00  0.00     0.058 A 
ATOM     75  C   UNL A   1      47.000  33.239  29.593  1.00  0.00     0.135 A 
ATOM     76  C   UNL A   1      46.464  33.839  27.330  1.00  0.00     0.135 A 
ATOM     77  F   UNL A   1      47.039  32.348  30.595  1.00  0.00    -0.206 F 
ATOM     78  C   UNL A   1      47.450  34.533  29.840  1.00  0.00     0.059 A 
ATOM     79  C   UNL A   1      46.933  35.131  27.545  1.00  0.00     0.059 A 
ATOM     80  F   UNL A   1      45.996  33.531  26.110  1.00  0.00    -0.206 F 
ATOM     81  C   UNL A   1      47.415  35.471  28.807  1.00  0.00     0.060 A 
BRANCH  81  82
ATOM     82  S   UNL A   1      48.045  37.133  29.125  1.00  0.00     0.124 S 
ATOM     83  O   UNL A   1      47.036  37.662  30.035  1.00  0.00    -0.237 OA
ATOM     84  O   UNL A   1      49.353  36.857  29.713  1.00  0.00    -0.237 OA
ATOM     85  O   UNL A   1      48.078  37.740  27.798  1.00  0.00    -0.744 OA
ENDBRANCH  81  82
ENDBRANCH  49  74
BRANCH  61  86
ATOM     86  C   UNL A   1      49.559  27.020  26.060  1.00  0.00     0.058 A 
ATOM     87  C   UNL A   1      50.574  26.652  26.957  1.00  0.00     0.135 A 
ATOM     88  C   UNL A   1      49.872  27.042  24.690  1.00  0.00     0.135 A 
ATOM     89  F   UNL A   1      50.331  26.620  28.277  1.00  0.00    -0.206 F 
ATOM     90  C   UNL A   1      51.856  26.340  26.515  1.00  0.00     0.059 A 
ATOM     91  C   UNL A   1      51.139  26.703  24.224  1.00  0.00     0.059 A 
ATOM     92  F   UNL A   1      48.936  27.374  23.788  1.00  0.00    -0.206 F 
ATOM     93  C   UNL A   1      52.128  26.364  25.146  1.00  0.00     0.060 A 
BRANCH  93  94
ATOM     94  S   UNL A   1      53.786  25.923  24.585  1.00  0.00     0.124 S 
ATOM     95  O   UNL A   1      53.813  26.514  23.251  1.00  0.00    -0.237 OA
ATOM     96  O   UNL A   1      54.634  26.569  25.582  1.00  0.00    -0.237 OA
ATOM     97  O   UNL A   1      53.783  24.463  24.625  1.00  0.00    -0.744 OA
ENDBRANCH  93  94
ENDBRANCH  61  86
ENDBRANCH  35  36
ENDBRANCH  28  30
ENDBRANCH  27  28
ENDBRANCH  26  27
ENDBRANCH  25  26
ENDBRANCH  24  25
ENDBRANCH   1  24
TORSDOF 22
ENDMDL
MODEL 3
REMARK VINA RESULT:      -8.9      6.560     13.465
REMARK SMILES CC[C@H](C)CN(CC)c1nc(C(=O)OCCOCCOC(=O)c2ccc(-c3c4nc(c(-c5c(F)cc(S(=O)(=O)[O-])cc5F)c5ccc([nH]5)c(-c5c(F)cc(S(=O)(=O)[O-])cc5F)c5nc(c(-c6c(F)cc(S(=O)(=O)[O-])cc6F)c6ccc3[nH]6)C=C5)C=C4)cc2)cc2ccccc12
REMARK SMILES IDX 16 1 15 2 14 3 12 4 13 5 11 6 9 7 10 8 95 9 90 10 94 11
REMARK SMILES IDX 89 12 91 13 93 14 92 15 6 16 5 17 3 18 4 19 2 20 1 21 7 22
REMARK SMILES IDX 8 23 17 24 18 25 19 26 20 27 21 28 22 29 23 30 24 31 88 32
REMARK SMILES IDX 25 33 87 34 26 35 27 36 28 37 81 38 29 39 86 40 80 41 82 42
REMARK SMILES IDX 30 43 85 44 79 45 78 46 31 48 65 49 44 50 64 51 45 52 48 53
REMARK SMILES IDX 63 54 83 55 46 56 47 57 62 59 84 60 49 61 32 62 33 63 42 64
REMARK SMILES IDX 34 65 35 66 41 67 43 68 36 69 37 70 38 71 39 72 40 73 66 74
REMARK SMILES IDX 67 75 76 76 68 77 69 78 75 79 77 80 70 81 71 82 72 83 73 84
REMARK SMILES IDX 74 85 50 86 51 87 60 88 52 89 53 90 59 91 61 92 54 93 55 94
REMARK SMILES IDX 56 95 57 96 58 97
REMARK H PARENT 82 47 48 58
REMARK Flexibility Score: inf
ROOT
ATOM      1  C   UNL A   1      40.179  21.580  25.889  1.00  0.00     0.202 C 
ENDROOT
BRANCH   1   2
ATOM      2  C   UNL A   1      38.665  21.460  26.109  1.00  0.00     0.261 C 
BRANCH   2   3
ATOM      3  O   UNL A   1      37.902  22.112  25.084  1.00  0.00    -0.459 OA
BRANCH   3   4
ATOM      4  C   UNL A   1      37.161  23.152  25.538  1.00  0.00     0.357 C 
ATOM      5  O   UNL A   1      37.584  24.146  26.114  1.00  0.00    -0.244 OA
BRANCH   4   6
ATOM      6  C   UNL A   1      35.746  23.063  25.093  1.00  0.00     0.151 A 
ATOM      7  C   UNL A   1      33.922  24.008  23.999  1.00  0.00     0.137 A 
ATOM      8  N   UNL A   1      35.111  24.165  24.631  1.00  0.00    -0.223 NA
ATOM      9  C   UNL A   1      33.450  22.694  23.708  1.00  0.00     0.024 A 
ATOM     10  C   UNL A   1      34.015  21.608  24.408  1.00  0.00    -0.012 A 
ATOM     11  C   UNL A   1      32.489  22.361  22.728  1.00  0.00     0.012 A 
ATOM     12  C   UNL A   1      35.187  21.802  25.112  1.00  0.00     0.045 A 
ATOM     13  C   UNL A   1      33.447  20.327  24.341  1.00  0.00     0.009 A 
ATOM     14  C   UNL A   1      31.944  21.078  22.630  1.00  0.00     0.001 A 
ATOM     15  C   UNL A   1      32.386  20.073  23.480  1.00  0.00     0.001 A 
BRANCH   7  16
ATOM     16  N   UNL A   1      33.204  25.164  23.633  1.00  0.00    -0.356 N 
BRANCH  16  17
ATOM     17  C   UNL A   1      32.850  26.211  24.646  1.00  0.00     0.121 C 
BRANCH  17  18
ATOM     18  C   UNL A   1      31.354  26.502  24.914  1.00  0.00     0.005 C 
ATOM     19  C   UNL A   1      30.474  25.357  24.396  1.00  0.00     0.009 C 
BRANCH  18  20
ATOM     20  C   UNL A   1      31.061  26.763  26.413  1.00  0.00     0.002 C 
ATOM     21  C   UNL A   1      31.676  28.061  26.936  1.00  0.00     0.004 C 
ENDBRANCH  18  20
ENDBRANCH  17  18
ENDBRANCH  16  17
BRANCH  16  22
ATOM     22  C   UNL A   1      33.614  25.729  22.320  1.00  0.00     0.114 C 
ATOM     23  C   UNL A   1      32.521  25.707  21.246  1.00  0.00     0.027 C 
ENDBRANCH  16  22
ENDBRANCH   7  16
ENDBRANCH   4   6
ENDBRANCH   3   4
ENDBRANCH   2   3
ENDBRANCH   1   2
BRANCH   1  24
ATOM     24  O   UNL A   1      41.027  21.510  27.034  1.00  0.00    -0.374 OA
BRANCH  24  25
ATOM     25  C   UNL A   1      42.437  21.555  26.816  1.00  0.00     0.202 C 
BRANCH  25  26
ATOM     26  C   UNL A   1      42.972  22.518  25.750  1.00  0.00     0.261 C 
BRANCH  26  27
ATOM     27  O   UNL A   1      42.351  23.813  25.816  1.00  0.00    -0.460 OA
BRANCH  27  28
ATOM     28  C   UNL A   1      43.208  24.845  25.990  1.00  0.00     0.338 C 
ATOM     29  O   UNL A   1      44.223  25.079  25.342  1.00  0.00    -0.246 OA
BRANCH  28  30
ATOM     30  C   UNL A   1      42.655  25.797  26.968  1.00  0.00     0.060 A 
ATOM     31  C   UNL A   1      43.200  27.088  26.999  1.00  0.00     0.016 A 
ATOM     32  C   UNL A   1      41.670  25.418  27.881  1.00  0.00     0.016 A 
ATOM     33  C   UNL A   1      42.796  27.992  27.978  1.00  0.00     0.010 A 
ATOM     34  C   UNL A   1      41.273  26.325  28.869  1.00  0.00     0.010 A 
ATOM     35  C   UNL A   1      41.859  27.602  28.943  1.00  0.00    -0.014 A 
BRANCH  35  36
ATOM     36  C   UNL A   1      41.595  28.480  30.108  1.00  0.00     0.031 A 
ATOM     37  C   UNL A   1      42.456  28.344  31.334  1.00  0.00     0.074 A 
ATOM     38  C   UNL A   1      40.613  29.399  30.065  1.00  0.00     0.049 A 
ATOM     39  N   UNL A   1      42.370  28.964  32.481  1.00  0.00    -0.248 NA
ATOM     40  C   UNL A   1      43.561  27.374  31.256  1.00  0.00     0.031 C 
ATOM     41  C   UNL A   1      39.740  29.647  28.919  1.00  0.00     0.029 A 
ATOM     42  N   UNL A   1      40.179  30.286  31.017  1.00  0.00    -0.354 N 
ATOM     43  C   UNL A   1      43.399  28.456  33.265  1.00  0.00     0.074 A 
ATOM     44  C   UNL A   1      44.078  27.454  32.474  1.00  0.00     0.031 C 
ATOM     45  C   UNL A   1      38.865  30.615  29.239  1.00  0.00     0.029 A 
ATOM     46  C   UNL A   1      39.092  31.027  30.623  1.00  0.00     0.049 A 
ATOM     47  H   UNL A   1      40.607  30.381  31.899  1.00  0.00     0.167 HD
ATOM     48  C   UNL A   1      43.748  28.799  34.528  1.00  0.00     0.037 A 
ATOM     49  C   UNL A   1      38.349  31.918  31.311  1.00  0.00     0.037 A 
ATOM     50  C   UNL A   1      43.066  29.802  35.306  1.00  0.00     0.049 A 
ATOM     51  C   UNL A   1      38.716  32.236  32.737  1.00  0.00     0.074 A 
ATOM     52  C   UNL A   1      43.356  30.240  36.587  1.00  0.00     0.029 A 
ATOM     53  N   UNL A   1      41.954  30.514  34.882  1.00  0.00    -0.354 N 
ATOM     54  N   UNL A   1      39.705  31.765  33.460  1.00  0.00    -0.248 NA
ATOM     55  C   UNL A   1      37.868  33.208  33.441  1.00  0.00     0.031 C 
ATOM     56  C   UNL A   1      42.386  31.176  36.957  1.00  0.00     0.029 A 
ATOM     57  C   UNL A   1      41.528  31.368  35.887  1.00  0.00     0.049 A 
ATOM     58  H   UNL A   1      41.530  30.426  33.998  1.00  0.00     0.167 HD
ATOM     59  C   UNL A   1      39.614  32.404  34.693  1.00  0.00     0.074 A 
ATOM     60  C   UNL A   1      38.481  33.302  34.613  1.00  0.00     0.031 C 
ATOM     61  C   UNL A   1      40.399  32.262  35.790  1.00  0.00     0.037 A 
BRANCH  48  62
ATOM     62  C   UNL A   1      44.904  28.069  35.158  1.00  0.00     0.058 A 
ATOM     63  C   UNL A   1      44.724  26.885  35.889  1.00  0.00     0.135 A 
ATOM     64  C   UNL A   1      46.216  28.545  34.997  1.00  0.00     0.135 A 
ATOM     65  F   UNL A   1      43.490  26.394  36.091  1.00  0.00    -0.206 F 
ATOM     66  C   UNL A   1      45.800  26.211  36.459  1.00  0.00     0.059 A 
ATOM     67  C   UNL A   1      47.309  27.871  35.533  1.00  0.00     0.059 A 
ATOM     68  F   UNL A   1      46.446  29.674  34.309  1.00  0.00    -0.206 F 
ATOM     69  C   UNL A   1      47.090  26.711  36.274  1.00  0.00     0.060 A 
BRANCH  69  70
ATOM     70  S   UNL A   1      48.476  25.822  37.015  1.00  0.00     0.124 S 
ATOM     71  O   UNL A   1      48.496  24.600  36.217  1.00  0.00    -0.237 OA
ATOM     72  O   UNL A   1      49.588  26.741  36.793  1.00  0.00    -0.237 OA
ATOM     73  O   UNL A   1      48.070  25.656  38.407  1.00  0.00    -0.744 OA
ENDBRANCH  69  70
ENDBRANCH  48  62
BRANCH  49  74
ATOM     74  C   UNL A   1      37.174  32.560  30.664  1.00  0.00     0.058 A 
ATOM     75  C   UNL A   1      35.900  31.978  30.732  1.00  0.00     0.135 A 
ATOM     76  C   UNL A   1      37.301  33.773  29.966  1.00  0.00     0.135 A 
ATOM     77  F   UNL A   1      35.728  30.814  31.377  1.00  0.00    -0.206 F 
ATOM     78  C   UNL A   1      34.796  32.566  30.121  1.00  0.00     0.059 A 
ATOM     79  C   UNL A   1      36.207  34.393  29.371  1.00  0.00     0.059 A 
ATOM     80  F   UNL A   1      38.496  34.377  29.879  1.00  0.00    -0.206 F 
ATOM     81  C   UNL A   1      34.960  33.776  29.446  1.00  0.00     0.060 A 
BRANCH  81  82
ATOM     82  S   UNL A   1      33.512  34.554  28.697  1.00  0.00     0.124 S 
ATOM     83  O   UNL A   1      33.042  33.502  27.803  1.00  0.00    -0.237 OA
ATOM     84  O   UNL A   1      32.674  34.823  29.862  1.00  0.00    -0.237 OA
ATOM     85  O   UNL A   1      34.065  35.737  28.045  1.00  0.00    -0.744 OA
ENDBRANCH  81  82
ENDBRANCH  49  74
BRANCH  61  86
ATOM     86  C   UNL A   1      40.086  33.121  36.986  1.00  0.00     0.058 A 
ATOM     87  C   UNL A   1      40.761  34.328  37.228  1.00  0.00     0.135 A 
ATOM     88  C   UNL A   1      39.057  32.759  37.871  1.00  0.00     0.135 A 
ATOM     89  F   UNL A   1      41.757  34.719  36.417  1.00  0.00    -0.206 F 
ATOM     90  C   UNL A   1      40.443  35.134  38.316  1.00  0.00     0.059 A 
ATOM     91  C   UNL A   1      38.701  33.565  38.949  1.00  0.00     0.059 A 
ATOM     92  F   UNL A   1      38.370  31.622  37.681  1.00  0.00    -0.206 F 
ATOM     93  C   UNL A   1      39.409  34.746  39.170  1.00  0.00     0.060 A 
BRANCH  93  94
ATOM     94  S   UNL A   1      38.984  35.818  40.559  1.00  0.00     0.124 S 
ATOM     95  O   UNL A   1      40.199  35.752  41.365  1.00  0.00    -0.237 OA
ATOM     96  O   UNL A   1      38.729  37.095  39.900  1.00  0.00    -0.237 OA
ATOM     97  O   UNL A   1      37.809  35.174  41.139  1.00  0.00    -0.744 OA
ENDBRANCH  93  94
ENDBRANCH  61  86
ENDBRANCH  35  36
ENDBRANCH  28  30
ENDBRANCH  27  28
ENDBRANCH  26  27
ENDBRANCH  25  26
ENDBRANCH  24  25
ENDBRANCH   1  24
TORSDOF 22
ENDMDL
