MODEL 1
REMARK VINA RESULT:     -11.9      0.000      0.000
REMARK SMILES O=C(OCCOCCOC(=O)c1ccc(-c2c3nc(c(-c4c(F)cc(S(=O)(=O)[O-])cc4F)c4ccc([nH]4)c(-c4c(F)cc(S(=O)(=O)[O-])cc4F)c4nc(c(-c5c(F)cc(S(=O)(=O)[O-])cc5F)c5ccc2[nH]5)C=C4)C=C3)cc1)C1=Cc2cc(Cl)c(Cl)cc2O[C@@H]1C(F)(F)F
REMARK SMILES IDX 7 1 6 2 5 3 4 4 3 5 2 6 1 7 78 8 79 9 89 10 80 11 88 12
REMARK SMILES IDX 81 13 87 14 82 15 86 16 83 17 84 18 85 19 90 20 91 21 92 22
REMARK SMILES IDX 93 23 8 24 9 25 10 26 11 27 12 28 13 29 77 30 14 31 76 32
REMARK SMILES IDX 15 33 16 34 17 35 70 36 18 37 75 38 69 39 71 40 19 41 74 42
REMARK SMILES IDX 68 43 67 44 20 46 54 47 33 48 53 49 34 50 37 51 52 52 72 53
REMARK SMILES IDX 35 54 36 55 51 57 73 58 38 59 21 60 22 61 31 62 23 63 24 64
REMARK SMILES IDX 30 65 32 66 25 67 26 68 27 69 28 70 29 71 55 72 56 73 65 74
REMARK SMILES IDX 57 75 58 76 64 77 66 78 59 79 60 80 61 81 62 82 63 83 39 84
REMARK SMILES IDX 40 85 49 86 41 87 42 88 48 89 50 90 43 91 44 92 45 93 46 94
REMARK SMILES IDX 47 95
REMARK H PARENT 71 45 37 56
REMARK Flexibility Score: inf
ROOT
ATOM      1  C   UNL A   1      41.689  22.385  27.353  1.00  0.00     0.202 C 
ENDROOT
BRANCH   1   2
ATOM      2  O   UNL A   1      40.320  21.937  27.275  1.00  0.00    -0.374 OA
BRANCH   2   3
ATOM      3  C   UNL A   1      39.346  21.557  26.030  1.00  0.00     0.202 C 
BRANCH   3   4
ATOM      4  C   UNL A   1      37.476  22.465  25.360  1.00  0.00     0.261 C 
BRANCH   4   5
ATOM      5  O   UNL A   1      36.280  21.730  24.737  1.00  0.00    -0.460 OA
BRANCH   5   6
ATOM      6  C   UNL A   1      35.440  22.552  24.103  1.00  0.00     0.338 C 
ATOM      7  O   UNL A   1      35.652  23.329  23.208  1.00  0.00    -0.246 OA
BRANCH   6   8
ATOM      8  C   UNL A   1      34.382  22.471  25.087  1.00  0.00     0.087 C 
ATOM      9  C   UNL A   1      34.113  23.778  25.717  1.00  0.00     0.027 C 
ATOM     10  C   UNL A   1      33.137  21.505  23.964  1.00  0.00     0.316 C 
ATOM     11  C   UNL A   1      32.667  24.791  25.336  1.00  0.00     0.019 A 
ATOM     12  O   UNL A   1      31.612  22.599  23.485  1.00  0.00    -0.475 OA
ATOM     13  C   UNL A   1      32.617  26.064  25.828  1.00  0.00     0.034 A 
ATOM     14  C   UNL A   1      31.473  24.288  24.179  1.00  0.00     0.129 A 
ATOM     15  C   UNL A   1      31.624  26.884  25.268  1.00  0.00     0.060 A 
ATOM     16  C   UNL A   1      30.610  25.181  23.611  1.00  0.00     0.069 A 
ATOM     17  Cl  UNL A   1      31.566  28.494  25.941  1.00  0.00    -0.083 Cl
ATOM     18  C   UNL A   1      30.717  26.485  24.187  1.00  0.00     0.063 A 
ATOM     19  Cl  UNL A   1      29.744  27.739  23.477  1.00  0.00    -0.083 Cl
BRANCH  10  20
ATOM     20  C   UNL A   1      33.261  20.109  24.738  1.00  0.00     0.430 C 
ATOM     21  F   UNL A   1      33.174  20.167  26.078  1.00  0.00    -0.167 F 
ATOM     22  F   UNL A   1      32.189  19.347  24.360  1.00  0.00    -0.167 F 
ATOM     23  F   UNL A   1      34.337  19.360  24.405  1.00  0.00    -0.167 F 
ENDBRANCH  10  20
ENDBRANCH   6   8
ENDBRANCH   5   6
ENDBRANCH   4   5
ENDBRANCH   3   4
ENDBRANCH   2   3
ENDBRANCH   1   2
BRANCH   1  24
ATOM     24  C   UNL A   1      42.244  23.147  26.156  1.00  0.00     0.261 C 
BRANCH  24  25
ATOM     25  O   UNL A   1      42.828  24.382  26.531  1.00  0.00    -0.460 OA
BRANCH  25  26
ATOM     26  C   UNL A   1      42.072  25.449  26.197  1.00  0.00     0.338 C 
ATOM     27  O   UNL A   1      41.580  25.700  25.110  1.00  0.00    -0.246 OA
BRANCH  26  28
ATOM     28  C   UNL A   1      41.917  26.297  27.386  1.00  0.00     0.060 A 
ATOM     29  C   UNL A   1      40.874  25.985  28.260  1.00  0.00     0.016 A 
ATOM     30  C   UNL A   1      42.782  27.370  27.647  1.00  0.00     0.016 A 
ATOM     31  C   UNL A   1      40.709  26.734  29.413  1.00  0.00     0.010 A 
ATOM     32  C   UNL A   1      42.612  28.125  28.801  1.00  0.00     0.010 A 
ATOM     33  C   UNL A   1      41.571  27.804  29.681  1.00  0.00    -0.014 A 
BRANCH  33  34
ATOM     34  C   UNL A   1      41.227  28.717  30.780  1.00  0.00     0.031 A 
ATOM     35  C   UNL A   1      42.073  28.647  32.010  1.00  0.00     0.074 A 
ATOM     36  C   UNL A   1      40.236  29.613  30.647  1.00  0.00     0.049 A 
ATOM     37  N   UNL A   1      42.014  29.367  33.093  1.00  0.00    -0.248 NA
ATOM     38  C   UNL A   1      43.134  27.622  32.017  1.00  0.00     0.031 C 
ATOM     39  C   UNL A   1      39.383  29.759  29.471  1.00  0.00     0.029 A 
ATOM     40  N   UNL A   1      39.789  30.577  31.508  1.00  0.00    -0.354 N 
ATOM     41  C   UNL A   1      43.038  28.899  33.903  1.00  0.00     0.074 A 
ATOM     42  C   UNL A   1      43.675  27.804  33.209  1.00  0.00     0.031 C 
ATOM     43  C   UNL A   1      38.531  30.779  29.670  1.00  0.00     0.029 A 
ATOM     44  C   UNL A   1      38.739  31.314  31.013  1.00  0.00     0.049 A 
ATOM     45  H   UNL A   1      40.181  30.730  32.398  1.00  0.00     0.167 HD
ATOM     46  C   UNL A   1      43.415  29.358  35.116  1.00  0.00     0.037 A 
ATOM     47  C   UNL A   1      38.019  32.290  31.600  1.00  0.00     0.037 A 
ATOM     48  C   UNL A   1      42.733  30.421  35.802  1.00  0.00     0.049 A 
ATOM     49  C   UNL A   1      38.393  32.705  33.001  1.00  0.00     0.074 A 
ATOM     50  C   UNL A   1      43.002  30.949  37.050  1.00  0.00     0.029 A 
ATOM     51  N   UNL A   1      41.633  31.106  35.303  1.00  0.00    -0.354 N 
ATOM     52  N   UNL A   1      39.376  32.273  33.758  1.00  0.00    -0.248 NA
ATOM     53  C   UNL A   1      37.564  33.740  33.630  1.00  0.00     0.031 C 
ATOM     54  C   UNL A   1      42.023  31.905  37.334  1.00  0.00     0.029 A 
ATOM     55  C   UNL A   1      41.193  32.033  36.230  1.00  0.00     0.049 A 
ATOM     56  H   UNL A   1      41.226  30.954  34.419  1.00  0.00     0.167 HD
ATOM     57  C   UNL A   1      39.305  33.009  34.936  1.00  0.00     0.074 A 
ATOM     58  C   UNL A   1      38.190  33.922  34.783  1.00  0.00     0.031 C 
ATOM     59  C   UNL A   1      40.085  32.939  36.044  1.00  0.00     0.037 A 
BRANCH  46  60
ATOM     60  C   UNL A   1      44.579  28.680  35.776  1.00  0.00     0.058 A 
ATOM     61  C   UNL A   1      44.405  27.599  36.657  1.00  0.00     0.135 A 
ATOM     62  C   UNL A   1      45.889  29.116  35.527  1.00  0.00     0.135 A 
ATOM     63  F   UNL A   1      43.170  27.163  36.958  1.00  0.00    -0.206 F 
ATOM     64  C   UNL A   1      45.486  26.988  37.279  1.00  0.00     0.059 A 
ATOM     65  C   UNL A   1      46.988  28.498  36.113  1.00  0.00     0.059 A 
ATOM     66  F   UNL A   1      46.111  30.159  34.711  1.00  0.00    -0.206 F 
ATOM     67  C   UNL A   1      46.775  27.442  36.996  1.00  0.00     0.060 A 
BRANCH  67  68
ATOM     68  S   UNL A   1      48.168  26.623  37.798  1.00  0.00     0.124 S 
ATOM     69  O   UNL A   1      48.512  27.585  38.841  1.00  0.00    -0.237 OA
ATOM     70  O   UNL A   1      47.569  25.375  38.259  1.00  0.00    -0.237 OA
ATOM     71  O   UNL A   1      49.148  26.487  36.725  1.00  0.00    -0.744 OA
ENDBRANCH  67  68
ENDBRANCH  46  60
BRANCH  47  72
ATOM     72  C   UNL A   1      36.865  32.912  30.894  1.00  0.00     0.058 A 
ATOM     73  C   UNL A   1      37.047  33.937  29.952  1.00  0.00     0.135 A 
ATOM     74  C   UNL A   1      35.546  32.518  31.174  1.00  0.00     0.135 A 
ATOM     75  F   UNL A   1      38.284  34.360  29.652  1.00  0.00    -0.206 F 
ATOM     76  C   UNL A   1      35.967  34.568  29.341  1.00  0.00     0.059 A 
ATOM     77  C   UNL A   1      34.452  33.108  30.550  1.00  0.00     0.059 A 
ATOM     78  F   UNL A   1      35.310  31.536  32.060  1.00  0.00    -0.206 F 
ATOM     79  C   UNL A   1      34.672  34.145  29.646  1.00  0.00     0.060 A 
BRANCH  79  80
ATOM     80  S   UNL A   1      33.280  34.958  28.832  1.00  0.00     0.124 S 
ATOM     81  O   UNL A   1      32.402  35.238  29.961  1.00  0.00    -0.237 OA
ATOM     82  O   UNL A   1      33.921  36.114  28.216  1.00  0.00    -0.237 OA
ATOM     83  O   UNL A   1      32.800  33.945  27.896  1.00  0.00    -0.744 OA
ENDBRANCH  79  80
ENDBRANCH  47  72
BRANCH  59  84
ATOM     84  C   UNL A   1      39.797  33.912  37.157  1.00  0.00     0.058 A 
ATOM     85  C   UNL A   1      38.980  33.577  38.247  1.00  0.00     0.135 A 
ATOM     86  C   UNL A   1      40.397  35.182  37.153  1.00  0.00     0.135 A 
ATOM     87  F   UNL A   1      38.379  32.378  38.301  1.00  0.00    -0.206 F 
ATOM     88  C   UNL A   1      38.741  34.479  39.280  1.00  0.00     0.059 A 
ATOM     89  C   UNL A   1      40.206  36.085  38.194  1.00  0.00     0.059 A 
ATOM     90  F   UNL A   1      41.200  35.550  36.142  1.00  0.00    -0.206 F 
ATOM     91  C   UNL A   1      39.363  35.729  39.245  1.00  0.00     0.060 A 
BRANCH  91  92
ATOM     92  S   UNL A   1      39.069  36.876  40.606  1.00  0.00     0.124 S 
ATOM     93  O   UNL A   1      40.431  37.248  40.976  1.00  0.00    -0.237 OA
ATOM     94  O   UNL A   1      38.278  37.920  39.965  1.00  0.00    -0.237 OA
ATOM     95  O   UNL A   1      38.352  36.067  41.587  1.00  0.00    -0.744 OA
ENDBRANCH  91  92
ENDBRANCH  59  84
ENDBRANCH  33  34
ENDBRANCH  26  28
ENDBRANCH  25  26
ENDBRANCH  24  25
ENDBRANCH   1  24
TORSDOF 18
ENDMDL
MODEL 2
REMARK VINA RESULT:     -11.9      4.865      6.751
REMARK SMILES O=C(OCCOCCOC(=O)c1ccc(-c2c3nc(c(-c4c(F)cc(S(=O)(=O)[O-])cc4F)c4ccc([nH]4)c(-c4c(F)cc(S(=O)(=O)[O-])cc4F)c4nc(c(-c5c(F)cc(S(=O)(=O)[O-])cc5F)c5ccc2[nH]5)C=C4)C=C3)cc1)C1=Cc2cc(Cl)c(Cl)cc2O[C@@H]1C(F)(F)F
REMARK SMILES IDX 7 1 6 2 5 3 4 4 3 5 2 6 1 7 78 8 79 9 89 10 80 11 88 12
REMARK SMILES IDX 81 13 87 14 82 15 86 16 83 17 84 18 85 19 90 20 91 21 92 22
REMARK SMILES IDX 93 23 8 24 9 25 10 26 11 27 12 28 13 29 77 30 14 31 76 32
REMARK SMILES IDX 15 33 16 34 17 35 70 36 18 37 75 38 69 39 71 40 19 41 74 42
REMARK SMILES IDX 68 43 67 44 20 46 54 47 33 48 53 49 34 50 37 51 52 52 72 53
REMARK SMILES IDX 35 54 36 55 51 57 73 58 38 59 21 60 22 61 31 62 23 63 24 64
REMARK SMILES IDX 30 65 32 66 25 67 26 68 27 69 28 70 29 71 55 72 56 73 65 74
REMARK SMILES IDX 57 75 58 76 64 77 66 78 59 79 60 80 61 81 62 82 63 83 39 84
REMARK SMILES IDX 40 85 49 86 41 87 42 88 48 89 50 90 43 91 44 92 45 93 46 94
REMARK SMILES IDX 47 95
REMARK H PARENT 71 45 37 56
REMARK Flexibility Score: inf
ROOT
ATOM      1  C   UNL A   1      42.478  21.809  26.468  1.00  0.00     0.202 C 
ENDROOT
BRANCH   1   2
ATOM      2  O   UNL A   1      43.286  20.862  25.739  1.00  0.00    -0.374 OA
BRANCH   2   3
ATOM      3  C   UNL A   1      44.799  20.920  25.144  1.00  0.00     0.202 C 
BRANCH   3   4
ATOM      4  C   UNL A   1      46.110  22.623  24.759  1.00  0.00     0.261 C 
BRANCH   4   5
ATOM      5  O   UNL A   1      45.823  24.090  25.114  1.00  0.00    -0.460 OA
BRANCH   5   6
ATOM      6  C   UNL A   1      46.479  24.496  26.204  1.00  0.00     0.338 C 
ATOM      7  O   UNL A   1      47.492  24.069  26.695  1.00  0.00    -0.246 OA
BRANCH   6   8
ATOM      8  C   UNL A   1      45.393  25.283  26.747  1.00  0.00     0.087 C 
ATOM      9  C   UNL A   1      44.649  24.550  27.789  1.00  0.00     0.027 C 
ATOM     10  C   UNL A   1      46.436  26.884  27.050  1.00  0.00     0.316 C 
ATOM     11  C   UNL A   1      44.798  24.899  29.555  1.00  0.00     0.019 A 
ATOM     12  O   UNL A   1      46.668  27.237  28.941  1.00  0.00    -0.475 OA
ATOM     13  C   UNL A   1      44.217  24.035  30.439  1.00  0.00     0.034 A 
ATOM     14  C   UNL A   1      45.848  26.143  30.159  1.00  0.00     0.129 A 
ATOM     15  C   UNL A   1      44.606  24.199  31.778  1.00  0.00     0.060 A 
ATOM     16  C   UNL A   1      46.255  26.162  31.462  1.00  0.00     0.069 A 
ATOM     17  Cl  UNL A   1      43.820  23.101  32.888  1.00  0.00    -0.083 Cl
ATOM     18  C   UNL A   1      45.605  25.162  32.251  1.00  0.00     0.063 A 
ATOM     19  Cl  UNL A   1      46.116  25.013  33.907  1.00  0.00    -0.083 Cl
BRANCH  10  20
ATOM     20  C   UNL A   1      45.780  27.739  25.868  1.00  0.00     0.430 C 
ATOM     21  F   UNL A   1      45.088  27.043  24.948  1.00  0.00    -0.167 F 
ATOM     22  F   UNL A   1      44.850  28.565  26.440  1.00  0.00    -0.167 F 
ATOM     23  F   UNL A   1      46.624  28.581  25.229  1.00  0.00    -0.167 F 
ENDBRANCH  10  20
ENDBRANCH   6   8
ENDBRANCH   5   6
ENDBRANCH   4   5
ENDBRANCH   3   4
ENDBRANCH   2   3
ENDBRANCH   1   2
BRANCH   1  24
ATOM     24  C   UNL A   1      42.011  23.051  25.719  1.00  0.00     0.261 C 
BRANCH  24  25
ATOM     25  O   UNL A   1      41.326  23.960  26.563  1.00  0.00    -0.460 OA
BRANCH  25  26
ATOM     26  C   UNL A   1      41.423  25.241  26.149  1.00  0.00     0.338 C 
ATOM     27  O   UNL A   1      41.556  25.646  25.007  1.00  0.00    -0.246 OA
BRANCH  26  28
ATOM     28  C   UNL A   1      41.336  26.115  27.328  1.00  0.00     0.060 A 
ATOM     29  C   UNL A   1      40.313  25.853  28.241  1.00  0.00     0.016 A 
ATOM     30  C   UNL A   1      42.244  27.163  27.539  1.00  0.00     0.016 A 
ATOM     31  C   UNL A   1      40.212  26.627  29.385  1.00  0.00     0.010 A 
ATOM     32  C   UNL A   1      42.137  27.944  28.684  1.00  0.00     0.010 A 
ATOM     33  C   UNL A   1      41.116  27.672  29.605  1.00  0.00    -0.014 A 
BRANCH  33  34
ATOM     34  C   UNL A   1      40.839  28.616  30.697  1.00  0.00     0.031 A 
ATOM     35  C   UNL A   1      41.701  28.515  31.914  1.00  0.00     0.074 A 
ATOM     36  C   UNL A   1      39.895  29.561  30.568  1.00  0.00     0.049 A 
ATOM     37  N   UNL A   1      41.697  29.250  32.989  1.00  0.00    -0.248 NA
ATOM     38  C   UNL A   1      42.706  27.435  31.917  1.00  0.00     0.031 C 
ATOM     39  C   UNL A   1      39.032  29.739  29.404  1.00  0.00     0.029 A 
ATOM     40  N   UNL A   1      39.514  30.558  31.424  1.00  0.00    -0.354 N 
ATOM     41  C   UNL A   1      42.708  28.738  33.789  1.00  0.00     0.074 A 
ATOM     42  C   UNL A   1      43.275  27.602  33.099  1.00  0.00     0.031 C 
ATOM     43  C   UNL A   1      38.239  30.805  29.603  1.00  0.00     0.029 A 
ATOM     44  C   UNL A   1      38.497  31.344  30.936  1.00  0.00     0.049 A 
ATOM     45  H   UNL A   1      39.928  30.700  32.305  1.00  0.00     0.167 HD
ATOM     46  C   UNL A   1      43.129  29.191  34.990  1.00  0.00     0.037 A 
ATOM     47  C   UNL A   1      37.839  32.364  31.521  1.00  0.00     0.037 A 
ATOM     48  C   UNL A   1      42.516  30.296  35.673  1.00  0.00     0.049 A 
ATOM     49  C   UNL A   1      38.258  32.775  32.911  1.00  0.00     0.074 A 
ATOM     50  C   UNL A   1      42.832  30.823  36.910  1.00  0.00     0.029 A 
ATOM     51  N   UNL A   1      41.445  31.032  35.182  1.00  0.00    -0.354 N 
ATOM     52  N   UNL A   1      39.229  32.300  33.658  1.00  0.00    -0.248 NA
ATOM     53  C   UNL A   1      37.495  33.860  33.540  1.00  0.00     0.031 C 
ATOM     54  C   UNL A   1      41.911  31.833  37.197  1.00  0.00     0.029 A 
ATOM     55  C   UNL A   1      41.070  31.992  36.105  1.00  0.00     0.049 A 
ATOM     56  H   UNL A   1      41.017  30.892  34.306  1.00  0.00     0.167 HD
ATOM     57  C   UNL A   1      39.216  33.053  34.828  1.00  0.00     0.074 A 
ATOM     58  C   UNL A   1      38.149  34.022  34.681  1.00  0.00     0.031 C 
ATOM     59  C   UNL A   1      40.009  32.954  35.925  1.00  0.00     0.037 A 
BRANCH  46  60
ATOM     60  C   UNL A   1      44.265  28.459  35.640  1.00  0.00     0.058 A 
ATOM     61  C   UNL A   1      45.604  28.723  35.307  1.00  0.00     0.135 A 
ATOM     62  C   UNL A   1      44.014  27.476  36.611  1.00  0.00     0.135 A 
ATOM     63  F   UNL A   1      45.901  29.629  34.360  1.00  0.00    -0.206 F 
ATOM     64  C   UNL A   1      46.651  28.028  35.900  1.00  0.00     0.059 A 
ATOM     65  C   UNL A   1      45.047  26.792  37.241  1.00  0.00     0.059 A 
ATOM     66  F   UNL A   1      42.752  27.169  36.950  1.00  0.00    -0.206 F 
ATOM     67  C   UNL A   1      46.362  27.068  36.870  1.00  0.00     0.060 A 
BRANCH  67  68
ATOM     68  S   UNL A   1      47.735  26.189  37.643  1.00  0.00     0.124 S 
ATOM     69  O   UNL A   1      48.886  26.875  37.064  1.00  0.00    -0.237 OA
ATOM     70  O   UNL A   1      47.499  26.434  39.062  1.00  0.00    -0.237 OA
ATOM     71  O   UNL A   1      47.545  24.809  37.207  1.00  0.00    -0.744 OA
ENDBRANCH  67  68
ENDBRANCH  46  60
BRANCH  47  72
ATOM     72  C   UNL A   1      36.709  33.038  30.826  1.00  0.00     0.058 A 
ATOM     73  C   UNL A   1      36.929  33.961  29.792  1.00  0.00     0.135 A 
ATOM     74  C   UNL A   1      35.378  32.799  31.207  1.00  0.00     0.135 A 
ATOM     75  F   UNL A   1      38.181  34.234  29.393  1.00  0.00    -0.206 F 
ATOM     76  C   UNL A   1      35.879  34.644  29.186  1.00  0.00     0.059 A 
ATOM     77  C   UNL A   1      34.308  33.443  30.592  1.00  0.00     0.059 A 
ATOM     78  F   UNL A   1      35.104  31.920  32.185  1.00  0.00    -0.206 F 
ATOM     79  C   UNL A   1      34.571  34.377  29.593  1.00  0.00     0.060 A 
BRANCH  79  80
ATOM     80  S   UNL A   1      33.214  35.255  28.786  1.00  0.00     0.124 S 
ATOM     81  O   UNL A   1      32.470  35.764  29.931  1.00  0.00    -0.237 OA
ATOM     82  O   UNL A   1      33.927  36.251  27.992  1.00  0.00    -0.237 OA
ATOM     83  O   UNL A   1      32.549  34.210  28.015  1.00  0.00    -0.744 OA
ENDBRANCH  79  80
ENDBRANCH  47  72
BRANCH  59  84
ATOM     84  C   UNL A   1      39.791  33.954  37.029  1.00  0.00     0.058 A 
ATOM     85  C   UNL A   1      39.007  33.662  38.156  1.00  0.00     0.135 A 
ATOM     86  C   UNL A   1      40.426  35.206  36.979  1.00  0.00     0.135 A 
ATOM     87  F   UNL A   1      38.376  32.481  38.254  1.00  0.00    -0.206 F 
ATOM     88  C   UNL A   1      38.834  34.588  39.179  1.00  0.00     0.059 A 
ATOM     89  C   UNL A   1      40.300  36.132  38.009  1.00  0.00     0.059 A 
ATOM     90  F   UNL A   1      41.200  35.533  35.931  1.00  0.00    -0.206 F 
ATOM     91  C   UNL A   1      39.489  35.819  39.098  1.00  0.00     0.060 A 
BRANCH  91  92
ATOM     92  S   UNL A   1      39.280  36.998  40.448  1.00  0.00     0.124 S 
ATOM     93  O   UNL A   1      38.543  38.071  39.790  1.00  0.00    -0.237 OA
ATOM     94  O   UNL A   1      38.528  36.218  41.426  1.00  0.00    -0.237 OA
ATOM     95  O   UNL A   1      40.650  37.323  40.834  1.00  0.00    -0.744 OA
ENDBRANCH  91  92
ENDBRANCH  59  84
ENDBRANCH  33  34
ENDBRANCH  26  28
ENDBRANCH  25  26
ENDBRANCH  24  25
ENDBRANCH   1  24
TORSDOF 18
ENDMDL
MODEL 3
REMARK VINA RESULT:     -11.8      0.867      1.687
REMARK SMILES O=C(OCCOCCOC(=O)c1ccc(-c2c3nc(c(-c4c(F)cc(S(=O)(=O)[O-])cc4F)c4ccc([nH]4)c(-c4c(F)cc(S(=O)(=O)[O-])cc4F)c4nc(c(-c5c(F)cc(S(=O)(=O)[O-])cc5F)c5ccc2[nH]5)C=C4)C=C3)cc1)C1=Cc2cc(Cl)c(Cl)cc2O[C@@H]1C(F)(F)F
REMARK SMILES IDX 7 1 6 2 5 3 4 4 3 5 2 6 1 7 78 8 79 9 89 10 80 11 88 12
REMARK SMILES IDX 81 13 87 14 82 15 86 16 83 17 84 18 85 19 90 20 91 21 92 22
REMARK SMILES IDX 93 23 8 24 9 25 10 26 11 27 12 28 13 29 77 30 14 31 76 32
REMARK SMILES IDX 15 33 16 34 17 35 70 36 18 37 75 38 69 39 71 40 19 41 74 42
REMARK SMILES IDX 68 43 67 44 20 46 54 47 33 48 53 49 34 50 37 51 52 52 72 53
REMARK SMILES IDX 35 54 36 55 51 57 73 58 38 59 21 60 22 61 31 62 23 63 24 64
REMARK SMILES IDX 30 65 32 66 25 67 26 68 27 69 28 70 29 71 55 72 56 73 65 74
REMARK SMILES IDX 57 75 58 76 64 77 66 78 59 79 60 80 61 81 62 82 63 83 39 84
REMARK SMILES IDX 40 85 49 86 41 87 42 88 48 89 50 90 43 91 44 92 45 93 46 94
REMARK SMILES IDX 47 95
REMARK H PARENT 71 45 37 56
REMARK Flexibility Score: inf
ROOT
ATOM      1  C   UNL A   1      42.219  21.846  26.209  1.00  0.00     0.202 C 
ENDROOT
BRANCH   1   2
ATOM      2  O   UNL A   1      40.983  21.500  25.551  1.00  0.00    -0.374 OA
BRANCH   2   3
ATOM      3  C   UNL A   1      39.536  21.000  26.099  1.00  0.00     0.202 C 
BRANCH   3   4
ATOM      4  C   UNL A   1      37.679  20.581  25.028  1.00  0.00     0.261 C 
BRANCH   4   5
ATOM      5  O   UNL A   1      36.295  21.168  25.343  1.00  0.00    -0.460 OA
BRANCH   5   6
ATOM      6  C   UNL A   1      35.865  22.015  24.405  1.00  0.00     0.338 C 
ATOM      7  O   UNL A   1      36.481  22.575  23.535  1.00  0.00    -0.246 OA
BRANCH   6   8
ATOM      8  C   UNL A   1      34.594  22.302  25.034  1.00  0.00     0.087 C 
ATOM      9  C   UNL A   1      34.608  23.597  25.740  1.00  0.00     0.027 C 
ATOM     10  C   UNL A   1      33.508  21.897  23.485  1.00  0.00     0.316 C 
ATOM     11  C   UNL A   1      33.793  25.083  25.117  1.00  0.00     0.019 A 
ATOM     12  O   UNL A   1      32.680  23.490  22.758  1.00  0.00    -0.475 OA
ATOM     13  C   UNL A   1      34.033  26.270  25.750  1.00  0.00     0.034 A 
ATOM     14  C   UNL A   1      32.920  25.090  23.615  1.00  0.00     0.129 A 
ATOM     15  C   UNL A   1      33.607  27.414  25.056  1.00  0.00     0.060 A 
ATOM     16  C   UNL A   1      32.638  26.255  22.961  1.00  0.00     0.069 A 
ATOM     17  Cl  UNL A   1      33.899  28.912  25.905  1.00  0.00    -0.083 Cl
ATOM     18  C   UNL A   1      33.001  27.410  23.720  1.00  0.00     0.063 A 
ATOM     19  Cl  UNL A   1      32.790  28.955  22.951  1.00  0.00    -0.083 Cl
BRANCH  10  20
ATOM     20  C   UNL A   1      32.899  20.532  24.058  1.00  0.00     0.430 C 
ATOM     21  F   UNL A   1      32.179  20.636  25.190  1.00  0.00    -0.167 F 
ATOM     22  F   UNL A   1      32.005  20.072  23.129  1.00  0.00    -0.167 F 
ATOM     23  F   UNL A   1      33.785  19.521  24.200  1.00  0.00    -0.167 F 
ENDBRANCH  10  20
ENDBRANCH   6   8
ENDBRANCH   5   6
ENDBRANCH   4   5
ENDBRANCH   3   4
ENDBRANCH   2   3
ENDBRANCH   1   2
BRANCH   1  24
ATOM     24  C   UNL A   1      42.469  23.322  26.492  1.00  0.00     0.261 C 
BRANCH  24  25
ATOM     25  O   UNL A   1      41.264  24.059  26.601  1.00  0.00    -0.460 OA
BRANCH  25  26
ATOM     26  C   UNL A   1      41.391  25.344  26.206  1.00  0.00     0.338 C 
ATOM     27  O   UNL A   1      41.540  25.761  25.070  1.00  0.00    -0.246 OA
BRANCH  26  28
ATOM     28  C   UNL A   1      41.318  26.203  27.396  1.00  0.00     0.060 A 
ATOM     29  C   UNL A   1      40.280  25.955  28.296  1.00  0.00     0.016 A 
ATOM     30  C   UNL A   1      42.251  27.223  27.631  1.00  0.00     0.016 A 
ATOM     31  C   UNL A   1      40.189  26.715  29.451  1.00  0.00     0.010 A 
ATOM     32  C   UNL A   1      42.155  27.989  28.786  1.00  0.00     0.010 A 
ATOM     33  C   UNL A   1      41.120  27.733  29.693  1.00  0.00    -0.014 A 
BRANCH  33  34
ATOM     34  C   UNL A   1      40.858  28.668  30.796  1.00  0.00     0.031 A 
ATOM     35  C   UNL A   1      41.725  28.545  32.008  1.00  0.00     0.074 A 
ATOM     36  C   UNL A   1      39.924  29.625  30.683  1.00  0.00     0.049 A 
ATOM     37  N   UNL A   1      41.735  29.269  33.091  1.00  0.00    -0.248 NA
ATOM     38  C   UNL A   1      42.718  27.454  31.995  1.00  0.00     0.031 C 
ATOM     39  C   UNL A   1      39.057  29.824  29.524  1.00  0.00     0.029 A 
ATOM     40  N   UNL A   1      39.558  30.617  31.550  1.00  0.00    -0.354 N 
ATOM     41  C   UNL A   1      42.744  28.737  33.880  1.00  0.00     0.074 A 
ATOM     42  C   UNL A   1      43.295  27.603  33.175  1.00  0.00     0.031 C 
ATOM     43  C   UNL A   1      38.277  30.897  29.739  1.00  0.00     0.029 A 
ATOM     44  C   UNL A   1      38.547  31.418  31.075  1.00  0.00     0.049 A 
ATOM     45  H   UNL A   1      39.978  30.745  32.431  1.00  0.00     0.167 HD
ATOM     46  C   UNL A   1      43.175  29.173  35.083  1.00  0.00     0.037 A 
ATOM     47  C   UNL A   1      37.904  32.439  31.675  1.00  0.00     0.037 A 
ATOM     48  C   UNL A   1      42.577  30.278  35.781  1.00  0.00     0.049 A 
ATOM     49  C   UNL A   1      38.333  32.831  33.067  1.00  0.00     0.074 A 
ATOM     50  C   UNL A   1      42.906  30.789  37.022  1.00  0.00     0.029 A 
ATOM     51  N   UNL A   1      41.513  31.031  35.303  1.00  0.00    -0.354 N 
ATOM     52  N   UNL A   1      39.303  32.339  33.804  1.00  0.00    -0.248 NA
ATOM     53  C   UNL A   1      37.586  33.918  33.711  1.00  0.00     0.031 C 
ATOM     54  C   UNL A   1      41.997  31.805  37.324  1.00  0.00     0.029 A 
ATOM     55  C   UNL A   1      41.153  31.985  36.238  1.00  0.00     0.049 A 
ATOM     56  H   UNL A   1      41.079  30.904  34.428  1.00  0.00     0.167 HD
ATOM     57  C   UNL A   1      39.304  33.079  34.982  1.00  0.00     0.074 A 
ATOM     58  C   UNL A   1      38.247  34.061  34.850  1.00  0.00     0.031 C 
ATOM     59  C   UNL A   1      40.102  32.960  36.073  1.00  0.00     0.037 A 
BRANCH  46  60
ATOM     60  C   UNL A   1      44.307  28.422  35.720  1.00  0.00     0.058 A 
ATOM     61  C   UNL A   1      44.083  27.346  36.596  1.00  0.00     0.135 A 
ATOM     62  C   UNL A   1      45.637  28.783  35.454  1.00  0.00     0.135 A 
ATOM     63  F   UNL A   1      42.830  26.981  36.913  1.00  0.00    -0.206 F 
ATOM     64  C   UNL A   1      45.136  26.668  37.197  1.00  0.00     0.059 A 
ATOM     65  C   UNL A   1      46.707  28.097  36.018  1.00  0.00     0.059 A 
ATOM     66  F   UNL A   1      45.907  29.817  34.641  1.00  0.00    -0.206 F 
ATOM     67  C   UNL A   1      46.445  27.048  36.896  1.00  0.00     0.060 A 
BRANCH  67  68
ATOM     68  S   UNL A   1      47.800  26.143  37.671  1.00  0.00     0.124 S 
ATOM     69  O   UNL A   1      48.741  26.017  36.562  1.00  0.00    -0.237 OA
ATOM     70  O   UNL A   1      48.201  27.046  38.744  1.00  0.00    -0.237 OA
ATOM     71  O   UNL A   1      47.174  24.897  38.104  1.00  0.00    -0.744 OA
ENDBRANCH  67  68
ENDBRANCH  46  60
BRANCH  47  72
ATOM     72  C   UNL A   1      36.777  33.133  30.993  1.00  0.00     0.058 A 
ATOM     73  C   UNL A   1      35.440  32.865  31.326  1.00  0.00     0.135 A 
ATOM     74  C   UNL A   1      37.013  34.059  29.962  1.00  0.00     0.135 A 
ATOM     75  F   UNL A   1      35.156  31.983  32.297  1.00  0.00    -0.206 F 
ATOM     76  C   UNL A   1      34.383  33.461  30.645  1.00  0.00     0.059 A 
ATOM     77  C   UNL A   1      35.974  34.695  29.290  1.00  0.00     0.059 A 
ATOM     78  F   UNL A   1      38.272  34.363  29.605  1.00  0.00    -0.206 F 
ATOM     79  C   UNL A   1      34.661  34.376  29.628  1.00  0.00     0.060 A 
BRANCH  79  80
ATOM     80  S   UNL A   1      33.281  35.158  28.764  1.00  0.00     0.124 S 
ATOM     81  O   UNL A   1      33.963  36.192  27.995  1.00  0.00    -0.237 OA
ATOM     82  O   UNL A   1      32.734  34.045  27.996  1.00  0.00    -0.237 OA
ATOM     83  O   UNL A   1      32.432  35.637  29.850  1.00  0.00    -0.744 OA
ENDBRANCH  79  80
ENDBRANCH  47  72
BRANCH  59  84
ATOM     84  C   UNL A   1      39.900  33.950  37.189  1.00  0.00     0.058 A 
ATOM     85  C   UNL A   1      40.583  35.176  37.231  1.00  0.00     0.135 A 
ATOM     86  C   UNL A   1      38.965  33.686  38.203  1.00  0.00     0.135 A 
ATOM     87  F   UNL A   1      41.490  35.478  36.289  1.00  0.00    -0.206 F 
ATOM     88  C   UNL A   1      40.368  36.091  38.257  1.00  0.00     0.059 A 
ATOM     89  C   UNL A   1      38.704  34.604  39.216  1.00  0.00     0.059 A 
ATOM     90  F   UNL A   1      38.272  32.536  38.205  1.00  0.00    -0.206 F 
ATOM     91  C   UNL A   1      39.423  35.797  39.242  1.00  0.00     0.060 A 
BRANCH  91  92
ATOM     92  S   UNL A   1      39.134  37.007  40.548  1.00  0.00     0.124 S 
ATOM     93  O   UNL A   1      38.241  37.950  39.883  1.00  0.00    -0.237 OA
ATOM     94  O   UNL A   1      38.530  36.192  41.596  1.00  0.00    -0.237 OA
ATOM     95  O   UNL A   1      40.470  37.514  40.848  1.00  0.00    -0.744 OA
ENDBRANCH  91  92
ENDBRANCH  59  84
ENDBRANCH  33  34
ENDBRANCH  26  28
ENDBRANCH  25  26
ENDBRANCH  24  25
ENDBRANCH   1  24
TORSDOF 18
ENDMDL
