MODEL 1
REMARK VINA RESULT:     -12.3      0.000      0.000
REMARK SMILES CCc1ccc(-c2cc(Cl)cc3c2O[C@@H](C(F)(F)F)C(C(=O)OCCOCCOC(=O)c2ccc(-c4c5nc(c(-c6c(F)cc(S(=O)(=O)[O-])cc6F)c6ccc([nH]6)c(-c6c(F)cc(S(=O)(=O)[O-])cc6F)c6nc(c(-c7c(F)cc(S(=O)(=O)[O-])cc7F)c7ccc4[nH]7)C=C6)C=C5)cc2)=C3)cc1
REMARK SMILES IDX 27 1 26 2 25 3 24 4 23 5 21 6 22 7 20 8 7 9 8 10 13 11 9 12
REMARK SMILES IDX 12 13 14 14 10 15 11 16 98 17 15 18 6 19 3 20 4 21 100 22
REMARK SMILES IDX 5 23 99 24 2 25 1 26 16 27 17 28 18 29 19 30 28 31 29 32
REMARK SMILES IDX 30 33 31 34 32 35 33 36 97 37 34 38 96 39 35 40 36 41 37 42
REMARK SMILES IDX 90 43 38 44 95 45 89 46 91 47 39 48 94 49 88 50 87 51 40 53
REMARK SMILES IDX 74 54 53 55 73 56 54 57 57 58 72 59 92 60 55 61 56 62 71 64
REMARK SMILES IDX 93 65 58 66 41 67 42 68 51 69 43 70 44 71 50 72 52 73 45 74
REMARK SMILES IDX 46 75 47 76 48 77 49 78 75 79 76 80 85 81 77 82 78 83 84 84
REMARK SMILES IDX 86 85 79 86 80 87 81 88 82 89 83 90 59 91 60 92 69 93 61 94
REMARK SMILES IDX 62 95 68 96 70 97 63 98 64 99 65 100 66 101 67 102
REMARK H PARENT 91 52 57 63
REMARK Flexibility Score: inf
ROOT
ATOM      1  C   UNL A   1      34.019  31.931  28.008  1.00  0.00     0.202 C 
ENDROOT
BRANCH   1   2
ATOM      2  O   UNL A   1      33.688  30.806  27.196  1.00  0.00    -0.374 OA
BRANCH   2   3
ATOM      3  C   UNL A   1      32.313  30.538  26.951  1.00  0.00     0.202 C 
BRANCH   3   4
ATOM      4  C   UNL A   1      31.879  29.083  26.712  1.00  0.00     0.261 C 
BRANCH   4   5
ATOM      5  O   UNL A   1      32.701  28.398  25.753  1.00  0.00    -0.460 OA
BRANCH   5   6
ATOM      6  C   UNL A   1      32.197  27.251  25.259  1.00  0.00     0.338 C 
ATOM      7  O   UNL A   1      31.010  27.020  25.075  1.00  0.00    -0.246 OA
BRANCH   6   8
ATOM      8  C   UNL A   1      33.253  26.331  24.771  1.00  0.00     0.087 C 
ATOM      9  C   UNL A   1      32.108  22.358  24.365  1.00  0.00     0.026 A 
ATOM     10  C   UNL A   1      31.036  22.191  25.273  1.00  0.00     0.033 A 
ATOM     11  C   UNL A   1      32.743  23.617  24.413  1.00  0.00     0.135 A 
ATOM     12  C   UNL A   1      30.849  23.062  26.346  1.00  0.00     0.042 A 
ATOM     13  C   UNL A   1      32.733  24.335  25.622  1.00  0.00     0.019 A 
ATOM     14  O   UNL A   1      32.979  24.340  23.231  1.00  0.00    -0.475 OA
ATOM     15  Cl  UNL A   1      29.553  22.800  27.442  1.00  0.00    -0.084 Cl
ATOM     16  C   UNL A   1      31.762  24.075  26.582  1.00  0.00     0.032 A 
ATOM     17  C   UNL A   1      33.626  25.503  25.762  1.00  0.00     0.027 C 
ATOM     18  C   UNL A   1      33.431  25.757  23.380  1.00  0.00     0.316 C 
BRANCH   9  19
ATOM     19  C   UNL A   1      32.780  21.055  23.990  1.00  0.00    -0.015 A 
ATOM     20  C   UNL A   1      33.414  18.234  23.916  1.00  0.00    -0.048 A 
ATOM     21  C   UNL A   1      32.493  18.805  23.026  1.00  0.00     0.004 A 
ATOM     22  C   UNL A   1      34.076  19.102  24.788  1.00  0.00     0.004 A 
ATOM     23  C   UNL A   1      32.198  20.183  23.049  1.00  0.00     0.009 A 
ATOM     24  C   UNL A   1      33.768  20.485  24.820  1.00  0.00     0.009 A 
BRANCH  20  25
ATOM     25  C   UNL A   1      33.580  16.727  23.897  1.00  0.00     0.032 C 
ATOM     26  C   UNL A   1      34.696  16.102  24.729  1.00  0.00     0.009 C 
ENDBRANCH  20  25
ENDBRANCH   9  19
BRANCH  18  27
ATOM     27  C   UNL A   1      33.093  26.727  22.224  1.00  0.00     0.430 C 
ATOM     28  F   UNL A   1      33.794  27.884  22.395  1.00  0.00    -0.167 F 
ATOM     29  F   UNL A   1      33.474  26.228  21.025  1.00  0.00    -0.167 F 
ATOM     30  F   UNL A   1      31.797  27.070  22.119  1.00  0.00    -0.167 F 
ENDBRANCH  18  27
ENDBRANCH   6   8
ENDBRANCH   5   6
ENDBRANCH   4   5
ENDBRANCH   3   4
ENDBRANCH   2   3
ENDBRANCH   1   2
BRANCH   1  31
ATOM     31  C   UNL A   1      35.078  31.768  29.103  1.00  0.00     0.261 C 
BRANCH  31  32
ATOM     32  O   UNL A   1      35.762  30.507  29.065  1.00  0.00    -0.460 OA
BRANCH  32  33
ATOM     33  C   UNL A   1      36.509  30.241  30.163  1.00  0.00     0.338 C 
ATOM     34  O   UNL A   1      36.106  29.986  31.290  1.00  0.00    -0.246 OA
BRANCH  33  35
ATOM     35  C   UNL A   1      37.928  30.135  29.795  1.00  0.00     0.060 A 
ATOM     36  C   UNL A   1      38.244  29.974  28.441  1.00  0.00     0.016 A 
ATOM     37  C   UNL A   1      38.924  30.084  30.772  1.00  0.00     0.016 A 
ATOM     38  C   UNL A   1      39.560  29.722  28.059  1.00  0.00     0.010 A 
ATOM     39  C   UNL A   1      40.243  29.824  30.388  1.00  0.00     0.010 A 
ATOM     40  C   UNL A   1      40.560  29.609  29.035  1.00  0.00    -0.014 A 
BRANCH  40  41
ATOM     41  C   UNL A   1      41.910  29.137  28.644  1.00  0.00     0.031 A 
ATOM     42  C   UNL A   1      43.046  30.121  28.604  1.00  0.00     0.074 A 
ATOM     43  C   UNL A   1      42.120  27.839  28.355  1.00  0.00     0.049 A 
ATOM     44  N   UNL A   1      44.294  29.933  28.260  1.00  0.00    -0.248 NA
ATOM     45  C   UNL A   1      42.736  31.504  29.002  1.00  0.00     0.031 C 
ATOM     46  C   UNL A   1      41.098  26.792  28.392  1.00  0.00     0.029 A 
ATOM     47  N   UNL A   1      43.260  27.183  27.968  1.00  0.00    -0.354 N 
ATOM     48  C   UNL A   1      44.914  31.171  28.390  1.00  0.00     0.074 A 
ATOM     49  C   UNL A   1      43.900  32.109  28.816  1.00  0.00     0.031 C 
ATOM     50  C   UNL A   1      41.657  25.625  28.029  1.00  0.00     0.029 A 
ATOM     51  C   UNL A   1      43.064  25.848  27.701  1.00  0.00     0.049 A 
ATOM     52  H   UNL A   1      44.135  27.625  27.888  1.00  0.00     0.167 HD
ATOM     53  C   UNL A   1      46.213  31.489  28.178  1.00  0.00     0.037 A 
ATOM     54  C   UNL A   1      43.916  24.921  27.224  1.00  0.00     0.037 A 
ATOM     55  C   UNL A   1      47.215  30.542  27.761  1.00  0.00     0.049 A 
ATOM     56  C   UNL A   1      45.345  25.313  26.946  1.00  0.00     0.074 A 
ATOM     57  C   UNL A   1      48.565  30.758  27.547  1.00  0.00     0.029 A 
ATOM     58  N   UNL A   1      46.976  29.204  27.485  1.00  0.00    -0.354 N 
ATOM     59  N   UNL A   1      45.926  26.480  27.104  1.00  0.00    -0.248 NA
ATOM     60  C   UNL A   1      46.236  24.264  26.431  1.00  0.00     0.031 C 
ATOM     61  C   UNL A   1      49.130  29.565  27.087  1.00  0.00     0.029 A 
ATOM     62  C   UNL A   1      48.146  28.588  27.075  1.00  0.00     0.049 A 
ATOM     63  H   UNL A   1      46.102  28.757  27.568  1.00  0.00     0.167 HD
ATOM     64  C   UNL A   1      47.256  26.297  26.737  1.00  0.00     0.074 A 
ATOM     65  C   UNL A   1      47.395  24.904  26.361  1.00  0.00     0.031 C 
ATOM     66  C   UNL A   1      48.270  27.196  26.715  1.00  0.00     0.037 A 
BRANCH  53  67
ATOM     67  C   UNL A   1      46.627  32.923  28.370  1.00  0.00     0.058 A 
ATOM     68  C   UNL A   1      46.569  33.859  27.326  1.00  0.00     0.135 A 
ATOM     69  C   UNL A   1      47.038  33.379  29.633  1.00  0.00     0.135 A 
ATOM     70  F   UNL A   1      46.202  33.476  26.093  1.00  0.00    -0.206 F 
ATOM     71  C   UNL A   1      46.917  35.193  27.523  1.00  0.00     0.059 A 
ATOM     72  C   UNL A   1      47.363  34.714  29.861  1.00  0.00     0.059 A 
ATOM     73  F   UNL A   1      47.116  32.527  30.667  1.00  0.00    -0.206 F 
ATOM     74  C   UNL A   1      47.308  35.611  28.796  1.00  0.00     0.060 A 
BRANCH  74  75
ATOM     75  S   UNL A   1      47.731  37.349  29.040  1.00  0.00     0.124 S 
ATOM     76  O   UNL A   1      47.776  37.437  30.497  1.00  0.00    -0.237 OA
ATOM     77  O   UNL A   1      49.017  37.455  28.360  1.00  0.00    -0.237 OA
ATOM     78  O   UNL A   1      46.627  38.062  28.404  1.00  0.00    -0.744 OA
ENDBRANCH  74  75
ENDBRANCH  53  67
BRANCH  54  79
ATOM     79  C   UNL A   1      43.441  23.535  26.962  1.00  0.00     0.058 A 
ATOM     80  C   UNL A   1      43.241  22.622  28.006  1.00  0.00     0.135 A 
ATOM     81  C   UNL A   1      43.185  23.094  25.653  1.00  0.00     0.135 A 
ATOM     82  F   UNL A   1      43.482  22.990  29.274  1.00  0.00    -0.206 F 
ATOM     83  C   UNL A   1      42.827  21.315  27.764  1.00  0.00     0.059 A 
ATOM     84  C   UNL A   1      42.740  21.803  25.388  1.00  0.00     0.059 A 
ATOM     85  F   UNL A   1      43.347  23.931  24.617  1.00  0.00    -0.206 F 
ATOM     86  C   UNL A   1      42.577  20.916  26.450  1.00  0.00     0.060 A 
BRANCH  86  87
ATOM     87  S   UNL A   1      42.008  19.228  26.150  1.00  0.00     0.124 S 
ATOM     88  O   UNL A   1      42.799  18.855  24.984  1.00  0.00    -0.237 OA
ATOM     89  O   UNL A   1      42.358  18.561  27.401  1.00  0.00    -0.237 OA
ATOM     90  O   UNL A   1      40.577  19.394  25.916  1.00  0.00    -0.744 OA
ENDBRANCH  86  87
ENDBRANCH  54  79
BRANCH  66  91
ATOM     91  C   UNL A   1      49.633  26.701  26.311  1.00  0.00     0.058 A 
ATOM     92  C   UNL A   1      50.108  26.826  24.995  1.00  0.00     0.135 A 
ATOM     93  C   UNL A   1      50.497  26.143  27.269  1.00  0.00     0.135 A 
ATOM     94  F   UNL A   1      49.323  27.346  24.039  1.00  0.00    -0.206 F 
ATOM     95  C   UNL A   1      51.381  26.392  24.639  1.00  0.00     0.059 A 
ATOM     96  C   UNL A   1      51.785  25.733  26.941  1.00  0.00     0.059 A 
ATOM     97  F   UNL A   1      50.097  26.012  28.544  1.00  0.00    -0.206 F 
ATOM     98  C   UNL A   1      52.214  25.850  25.621  1.00  0.00     0.060 A 
BRANCH  98  99
ATOM     99  S   UNL A   1      53.876  25.323  25.150  1.00  0.00     0.124 S 
ATOM    100  O   UNL A   1      54.002  25.903  23.817  1.00  0.00    -0.237 OA
ATOM    101  O   UNL A   1      54.701  25.933  26.188  1.00  0.00    -0.237 OA
ATOM    102  O   UNL A   1      53.797  23.867  25.196  1.00  0.00    -0.744 OA
ENDBRANCH  98  99
ENDBRANCH  66  91
ENDBRANCH  40  41
ENDBRANCH  33  35
ENDBRANCH  32  33
ENDBRANCH  31  32
ENDBRANCH   1  31
TORSDOF 20
ENDMDL
MODEL 2
REMARK VINA RESULT:     -12.1      2.771      3.530
REMARK SMILES CCc1ccc(-c2cc(Cl)cc3c2O[C@@H](C(F)(F)F)C(C(=O)OCCOCCOC(=O)c2ccc(-c4c5nc(c(-c6c(F)cc(S(=O)(=O)[O-])cc6F)c6ccc([nH]6)c(-c6c(F)cc(S(=O)(=O)[O-])cc6F)c6nc(c(-c7c(F)cc(S(=O)(=O)[O-])cc7F)c7ccc4[nH]7)C=C6)C=C5)cc2)=C3)cc1
REMARK SMILES IDX 27 1 26 2 25 3 24 4 23 5 21 6 22 7 20 8 7 9 8 10 13 11 9 12
REMARK SMILES IDX 12 13 14 14 10 15 11 16 98 17 15 18 6 19 3 20 4 21 100 22
REMARK SMILES IDX 5 23 99 24 2 25 1 26 16 27 17 28 18 29 19 30 28 31 29 32
REMARK SMILES IDX 30 33 31 34 32 35 33 36 97 37 34 38 96 39 35 40 36 41 37 42
REMARK SMILES IDX 90 43 38 44 95 45 89 46 91 47 39 48 94 49 88 50 87 51 40 53
REMARK SMILES IDX 74 54 53 55 73 56 54 57 57 58 72 59 92 60 55 61 56 62 71 64
REMARK SMILES IDX 93 65 58 66 41 67 42 68 51 69 43 70 44 71 50 72 52 73 45 74
REMARK SMILES IDX 46 75 47 76 48 77 49 78 75 79 76 80 85 81 77 82 78 83 84 84
REMARK SMILES IDX 86 85 79 86 80 87 81 88 82 89 83 90 59 91 60 92 69 93 61 94
REMARK SMILES IDX 62 95 68 96 70 97 63 98 64 99 65 100 66 101 67 102
REMARK H PARENT 91 52 57 63
REMARK Flexibility Score: inf
ROOT
ATOM      1  C   UNL A   1      31.752  29.652  26.412  1.00  0.00     0.202 C 
ENDROOT
BRANCH   1   2
ATOM      2  O   UNL A   1      31.822  29.022  25.135  1.00  0.00    -0.374 OA
BRANCH   2   3
ATOM      3  C   UNL A   1      33.003  29.202  24.363  1.00  0.00     0.202 C 
BRANCH   3   4
ATOM      4  C   UNL A   1      33.995  28.033  24.251  1.00  0.00     0.261 C 
BRANCH   4   5
ATOM      5  O   UNL A   1      33.372  26.799  23.859  1.00  0.00    -0.460 OA
BRANCH   5   6
ATOM      6  C   UNL A   1      33.168  26.637  22.537  1.00  0.00     0.338 C 
ATOM      7  O   UNL A   1      33.721  27.276  21.652  1.00  0.00    -0.246 OA
BRANCH   6   8
ATOM      8  C   UNL A   1      32.325  25.456  22.233  1.00  0.00     0.087 C 
ATOM      9  C   UNL A   1      33.167  22.046  24.453  1.00  0.00     0.026 A 
ATOM     10  C   UNL A   1      34.522  22.184  24.837  1.00  0.00     0.033 A 
ATOM     11  C   UNL A   1      32.686  23.046  23.581  1.00  0.00     0.135 A 
ATOM     12  C   UNL A   1      35.390  23.030  24.148  1.00  0.00     0.042 A 
ATOM     13  C   UNL A   1      33.595  23.688  22.720  1.00  0.00     0.019 A 
ATOM     14  O   UNL A   1      31.475  23.705  23.853  1.00  0.00    -0.475 OA
ATOM     15  Cl  UNL A   1      37.035  23.139  24.629  1.00  0.00    -0.084 Cl
ATOM     16  C   UNL A   1      34.952  23.703  23.020  1.00  0.00     0.032 A 
ATOM     17  C   UNL A   1      33.065  24.518  21.620  1.00  0.00     0.027 C 
ATOM     18  C   UNL A   1      31.155  24.908  23.025  1.00  0.00     0.316 C 
BRANCH   9  19
ATOM     19  C   UNL A   1      32.678  20.615  24.493  1.00  0.00    -0.015 A 
ATOM     20  C   UNL A   1      32.683  17.725  24.368  1.00  0.00    -0.048 A 
ATOM     21  C   UNL A   1      32.883  18.410  25.575  1.00  0.00     0.004 A 
ATOM     22  C   UNL A   1      32.399  18.498  23.239  1.00  0.00     0.004 A 
ATOM     23  C   UNL A   1      32.861  19.817  25.641  1.00  0.00     0.009 A 
ATOM     24  C   UNL A   1      32.393  19.914  23.303  1.00  0.00     0.009 A 
BRANCH  20  25
ATOM     25  C   UNL A   1      32.841  16.217  24.372  1.00  0.00     0.032 C 
ATOM     26  C   UNL A   1      33.648  15.568  25.492  1.00  0.00     0.009 C 
ENDBRANCH  20  25
ENDBRANCH   9  19
BRANCH  18  27
ATOM     27  C   UNL A   1      30.239  25.976  23.663  1.00  0.00     0.430 C 
ATOM     28  F   UNL A   1      30.640  26.196  24.948  1.00  0.00    -0.167 F 
ATOM     29  F   UNL A   1      30.337  27.166  23.028  1.00  0.00    -0.167 F 
ATOM     30  F   UNL A   1      28.932  25.659  23.714  1.00  0.00    -0.167 F 
ENDBRANCH  18  27
ENDBRANCH   6   8
ENDBRANCH   5   6
ENDBRANCH   4   5
ENDBRANCH   3   4
ENDBRANCH   2   3
ENDBRANCH   1   2
BRANCH   1  31
ATOM     31  C   UNL A   1      32.907  30.556  26.856  1.00  0.00     0.261 C 
BRANCH  31  32
ATOM     32  O   UNL A   1      33.721  29.989  27.893  1.00  0.00    -0.460 OA
BRANCH  32  33
ATOM     33  C   UNL A   1      34.634  30.840  28.419  1.00  0.00     0.338 C 
ATOM     34  O   UNL A   1      34.426  31.948  28.896  1.00  0.00    -0.246 OA
BRANCH  33  35
ATOM     35  C   UNL A   1      35.948  30.187  28.497  1.00  0.00     0.060 A 
ATOM     36  C   UNL A   1      36.365  29.699  29.741  1.00  0.00     0.016 A 
ATOM     37  C   UNL A   1      36.802  30.153  27.393  1.00  0.00     0.016 A 
ATOM     38  C   UNL A   1      37.658  29.206  29.896  1.00  0.00     0.010 A 
ATOM     39  C   UNL A   1      38.102  29.664  27.553  1.00  0.00     0.010 A 
ATOM     40  C   UNL A   1      38.545  29.221  28.812  1.00  0.00    -0.014 A 
BRANCH  40  41
ATOM     41  C   UNL A   1      39.974  28.892  29.034  1.00  0.00     0.031 A 
ATOM     42  C   UNL A   1      40.886  29.942  29.605  1.00  0.00     0.074 A 
ATOM     43  C   UNL A   1      40.440  27.661  28.753  1.00  0.00     0.049 A 
ATOM     44  N   UNL A   1      42.170  29.881  29.848  1.00  0.00    -0.248 NA
ATOM     45  C   UNL A   1      40.273  31.237  29.945  1.00  0.00     0.031 C 
ATOM     46  C   UNL A   1      39.638  26.556  28.227  1.00  0.00     0.029 A 
ATOM     47  N   UNL A   1      41.702  27.136  28.867  1.00  0.00    -0.354 N 
ATOM     48  C   UNL A   1      42.519  31.127  30.358  1.00  0.00     0.074 A 
ATOM     49  C   UNL A   1      41.319  31.933  30.364  1.00  0.00     0.031 C 
ATOM     50  C   UNL A   1      40.432  25.487  28.050  1.00  0.00     0.029 A 
ATOM     51  C   UNL A   1      41.802  25.840  28.418  1.00  0.00     0.049 A 
ATOM     52  H   UNL A   1      42.464  27.639  29.233  1.00  0.00     0.167 HD
ATOM     53  C   UNL A   1      43.730  31.552  30.790  1.00  0.00     0.037 A 
ATOM     54  C   UNL A   1      42.880  25.041  28.296  1.00  0.00     0.037 A 
ATOM     55  C   UNL A   1      44.917  30.735  30.786  1.00  0.00     0.049 A 
ATOM     56  C   UNL A   1      44.227  25.557  28.733  1.00  0.00     0.074 A 
ATOM     57  C   UNL A   1      46.186  31.062  31.229  1.00  0.00     0.029 A 
ATOM     58  N   UNL A   1      44.983  29.434  30.310  1.00  0.00    -0.354 N 
ATOM     59  N   UNL A   1      44.537  26.726  29.245  1.00  0.00    -0.248 NA
ATOM     60  C   UNL A   1      45.370  24.645  28.584  1.00  0.00     0.031 C 
ATOM     61  C   UNL A   1      47.032  29.980  30.967  1.00  0.00     0.029 A 
ATOM     62  C   UNL A   1      46.277  28.954  30.421  1.00  0.00     0.049 A 
ATOM     63  H   UNL A   1      44.222  28.926  29.946  1.00  0.00     0.167 HD
ATOM     64  C   UNL A   1      45.904  26.678  29.506  1.00  0.00     0.074 A 
ATOM     65  C   UNL A   1      46.357  25.361  29.107  1.00  0.00     0.031 C 
ATOM     66  C   UNL A   1      46.709  27.635  30.028  1.00  0.00     0.037 A 
BRANCH  53  67
ATOM     67  C   UNL A   1      43.846  32.970  31.279  1.00  0.00     0.058 A 
ATOM     68  C   UNL A   1      44.116  34.037  30.409  1.00  0.00     0.135 A 
ATOM     69  C   UNL A   1      43.629  33.271  32.634  1.00  0.00     0.135 A 
ATOM     70  F   UNL A   1      44.350  33.806  29.107  1.00  0.00    -0.206 F 
ATOM     71  C   UNL A   1      44.182  35.351  30.866  1.00  0.00     0.059 A 
ATOM     72  C   UNL A   1      43.662  34.580  33.109  1.00  0.00     0.059 A 
ATOM     73  F   UNL A   1      43.372  32.290  33.513  1.00  0.00    -0.206 F 
ATOM     74  C   UNL A   1      43.949  35.612  32.217  1.00  0.00     0.060 A 
BRANCH  74  75
ATOM     75  S   UNL A   1      44.012  37.324  32.787  1.00  0.00     0.124 S 
ATOM     76  O   UNL A   1      42.912  37.353  33.747  1.00  0.00    -0.237 OA
ATOM     77  O   UNL A   1      45.352  37.412  33.358  1.00  0.00    -0.237 OA
ATOM     78  O   UNL A   1      43.800  38.098  31.569  1.00  0.00    -0.744 OA
ENDBRANCH  74  75
ENDBRANCH  53  67
BRANCH  54  79
ATOM     79  C   UNL A   1      42.735  23.677  27.720  1.00  0.00     0.058 A 
ATOM     80  C   UNL A   1      42.558  22.553  28.540  1.00  0.00     0.135 A 
ATOM     81  C   UNL A   1      42.782  23.469  26.331  1.00  0.00     0.135 A 
ATOM     82  F   UNL A   1      42.517  22.696  29.873  1.00  0.00    -0.206 F 
ATOM     83  C   UNL A   1      42.454  21.271  28.008  1.00  0.00     0.059 A 
ATOM     84  C   UNL A   1      42.649  22.201  25.775  1.00  0.00     0.059 A 
ATOM     85  F   UNL A   1      42.937  24.511  25.500  1.00  0.00    -0.206 F 
ATOM     86  C   UNL A   1      42.499  21.106  26.623  1.00  0.00     0.060 A 
BRANCH  86  87
ATOM     87  S   UNL A   1      42.330  19.442  25.942  1.00  0.00     0.124 S 
ATOM     88  O   UNL A   1      43.271  19.483  24.829  1.00  0.00    -0.237 OA
ATOM     89  O   UNL A   1      42.717  18.607  27.075  1.00  0.00    -0.237 OA
ATOM     90  O   UNL A   1      40.919  19.372  25.574  1.00  0.00    -0.744 OA
ENDBRANCH  86  87
ENDBRANCH  54  79
BRANCH  66  91
ATOM     91  C   UNL A   1      48.158  27.285  30.243  1.00  0.00     0.058 A 
ATOM     92  C   UNL A   1      49.145  27.600  29.295  1.00  0.00     0.135 A 
ATOM     93  C   UNL A   1      48.570  26.675  31.440  1.00  0.00     0.135 A 
ATOM     94  F   UNL A   1      48.807  28.178  28.132  1.00  0.00    -0.206 F 
ATOM     95  C   UNL A   1      50.486  27.300  29.516  1.00  0.00     0.059 A 
ATOM     96  C   UNL A   1      49.909  26.395  31.695  1.00  0.00     0.059 A 
ATOM     97  F   UNL A   1      47.669  26.363  32.385  1.00  0.00    -0.206 F 
ATOM     98  C   UNL A   1      50.858  26.700  30.722  1.00  0.00     0.060 A 
BRANCH  98  99
ATOM     99  S   UNL A   1      52.606  26.348  31.009  1.00  0.00     0.124 S 
ATOM    100  O   UNL A   1      53.028  27.537  31.744  1.00  0.00    -0.237 OA
ATOM    101  O   UNL A   1      52.552  25.111  31.780  1.00  0.00    -0.237 OA
ATOM    102  O   UNL A   1      53.152  26.216  29.662  1.00  0.00    -0.744 OA
ENDBRANCH  98  99
ENDBRANCH  66  91
ENDBRANCH  40  41
ENDBRANCH  33  35
ENDBRANCH  32  33
ENDBRANCH  31  32
ENDBRANCH   1  31
TORSDOF 20
ENDMDL
MODEL 3
REMARK VINA RESULT:     -11.9      1.328      2.194
REMARK SMILES CCc1ccc(-c2cc(Cl)cc3c2O[C@@H](C(F)(F)F)C(C(=O)OCCOCCOC(=O)c2ccc(-c4c5nc(c(-c6c(F)cc(S(=O)(=O)[O-])cc6F)c6ccc([nH]6)c(-c6c(F)cc(S(=O)(=O)[O-])cc6F)c6nc(c(-c7c(F)cc(S(=O)(=O)[O-])cc7F)c7ccc4[nH]7)C=C6)C=C5)cc2)=C3)cc1
REMARK SMILES IDX 27 1 26 2 25 3 24 4 23 5 21 6 22 7 20 8 7 9 8 10 13 11 9 12
REMARK SMILES IDX 12 13 14 14 10 15 11 16 98 17 15 18 6 19 3 20 4 21 100 22
REMARK SMILES IDX 5 23 99 24 2 25 1 26 16 27 17 28 18 29 19 30 28 31 29 32
REMARK SMILES IDX 30 33 31 34 32 35 33 36 97 37 34 38 96 39 35 40 36 41 37 42
REMARK SMILES IDX 90 43 38 44 95 45 89 46 91 47 39 48 94 49 88 50 87 51 40 53
REMARK SMILES IDX 74 54 53 55 73 56 54 57 57 58 72 59 92 60 55 61 56 62 71 64
REMARK SMILES IDX 93 65 58 66 41 67 42 68 51 69 43 70 44 71 50 72 52 73 45 74
REMARK SMILES IDX 46 75 47 76 48 77 49 78 75 79 76 80 85 81 77 82 78 83 84 84
REMARK SMILES IDX 86 85 79 86 80 87 81 88 82 89 83 90 59 91 60 92 69 93 61 94
REMARK SMILES IDX 62 95 68 96 70 97 63 98 64 99 65 100 66 101 67 102
REMARK H PARENT 91 52 57 63
REMARK Flexibility Score: inf
ROOT
ATOM      1  C   UNL A   1      34.290  31.409  27.638  1.00  0.00     0.202 C 
ENDROOT
BRANCH   1   2
ATOM      2  O   UNL A   1      34.631  30.048  27.383  1.00  0.00    -0.374 OA
BRANCH   2   3
ATOM      3  C   UNL A   1      33.613  29.184  26.893  1.00  0.00     0.202 C 
BRANCH   3   4
ATOM      4  C   UNL A   1      34.030  27.902  26.156  1.00  0.00     0.261 C 
BRANCH   4   5
ATOM      5  O   UNL A   1      32.940  27.266  25.467  1.00  0.00    -0.460 OA
BRANCH   5   6
ATOM      6  C   UNL A   1      32.958  27.361  24.124  1.00  0.00     0.338 C 
ATOM      7  O   UNL A   1      33.586  28.192  23.481  1.00  0.00    -0.246 OA
BRANCH   6   8
ATOM      8  C   UNL A   1      32.275  26.221  23.465  1.00  0.00     0.087 C 
ATOM      9  C   UNL A   1      33.057  22.485  25.105  1.00  0.00     0.026 A 
ATOM     10  C   UNL A   1      34.322  22.615  25.727  1.00  0.00     0.033 A 
ATOM     11  C   UNL A   1      32.632  23.613  24.371  1.00  0.00     0.135 A 
ATOM     12  C   UNL A   1      35.209  23.628  25.365  1.00  0.00     0.042 A 
ATOM     13  C   UNL A   1      33.603  24.462  23.811  1.00  0.00     0.019 A 
ATOM     14  O   UNL A   1      31.341  24.137  24.558  1.00  0.00    -0.475 OA
ATOM     15  Cl  UNL A   1      36.746  23.726  26.125  1.00  0.00    -0.084 Cl
ATOM     16  C   UNL A   1      34.891  24.489  24.329  1.00  0.00     0.032 A 
ATOM     17  C   UNL A   1      33.178  25.467  22.816  1.00  0.00     0.027 C 
ATOM     18  C   UNL A   1      31.050  25.463  23.932  1.00  0.00     0.316 C 
BRANCH   9  19
ATOM     19  C   UNL A   1      32.692  21.051  24.790  1.00  0.00    -0.015 A 
ATOM     20  C   UNL A   1      32.932  18.300  23.928  1.00  0.00    -0.048 A 
ATOM     21  C   UNL A   1      33.135  18.673  25.264  1.00  0.00     0.004 A 
ATOM     22  C   UNL A   1      32.527  19.303  23.043  1.00  0.00     0.004 A 
ATOM     23  C   UNL A   1      33.000  20.009  25.689  1.00  0.00     0.009 A 
ATOM     24  C   UNL A   1      32.405  20.650  23.469  1.00  0.00     0.009 A 
BRANCH  20  25
ATOM     25  C   UNL A   1      33.214  16.861  23.541  1.00  0.00     0.032 C 
ATOM     26  C   UNL A   1      33.615  15.874  24.633  1.00  0.00     0.009 C 
ENDBRANCH  20  25
ENDBRANCH   9  19
BRANCH  18  27
ATOM     27  C   UNL A   1      29.959  26.330  24.601  1.00  0.00     0.430 C 
ATOM     28  F   UNL A   1      30.106  27.623  24.194  1.00  0.00    -0.167 F 
ATOM     29  F   UNL A   1      28.716  25.953  24.221  1.00  0.00    -0.167 F 
ATOM     30  F   UNL A   1      29.976  26.343  25.946  1.00  0.00    -0.167 F 
ENDBRANCH  18  27
ENDBRANCH   6   8
ENDBRANCH   5   6
ENDBRANCH   4   5
ENDBRANCH   3   4
ENDBRANCH   2   3
ENDBRANCH   1   2
BRANCH   1  31
ATOM     31  C   UNL A   1      34.688  32.034  28.980  1.00  0.00     0.261 C 
BRANCH  31  32
ATOM     32  O   UNL A   1      36.104  32.062  29.210  1.00  0.00    -0.460 OA
BRANCH  32  33
ATOM     33  C   UNL A   1      36.525  31.262  30.219  1.00  0.00     0.338 C 
ATOM     34  O   UNL A   1      35.958  31.051  31.283  1.00  0.00    -0.246 OA
BRANCH  33  35
ATOM     35  C   UNL A   1      37.723  30.517  29.807  1.00  0.00     0.060 A 
ATOM     36  C   UNL A   1      38.660  30.185  30.793  1.00  0.00     0.016 A 
ATOM     37  C   UNL A   1      37.975  30.245  28.461  1.00  0.00     0.016 A 
ATOM     38  C   UNL A   1      39.876  29.612  30.431  1.00  0.00     0.010 A 
ATOM     39  C   UNL A   1      39.200  29.676  28.099  1.00  0.00     0.010 A 
ATOM     40  C   UNL A   1      40.167  29.388  29.078  1.00  0.00    -0.014 A 
BRANCH  40  41
ATOM     41  C   UNL A   1      41.535  28.974  28.686  1.00  0.00     0.031 A 
ATOM     42  C   UNL A   1      42.631  30.005  28.653  1.00  0.00     0.074 A 
ATOM     43  C   UNL A   1      41.798  27.688  28.389  1.00  0.00     0.049 A 
ATOM     44  N   UNL A   1      43.885  29.869  28.309  1.00  0.00    -0.248 NA
ATOM     45  C   UNL A   1      42.264  31.371  29.059  1.00  0.00     0.031 C 
ATOM     46  C   UNL A   1      40.821  26.600  28.420  1.00  0.00     0.029 A 
ATOM     47  N   UNL A   1      42.965  27.082  27.999  1.00  0.00    -0.354 N 
ATOM     48  C   UNL A   1      44.454  31.131  28.446  1.00  0.00     0.074 A 
ATOM     49  C   UNL A   1      43.403  32.025  28.877  1.00  0.00     0.031 C 
ATOM     50  C   UNL A   1      41.427  25.459  28.050  1.00  0.00     0.029 A 
ATOM     51  C   UNL A   1      42.824  25.742  27.724  1.00  0.00     0.049 A 
ATOM     52  H   UNL A   1      43.821  27.559  27.922  1.00  0.00     0.167 HD
ATOM     53  C   UNL A   1      45.739  31.504  28.238  1.00  0.00     0.037 A 
ATOM     54  C   UNL A   1      43.714  24.853  27.243  1.00  0.00     0.037 A 
ATOM     55  C   UNL A   1      46.779  30.601  27.815  1.00  0.00     0.049 A 
ATOM     56  C   UNL A   1      45.125  25.305  26.967  1.00  0.00     0.074 A 
ATOM     57  C   UNL A   1      48.119  30.873  27.604  1.00  0.00     0.029 A 
ATOM     58  N   UNL A   1      46.595  29.256  27.531  1.00  0.00    -0.354 N 
ATOM     59  N   UNL A   1      45.658  26.493  27.133  1.00  0.00    -0.248 NA
ATOM     60  C   UNL A   1      46.059  24.296  26.447  1.00  0.00     0.031 C 
ATOM     61  C   UNL A   1      48.733  29.707  27.137  1.00  0.00     0.029 A 
ATOM     62  C   UNL A   1      47.790  28.691  27.119  1.00  0.00     0.049 A 
ATOM     63  H   UNL A   1      45.741  28.773  27.610  1.00  0.00     0.167 HD
ATOM     64  C   UNL A   1      46.995  26.367  26.766  1.00  0.00     0.074 A 
ATOM     65  C   UNL A   1      47.191  24.984  26.382  1.00  0.00     0.031 C 
ATOM     66  C   UNL A   1      47.971  27.308  26.750  1.00  0.00     0.037 A 
BRANCH  53  67
ATOM     67  C   UNL A   1      46.094  32.952  28.438  1.00  0.00     0.058 A 
ATOM     68  C   UNL A   1      46.008  33.889  27.397  1.00  0.00     0.135 A 
ATOM     69  C   UNL A   1      46.475  33.419  29.707  1.00  0.00     0.135 A 
ATOM     70  F   UNL A   1      45.667  33.496  26.159  1.00  0.00    -0.206 F 
ATOM     71  C   UNL A   1      46.301  35.235  27.602  1.00  0.00     0.059 A 
ATOM     72  C   UNL A   1      46.745  34.765  29.942  1.00  0.00     0.059 A 
ATOM     73  F   UNL A   1      46.579  32.567  30.738  1.00  0.00    -0.206 F 
ATOM     74  C   UNL A   1      46.664  35.663  28.880  1.00  0.00     0.060 A 
BRANCH  74  75
ATOM     75  S   UNL A   1      47.015  37.416  29.134  1.00  0.00     0.124 S 
ATOM     76  O   UNL A   1      45.713  37.914  29.571  1.00  0.00    -0.237 OA
ATOM     77  O   UNL A   1      48.054  37.379  30.157  1.00  0.00    -0.237 OA
ATOM     78  O   UNL A   1      47.450  37.872  27.818  1.00  0.00    -0.744 OA
ENDBRANCH  74  75
ENDBRANCH  53  67
BRANCH  54  79
ATOM     79  C   UNL A   1      43.295  23.450  26.971  1.00  0.00     0.058 A 
ATOM     80  C   UNL A   1      43.078  22.994  25.663  1.00  0.00     0.135 A 
ATOM     81  C   UNL A   1      43.094  22.539  28.021  1.00  0.00     0.135 A 
ATOM     82  F   UNL A   1      43.246  23.827  24.626  1.00  0.00    -0.206 F 
ATOM     83  C   UNL A   1      42.656  21.693  25.405  1.00  0.00     0.059 A 
ATOM     84  C   UNL A   1      42.702  21.225  27.786  1.00  0.00     0.059 A 
ATOM     85  F   UNL A   1      43.299  22.920  29.291  1.00  0.00    -0.206 F 
ATOM     86  C   UNL A   1      42.473  20.815  26.474  1.00  0.00     0.060 A 
BRANCH  86  87
ATOM     87  S   UNL A   1      41.957  19.120  26.125  1.00  0.00     0.124 S 
ATOM     88  O   UNL A   1      40.544  19.301  25.815  1.00  0.00    -0.237 OA
ATOM     89  O   UNL A   1      42.818  18.763  25.002  1.00  0.00    -0.237 OA
ATOM     90  O   UNL A   1      42.245  18.418  27.373  1.00  0.00    -0.744 OA
ENDBRANCH  86  87
ENDBRANCH  54  79
BRANCH  66  91
ATOM     91  C   UNL A   1      49.353  26.871  26.344  1.00  0.00     0.058 A 
ATOM     92  C   UNL A   1      50.244  26.284  27.256  1.00  0.00     0.135 A 
ATOM     93  C   UNL A   1      49.771  26.994  25.007  1.00  0.00     0.135 A 
ATOM     94  F   UNL A   1      49.898  26.147  28.546  1.00  0.00    -0.206 F 
ATOM     95  C   UNL A   1      51.508  25.856  26.864  1.00  0.00     0.059 A 
ATOM     96  C   UNL A   1      51.018  26.544  24.586  1.00  0.00     0.059 A 
ATOM     97  F   UNL A   1      48.954  27.538  24.091  1.00  0.00    -0.206 F 
ATOM     98  C   UNL A   1      51.885  25.987  25.525  1.00  0.00     0.060 A 
BRANCH  98  99
ATOM     99  S   UNL A   1      53.516  25.396  25.024  1.00  0.00     0.124 S 
ATOM    100  O   UNL A   1      54.395  26.276  25.788  1.00  0.00    -0.237 OA
ATOM    101  O   UNL A   1      53.487  24.001  25.451  1.00  0.00    -0.237 OA
ATOM    102  O   UNL A   1      53.523  25.602  23.579  1.00  0.00    -0.744 OA
ENDBRANCH  98  99
ENDBRANCH  66  91
ENDBRANCH  40  41
ENDBRANCH  33  35
ENDBRANCH  32  33
ENDBRANCH  31  32
ENDBRANCH   1  31
TORSDOF 20
ENDMDL
