MODEL 1
REMARK VINA RESULT:     -12.0      0.000      0.000
REMARK SMILES O=C(OCCOCCOC(=O)c1ccc(-c2c3nc(c(-c4c(F)cc(S(=O)(=O)[O-])cc4F)c4ccc([nH]4)c(-c4c(F)cc(S(=O)(=O)[O-])cc4F)c4nc(c(-c5c(F)cc(S(=O)(=O)[O-])cc5F)c5ccc2[nH]5)C=C4)C=C3)cc1)C1=Cc2cc(S(F)(F)(F)(F)F)cc(Br)c2O[C@@H]1C(F)(F)F
REMARK SMILES IDX 7 1 6 2 5 3 4 4 3 5 2 6 1 7 78 8 79 9 94 10 80 11 93 12
REMARK SMILES IDX 81 13 92 14 82 15 90 16 89 17 91 18 95 19 96 20 97 21 98 22
REMARK SMILES IDX 83 23 84 24 85 25 86 26 87 27 88 28 8 29 9 30 10 31 11 32
REMARK SMILES IDX 12 33 13 34 77 35 14 36 76 37 15 38 16 39 17 40 70 41 18 42
REMARK SMILES IDX 75 43 69 44 71 45 19 46 74 47 68 48 67 49 20 51 54 52 33 53
REMARK SMILES IDX 53 54 34 55 37 56 52 57 72 58 35 59 36 60 51 62 73 63 38 64
REMARK SMILES IDX 21 65 22 66 31 67 23 68 24 69 30 70 32 71 25 72 26 73 27 74
REMARK SMILES IDX 28 75 29 76 55 77 56 78 65 79 57 80 58 81 64 82 66 83 59 84
REMARK SMILES IDX 60 85 61 86 62 87 63 88 39 89 40 90 49 91 41 92 42 93 48 94
REMARK SMILES IDX 50 95 43 96 44 97 45 98 46 99 47 100
REMARK H PARENT 71 50 37 61
REMARK Flexibility Score: inf
ROOT
ATOM      1  C   UNL A   1      32.225  28.411  25.773  1.00  0.00     0.202 C 
ENDROOT
BRANCH   1   2
ATOM      2  O   UNL A   1      32.444  28.039  24.421  1.00  0.00    -0.374 OA
BRANCH   2   3
ATOM      3  C   UNL A   1      33.726  27.441  24.296  1.00  0.00     0.202 C 
BRANCH   3   4
ATOM      4  C   UNL A   1      33.695  26.405  23.184  1.00  0.00     0.261 C 
BRANCH   4   5
ATOM      5  O   UNL A   1      33.910  25.113  23.734  1.00  0.00    -0.460 OA
BRANCH   5   6
ATOM      6  C   UNL A   1      33.080  24.029  23.345  1.00  0.00     0.338 C 
ATOM      7  O   UNL A   1      33.348  23.369  22.292  1.00  0.00    -0.246 OA
BRANCH   6   8
ATOM      8  C   UNL A   1      31.872  23.656  24.189  1.00  0.00     0.087 C 
ATOM      9  C   UNL A   1      31.811  22.435  24.786  1.00  0.00     0.027 C 
ATOM     10  C   UNL A   1      30.733  24.646  24.364  1.00  0.00     0.316 C 
ATOM     11  C   UNL A   1      32.950  21.445  24.611  1.00  0.00     0.020 A 
ATOM     12  O   UNL A   1      34.560  23.189  24.731  1.00  0.00    -0.474 OA
ATOM     13  C   UNL A   1      32.597  20.116  24.440  1.00  0.00     0.036 A 
ATOM     14  C   UNL A   1      34.222  21.810  24.718  1.00  0.00     0.142 A 
ATOM     15  C   UNL A   1      33.651  19.206  24.685  1.00  0.00     0.109 A 
ATOM     16  C   UNL A   1      35.216  20.866  24.817  1.00  0.00     0.062 A 
ATOM     17  C   UNL A   1      34.930  19.532  24.715  1.00  0.00     0.044 A 
ATOM     18  Br  UNL A   1      37.067  21.438  25.106  1.00  0.00    -0.047 Br
BRANCH  10  19
ATOM     19  C   UNL A   1      30.565  24.969  25.840  1.00  0.00     0.430 C 
ATOM     20  F   UNL A   1      31.760  25.157  26.392  1.00  0.00    -0.167 F 
ATOM     21  F   UNL A   1      29.836  26.074  25.973  1.00  0.00    -0.167 F 
ATOM     22  F   UNL A   1      29.951  23.957  26.447  1.00  0.00    -0.167 F 
ENDBRANCH  10  19
BRANCH  15  23
ATOM     23  S   UNL A   1      33.217  17.473  24.976  1.00  0.00     0.310 S 
ATOM     24  F   UNL A   1      31.736  17.698  24.456  1.00  0.00    -0.094 F 
ATOM     25  F   UNL A   1      32.702  17.878  26.410  1.00  0.00    -0.094 F 
ATOM     26  F   UNL A   1      32.837  15.987  25.229  1.00  0.00    -0.094 F 
ATOM     27  F   UNL A   1      33.608  17.111  23.489  1.00  0.00    -0.094 F 
ATOM     28  F   UNL A   1      33.502  18.996  24.666  1.00  0.00    -0.094 F 
ENDBRANCH  15  23
ENDBRANCH   6   8
ENDBRANCH   5   6
ENDBRANCH   4   5
ENDBRANCH   3   4
ENDBRANCH   2   3
ENDBRANCH   1   2
BRANCH   1  29
ATOM     29  C   UNL A   1      33.104  29.602  26.119  1.00  0.00     0.261 C 
BRANCH  29  30
ATOM     30  O   UNL A   1      33.695  29.400  27.393  1.00  0.00    -0.460 OA
BRANCH  30  31
ATOM     31  C   UNL A   1      34.493  30.420  27.976  1.00  0.00     0.338 C 
ATOM     32  O   UNL A   1      33.992  31.566  28.203  1.00  0.00    -0.246 OA
BRANCH  31  33
ATOM     33  C   UNL A   1      35.945  30.142  28.329  1.00  0.00     0.060 A 
ATOM     34  C   UNL A   1      36.885  30.284  27.322  1.00  0.00     0.016 A 
ATOM     35  C   UNL A   1      36.275  29.640  29.513  1.00  0.00     0.016 A 
ATOM     36  C   UNL A   1      38.096  29.594  27.566  1.00  0.00     0.010 A 
ATOM     37  C   UNL A   1      37.522  29.104  29.723  1.00  0.00     0.010 A 
ATOM     38  C   UNL A   1      38.483  29.156  28.751  1.00  0.00    -0.014 A 
BRANCH  38  39
ATOM     39  C   UNL A   1      39.918  28.734  29.019  1.00  0.00     0.031 A 
ATOM     40  C   UNL A   1      40.383  27.459  28.689  1.00  0.00     0.074 A 
ATOM     41  C   UNL A   1      40.721  29.747  29.511  1.00  0.00     0.049 A 
ATOM     42  N   UNL A   1      41.637  27.010  28.752  1.00  0.00    -0.248 NA
ATOM     43  C   UNL A   1      39.525  26.370  28.199  1.00  0.00     0.031 C 
ATOM     44  C   UNL A   1      40.261  31.038  29.838  1.00  0.00     0.029 A 
ATOM     45  N   UNL A   1      42.073  29.704  29.773  1.00  0.00    -0.354 N 
ATOM     46  C   UNL A   1      41.694  25.743  28.336  1.00  0.00     0.074 A 
ATOM     47  C   UNL A   1      40.335  25.312  27.980  1.00  0.00     0.031 C 
ATOM     48  C   UNL A   1      41.317  31.758  30.300  1.00  0.00     0.029 A 
ATOM     49  C   UNL A   1      42.455  30.929  30.269  1.00  0.00     0.049 A 
ATOM     50  H   UNL A   1      42.664  28.928  29.628  1.00  0.00     0.167 HD
ATOM     51  C   UNL A   1      42.825  24.930  28.238  1.00  0.00     0.037 A 
ATOM     52  C   UNL A   1      43.720  31.322  30.680  1.00  0.00     0.037 A 
ATOM     53  C   UNL A   1      44.097  25.338  28.608  1.00  0.00     0.049 A 
ATOM     54  C   UNL A   1      44.841  30.491  30.636  1.00  0.00     0.074 A 
ATOM     55  C   UNL A   1      45.249  24.535  28.508  1.00  0.00     0.029 A 
ATOM     56  N   UNL A   1      44.475  26.556  29.127  1.00  0.00    -0.354 N 
ATOM     57  N   UNL A   1      44.905  29.237  30.184  1.00  0.00    -0.248 NA
ATOM     58  C   UNL A   1      46.179  30.885  31.098  1.00  0.00     0.031 C 
ATOM     59  C   UNL A   1      46.306  25.255  28.970  1.00  0.00     0.029 A 
ATOM     60  C   UNL A   1      45.831  26.520  29.367  1.00  0.00     0.049 A 
ATOM     61  H   UNL A   1      43.879  27.321  29.298  1.00  0.00     0.167 HD
ATOM     62  C   UNL A   1      46.153  28.775  30.286  1.00  0.00     0.074 A 
ATOM     63  C   UNL A   1      46.989  29.826  30.882  1.00  0.00     0.031 C 
ATOM     64  C   UNL A   1      46.628  27.519  29.901  1.00  0.00     0.037 A 
BRANCH  51  65
ATOM     65  C   UNL A   1      42.651  23.521  27.697  1.00  0.00     0.058 A 
ATOM     66  C   UNL A   1      42.816  23.358  26.331  1.00  0.00     0.135 A 
ATOM     67  C   UNL A   1      42.446  22.480  28.494  1.00  0.00     0.135 A 
ATOM     68  F   UNL A   1      43.270  24.321  25.534  1.00  0.00    -0.206 F 
ATOM     69  C   UNL A   1      42.456  22.072  25.860  1.00  0.00     0.059 A 
ATOM     70  C   UNL A   1      42.237  21.228  27.971  1.00  0.00     0.059 A 
ATOM     71  F   UNL A   1      42.443  22.653  29.814  1.00  0.00    -0.206 F 
ATOM     72  C   UNL A   1      42.325  21.004  26.625  1.00  0.00     0.060 A 
BRANCH  72  73
ATOM     73  S   UNL A   1      42.265  19.334  25.929  1.00  0.00     0.124 S 
ATOM     74  O   UNL A   1      40.819  18.981  25.577  1.00  0.00    -0.237 OA
ATOM     75  O   UNL A   1      43.127  19.278  24.666  1.00  0.00    -0.237 OA
ATOM     76  O   UNL A   1      42.861  18.216  27.078  1.00  0.00    -0.744 OA
ENDBRANCH  72  73
ENDBRANCH  51  65
BRANCH  52  77
ATOM     77  C   UNL A   1      43.895  32.737  31.206  1.00  0.00     0.058 A 
ATOM     78  C   UNL A   1      44.251  33.773  30.358  1.00  0.00     0.135 A 
ATOM     79  C   UNL A   1      43.792  32.924  32.517  1.00  0.00     0.135 A 
ATOM     80  F   UNL A   1      44.122  33.705  29.036  1.00  0.00    -0.206 F 
ATOM     81  C   UNL A   1      44.763  34.910  31.026  1.00  0.00     0.059 A 
ATOM     82  C   UNL A   1      44.183  34.111  33.087  1.00  0.00     0.059 A 
ATOM     83  F   UNL A   1      43.305  31.953  33.284  1.00  0.00    -0.206 F 
ATOM     84  C   UNL A   1      44.603  35.158  32.313  1.00  0.00     0.060 A 
BRANCH  84  85
ATOM     85  S   UNL A   1      44.921  36.795  33.017  1.00  0.00     0.124 S 
ATOM     86  O   UNL A   1      45.393  37.742  31.911  1.00  0.00    -0.237 OA
ATOM     87  O   UNL A   1      43.633  37.341  33.640  1.00  0.00    -0.237 OA
ATOM     88  O   UNL A   1      46.130  36.674  34.219  1.00  0.00    -0.744 OA
ENDBRANCH  84  85
ENDBRANCH  52  77
BRANCH  64  89
ATOM     89  C   UNL A   1      48.110  27.233  30.079  1.00  0.00     0.058 A 
ATOM     90  C   UNL A   1      48.496  26.702  31.299  1.00  0.00     0.135 A 
ATOM     91  C   UNL A   1      49.007  27.572  29.161  1.00  0.00     0.135 A 
ATOM     92  F   UNL A   1      47.646  26.120  32.139  1.00  0.00    -0.206 F 
ATOM     93  C   UNL A   1      49.878  26.837  31.571  1.00  0.00     0.059 A 
ATOM     94  C   UNL A   1      50.350  27.551  29.452  1.00  0.00     0.059 A 
ATOM     95  F   UNL A   1      48.602  27.936  27.947  1.00  0.00    -0.206 F 
ATOM     96  C   UNL A   1      50.799  27.092  30.659  1.00  0.00     0.060 A 
BRANCH  96  97
ATOM     97  S   UNL A   1      52.563  26.854  30.992  1.00  0.00     0.124 S 
ATOM     98  O   UNL A   1      53.310  26.660  29.670  1.00  0.00    -0.237 OA
ATOM     99  O   UNL A   1      53.116  28.085  31.715  1.00  0.00    -0.237 OA
ATOM    100  O   UNL A   1      52.775  25.471  31.975  1.00  0.00    -0.744 OA
ENDBRANCH  96  97
ENDBRANCH  64  89
ENDBRANCH  38  39
ENDBRANCH  31  33
ENDBRANCH  30  31
ENDBRANCH  29  30
ENDBRANCH   1  29
TORSDOF 19
ENDMDL
MODEL 2
REMARK VINA RESULT:     -11.8      3.265      9.388
REMARK SMILES O=C(OCCOCCOC(=O)c1ccc(-c2c3nc(c(-c4c(F)cc(S(=O)(=O)[O-])cc4F)c4ccc([nH]4)c(-c4c(F)cc(S(=O)(=O)[O-])cc4F)c4nc(c(-c5c(F)cc(S(=O)(=O)[O-])cc5F)c5ccc2[nH]5)C=C4)C=C3)cc1)C1=Cc2cc(S(F)(F)(F)(F)F)cc(Br)c2O[C@@H]1C(F)(F)F
REMARK SMILES IDX 7 1 6 2 5 3 4 4 3 5 2 6 1 7 78 8 79 9 94 10 80 11 93 12
REMARK SMILES IDX 81 13 92 14 82 15 90 16 89 17 91 18 95 19 96 20 97 21 98 22
REMARK SMILES IDX 83 23 84 24 85 25 86 26 87 27 88 28 8 29 9 30 10 31 11 32
REMARK SMILES IDX 12 33 13 34 77 35 14 36 76 37 15 38 16 39 17 40 70 41 18 42
REMARK SMILES IDX 75 43 69 44 71 45 19 46 74 47 68 48 67 49 20 51 54 52 33 53
REMARK SMILES IDX 53 54 34 55 37 56 52 57 72 58 35 59 36 60 51 62 73 63 38 64
REMARK SMILES IDX 21 65 22 66 31 67 23 68 24 69 30 70 32 71 25 72 26 73 27 74
REMARK SMILES IDX 28 75 29 76 55 77 56 78 65 79 57 80 58 81 64 82 66 83 59 84
REMARK SMILES IDX 60 85 61 86 62 87 63 88 39 89 40 90 49 91 41 92 42 93 48 94
REMARK SMILES IDX 50 95 43 96 44 97 45 98 46 99 47 100
REMARK H PARENT 71 50 37 61
REMARK Flexibility Score: inf
ROOT
ATOM      1  C   UNL A   1      36.051  21.001  25.378  1.00  0.00     0.202 C 
ENDROOT
BRANCH   1   2
ATOM      2  O   UNL A   1      35.431  22.026  26.139  1.00  0.00    -0.374 OA
BRANCH   2   3
ATOM      3  C   UNL A   1      34.402  21.465  26.941  1.00  0.00     0.202 C 
BRANCH   3   4
ATOM      4  C   UNL A   1      33.732  22.566  27.747  1.00  0.00     0.261 C 
BRANCH   4   5
ATOM      5  O   UNL A   1      33.309  23.603  26.874  1.00  0.00    -0.460 OA
BRANCH   5   6
ATOM      6  C   UNL A   1      31.961  23.653  26.431  1.00  0.00     0.338 C 
ATOM      7  O   UNL A   1      31.057  24.114  27.198  1.00  0.00    -0.246 OA
BRANCH   6   8
ATOM      8  C   UNL A   1      31.598  23.156  25.042  1.00  0.00     0.087 C 
ATOM      9  C   UNL A   1      31.228  24.041  24.078  1.00  0.00     0.027 C 
ATOM     10  C   UNL A   1      31.648  21.669  24.730  1.00  0.00     0.316 C 
ATOM     11  C   UNL A   1      31.177  25.527  24.390  1.00  0.00     0.020 A 
ATOM     12  O   UNL A   1      33.133  25.370  25.731  1.00  0.00    -0.474 OA
ATOM     13  C   UNL A   1      30.117  26.239  23.852  1.00  0.00     0.036 A 
ATOM     14  C   UNL A   1      32.149  26.140  25.056  1.00  0.00     0.142 A 
ATOM     15  C   UNL A   1      30.322  27.638  23.822  1.00  0.00     0.109 A 
ATOM     16  C   UNL A   1      32.212  27.512  25.099  1.00  0.00     0.062 A 
ATOM     17  C   UNL A   1      31.228  28.278  24.536  1.00  0.00     0.044 A 
ATOM     18  Br  UNL A   1      33.731  28.383  25.978  1.00  0.00    -0.047 Br
BRANCH  10  19
ATOM     19  C   UNL A   1      32.640  21.421  23.605  1.00  0.00     0.430 C 
ATOM     20  F   UNL A   1      33.562  22.380  23.605  1.00  0.00    -0.167 F 
ATOM     21  F   UNL A   1      33.228  20.242  23.783  1.00  0.00    -0.167 F 
ATOM     22  F   UNL A   1      31.997  21.426  22.440  1.00  0.00    -0.167 F 
ENDBRANCH  10  19
BRANCH  15  23
ATOM     23  S   UNL A   1      29.267  28.620  22.726  1.00  0.00     0.310 S 
ATOM     24  F   UNL A   1      29.348  29.880  23.685  1.00  0.00    -0.094 F 
ATOM     25  F   UNL A   1      28.017  28.149  23.563  1.00  0.00    -0.094 F 
ATOM     26  F   UNL A   1      28.357  29.466  21.792  1.00  0.00    -0.094 F 
ATOM     27  F   UNL A   1      30.541  29.191  21.988  1.00  0.00    -0.094 F 
ATOM     28  F   UNL A   1      30.212  27.856  23.737  1.00  0.00    -0.094 F 
ENDBRANCH  15  23
ENDBRANCH   6   8
ENDBRANCH   5   6
ENDBRANCH   4   5
ENDBRANCH   3   4
ENDBRANCH   2   3
ENDBRANCH   1   2
BRANCH   1  29
ATOM     29  C   UNL A   1      37.423  21.469  24.920  1.00  0.00     0.261 C 
BRANCH  29  30
ATOM     30  O   UNL A   1      37.710  22.731  25.501  1.00  0.00    -0.460 OA
BRANCH  30  31
ATOM     31  C   UNL A   1      38.957  22.951  26.145  1.00  0.00     0.338 C 
ATOM     32  O   UNL A   1      39.833  22.029  26.163  1.00  0.00    -0.246 OA
BRANCH  31  33
ATOM     33  C   UNL A   1      39.246  24.286  26.810  1.00  0.00     0.060 A 
ATOM     34  C   UNL A   1      40.039  25.186  26.118  1.00  0.00     0.016 A 
ATOM     35  C   UNL A   1      38.875  24.517  28.065  1.00  0.00     0.016 A 
ATOM     36  C   UNL A   1      40.636  26.173  26.938  1.00  0.00     0.010 A 
ATOM     37  C   UNL A   1      39.395  25.580  28.763  1.00  0.00     0.010 A 
ATOM     38  C   UNL A   1      40.233  26.476  28.159  1.00  0.00    -0.014 A 
BRANCH  38  39
ATOM     39  C   UNL A   1      40.677  27.753  28.855  1.00  0.00     0.031 A 
ATOM     40  C   UNL A   1      39.818  28.842  29.010  1.00  0.00     0.074 A 
ATOM     41  C   UNL A   1      41.949  27.686  29.395  1.00  0.00     0.049 A 
ATOM     42  N   UNL A   1      40.038  29.958  29.706  1.00  0.00    -0.248 NA
ATOM     43  C   UNL A   1      38.479  28.929  28.407  1.00  0.00     0.031 C 
ATOM     44  C   UNL A   1      42.818  26.588  29.250  1.00  0.00     0.029 A 
ATOM     45  N   UNL A   1      42.597  28.638  30.151  1.00  0.00    -0.354 N 
ATOM     46  C   UNL A   1      38.974  30.762  29.637  1.00  0.00     0.074 A 
ATOM     47  C   UNL A   1      37.959  30.113  28.795  1.00  0.00     0.031 C 
ATOM     48  C   UNL A   1      43.977  26.878  29.898  1.00  0.00     0.029 A 
ATOM     49  C   UNL A   1      43.851  28.162  30.461  1.00  0.00     0.049 A 
ATOM     50  H   UNL A   1      42.225  29.510  30.424  1.00  0.00     0.167 HD
ATOM     51  C   UNL A   1      38.810  32.008  30.243  1.00  0.00     0.037 A 
ATOM     52  C   UNL A   1      44.844  28.798  31.190  1.00  0.00     0.037 A 
ATOM     53  C   UNL A   1      39.788  32.624  31.009  1.00  0.00     0.049 A 
ATOM     54  C   UNL A   1      44.702  30.070  31.749  1.00  0.00     0.074 A 
ATOM     55  C   UNL A   1      39.636  33.877  31.634  1.00  0.00     0.029 A 
ATOM     56  N   UNL A   1      41.051  32.158  31.298  1.00  0.00    -0.354 N 
ATOM     57  N   UNL A   1      43.624  30.856  31.712  1.00  0.00    -0.248 NA
ATOM     58  C   UNL A   1      45.758  30.766  32.495  1.00  0.00     0.031 C 
ATOM     59  C   UNL A   1      40.796  34.167  32.283  1.00  0.00     0.029 A 
ATOM     60  C   UNL A   1      41.690  33.100  32.073  1.00  0.00     0.049 A 
ATOM     61  H   UNL A   1      41.432  31.301  31.002  1.00  0.00     0.167 HD
ATOM     62  C   UNL A   1      43.861  31.990  32.374  1.00  0.00     0.074 A 
ATOM     63  C   UNL A   1      45.239  31.952  32.881  1.00  0.00     0.031 C 
ATOM     64  C   UNL A   1      42.980  33.054  32.579  1.00  0.00     0.037 A 
BRANCH  51  65
ATOM     65  C   UNL A   1      37.486  32.730  30.054  1.00  0.00     0.058 A 
ATOM     66  C   UNL A   1      36.494  32.457  30.981  1.00  0.00     0.135 A 
ATOM     67  C   UNL A   1      37.313  33.645  29.108  1.00  0.00     0.135 A 
ATOM     68  F   UNL A   1      36.707  31.746  32.084  1.00  0.00    -0.206 F 
ATOM     69  C   UNL A   1      35.232  33.005  30.647  1.00  0.00     0.059 A 
ATOM     70  C   UNL A   1      36.088  34.239  28.926  1.00  0.00     0.059 A 
ATOM     71  F   UNL A   1      38.335  33.991  28.330  1.00  0.00    -0.206 F 
ATOM     72  C   UNL A   1      35.044  33.972  29.767  1.00  0.00     0.060 A 
BRANCH  72  73
ATOM     73  S   UNL A   1      33.488  34.894  29.682  1.00  0.00     0.124 S 
ATOM     74  O   UNL A   1      32.530  34.188  28.722  1.00  0.00    -0.237 OA
ATOM     75  O   UNL A   1      32.859  34.961  31.075  1.00  0.00    -0.237 OA
ATOM     76  O   UNL A   1      33.796  36.479  29.117  1.00  0.00    -0.744 OA
ENDBRANCH  72  73
ENDBRANCH  51  65
BRANCH  52  77
ATOM     77  C   UNL A   1      46.162  28.068  31.393  1.00  0.00     0.058 A 
ATOM     78  C   UNL A   1      47.215  28.242  30.510  1.00  0.00     0.135 A 
ATOM     79  C   UNL A   1      46.233  27.189  32.385  1.00  0.00     0.135 A 
ATOM     80  F   UNL A   1      47.295  29.270  29.670  1.00  0.00    -0.206 F 
ATOM     81  C   UNL A   1      48.199  27.227  30.584  1.00  0.00     0.059 A 
ATOM     82  C   UNL A   1      47.292  26.318  32.474  1.00  0.00     0.059 A 
ATOM     83  F   UNL A   1      45.271  27.152  33.302  1.00  0.00    -0.206 F 
ATOM     84  C   UNL A   1      48.340  26.394  31.597  1.00  0.00     0.060 A 
BRANCH  84  85
ATOM     85  S   UNL A   1      49.839  25.404  31.818  1.00  0.00     0.124 S 
ATOM     86  O   UNL A   1      49.629  24.409  32.962  1.00  0.00    -0.237 OA
ATOM     87  O   UNL A   1      50.141  24.640  30.526  1.00  0.00    -0.237 OA
ATOM     88  O   UNL A   1      51.152  26.433  32.191  1.00  0.00    -0.744 OA
ENDBRANCH  84  85
ENDBRANCH  52  77
BRANCH  64  89
ATOM     89  C   UNL A   1      43.466  34.233  33.407  1.00  0.00     0.058 A 
ATOM     90  C   UNL A   1      43.234  34.169  34.771  1.00  0.00     0.135 A 
ATOM     91  C   UNL A   1      43.987  35.318  32.847  1.00  0.00     0.135 A 
ATOM     92  F   UNL A   1      42.956  33.036  35.408  1.00  0.00    -0.206 F 
ATOM     93  C   UNL A   1      43.319  35.421  35.425  1.00  0.00     0.059 A 
ATOM     94  C   UNL A   1      44.169  36.466  33.579  1.00  0.00     0.059 A 
ATOM     95  F   UNL A   1      44.336  35.294  31.563  1.00  0.00    -0.206 F 
ATOM     96  C   UNL A   1      43.906  36.491  34.921  1.00  0.00     0.060 A 
BRANCH  96  97
ATOM     97  S   UNL A   1      44.334  37.918  35.949  1.00  0.00     0.124 S 
ATOM     98  O   UNL A   1      45.833  37.895  36.256  1.00  0.00    -0.237 OA
ATOM     99  O   UNL A   1      43.987  39.208  35.200  1.00  0.00    -0.237 OA
ATOM    100  O   UNL A   1      43.451  37.853  37.411  1.00  0.00    -0.744 OA
ENDBRANCH  96  97
ENDBRANCH  64  89
ENDBRANCH  38  39
ENDBRANCH  31  33
ENDBRANCH  30  31
ENDBRANCH  29  30
ENDBRANCH   1  29
TORSDOF 19
ENDMDL
MODEL 3
REMARK VINA RESULT:     -11.7      3.199      4.263
REMARK SMILES O=C(OCCOCCOC(=O)c1ccc(-c2c3nc(c(-c4c(F)cc(S(=O)(=O)[O-])cc4F)c4ccc([nH]4)c(-c4c(F)cc(S(=O)(=O)[O-])cc4F)c4nc(c(-c5c(F)cc(S(=O)(=O)[O-])cc5F)c5ccc2[nH]5)C=C4)C=C3)cc1)C1=Cc2cc(S(F)(F)(F)(F)F)cc(Br)c2O[C@@H]1C(F)(F)F
REMARK SMILES IDX 7 1 6 2 5 3 4 4 3 5 2 6 1 7 78 8 79 9 94 10 80 11 93 12
REMARK SMILES IDX 81 13 92 14 82 15 90 16 89 17 91 18 95 19 96 20 97 21 98 22
REMARK SMILES IDX 83 23 84 24 85 25 86 26 87 27 88 28 8 29 9 30 10 31 11 32
REMARK SMILES IDX 12 33 13 34 77 35 14 36 76 37 15 38 16 39 17 40 70 41 18 42
REMARK SMILES IDX 75 43 69 44 71 45 19 46 74 47 68 48 67 49 20 51 54 52 33 53
REMARK SMILES IDX 53 54 34 55 37 56 52 57 72 58 35 59 36 60 51 62 73 63 38 64
REMARK SMILES IDX 21 65 22 66 31 67 23 68 24 69 30 70 32 71 25 72 26 73 27 74
REMARK SMILES IDX 28 75 29 76 55 77 56 78 65 79 57 80 58 81 64 82 66 83 59 84
REMARK SMILES IDX 60 85 61 86 62 87 63 88 39 89 40 90 49 91 41 92 42 93 48 94
REMARK SMILES IDX 50 95 43 96 44 97 45 98 46 99 47 100
REMARK H PARENT 71 50 37 61
REMARK Flexibility Score: inf
ROOT
ATOM      1  C   UNL A   1      34.936  32.120  27.995  1.00  0.00     0.202 C 
ENDROOT
BRANCH   1   2
ATOM      2  O   UNL A   1      34.115  31.139  27.379  1.00  0.00    -0.374 OA
BRANCH   2   3
ATOM      3  C   UNL A   1      34.672  29.851  27.593  1.00  0.00     0.202 C 
BRANCH   3   4
ATOM      4  C   UNL A   1      34.116  28.881  26.563  1.00  0.00     0.261 C 
BRANCH   4   5
ATOM      5  O   UNL A   1      33.145  28.045  27.175  1.00  0.00    -0.460 OA
BRANCH   5   6
ATOM      6  C   UNL A   1      31.920  27.775  26.510  1.00  0.00     0.338 C 
ATOM      7  O   UNL A   1      30.897  27.427  27.178  1.00  0.00    -0.246 OA
BRANCH   6   8
ATOM      8  C   UNL A   1      31.832  27.903  24.998  1.00  0.00     0.087 C 
ATOM      9  C   UNL A   1      32.416  26.968  24.201  1.00  0.00     0.027 C 
ATOM     10  C   UNL A   1      31.093  29.076  24.376  1.00  0.00     0.316 C 
ATOM     11  C   UNL A   1      33.156  25.795  24.823  1.00  0.00     0.020 A 
ATOM     12  O   UNL A   1      31.535  25.616  26.551  1.00  0.00    -0.474 OA
ATOM     13  C   UNL A   1      34.335  25.408  24.207  1.00  0.00     0.036 A 
ATOM     14  C   UNL A   1      32.653  25.106  25.840  1.00  0.00     0.142 A 
ATOM     15  C   UNL A   1      34.763  24.105  24.554  1.00  0.00     0.109 A 
ATOM     16  C   UNL A   1      33.204  23.904  26.213  1.00  0.00     0.062 A 
ATOM     17  C   UNL A   1      34.336  23.433  25.606  1.00  0.00     0.044 A 
ATOM     18  Br  UNL A   1      32.358  22.850  27.632  1.00  0.00    -0.047 Br
BRANCH  10  19
ATOM     19  C   UNL A   1      29.949  28.557  23.520  1.00  0.00     0.430 C 
ATOM     20  F   UNL A   1      29.444  27.458  24.073  1.00  0.00    -0.167 F 
ATOM     21  F   UNL A   1      29.000  29.487  23.436  1.00  0.00    -0.167 F 
ATOM     22  F   UNL A   1      30.400  28.273  22.302  1.00  0.00    -0.167 F 
ENDBRANCH  10  19
BRANCH  15  23
ATOM     23  S   UNL A   1      35.979  23.304  23.478  1.00  0.00     0.310 S 
ATOM     24  F   UNL A   1      35.772  21.904  24.193  1.00  0.00    -0.094 F 
ATOM     25  F   UNL A   1      37.086  23.613  24.557  1.00  0.00    -0.094 F 
ATOM     26  F   UNL A   1      37.027  22.612  22.562  1.00  0.00    -0.094 F 
ATOM     27  F   UNL A   1      34.834  22.881  22.477  1.00  0.00    -0.094 F 
ATOM     28  F   UNL A   1      34.887  23.903  24.451  1.00  0.00    -0.094 F 
ENDBRANCH  15  23
ENDBRANCH   6   8
ENDBRANCH   5   6
ENDBRANCH   4   5
ENDBRANCH   3   4
ENDBRANCH   2   3
ENDBRANCH   1   2
BRANCH   1  29
ATOM     29  C   UNL A   1      34.767  32.046  29.504  1.00  0.00     0.261 C 
BRANCH  29  30
ATOM     30  O   UNL A   1      36.042  32.065  30.125  1.00  0.00    -0.460 OA
BRANCH  30  31
ATOM     31  C   UNL A   1      36.545  30.895  30.752  1.00  0.00     0.338 C 
ATOM     32  O   UNL A   1      35.923  30.384  31.736  1.00  0.00    -0.246 OA
BRANCH  31  33
ATOM     33  C   UNL A   1      37.827  30.252  30.249  1.00  0.00     0.060 A 
ATOM     34  C   UNL A   1      38.746  29.832  31.196  1.00  0.00     0.016 A 
ATOM     35  C   UNL A   1      38.116  30.230  28.952  1.00  0.00     0.016 A 
ATOM     36  C   UNL A   1      40.059  29.679  30.692  1.00  0.00     0.010 A 
ATOM     37  C   UNL A   1      39.387  29.938  28.523  1.00  0.00     0.010 A 
ATOM     38  C   UNL A   1      40.362  29.574  29.411  1.00  0.00    -0.014 A 
BRANCH  38  39
ATOM     39  C   UNL A   1      41.721  29.075  28.948  1.00  0.00     0.031 A 
ATOM     40  C   UNL A   1      41.927  27.747  28.568  1.00  0.00     0.074 A 
ATOM     41  C   UNL A   1      42.680  30.068  28.843  1.00  0.00     0.049 A 
ATOM     42  N   UNL A   1      43.025  27.217  28.025  1.00  0.00    -0.248 NA
ATOM     43  C   UNL A   1      40.921  26.684  28.710  1.00  0.00     0.031 C 
ATOM     44  C   UNL A   1      42.478  31.411  29.217  1.00  0.00     0.029 A 
ATOM     45  N   UNL A   1      43.971  29.951  28.376  1.00  0.00    -0.354 N 
ATOM     46  C   UNL A   1      42.837  25.919  27.781  1.00  0.00     0.074 A 
ATOM     47  C   UNL A   1      41.483  25.557  28.224  1.00  0.00     0.031 C 
ATOM     48  C   UNL A   1      43.632  32.091  28.988  1.00  0.00     0.029 A 
ATOM     49  C   UNL A   1      44.576  31.184  28.468  1.00  0.00     0.049 A 
ATOM     50  H   UNL A   1      44.388  29.126  28.034  1.00  0.00     0.167 HD
ATOM     51  C   UNL A   1      43.739  25.023  27.205  1.00  0.00     0.037 A 
ATOM     52  C   UNL A   1      45.876  31.520  28.124  1.00  0.00     0.037 A 
ATOM     53  C   UNL A   1      45.025  25.370  26.821  1.00  0.00     0.049 A 
ATOM     54  C   UNL A   1      46.798  30.611  27.601  1.00  0.00     0.074 A 
ATOM     55  C   UNL A   1      45.945  24.482  26.232  1.00  0.00     0.029 A 
ATOM     56  N   UNL A   1      45.638  26.598  26.936  1.00  0.00    -0.354 N 
ATOM     57  N   UNL A   1      46.597  29.322  27.321  1.00  0.00    -0.248 NA
ATOM     58  C   UNL A   1      48.188  30.947  27.264  1.00  0.00     0.031 C 
ATOM     59  C   UNL A   1      47.101  25.162  26.003  1.00  0.00     0.029 A 
ATOM     60  C   UNL A   1      46.920  26.486  26.447  1.00  0.00     0.049 A 
ATOM     61  H   UNL A   1      45.230  27.414  27.304  1.00  0.00     0.167 HD
ATOM     62  C   UNL A   1      47.709  28.783  26.817  1.00  0.00     0.074 A 
ATOM     63  C   UNL A   1      48.751  29.819  26.780  1.00  0.00     0.031 C 
ATOM     64  C   UNL A   1      47.896  27.469  26.382  1.00  0.00     0.037 A 
BRANCH  51  65
ATOM     65  C   UNL A   1      43.287  23.589  26.987  1.00  0.00     0.058 A 
ATOM     66  C   UNL A   1      42.897  23.251  25.702  1.00  0.00     0.135 A 
ATOM     67  C   UNL A   1      43.349  22.677  27.950  1.00  0.00     0.135 A 
ATOM     68  F   UNL A   1      43.060  24.058  24.658  1.00  0.00    -0.206 F 
ATOM     69  C   UNL A   1      42.308  21.968  25.600  1.00  0.00     0.059 A 
ATOM     70  C   UNL A   1      42.879  21.404  27.739  1.00  0.00     0.059 A 
ATOM     71  F   UNL A   1      43.870  23.001  29.131  1.00  0.00    -0.206 F 
ATOM     72  C   UNL A   1      42.423  21.017  26.510  1.00  0.00     0.060 A 
BRANCH  72  73
ATOM     73  S   UNL A   1      41.999  19.295  26.147  1.00  0.00     0.124 S 
ATOM     74  O   UNL A   1      40.524  19.205  25.753  1.00  0.00    -0.237 OA
ATOM     75  O   UNL A   1      42.868  18.789  24.994  1.00  0.00    -0.237 OA
ATOM     76  O   UNL A   1      42.278  18.335  27.535  1.00  0.00    -0.744 OA
ENDBRANCH  72  73
ENDBRANCH  51  65
BRANCH  52  77
ATOM     77  C   UNL A   1      46.322  32.958  28.327  1.00  0.00     0.058 A 
ATOM     78  C   UNL A   1      46.855  33.374  29.536  1.00  0.00     0.135 A 
ATOM     79  C   UNL A   1      46.094  33.820  27.342  1.00  0.00     0.135 A 
ATOM     80  F   UNL A   1      47.332  32.531  30.447  1.00  0.00    -0.206 F 
ATOM     81  C   UNL A   1      46.845  34.778  29.714  1.00  0.00     0.059 A 
ATOM     82  C   UNL A   1      46.236  35.170  27.547  1.00  0.00     0.059 A 
ATOM     83  F   UNL A   1      45.725  33.369  26.147  1.00  0.00    -0.206 F 
ATOM     84  C   UNL A   1      46.701  35.656  28.739  1.00  0.00     0.060 A 
BRANCH  84  85
ATOM     85  S   UNL A   1      47.097  37.408  28.964  1.00  0.00     0.124 S 
ATOM     86  O   UNL A   1      48.570  37.644  28.623  1.00  0.00    -0.237 OA
ATOM     87  O   UNL A   1      46.217  38.252  28.038  1.00  0.00    -0.237 OA
ATOM     88  O   UNL A   1      46.809  37.853  30.588  1.00  0.00    -0.744 OA
ENDBRANCH  84  85
ENDBRANCH  52  77
BRANCH  64  89
ATOM     89  C   UNL A   1      49.250  27.095  25.804  1.00  0.00     0.058 A 
ATOM     90  C   UNL A   1      50.221  26.696  26.708  1.00  0.00     0.135 A 
ATOM     91  C   UNL A   1      49.529  27.243  24.514  1.00  0.00     0.135 A 
ATOM     92  F   UNL A   1      49.941  26.294  27.944  1.00  0.00    -0.206 F 
ATOM     93  C   UNL A   1      51.540  26.758  26.197  1.00  0.00     0.059 A 
ATOM     94  C   UNL A   1      50.824  27.156  24.063  1.00  0.00     0.059 A 
ATOM     95  F   UNL A   1      48.546  27.479  23.650  1.00  0.00    -0.206 F 
ATOM     96  C   UNL A   1      51.843  26.823  24.913  1.00  0.00     0.060 A 
BRANCH  96  97
ATOM     97  S   UNL A   1      53.518  26.494  24.310  1.00  0.00     0.124 S 
ATOM     98  O   UNL A   1      54.536  27.130  25.259  1.00  0.00    -0.237 OA
ATOM     99  O   UNL A   1      53.749  24.982  24.251  1.00  0.00    -0.237 OA
ATOM    100  O   UNL A   1      53.702  27.161  22.746  1.00  0.00    -0.744 OA
ENDBRANCH  96  97
ENDBRANCH  64  89
ENDBRANCH  38  39
ENDBRANCH  31  33
ENDBRANCH  30  31
ENDBRANCH  29  30
ENDBRANCH   1  29
TORSDOF 19
ENDMDL
