MODEL 1
REMARK VINA RESULT:     -10.9      0.000      0.000
REMARK SMILES COc1ncccc1Cn1ccc(C(=O)OCCOCCOC(=O)c2ccc(-c3c4nc(c(-c5c(F)cc(S(=O)(=O)[O-])cc5F)c5ccc([nH]5)c(-c5c(F)cc(S(=O)(=O)[O-])cc5F)c5nc(c(-c6c(F)cc(S(=O)(=O)[O-])cc6F)c6ccc3[nH]6)C=C5)C=C4)cc2)n1
REMARK SMILES IDX 19 1 18 2 17 3 16 4 14 5 15 6 13 7 10 8 11 9 91 10 12 11
REMARK SMILES IDX 9 12 8 13 3 14 4 15 5 16 7 17 6 18 2 19 1 20 20 21 21 22
REMARK SMILES IDX 22 23 23 24 24 25 25 26 26 27 90 28 27 29 89 30 28 31 29 32
REMARK SMILES IDX 30 33 83 34 31 35 88 36 82 37 84 38 32 39 87 40 81 41 80 42
REMARK SMILES IDX 33 44 67 45 46 46 66 47 47 48 50 49 65 50 85 51 48 52 49 53
REMARK SMILES IDX 64 55 86 56 51 57 34 58 35 59 44 60 36 61 37 62 43 63 45 64
REMARK SMILES IDX 38 65 39 66 40 67 41 68 42 69 68 70 69 71 78 72 70 73 71 74
REMARK SMILES IDX 77 75 79 76 72 77 73 78 74 79 75 80 76 81 52 82 53 83 62 84
REMARK SMILES IDX 54 85 55 86 61 87 63 88 56 89 57 90 58 91 59 92 60 93
REMARK H PARENT 84 43 50 54
REMARK Flexibility Score: inf
ROOT
ATOM      1  O   UNL A   1      42.247  20.640  26.793  1.00  0.00    -0.374 OA
ENDROOT
BRANCH   1   2
ATOM      2  C   UNL A   1      41.290  21.449  26.102  1.00  0.00     0.202 C 
BRANCH   2   3
ATOM      3  C   UNL A   1      39.841  21.413  26.606  1.00  0.00     0.261 C 
BRANCH   3   4
ATOM      4  O   UNL A   1      38.911  21.811  25.585  1.00  0.00    -0.458 OA
BRANCH   4   5
ATOM      5  C   UNL A   1      37.983  22.749  25.942  1.00  0.00     0.358 C 
ATOM      6  O   UNL A   1      38.249  23.877  26.343  1.00  0.00    -0.244 OA
BRANCH   5   7
ATOM      7  C   UNL A   1      36.633  22.352  25.528  1.00  0.00     0.170 A 
ATOM      8  N   UNL A   1      34.890  21.193  25.133  1.00  0.00    -0.267 N 
ATOM      9  C   UNL A   1      34.719  22.342  24.413  1.00  0.00     0.110 A 
ATOM     10  N   UNL A   1      36.111  21.127  25.717  1.00  0.00    -0.165 NA
ATOM     11  C   UNL A   1      35.735  23.177  24.799  1.00  0.00     0.057 A 
BRANCH   8  12
ATOM     12  C   UNL A   1      33.898  20.167  25.475  1.00  0.00     0.185 C 
BRANCH  12  13
ATOM     13  C   UNL A   1      33.420  19.347  24.314  1.00  0.00     0.036 A 
ATOM     14  C   UNL A   1      33.919  18.074  24.025  1.00  0.00     0.218 A 
ATOM     15  N   UNL A   1      33.468  17.307  23.009  1.00  0.00    -0.222 NA
ATOM     16  C   UNL A   1      32.511  17.840  22.213  1.00  0.00     0.115 A 
ATOM     17  C   UNL A   1      32.441  19.866  23.453  1.00  0.00     0.013 A 
ATOM     18  C   UNL A   1      31.995  19.113  22.375  1.00  0.00     0.021 A 
BRANCH  14  19
ATOM     19  O   UNL A   1      35.103  17.649  24.576  1.00  0.00    -0.481 OA
ATOM     20  C   UNL A   1      35.071  16.305  25.037  1.00  0.00     0.280 C 
ENDBRANCH  14  19
ENDBRANCH  12  13
ENDBRANCH   8  12
ENDBRANCH   5   7
ENDBRANCH   4   5
ENDBRANCH   3   4
ENDBRANCH   2   3
ENDBRANCH   1   2
BRANCH   1  21
ATOM     21  C   UNL A   1      42.364  19.268  26.441  1.00  0.00     0.202 C 
BRANCH  21  22
ATOM     22  C   UNL A   1      43.388  18.867  25.391  1.00  0.00     0.261 C 
BRANCH  22  23
ATOM     23  O   UNL A   1      43.631  19.913  24.464  1.00  0.00    -0.460 OA
BRANCH  23  24
ATOM     24  C   UNL A   1      44.932  20.240  24.335  1.00  0.00     0.338 C 
ATOM     25  O   UNL A   1      45.865  19.478  24.108  1.00  0.00    -0.246 OA
BRANCH  24  26
ATOM     26  C   UNL A   1      45.093  21.650  24.686  1.00  0.00     0.060 A 
ATOM     27  C   UNL A   1      45.935  21.922  25.765  1.00  0.00     0.016 A 
ATOM     28  C   UNL A   1      44.212  22.612  24.163  1.00  0.00     0.016 A 
ATOM     29  C   UNL A   1      45.730  23.084  26.466  1.00  0.00     0.010 A 
ATOM     30  C   UNL A   1      44.003  23.769  24.871  1.00  0.00     0.010 A 
ATOM     31  C   UNL A   1      44.702  23.945  26.060  1.00  0.00    -0.014 A 
BRANCH  31  32
ATOM     32  C   UNL A   1      44.464  25.121  26.861  1.00  0.00     0.031 A 
ATOM     33  C   UNL A   1      45.517  26.139  26.668  1.00  0.00     0.074 A 
ATOM     34  C   UNL A   1      43.366  25.277  27.622  1.00  0.00     0.049 A 
ATOM     35  N   UNL A   1      46.437  26.478  27.507  1.00  0.00    -0.248 NA
ATOM     36  C   UNL A   1      45.714  26.672  25.309  1.00  0.00     0.031 C 
ATOM     37  C   UNL A   1      42.168  24.439  27.686  1.00  0.00     0.029 A 
ATOM     38  N   UNL A   1      43.060  26.305  28.454  1.00  0.00    -0.354 N 
ATOM     39  C   UNL A   1      47.169  27.465  26.863  1.00  0.00     0.074 A 
ATOM     40  C   UNL A   1      46.834  27.378  25.467  1.00  0.00     0.031 C 
ATOM     41  C   UNL A   1      41.185  25.115  28.325  1.00  0.00     0.029 A 
ATOM     42  C   UNL A   1      41.720  26.372  28.821  1.00  0.00     0.049 A 
ATOM     43  H   UNL A   1      43.732  26.952  28.772  1.00  0.00     0.167 HD
ATOM     44  C   UNL A   1      47.761  28.462  27.573  1.00  0.00     0.037 A 
ATOM     45  C   UNL A   1      41.112  27.441  29.401  1.00  0.00     0.037 A 
ATOM     46  C   UNL A   1      47.925  28.094  28.957  1.00  0.00     0.049 A 
ATOM     47  C   UNL A   1      42.193  28.251  30.039  1.00  0.00     0.074 A 
ATOM     48  C   UNL A   1      48.547  27.037  29.597  1.00  0.00     0.029 A 
ATOM     49  N   UNL A   1      47.049  28.621  29.877  1.00  0.00    -0.354 N 
ATOM     50  N   UNL A   1      42.901  27.831  31.054  1.00  0.00    -0.248 NA
ATOM     51  C   UNL A   1      42.824  29.288  29.231  1.00  0.00     0.031 C 
ATOM     52  C   UNL A   1      47.662  26.674  30.653  1.00  0.00     0.029 A 
ATOM     53  C   UNL A   1      46.602  27.581  30.657  1.00  0.00     0.049 A 
ATOM     54  H   UNL A   1      46.789  29.567  29.961  1.00  0.00     0.167 HD
ATOM     55  C   UNL A   1      44.204  28.218  30.768  1.00  0.00     0.074 A 
ATOM     56  C   UNL A   1      44.084  29.164  29.658  1.00  0.00     0.031 C 
ATOM     57  C   UNL A   1      45.281  27.524  31.245  1.00  0.00     0.037 A 
BRANCH  44  58
ATOM     58  C   UNL A   1      47.818  29.883  27.078  1.00  0.00     0.058 A 
ATOM     59  C   UNL A   1      49.021  30.604  27.178  1.00  0.00     0.135 A 
ATOM     60  C   UNL A   1      46.672  30.646  26.751  1.00  0.00     0.135 A 
ATOM     61  F   UNL A   1      50.162  29.984  27.517  1.00  0.00    -0.206 F 
ATOM     62  C   UNL A   1      49.073  31.988  27.008  1.00  0.00     0.059 A 
ATOM     63  C   UNL A   1      46.711  32.011  26.517  1.00  0.00     0.059 A 
ATOM     64  F   UNL A   1      45.439  30.125  26.740  1.00  0.00    -0.206 F 
ATOM     65  C   UNL A   1      47.909  32.682  26.682  1.00  0.00     0.060 A 
BRANCH  65  66
ATOM     66  S   UNL A   1      47.955  34.474  26.533  1.00  0.00     0.124 S 
ATOM     67  O   UNL A   1      47.605  34.657  25.130  1.00  0.00    -0.237 OA
ATOM     68  O   UNL A   1      46.945  34.880  27.506  1.00  0.00    -0.237 OA
ATOM     69  O   UNL A   1      49.330  34.805  26.892  1.00  0.00    -0.744 OA
ENDBRANCH  65  66
ENDBRANCH  44  58
BRANCH  45  70
ATOM     70  C   UNL A   1      39.766  27.996  29.075  1.00  0.00     0.058 A 
ATOM     71  C   UNL A   1      38.729  28.019  30.028  1.00  0.00     0.135 A 
ATOM     72  C   UNL A   1      39.544  28.765  27.912  1.00  0.00     0.135 A 
ATOM     73  F   UNL A   1      38.854  27.335  31.176  1.00  0.00    -0.206 F 
ATOM     74  C   UNL A   1      37.571  28.794  29.861  1.00  0.00     0.059 A 
ATOM     75  C   UNL A   1      38.397  29.533  27.720  1.00  0.00     0.059 A 
ATOM     76  F   UNL A   1      40.479  28.873  26.958  1.00  0.00    -0.206 F 
ATOM     77  C   UNL A   1      37.425  29.566  28.710  1.00  0.00     0.060 A 
BRANCH  77  78
ATOM     78  S   UNL A   1      36.030  30.709  28.558  1.00  0.00     0.124 S 
ATOM     79  O   UNL A   1      35.749  31.029  29.953  1.00  0.00    -0.237 OA
ATOM     80  O   UNL A   1      36.600  31.788  27.758  1.00  0.00    -0.237 OA
ATOM     81  O   UNL A   1      35.010  29.911  27.884  1.00  0.00    -0.744 OA
ENDBRANCH  77  78
ENDBRANCH  45  70
BRANCH  57  82
ATOM     82  C   UNL A   1      45.059  26.470  32.303  1.00  0.00     0.058 A 
ATOM     83  C   UNL A   1      44.637  25.151  32.047  1.00  0.00     0.135 A 
ATOM     84  C   UNL A   1      45.459  26.764  33.616  1.00  0.00     0.135 A 
ATOM     85  F   UNL A   1      44.342  24.751  30.802  1.00  0.00    -0.206 F 
ATOM     86  C   UNL A   1      44.575  24.187  33.058  1.00  0.00     0.059 A 
ATOM     87  C   UNL A   1      45.437  25.810  34.631  1.00  0.00     0.059 A 
ATOM     88  F   UNL A   1      45.933  27.984  33.917  1.00  0.00    -0.206 F 
ATOM     89  C   UNL A   1      44.979  24.527  34.348  1.00  0.00     0.060 A 
BRANCH  89  90
ATOM     90  S   UNL A   1      44.959  23.267  35.643  1.00  0.00     0.124 S 
ATOM     91  O   UNL A   1      44.071  23.862  36.636  1.00  0.00    -0.237 OA
ATOM     92  O   UNL A   1      44.435  22.098  34.942  1.00  0.00    -0.237 OA
ATOM     93  O   UNL A   1      46.361  23.166  36.042  1.00  0.00    -0.744 OA
ENDBRANCH  89  90
ENDBRANCH  57  82
ENDBRANCH  31  32
ENDBRANCH  24  26
ENDBRANCH  23  24
ENDBRANCH  22  23
ENDBRANCH  21  22
ENDBRANCH   1  21
TORSDOF 20
ENDMDL
MODEL 2
REMARK VINA RESULT:     -10.5      1.482      2.439
REMARK SMILES COc1ncccc1Cn1ccc(C(=O)OCCOCCOC(=O)c2ccc(-c3c4nc(c(-c5c(F)cc(S(=O)(=O)[O-])cc5F)c5ccc([nH]5)c(-c5c(F)cc(S(=O)(=O)[O-])cc5F)c5nc(c(-c6c(F)cc(S(=O)(=O)[O-])cc6F)c6ccc3[nH]6)C=C5)C=C4)cc2)n1
REMARK SMILES IDX 19 1 18 2 17 3 16 4 14 5 15 6 13 7 10 8 11 9 91 10 12 11
REMARK SMILES IDX 9 12 8 13 3 14 4 15 5 16 7 17 6 18 2 19 1 20 20 21 21 22
REMARK SMILES IDX 22 23 23 24 24 25 25 26 26 27 90 28 27 29 89 30 28 31 29 32
REMARK SMILES IDX 30 33 83 34 31 35 88 36 82 37 84 38 32 39 87 40 81 41 80 42
REMARK SMILES IDX 33 44 67 45 46 46 66 47 47 48 50 49 65 50 85 51 48 52 49 53
REMARK SMILES IDX 64 55 86 56 51 57 34 58 35 59 44 60 36 61 37 62 43 63 45 64
REMARK SMILES IDX 38 65 39 66 40 67 41 68 42 69 68 70 69 71 78 72 70 73 71 74
REMARK SMILES IDX 77 75 79 76 72 77 73 78 74 79 75 80 76 81 52 82 53 83 62 84
REMARK SMILES IDX 54 85 55 86 61 87 63 88 56 89 57 90 58 91 59 92 60 93
REMARK H PARENT 84 43 50 54
REMARK Flexibility Score: inf
ROOT
ATOM      1  O   UNL A   1      42.138  20.492  26.809  1.00  0.00    -0.374 OA
ENDROOT
BRANCH   1   2
ATOM      2  C   UNL A   1      41.224  21.213  25.977  1.00  0.00     0.202 C 
BRANCH   2   3
ATOM      3  C   UNL A   1      39.854  21.565  26.574  1.00  0.00     0.261 C 
BRANCH   3   4
ATOM      4  O   UNL A   1      38.827  21.598  25.569  1.00  0.00    -0.458 OA
BRANCH   4   5
ATOM      5  C   UNL A   1      37.906  22.603  25.677  1.00  0.00     0.358 C 
ATOM      6  O   UNL A   1      38.178  23.781  25.882  1.00  0.00    -0.244 OA
BRANCH   5   7
ATOM      7  C   UNL A   1      36.577  22.159  25.243  1.00  0.00     0.170 A 
ATOM      8  N   UNL A   1      34.523  22.154  24.675  1.00  0.00    -0.267 N 
ATOM      9  C   UNL A   1      34.815  20.847  24.951  1.00  0.00     0.110 A 
ATOM     10  N   UNL A   1      35.552  22.985  24.972  1.00  0.00    -0.165 NA
ATOM     11  C   UNL A   1      36.173  20.801  25.136  1.00  0.00     0.057 A 
BRANCH   8  12
ATOM     12  C   UNL A   1      33.363  22.706  23.968  1.00  0.00     0.185 C 
BRANCH  12  13
ATOM     13  C   UNL A   1      32.262  23.198  24.861  1.00  0.00     0.036 A 
ATOM     14  C   UNL A   1      31.903  24.545  24.953  1.00  0.00     0.218 A 
ATOM     15  N   UNL A   1      30.887  24.997  25.720  1.00  0.00    -0.222 NA
ATOM     16  C   UNL A   1      30.223  24.081  26.465  1.00  0.00     0.115 A 
ATOM     17  C   UNL A   1      31.558  22.287  25.662  1.00  0.00     0.013 A 
ATOM     18  C   UNL A   1      30.540  22.735  26.493  1.00  0.00     0.021 A 
BRANCH  14  19
ATOM     19  O   UNL A   1      32.752  25.525  24.499  1.00  0.00    -0.481 OA
ATOM     20  C   UNL A   1      32.228  26.280  23.416  1.00  0.00     0.280 C 
ENDBRANCH  14  19
ENDBRANCH  12  13
ENDBRANCH   8  12
ENDBRANCH   5   7
ENDBRANCH   4   5
ENDBRANCH   3   4
ENDBRANCH   2   3
ENDBRANCH   1   2
BRANCH   1  21
ATOM     21  C   UNL A   1      42.448  19.146  26.477  1.00  0.00     0.202 C 
BRANCH  21  22
ATOM     22  C   UNL A   1      43.417  18.878  25.336  1.00  0.00     0.261 C 
BRANCH  22  23
ATOM     23  O   UNL A   1      43.626  20.034  24.539  1.00  0.00    -0.460 OA
BRANCH  23  24
ATOM     24  C   UNL A   1      44.914  20.422  24.465  1.00  0.00     0.338 C 
ATOM     25  O   UNL A   1      45.896  19.700  24.330  1.00  0.00    -0.246 OA
BRANCH  24  26
ATOM     26  C   UNL A   1      44.983  21.854  24.748  1.00  0.00     0.060 A 
ATOM     27  C   UNL A   1      45.919  22.246  25.707  1.00  0.00     0.016 A 
ATOM     28  C   UNL A   1      43.961  22.711  24.306  1.00  0.00     0.016 A 
ATOM     29  C   UNL A   1      45.691  23.415  26.390  1.00  0.00     0.010 A 
ATOM     30  C   UNL A   1      43.731  23.875  24.997  1.00  0.00     0.010 A 
ATOM     31  C   UNL A   1      44.547  24.163  26.085  1.00  0.00    -0.014 A 
BRANCH  31  32
ATOM     32  C   UNL A   1      44.297  25.346  26.872  1.00  0.00     0.031 A 
ATOM     33  C   UNL A   1      45.341  26.372  26.666  1.00  0.00     0.074 A 
ATOM     34  C   UNL A   1      43.197  25.502  27.630  1.00  0.00     0.049 A 
ATOM     35  N   UNL A   1      46.256  26.730  27.502  1.00  0.00    -0.248 NA
ATOM     36  C   UNL A   1      45.533  26.890  25.301  1.00  0.00     0.031 C 
ATOM     37  C   UNL A   1      42.007  24.653  27.704  1.00  0.00     0.029 A 
ATOM     38  N   UNL A   1      42.881  26.537  28.450  1.00  0.00    -0.354 N 
ATOM     39  C   UNL A   1      46.979  27.716  26.846  1.00  0.00     0.074 A 
ATOM     40  C   UNL A   1      46.646  27.608  25.450  1.00  0.00     0.031 C 
ATOM     41  C   UNL A   1      41.018  25.328  28.335  1.00  0.00     0.029 A 
ATOM     42  C   UNL A   1      41.540  26.596  28.816  1.00  0.00     0.049 A 
ATOM     43  H   UNL A   1      43.547  27.194  28.759  1.00  0.00     0.167 HD
ATOM     44  C   UNL A   1      47.562  28.727  27.543  1.00  0.00     0.037 A 
ATOM     45  C   UNL A   1      40.922  27.666  29.382  1.00  0.00     0.037 A 
ATOM     46  C   UNL A   1      47.729  28.379  28.932  1.00  0.00     0.049 A 
ATOM     47  C   UNL A   1      41.995  28.495  30.010  1.00  0.00     0.074 A 
ATOM     48  C   UNL A   1      48.361  27.335  29.585  1.00  0.00     0.029 A 
ATOM     49  N   UNL A   1      46.847  28.909  29.845  1.00  0.00    -0.354 N 
ATOM     50  N   UNL A   1      42.707  28.094  31.031  1.00  0.00    -0.248 NA
ATOM     51  C   UNL A   1      42.617  29.527  29.189  1.00  0.00     0.031 C 
ATOM     52  C   UNL A   1      47.479  26.977  30.645  1.00  0.00     0.029 A 
ATOM     53  C   UNL A   1      46.410  27.875  30.637  1.00  0.00     0.049 A 
ATOM     54  H   UNL A   1      46.579  29.853  29.916  1.00  0.00     0.167 HD
ATOM     55  C   UNL A   1      44.006  28.490  30.740  1.00  0.00     0.074 A 
ATOM     56  C   UNL A   1      43.878  29.420  29.618  1.00  0.00     0.031 C 
ATOM     57  C   UNL A   1      45.090  27.812  31.226  1.00  0.00     0.037 A 
BRANCH  44  58
ATOM     58  C   UNL A   1      47.606  30.142  27.031  1.00  0.00     0.058 A 
ATOM     59  C   UNL A   1      48.816  30.858  27.072  1.00  0.00     0.135 A 
ATOM     60  C   UNL A   1      46.451  30.908  26.743  1.00  0.00     0.135 A 
ATOM     61  F   UNL A   1      49.967  30.235  27.369  1.00  0.00    -0.206 F 
ATOM     62  C   UNL A   1      48.868  32.239  26.884  1.00  0.00     0.059 A 
ATOM     63  C   UNL A   1      46.488  32.271  26.492  1.00  0.00     0.059 A 
ATOM     64  F   UNL A   1      45.215  30.395  26.789  1.00  0.00    -0.206 F 
ATOM     65  C   UNL A   1      47.695  32.936  26.600  1.00  0.00     0.060 A 
BRANCH  65  66
ATOM     66  S   UNL A   1      47.744  34.726  26.429  1.00  0.00     0.124 S 
ATOM     67  O   UNL A   1      46.388  35.011  25.976  1.00  0.00    -0.237 OA
ATOM     68  O   UNL A   1      48.069  35.147  27.788  1.00  0.00    -0.237 OA
ATOM     69  O   UNL A   1      48.799  34.940  25.444  1.00  0.00    -0.744 OA
ENDBRANCH  65  66
ENDBRANCH  44  58
BRANCH  45  70
ATOM     70  C   UNL A   1      39.571  28.205  29.048  1.00  0.00     0.058 A 
ATOM     71  C   UNL A   1      38.535  28.235  30.003  1.00  0.00     0.135 A 
ATOM     72  C   UNL A   1      39.341  28.951  27.873  1.00  0.00     0.135 A 
ATOM     73  F   UNL A   1      38.669  27.573  31.162  1.00  0.00    -0.206 F 
ATOM     74  C   UNL A   1      37.371  28.997  29.825  1.00  0.00     0.059 A 
ATOM     75  C   UNL A   1      38.187  29.706  27.669  1.00  0.00     0.059 A 
ATOM     76  F   UNL A   1      40.274  29.050  26.915  1.00  0.00    -0.206 F 
ATOM     77  C   UNL A   1      37.216  29.748  28.660  1.00  0.00     0.060 A 
BRANCH  77  78
ATOM     78  S   UNL A   1      35.812  30.877  28.490  1.00  0.00     0.124 S 
ATOM     79  O   UNL A   1      35.465  31.139  29.883  1.00  0.00    -0.237 OA
ATOM     80  O   UNL A   1      36.400  31.994  27.758  1.00  0.00    -0.237 OA
ATOM     81  O   UNL A   1      34.835  30.091  27.742  1.00  0.00    -0.744 OA
ENDBRANCH  77  78
ENDBRANCH  45  70
BRANCH  57  82
ATOM     82  C   UNL A   1      44.877  26.769  32.297  1.00  0.00     0.058 A 
ATOM     83  C   UNL A   1      44.751  27.044  33.672  1.00  0.00     0.135 A 
ATOM     84  C   UNL A   1      44.618  25.451  31.888  1.00  0.00     0.135 A 
ATOM     85  F   UNL A   1      44.873  28.295  34.139  1.00  0.00    -0.206 F 
ATOM     86  C   UNL A   1      44.427  26.048  34.597  1.00  0.00     0.059 A 
ATOM     87  C   UNL A   1      44.261  24.451  32.788  1.00  0.00     0.059 A 
ATOM     88  F   UNL A   1      44.657  25.133  30.584  1.00  0.00    -0.206 F 
ATOM     89  C   UNL A   1      44.182  24.752  34.144  1.00  0.00     0.060 A 
BRANCH  89  90
ATOM     90  S   UNL A   1      43.701  23.475  35.329  1.00  0.00     0.124 S 
ATOM     91  O   UNL A   1      44.417  23.889  36.531  1.00  0.00    -0.237 OA
ATOM     92  O   UNL A   1      42.249  23.615  35.375  1.00  0.00    -0.237 OA
ATOM     93  O   UNL A   1      44.180  22.240  34.713  1.00  0.00    -0.744 OA
ENDBRANCH  89  90
ENDBRANCH  57  82
ENDBRANCH  31  32
ENDBRANCH  24  26
ENDBRANCH  23  24
ENDBRANCH  22  23
ENDBRANCH  21  22
ENDBRANCH   1  21
TORSDOF 20
ENDMDL
MODEL 3
REMARK VINA RESULT:      -9.7      5.001     12.478
REMARK SMILES COc1ncccc1Cn1ccc(C(=O)OCCOCCOC(=O)c2ccc(-c3c4nc(c(-c5c(F)cc(S(=O)(=O)[O-])cc5F)c5ccc([nH]5)c(-c5c(F)cc(S(=O)(=O)[O-])cc5F)c5nc(c(-c6c(F)cc(S(=O)(=O)[O-])cc6F)c6ccc3[nH]6)C=C5)C=C4)cc2)n1
REMARK SMILES IDX 19 1 18 2 17 3 16 4 14 5 15 6 13 7 10 8 11 9 91 10 12 11
REMARK SMILES IDX 9 12 8 13 3 14 4 15 5 16 7 17 6 18 2 19 1 20 20 21 21 22
REMARK SMILES IDX 22 23 23 24 24 25 25 26 26 27 90 28 27 29 89 30 28 31 29 32
REMARK SMILES IDX 30 33 83 34 31 35 88 36 82 37 84 38 32 39 87 40 81 41 80 42
REMARK SMILES IDX 33 44 67 45 46 46 66 47 47 48 50 49 65 50 85 51 48 52 49 53
REMARK SMILES IDX 64 55 86 56 51 57 34 58 35 59 44 60 36 61 37 62 43 63 45 64
REMARK SMILES IDX 38 65 39 66 40 67 41 68 42 69 68 70 69 71 78 72 70 73 71 74
REMARK SMILES IDX 77 75 79 76 72 77 73 78 74 79 75 80 76 81 52 82 53 83 62 84
REMARK SMILES IDX 54 85 55 86 61 87 63 88 56 89 57 90 58 91 59 92 60 93
REMARK H PARENT 84 43 50 54
REMARK Flexibility Score: inf
ROOT
ATOM      1  O   UNL A   1      33.784  36.349  30.915  1.00  0.00    -0.374 OA
ENDROOT
BRANCH   1   2
ATOM      2  C   UNL A   1      33.207  35.835  32.120  1.00  0.00     0.202 C 
BRANCH   2   3
ATOM      3  C   UNL A   1      34.033  35.964  33.407  1.00  0.00     0.261 C 
BRANCH   3   4
ATOM      4  O   UNL A   1      35.358  35.431  33.246  1.00  0.00    -0.458 OA
BRANCH   4   5
ATOM      5  C   UNL A   1      35.632  34.275  33.922  1.00  0.00     0.358 C 
ATOM      6  O   UNL A   1      34.785  33.508  34.368  1.00  0.00    -0.244 OA
BRANCH   5   7
ATOM      7  C   UNL A   1      37.049  33.912  33.810  1.00  0.00     0.170 A 
ATOM      8  N   UNL A   1      39.153  34.019  33.488  1.00  0.00    -0.267 N 
ATOM      9  C   UNL A   1      38.860  32.684  33.462  1.00  0.00     0.110 A 
ATOM     10  N   UNL A   1      38.040  34.789  33.571  1.00  0.00    -0.165 NA
ATOM     11  C   UNL A   1      37.550  32.583  33.853  1.00  0.00     0.057 A 
BRANCH   8  12
ATOM     12  C   UNL A   1      40.461  34.671  33.612  1.00  0.00     0.185 C 
BRANCH  12  13
ATOM     13  C   UNL A   1      41.233  34.775  32.330  1.00  0.00     0.036 A 
ATOM     14  C   UNL A   1      42.552  35.232  32.272  1.00  0.00     0.218 A 
ATOM     15  N   UNL A   1      43.273  35.291  31.131  1.00  0.00    -0.222 NA
ATOM     16  C   UNL A   1      42.646  34.926  29.987  1.00  0.00     0.115 A 
ATOM     17  C   UNL A   1      40.619  34.422  31.119  1.00  0.00     0.013 A 
ATOM     18  C   UNL A   1      41.326  34.519  29.928  1.00  0.00     0.021 A 
BRANCH  14  19
ATOM     19  O   UNL A   1      43.096  35.926  33.324  1.00  0.00    -0.481 OA
ATOM     20  C   UNL A   1      43.731  37.139  32.944  1.00  0.00     0.280 C 
ENDBRANCH  14  19
ENDBRANCH  12  13
ENDBRANCH   8  12
ENDBRANCH   5   7
ENDBRANCH   4   5
ENDBRANCH   3   4
ENDBRANCH   2   3
ENDBRANCH   1   2
BRANCH   1  21
ATOM     21  C   UNL A   1      34.067  35.448  29.854  1.00  0.00     0.202 C 
BRANCH  21  22
ATOM     22  C   UNL A   1      33.696  33.982  30.019  1.00  0.00     0.261 C 
BRANCH  22  23
ATOM     23  O   UNL A   1      34.687  33.124  29.477  1.00  0.00    -0.460 OA
BRANCH  23  24
ATOM     24  C   UNL A   1      35.171  32.222  30.354  1.00  0.00     0.338 C 
ATOM     25  O   UNL A   1      34.766  32.008  31.491  1.00  0.00    -0.246 OA
BRANCH  24  26
ATOM     26  C   UNL A   1      36.391  31.642  29.797  1.00  0.00     0.060 A 
ATOM     27  C   UNL A   1      36.457  30.248  29.782  1.00  0.00     0.016 A 
ATOM     28  C   UNL A   1      37.524  32.446  29.589  1.00  0.00     0.016 A 
ATOM     29  C   UNL A   1      37.697  29.660  29.788  1.00  0.00     0.010 A 
ATOM     30  C   UNL A   1      38.764  31.856  29.603  1.00  0.00     0.010 A 
ATOM     31  C   UNL A   1      38.833  30.481  29.793  1.00  0.00    -0.014 A 
BRANCH  31  32
ATOM     32  C   UNL A   1      40.120  29.834  29.874  1.00  0.00     0.031 A 
ATOM     33  C   UNL A   1      40.545  29.631  31.275  1.00  0.00     0.074 A 
ATOM     34  C   UNL A   1      40.793  29.406  28.791  1.00  0.00     0.049 A 
ATOM     35  N   UNL A   1      41.482  30.257  31.903  1.00  0.00    -0.248 NA
ATOM     36  C   UNL A   1      39.682  28.810  32.141  1.00  0.00     0.031 C 
ATOM     37  C   UNL A   1      40.345  29.345  27.399  1.00  0.00     0.029 A 
ATOM     38  N   UNL A   1      42.025  28.838  28.738  1.00  0.00    -0.354 N 
ATOM     39  C   UNL A   1      41.492  29.710  33.177  1.00  0.00     0.074 A 
ATOM     40  C   UNL A   1      40.244  29.011  33.333  1.00  0.00     0.031 C 
ATOM     41  C   UNL A   1      41.195  28.563  26.692  1.00  0.00     0.029 A 
ATOM     42  C   UNL A   1      42.304  28.175  27.547  1.00  0.00     0.049 A 
ATOM     43  H   UNL A   1      42.668  28.891  29.481  1.00  0.00     0.167 HD
ATOM     44  C   UNL A   1      42.648  29.627  33.887  1.00  0.00     0.037 A 
ATOM     45  C   UNL A   1      43.328  27.303  27.350  1.00  0.00     0.037 A 
ATOM     46  C   UNL A   1      43.638  30.547  33.385  1.00  0.00     0.049 A 
ATOM     47  C   UNL A   1      44.350  27.603  28.397  1.00  0.00     0.074 A 
ATOM     48  C   UNL A   1      43.656  31.917  33.188  1.00  0.00     0.029 A 
ATOM     49  N   UNL A   1      44.652  30.047  32.602  1.00  0.00    -0.354 N 
ATOM     50  N   UNL A   1      45.027  28.721  28.441  1.00  0.00    -0.248 NA
ATOM     51  C   UNL A   1      44.242  26.895  29.668  1.00  0.00     0.031 C 
ATOM     52  C   UNL A   1      44.317  32.101  31.939  1.00  0.00     0.029 A 
ATOM     53  C   UNL A   1      44.744  30.850  31.491  1.00  0.00     0.049 A 
ATOM     54  H   UNL A   1      45.208  29.259  32.800  1.00  0.00     0.167 HD
ATOM     55  C   UNL A   1      45.054  29.072  29.784  1.00  0.00     0.074 A 
ATOM     56  C   UNL A   1      44.603  27.878  30.498  1.00  0.00     0.031 C 
ATOM     57  C   UNL A   1      45.147  30.377  30.184  1.00  0.00     0.037 A 
BRANCH  44  58
ATOM     58  C   UNL A   1      42.979  28.446  34.759  1.00  0.00     0.058 A 
ATOM     59  C   UNL A   1      43.397  28.659  36.085  1.00  0.00     0.135 A 
ATOM     60  C   UNL A   1      43.152  27.131  34.267  1.00  0.00     0.135 A 
ATOM     61  F   UNL A   1      43.310  29.877  36.641  1.00  0.00    -0.206 F 
ATOM     62  C   UNL A   1      43.984  27.650  36.849  1.00  0.00     0.059 A 
ATOM     63  C   UNL A   1      43.675  26.097  35.028  1.00  0.00     0.059 A 
ATOM     64  F   UNL A   1      42.916  26.803  32.990  1.00  0.00    -0.206 F 
ATOM     65  C   UNL A   1      44.122  26.373  36.308  1.00  0.00     0.060 A 
BRANCH  65  66
ATOM     66  S   UNL A   1      44.942  25.087  37.260  1.00  0.00     0.124 S 
ATOM     67  O   UNL A   1      44.508  23.885  36.559  1.00  0.00    -0.237 OA
ATOM     68  O   UNL A   1      46.347  25.449  37.104  1.00  0.00    -0.237 OA
ATOM     69  O   UNL A   1      44.401  25.268  38.603  1.00  0.00    -0.744 OA
ENDBRANCH  65  66
ENDBRANCH  44  58
BRANCH  45  70
ATOM     70  C   UNL A   1      43.276  26.005  26.614  1.00  0.00     0.058 A 
ATOM     71  C   UNL A   1      44.042  25.787  25.452  1.00  0.00     0.135 A 
ATOM     72  C   UNL A   1      42.686  24.856  27.182  1.00  0.00     0.135 A 
ATOM     73  F   UNL A   1      44.659  26.815  24.850  1.00  0.00    -0.206 F 
ATOM     74  C   UNL A   1      44.250  24.506  24.919  1.00  0.00     0.059 A 
ATOM     75  C   UNL A   1      42.869  23.575  26.664  1.00  0.00     0.059 A 
ATOM     76  F   UNL A   1      41.983  24.923  28.322  1.00  0.00    -0.206 F 
ATOM     77  C   UNL A   1      43.675  23.402  25.547  1.00  0.00     0.060 A 
BRANCH  77  78
ATOM     78  S   UNL A   1      44.079  21.730  24.985  1.00  0.00     0.124 S 
ATOM     79  O   UNL A   1      44.299  21.936  23.558  1.00  0.00    -0.237 OA
ATOM     80  O   UNL A   1      45.264  21.415  25.775  1.00  0.00    -0.237 OA
ATOM     81  O   UNL A   1      42.885  20.961  25.326  1.00  0.00    -0.744 OA
ENDBRANCH  77  78
ENDBRANCH  45  70
BRANCH  57  82
ATOM     82  C   UNL A   1      45.479  31.432  29.157  1.00  0.00     0.058 A 
ATOM     83  C   UNL A   1      44.534  32.089  28.346  1.00  0.00     0.135 A 
ATOM     84  C   UNL A   1      46.795  31.919  29.118  1.00  0.00     0.135 A 
ATOM     85  F   UNL A   1      43.235  31.765  28.400  1.00  0.00    -0.206 F 
ATOM     86  C   UNL A   1      44.892  33.149  27.506  1.00  0.00     0.059 A 
ATOM     87  C   UNL A   1      47.166  32.994  28.315  1.00  0.00     0.059 A 
ATOM     88  F   UNL A   1      47.734  31.381  29.914  1.00  0.00    -0.206 F 
ATOM     89  C   UNL A   1      46.213  33.595  27.499  1.00  0.00     0.060 A 
BRANCH  89  90
ATOM     90  S   UNL A   1      46.666  35.004  26.462  1.00  0.00     0.124 S 
ATOM     91  O   UNL A   1      46.976  34.360  25.190  1.00  0.00    -0.237 OA
ATOM     92  O   UNL A   1      45.453  35.817  26.483  1.00  0.00    -0.237 OA
ATOM     93  O   UNL A   1      47.809  35.588  27.160  1.00  0.00    -0.744 OA
ENDBRANCH  89  90
ENDBRANCH  57  82
ENDBRANCH  31  32
ENDBRANCH  24  26
ENDBRANCH  23  24
ENDBRANCH  22  23
ENDBRANCH  21  22
ENDBRANCH   1  21
TORSDOF 20
ENDMDL
