MODEL 1
REMARK VINA RESULT:      -9.7      0.000      0.000
REMARK SMILES CC[C@H](C)[C@@H](NC(=S)Nc1ccccc1)C(=O)OCCOCCOC(=O)c1ccc(-c2c3nc(c(-c4c(F)cc(S(=O)(=O)[O-])cc4F)c4ccc([nH]4)c(-c4c(F)cc(S(=O)(=O)[O-])cc4F)c4nc(c(-c5c(F)cc(S(=O)(=O)[O-])cc5F)c5ccc2[nH]5)C=C4)C=C3)cc1
REMARK SMILES IDX 20 1 19 2 18 3 16 4 17 5 5 6 3 7 4 8 2 9 1 10 6 11 7 13 8 14
REMARK SMILES IDX 9 15 10 17 11 18 15 19 12 20 14 21 13 22 21 23 22 24 23 25
REMARK SMILES IDX 24 26 25 27 26 28 27 29 28 30 92 31 29 32 91 33 30 34 31 35
REMARK SMILES IDX 32 36 85 37 33 38 90 39 84 40 86 41 34 42 89 43 83 44 82 45
REMARK SMILES IDX 35 47 69 48 48 49 68 50 49 51 52 52 67 53 87 54 50 55 51 56
REMARK SMILES IDX 66 58 88 59 53 60 36 61 37 62 46 63 38 64 39 65 45 66 47 67
REMARK SMILES IDX 40 68 41 69 42 70 43 71 44 72 70 73 71 74 80 75 72 76 73 77
REMARK SMILES IDX 79 78 81 79 74 80 75 81 76 82 77 83 78 84 54 85 55 86 64 87
REMARK SMILES IDX 56 88 57 89 63 90 65 91 58 92 59 93 60 94 61 95 62 96
REMARK H PARENT 6 12 9 16 86 46 52 57
REMARK Flexibility Score: inf
ROOT
ATOM      1  C   UNL A   1      33.089  28.975  24.452  1.00  0.00     0.202 C 
ENDROOT
BRANCH   1   2
ATOM      2  C   UNL A   1      33.324  27.656  23.725  1.00  0.00     0.261 C 
BRANCH   2   3
ATOM      3  O   UNL A   1      33.586  26.519  24.563  1.00  0.00    -0.462 OA
BRANCH   3   4
ATOM      4  C   UNL A   1      33.799  25.344  23.919  1.00  0.00     0.328 C 
ATOM      5  O   UNL A   1      34.168  25.231  22.757  1.00  0.00    -0.250 OA
BRANCH   4   6
ATOM      6  C   UNL A   1      33.646  24.124  24.824  1.00  0.00     0.194 C 
BRANCH   6   7
ATOM      7  C   UNL A   1      32.113  23.924  25.090  1.00  0.00     0.019 C 
ATOM      8  C   UNL A   1      31.416  23.128  23.976  1.00  0.00     0.010 C 
BRANCH   7   9
ATOM      9  C   UNL A   1      31.829  23.200  26.436  1.00  0.00     0.002 C 
ATOM     10  C   UNL A   1      30.349  23.225  26.809  1.00  0.00     0.004 C 
ENDBRANCH   7   9
ENDBRANCH   6   7
BRANCH   6  11
ATOM     11  N   UNL A   1      34.272  22.930  24.227  1.00  0.00    -0.349 N 
ATOM     12  H   UNL A   1      34.303  22.968  23.244  1.00  0.00     0.163 HD
BRANCH  11  13
ATOM     13  C   UNL A   1      34.811  21.800  24.720  1.00  0.00     0.171 C 
ATOM     14  S   UNL A   1      36.438  21.872  25.120  1.00  0.00    -0.041 S 
BRANCH  13  15
ATOM     15  N   UNL A   1      34.134  20.699  25.095  1.00  0.00    -0.333 N 
ATOM     16  H   UNL A   1      33.756  20.780  26.001  1.00  0.00     0.169 HD
BRANCH  15  17
ATOM     17  C   UNL A   1      33.840  19.465  24.500  1.00  0.00     0.040 A 
ATOM     18  C   UNL A   1      32.628  19.361  23.803  1.00  0.00     0.026 A 
ATOM     19  C   UNL A   1      34.685  18.361  24.566  1.00  0.00     0.026 A 
ATOM     20  C   UNL A   1      32.361  18.238  23.015  1.00  0.00     0.002 A 
ATOM     21  C   UNL A   1      34.396  17.217  23.810  1.00  0.00     0.002 A 
ATOM     22  C   UNL A   1      33.259  17.176  23.000  1.00  0.00     0.000 A 
ENDBRANCH  15  17
ENDBRANCH  13  15
ENDBRANCH  11  13
ENDBRANCH   6  11
ENDBRANCH   4   6
ENDBRANCH   3   4
ENDBRANCH   2   3
ENDBRANCH   1   2
BRANCH   1  23
ATOM     23  O   UNL A   1      33.622  29.089  25.772  1.00  0.00    -0.374 OA
BRANCH  23  24
ATOM     24  C   UNL A   1      32.667  29.478  26.765  1.00  0.00     0.202 C 
BRANCH  24  25
ATOM     25  C   UNL A   1      32.942  30.844  27.387  1.00  0.00     0.261 C 
BRANCH  25  26
ATOM     26  O   UNL A   1      34.339  31.135  27.242  1.00  0.00    -0.460 OA
BRANCH  26  27
ATOM     27  C   UNL A   1      34.982  31.327  28.418  1.00  0.00     0.338 C 
ATOM     28  O   UNL A   1      34.561  31.928  29.393  1.00  0.00    -0.246 OA
BRANCH  27  29
ATOM     29  C   UNL A   1      36.196  30.480  28.443  1.00  0.00     0.060 A 
ATOM     30  C   UNL A   1      36.501  29.857  29.661  1.00  0.00     0.016 A 
ATOM     31  C   UNL A   1      36.969  30.222  27.303  1.00  0.00     0.016 A 
ATOM     32  C   UNL A   1      37.630  29.057  29.772  1.00  0.00     0.010 A 
ATOM     33  C   UNL A   1      38.114  29.431  27.415  1.00  0.00     0.010 A 
ATOM     34  C   UNL A   1      38.480  28.914  28.670  1.00  0.00    -0.014 A 
BRANCH  34  35
ATOM     35  C   UNL A   1      39.893  28.572  28.939  1.00  0.00     0.031 A 
ATOM     36  C   UNL A   1      40.702  29.605  29.682  1.00  0.00     0.074 A 
ATOM     37  C   UNL A   1      40.408  27.374  28.624  1.00  0.00     0.049 A 
ATOM     38  N   UNL A   1      41.949  29.568  30.067  1.00  0.00    -0.248 NA
ATOM     39  C   UNL A   1      40.002  30.852  30.043  1.00  0.00     0.031 C 
ATOM     40  C   UNL A   1      39.689  26.289  27.958  1.00  0.00     0.029 A 
ATOM     41  N   UNL A   1      41.666  26.870  28.829  1.00  0.00    -0.354 N 
ATOM     42  C   UNL A   1      42.175  30.779  30.713  1.00  0.00     0.074 A 
ATOM     43  C   UNL A   1      40.957  31.546  30.638  1.00  0.00     0.031 C 
ATOM     44  C   UNL A   1      40.526  25.247  27.797  1.00  0.00     0.029 A 
ATOM     45  C   UNL A   1      41.842  25.604  28.328  1.00  0.00     0.049 A 
ATOM     46  H   UNL A   1      42.376  27.369  29.294  1.00  0.00     0.167 HD
ATOM     47  C   UNL A   1      43.298  31.207  31.331  1.00  0.00     0.037 A 
ATOM     48  C   UNL A   1      42.950  24.837  28.291  1.00  0.00     0.037 A 
ATOM     49  C   UNL A   1      44.507  30.436  31.388  1.00  0.00     0.049 A 
ATOM     50  C   UNL A   1      44.216  25.364  28.920  1.00  0.00     0.074 A 
ATOM     51  C   UNL A   1      45.717  30.770  31.967  1.00  0.00     0.029 A 
ATOM     52  N   UNL A   1      44.657  29.170  30.839  1.00  0.00    -0.354 N 
ATOM     53  N   UNL A   1      44.419  26.508  29.532  1.00  0.00    -0.248 NA
ATOM     54  C   UNL A   1      45.401  24.499  28.859  1.00  0.00     0.031 C 
ATOM     55  C   UNL A   1      46.613  29.724  31.727  1.00  0.00     0.029 A 
ATOM     56  C   UNL A   1      45.946  28.716  31.046  1.00  0.00     0.049 A 
ATOM     57  H   UNL A   1      43.949  28.671  30.370  1.00  0.00     0.167 HD
ATOM     58  C   UNL A   1      45.746  26.489  29.951  1.00  0.00     0.074 A 
ATOM     59  C   UNL A   1      46.293  25.215  29.531  1.00  0.00     0.031 C 
ATOM     60  C   UNL A   1      46.452  27.435  30.620  1.00  0.00     0.037 A 
BRANCH  47  61
ATOM     61  C   UNL A   1      43.268  32.575  31.951  1.00  0.00     0.058 A 
ATOM     62  C   UNL A   1      43.466  33.739  31.190  1.00  0.00     0.135 A 
ATOM     63  C   UNL A   1      43.045  32.725  33.329  1.00  0.00     0.135 A 
ATOM     64  F   UNL A   1      43.716  33.651  29.874  1.00  0.00    -0.206 F 
ATOM     65  C   UNL A   1      43.465  35.000  31.776  1.00  0.00     0.059 A 
ATOM     66  C   UNL A   1      43.014  33.978  33.932  1.00  0.00     0.059 A 
ATOM     67  F   UNL A   1      42.867  31.644  34.106  1.00  0.00    -0.206 F 
ATOM     68  C   UNL A   1      43.237  35.109  33.149  1.00  0.00     0.060 A 
BRANCH  68  69
ATOM     69  S   UNL A   1      43.232  36.753  33.895  1.00  0.00     0.124 S 
ATOM     70  O   UNL A   1      41.893  36.804  34.476  1.00  0.00    -0.237 OA
ATOM     71  O   UNL A   1      44.333  36.667  34.848  1.00  0.00    -0.237 OA
ATOM     72  O   UNL A   1      43.456  37.642  32.759  1.00  0.00    -0.744 OA
ENDBRANCH  68  69
ENDBRANCH  47  61
BRANCH  48  73
ATOM     73  C   UNL A   1      42.916  23.507  27.624  1.00  0.00     0.058 A 
ATOM     74  C   UNL A   1      43.354  23.338  26.302  1.00  0.00     0.135 A 
ATOM     75  C   UNL A   1      42.444  22.371  28.302  1.00  0.00     0.135 A 
ATOM     76  F   UNL A   1      43.805  24.393  25.606  1.00  0.00    -0.206 F 
ATOM     77  C   UNL A   1      43.313  22.098  25.672  1.00  0.00     0.059 A 
ATOM     78  C   UNL A   1      42.417  21.116  27.703  1.00  0.00     0.059 A 
ATOM     79  F   UNL A   1      42.020  22.474  29.571  1.00  0.00    -0.206 F 
ATOM     80  C   UNL A   1      42.845  20.990  26.383  1.00  0.00     0.060 A 
BRANCH  80  81
ATOM     81  S   UNL A   1      42.843  19.376  25.574  1.00  0.00     0.124 S 
ATOM     82  O   UNL A   1      43.612  19.651  24.365  1.00  0.00    -0.237 OA
ATOM     83  O   UNL A   1      43.498  18.533  26.570  1.00  0.00    -0.237 OA
ATOM     84  O   UNL A   1      41.424  19.104  25.370  1.00  0.00    -0.744 OA
ENDBRANCH  80  81
ENDBRANCH  48  73
BRANCH  60  85
ATOM     85  C   UNL A   1      47.878  27.116  30.969  1.00  0.00     0.058 A 
ATOM     86  C   UNL A   1      48.213  26.427  32.144  1.00  0.00     0.135 A 
ATOM     87  C   UNL A   1      48.914  27.442  30.078  1.00  0.00     0.135 A 
ATOM     88  F   UNL A   1      47.259  26.094  33.028  1.00  0.00    -0.206 F 
ATOM     89  C   UNL A   1      49.531  26.092  32.435  1.00  0.00     0.059 A 
ATOM     90  C   UNL A   1      50.234  27.092  30.335  1.00  0.00     0.059 A 
ATOM     91  F   UNL A   1      48.642  28.087  28.931  1.00  0.00    -0.206 F 
ATOM     92  C   UNL A   1      50.533  26.427  31.523  1.00  0.00     0.060 A 
BRANCH  92  93
ATOM     93  S   UNL A   1      52.235  25.956  31.898  1.00  0.00     0.124 S 
ATOM     94  O   UNL A   1      52.598  26.946  32.905  1.00  0.00    -0.237 OA
ATOM     95  O   UNL A   1      52.081  24.587  32.379  1.00  0.00    -0.237 OA
ATOM     96  O   UNL A   1      52.914  26.089  30.612  1.00  0.00    -0.744 OA
ENDBRANCH  92  93
ENDBRANCH  60  85
ENDBRANCH  34  35
ENDBRANCH  27  29
ENDBRANCH  26  27
ENDBRANCH  25  26
ENDBRANCH  24  25
ENDBRANCH  23  24
ENDBRANCH   1  23
TORSDOF 23
ENDMDL
MODEL 2
REMARK VINA RESULT:      -9.4      3.502      9.133
REMARK SMILES CC[C@H](C)[C@@H](NC(=S)Nc1ccccc1)C(=O)OCCOCCOC(=O)c1ccc(-c2c3nc(c(-c4c(F)cc(S(=O)(=O)[O-])cc4F)c4ccc([nH]4)c(-c4c(F)cc(S(=O)(=O)[O-])cc4F)c4nc(c(-c5c(F)cc(S(=O)(=O)[O-])cc5F)c5ccc2[nH]5)C=C4)C=C3)cc1
REMARK SMILES IDX 20 1 19 2 18 3 16 4 17 5 5 6 3 7 4 8 2 9 1 10 6 11 7 13 8 14
REMARK SMILES IDX 9 15 10 17 11 18 15 19 12 20 14 21 13 22 21 23 22 24 23 25
REMARK SMILES IDX 24 26 25 27 26 28 27 29 28 30 92 31 29 32 91 33 30 34 31 35
REMARK SMILES IDX 32 36 85 37 33 38 90 39 84 40 86 41 34 42 89 43 83 44 82 45
REMARK SMILES IDX 35 47 69 48 48 49 68 50 49 51 52 52 67 53 87 54 50 55 51 56
REMARK SMILES IDX 66 58 88 59 53 60 36 61 37 62 46 63 38 64 39 65 45 66 47 67
REMARK SMILES IDX 40 68 41 69 42 70 43 71 44 72 70 73 71 74 80 75 72 76 73 77
REMARK SMILES IDX 79 78 81 79 74 80 75 81 76 82 77 83 78 84 54 85 55 86 64 87
REMARK SMILES IDX 56 88 57 89 63 90 65 91 58 92 59 93 60 94 61 95 62 96
REMARK H PARENT 6 12 9 16 86 46 52 57
REMARK Flexibility Score: inf
ROOT
ATOM      1  C   UNL A   1      36.219  21.814  24.346  1.00  0.00     0.202 C 
ENDROOT
BRANCH   1   2
ATOM      2  C   UNL A   1      36.031  23.160  23.655  1.00  0.00     0.261 C 
BRANCH   2   3
ATOM      3  O   UNL A   1      34.731  23.754  23.787  1.00  0.00    -0.462 OA
BRANCH   3   4
ATOM      4  C   UNL A   1      34.471  24.356  24.975  1.00  0.00     0.328 C 
ATOM      5  O   UNL A   1      35.178  25.201  25.509  1.00  0.00    -0.250 OA
BRANCH   4   6
ATOM      6  C   UNL A   1      33.119  23.965  25.566  1.00  0.00     0.194 C 
BRANCH   6   7
ATOM      7  C   UNL A   1      32.073  25.039  25.102  1.00  0.00     0.019 C 
ATOM      8  C   UNL A   1      30.848  24.416  24.417  1.00  0.00     0.010 C 
BRANCH   7   9
ATOM      9  C   UNL A   1      31.561  25.921  26.275  1.00  0.00     0.002 C 
ATOM     10  C   UNL A   1      30.969  27.243  25.793  1.00  0.00     0.004 C 
ENDBRANCH   7   9
ENDBRANCH   6   7
BRANCH   6  11
ATOM     11  N   UNL A   1      32.733  22.598  25.168  1.00  0.00    -0.349 N 
ATOM     12  H   UNL A   1      32.333  22.563  24.268  1.00  0.00     0.163 HD
BRANCH  11  13
ATOM     13  C   UNL A   1      32.803  21.389  25.753  1.00  0.00     0.171 C 
ATOM     14  S   UNL A   1      33.604  21.328  27.225  1.00  0.00    -0.041 S 
BRANCH  13  15
ATOM     15  N   UNL A   1      32.137  20.285  25.370  1.00  0.00    -0.333 N 
ATOM     16  H   UNL A   1      31.159  20.388  25.450  1.00  0.00     0.169 HD
BRANCH  15  17
ATOM     17  C   UNL A   1      32.504  19.023  24.884  1.00  0.00     0.040 A 
ATOM     18  C   UNL A   1      32.531  18.854  23.493  1.00  0.00     0.026 A 
ATOM     19  C   UNL A   1      32.842  17.953  25.708  1.00  0.00     0.026 A 
ATOM     20  C   UNL A   1      33.082  17.698  22.933  1.00  0.00     0.002 A 
ATOM     21  C   UNL A   1      33.354  16.777  25.144  1.00  0.00     0.002 A 
ATOM     22  C   UNL A   1      33.516  16.669  23.762  1.00  0.00     0.000 A 
ENDBRANCH  15  17
ENDBRANCH  13  15
ENDBRANCH  11  13
ENDBRANCH   6  11
ENDBRANCH   4   6
ENDBRANCH   3   4
ENDBRANCH   2   3
ENDBRANCH   1   2
BRANCH   1  23
ATOM     23  O   UNL A   1      37.548  21.469  24.739  1.00  0.00    -0.374 OA
BRANCH  23  24
ATOM     24  C   UNL A   1      37.671  20.179  25.347  1.00  0.00     0.202 C 
BRANCH  24  25
ATOM     25  C   UNL A   1      39.082  19.602  25.295  1.00  0.00     0.261 C 
BRANCH  25  26
ATOM     26  O   UNL A   1      39.932  20.406  26.125  1.00  0.00    -0.460 OA
BRANCH  26  27
ATOM     27  C   UNL A   1      41.211  19.968  26.186  1.00  0.00     0.338 C 
ATOM     28  O   UNL A   1      41.617  18.852  25.905  1.00  0.00    -0.246 OA
BRANCH  27  29
ATOM     29  C   UNL A   1      42.104  21.128  26.413  1.00  0.00     0.060 A 
ATOM     30  C   UNL A   1      42.321  21.500  27.747  1.00  0.00     0.016 A 
ATOM     31  C   UNL A   1      42.783  21.781  25.376  1.00  0.00     0.016 A 
ATOM     32  C   UNL A   1      43.134  22.586  28.045  1.00  0.00     0.010 A 
ATOM     33  C   UNL A   1      43.588  22.883  25.671  1.00  0.00     0.010 A 
ATOM     34  C   UNL A   1      43.699  23.326  27.000  1.00  0.00    -0.014 A 
BRANCH  34  35
ATOM     35  C   UNL A   1      44.053  24.734  27.278  1.00  0.00     0.031 A 
ATOM     36  C   UNL A   1      45.498  25.115  27.073  1.00  0.00     0.074 A 
ATOM     37  C   UNL A   1      43.127  25.650  27.605  1.00  0.00     0.049 A 
ATOM     38  N   UNL A   1      46.083  26.272  27.221  1.00  0.00    -0.248 NA
ATOM     39  C   UNL A   1      46.405  24.037  26.637  1.00  0.00     0.031 C 
ATOM     40  C   UNL A   1      41.698  25.391  27.768  1.00  0.00     0.029 A 
ATOM     41  N   UNL A   1      43.259  26.990  27.854  1.00  0.00    -0.354 N 
ATOM     42  C   UNL A   1      47.418  26.058  26.894  1.00  0.00     0.074 A 
ATOM     43  C   UNL A   1      47.570  24.659  26.579  1.00  0.00     0.031 C 
ATOM     44  C   UNL A   1      41.085  26.541  28.106  1.00  0.00     0.029 A 
ATOM     45  C   UNL A   1      42.083  27.605  28.204  1.00  0.00     0.049 A 
ATOM     46  H   UNL A   1      44.118  27.468  27.788  1.00  0.00     0.167 HD
ATOM     47  C   UNL A   1      48.428  26.955  26.846  1.00  0.00     0.037 A 
ATOM     48  C   UNL A   1      41.853  28.880  28.576  1.00  0.00     0.037 A 
ATOM     49  C   UNL A   1      48.264  28.342  27.173  1.00  0.00     0.049 A 
ATOM     50  C   UNL A   1      43.009  29.850  28.589  1.00  0.00     0.074 A 
ATOM     51  C   UNL A   1      49.216  29.345  27.182  1.00  0.00     0.029 A 
ATOM     52  N   UNL A   1      47.062  28.921  27.556  1.00  0.00    -0.354 N 
ATOM     53  N   UNL A   1      44.266  29.639  28.275  1.00  0.00    -0.248 NA
ATOM     54  C   UNL A   1      42.717  31.230  29.001  1.00  0.00     0.031 C 
ATOM     55  C   UNL A   1      48.597  30.522  27.614  1.00  0.00     0.029 A 
ATOM     56  C   UNL A   1      47.250  30.264  27.823  1.00  0.00     0.049 A 
ATOM     57  H   UNL A   1      46.203  28.445  27.626  1.00  0.00     0.167 HD
ATOM     58  C   UNL A   1      44.910  30.863  28.427  1.00  0.00     0.074 A 
ATOM     59  C   UNL A   1      43.900  31.812  28.850  1.00  0.00     0.031 C 
ATOM     60  C   UNL A   1      46.216  31.180  28.235  1.00  0.00     0.037 A 
BRANCH  47  61
ATOM     61  C   UNL A   1      49.788  26.445  26.461  1.00  0.00     0.058 A 
ATOM     62  C   UNL A   1      50.698  25.965  27.418  1.00  0.00     0.135 A 
ATOM     63  C   UNL A   1      50.191  26.442  25.117  1.00  0.00     0.135 A 
ATOM     64  F   UNL A   1      50.377  25.977  28.722  1.00  0.00    -0.206 F 
ATOM     65  C   UNL A   1      51.966  25.523  27.058  1.00  0.00     0.059 A 
ATOM     66  C   UNL A   1      51.444  25.979  24.730  1.00  0.00     0.059 A 
ATOM     67  F   UNL A   1      49.367  26.905  24.163  1.00  0.00    -0.206 F 
ATOM     68  C   UNL A   1      52.330  25.533  25.710  1.00  0.00     0.060 A 
BRANCH  68  69
ATOM     69  S   UNL A   1      53.977  24.947  25.256  1.00  0.00     0.124 S 
ATOM     70  O   UNL A   1      54.297  25.823  24.132  1.00  0.00    -0.237 OA
ATOM     71  O   UNL A   1      54.739  25.182  26.478  1.00  0.00    -0.237 OA
ATOM     72  O   UNL A   1      53.757  23.545  24.916  1.00  0.00    -0.744 OA
ENDBRANCH  68  69
ENDBRANCH  47  61
BRANCH  48  73
ATOM     73  C   UNL A   1      40.485  29.305  28.983  1.00  0.00     0.058 A 
ATOM     74  C   UNL A   1      40.151  29.511  30.329  1.00  0.00     0.135 A 
ATOM     75  C   UNL A   1      39.481  29.516  28.024  1.00  0.00     0.135 A 
ATOM     76  F   UNL A   1      41.072  29.313  31.286  1.00  0.00    -0.206 F 
ATOM     77  C   UNL A   1      38.871  29.897  30.713  1.00  0.00     0.059 A 
ATOM     78  C   UNL A   1      38.200  29.927  28.381  1.00  0.00     0.059 A 
ATOM     79  F   UNL A   1      39.748  29.341  26.721  1.00  0.00    -0.206 F 
ATOM     80  C   UNL A   1      37.901  30.106  29.730  1.00  0.00     0.060 A 
BRANCH  80  81
ATOM     81  S   UNL A   1      36.257  30.656  30.234  1.00  0.00     0.124 S 
ATOM     82  O   UNL A   1      36.498  32.061  30.543  1.00  0.00    -0.237 OA
ATOM     83  O   UNL A   1      35.465  30.393  29.035  1.00  0.00    -0.237 OA
ATOM     84  O   UNL A   1      35.952  29.801  31.376  1.00  0.00    -0.744 OA
ENDBRANCH  80  81
ENDBRANCH  48  73
BRANCH  60  85
ATOM     85  C   UNL A   1      46.618  32.611  28.449  1.00  0.00     0.058 A 
ATOM     86  C   UNL A   1      47.139  33.055  29.673  1.00  0.00     0.135 A 
ATOM     87  C   UNL A   1      46.548  33.531  27.389  1.00  0.00     0.135 A 
ATOM     88  F   UNL A   1      47.226  32.214  30.716  1.00  0.00    -0.206 F 
ATOM     89  C   UNL A   1      47.556  34.370  29.847  1.00  0.00     0.059 A 
ATOM     90  C   UNL A   1      46.986  34.843  27.533  1.00  0.00     0.059 A 
ATOM     91  F   UNL A   1      46.072  33.150  26.192  1.00  0.00    -0.206 F 
ATOM     92  C   UNL A   1      47.477  35.255  28.771  1.00  0.00     0.060 A 
BRANCH  92  93
ATOM     93  S   UNL A   1      48.054  36.951  29.001  1.00  0.00     0.124 S 
ATOM     94  O   UNL A   1      48.171  37.410  27.622  1.00  0.00    -0.237 OA
ATOM     95  O   UNL A   1      46.970  37.545  29.778  1.00  0.00    -0.237 OA
ATOM     96  O   UNL A   1      49.314  36.785  29.719  1.00  0.00    -0.744 OA
ENDBRANCH  92  93
ENDBRANCH  60  85
ENDBRANCH  34  35
ENDBRANCH  27  29
ENDBRANCH  26  27
ENDBRANCH  25  26
ENDBRANCH  24  25
ENDBRANCH  23  24
ENDBRANCH   1  23
TORSDOF 23
ENDMDL
MODEL 3
REMARK VINA RESULT:      -9.3      4.412     10.454
REMARK SMILES CC[C@H](C)[C@@H](NC(=S)Nc1ccccc1)C(=O)OCCOCCOC(=O)c1ccc(-c2c3nc(c(-c4c(F)cc(S(=O)(=O)[O-])cc4F)c4ccc([nH]4)c(-c4c(F)cc(S(=O)(=O)[O-])cc4F)c4nc(c(-c5c(F)cc(S(=O)(=O)[O-])cc5F)c5ccc2[nH]5)C=C4)C=C3)cc1
REMARK SMILES IDX 20 1 19 2 18 3 16 4 17 5 5 6 3 7 4 8 2 9 1 10 6 11 7 13 8 14
REMARK SMILES IDX 9 15 10 17 11 18 15 19 12 20 14 21 13 22 21 23 22 24 23 25
REMARK SMILES IDX 24 26 25 27 26 28 27 29 28 30 92 31 29 32 91 33 30 34 31 35
REMARK SMILES IDX 32 36 85 37 33 38 90 39 84 40 86 41 34 42 89 43 83 44 82 45
REMARK SMILES IDX 35 47 69 48 48 49 68 50 49 51 52 52 67 53 87 54 50 55 51 56
REMARK SMILES IDX 66 58 88 59 53 60 36 61 37 62 46 63 38 64 39 65 45 66 47 67
REMARK SMILES IDX 40 68 41 69 42 70 43 71 44 72 70 73 71 74 80 75 72 76 73 77
REMARK SMILES IDX 79 78 81 79 74 80 75 81 76 82 77 83 78 84 54 85 55 86 64 87
REMARK SMILES IDX 56 88 57 89 63 90 65 91 58 92 59 93 60 94 61 95 62 96
REMARK H PARENT 6 12 9 16 86 46 52 57
REMARK Flexibility Score: inf
ROOT
ATOM      1  C   UNL A   1      38.531  22.300  26.138  1.00  0.00     0.202 C 
ENDROOT
BRANCH   1   2
ATOM      2  C   UNL A   1      37.509  22.416  25.012  1.00  0.00     0.261 C 
BRANCH   2   3
ATOM      3  O   UNL A   1      36.318  23.155  25.324  1.00  0.00    -0.462 OA
BRANCH   3   4
ATOM      4  C   UNL A   1      35.238  22.416  25.682  1.00  0.00     0.328 C 
ATOM      5  O   UNL A   1      34.706  22.427  26.784  1.00  0.00    -0.250 OA
BRANCH   4   6
ATOM      6  C   UNL A   1      34.642  21.620  24.523  1.00  0.00     0.194 C 
BRANCH   6   7
ATOM      7  C   UNL A   1      33.949  20.350  25.130  1.00  0.00     0.019 C 
ATOM      8  C   UNL A   1      32.452  20.275  24.794  1.00  0.00     0.010 C 
BRANCH   7   9
ATOM      9  C   UNL A   1      34.606  19.025  24.653  1.00  0.00     0.002 C 
ATOM     10  C   UNL A   1      33.588  18.046  24.075  1.00  0.00     0.004 C 
ENDBRANCH   7   9
ENDBRANCH   6   7
BRANCH   6  11
ATOM     11  N   UNL A   1      33.710  22.443  23.728  1.00  0.00    -0.349 N 
ATOM     12  H   UNL A   1      33.440  22.007  22.888  1.00  0.00     0.163 HD
BRANCH  11  13
ATOM     13  C   UNL A   1      33.147  23.653  23.890  1.00  0.00     0.171 C 
ATOM     14  S   UNL A   1      32.862  24.527  22.487  1.00  0.00    -0.041 S 
BRANCH  13  15
ATOM     15  N   UNL A   1      32.624  24.137  25.031  1.00  0.00    -0.333 N 
ATOM     16  H   UNL A   1      32.147  23.447  25.549  1.00  0.00     0.169 HD
BRANCH  15  17
ATOM     17  C   UNL A   1      32.598  25.390  25.658  1.00  0.00     0.040 A 
ATOM     18  C   UNL A   1      33.811  26.087  25.751  1.00  0.00     0.026 A 
ATOM     19  C   UNL A   1      31.441  25.963  26.177  1.00  0.00     0.026 A 
ATOM     20  C   UNL A   1      33.829  27.419  26.172  1.00  0.00     0.002 A 
ATOM     21  C   UNL A   1      31.467  27.286  26.640  1.00  0.00     0.002 A 
ATOM     22  C   UNL A   1      32.650  28.026  26.594  1.00  0.00     0.000 A 
ENDBRANCH  15  17
ENDBRANCH  13  15
ENDBRANCH  11  13
ENDBRANCH   6  11
ENDBRANCH   4   6
ENDBRANCH   3   4
ENDBRANCH   2   3
ENDBRANCH   1   2
BRANCH   1  23
ATOM     23  O   UNL A   1      39.656  21.451  25.903  1.00  0.00    -0.374 OA
BRANCH  23  24
ATOM     24  C   UNL A   1      40.924  22.061  26.165  1.00  0.00     0.202 C 
BRANCH  24  25
ATOM     25  C   UNL A   1      40.835  23.354  26.971  1.00  0.00     0.261 C 
BRANCH  25  26
ATOM     26  O   UNL A   1      41.795  24.281  26.447  1.00  0.00    -0.460 OA
BRANCH  26  27
ATOM     27  C   UNL A   1      41.324  25.544  26.319  1.00  0.00     0.338 C 
ATOM     28  O   UNL A   1      40.799  26.033  25.332  1.00  0.00    -0.246 OA
BRANCH  27  29
ATOM     29  C   UNL A   1      41.314  26.188  27.652  1.00  0.00     0.060 A 
ATOM     30  C   UNL A   1      40.121  26.099  28.383  1.00  0.00     0.016 A 
ATOM     31  C   UNL A   1      42.449  26.783  28.219  1.00  0.00     0.016 A 
ATOM     32  C   UNL A   1      40.025  26.690  29.636  1.00  0.00     0.010 A 
ATOM     33  C   UNL A   1      42.351  27.391  29.472  1.00  0.00     0.010 A 
ATOM     34  C   UNL A   1      41.115  27.406  30.142  1.00  0.00    -0.014 A 
BRANCH  34  35
ATOM     35  C   UNL A   1      40.833  28.461  31.139  1.00  0.00     0.031 A 
ATOM     36  C   UNL A   1      41.686  28.454  32.382  1.00  0.00     0.074 A 
ATOM     37  C   UNL A   1      39.931  29.429  30.915  1.00  0.00     0.049 A 
ATOM     38  N   UNL A   1      41.674  29.262  33.406  1.00  0.00    -0.248 NA
ATOM     39  C   UNL A   1      42.698  27.384  32.477  1.00  0.00     0.031 C 
ATOM     40  C   UNL A   1      39.099  29.555  29.719  1.00  0.00     0.029 A 
ATOM     41  N   UNL A   1      39.569  30.497  31.693  1.00  0.00    -0.354 N 
ATOM     42  C   UNL A   1      42.672  28.800  34.258  1.00  0.00     0.074 A 
ATOM     43  C   UNL A   1      43.245  27.621  33.656  1.00  0.00     0.031 C 
ATOM     44  C   UNL A   1      38.310  30.638  29.851  1.00  0.00     0.029 A 
ATOM     45  C   UNL A   1      38.568  31.263  31.148  1.00  0.00     0.049 A 
ATOM     46  H   UNL A   1      39.988  30.697  32.561  1.00  0.00     0.167 HD
ATOM     47  C   UNL A   1      43.085  29.323  35.433  1.00  0.00     0.037 A 
ATOM     48  C   UNL A   1      37.927  32.334  31.657  1.00  0.00     0.037 A 
ATOM     49  C   UNL A   1      42.498  30.492  36.024  1.00  0.00     0.049 A 
ATOM     50  C   UNL A   1      38.352  32.859  33.007  1.00  0.00     0.074 A 
ATOM     51  C   UNL A   1      42.817  31.106  37.221  1.00  0.00     0.029 A 
ATOM     52  N   UNL A   1      41.462  31.220  35.457  1.00  0.00    -0.354 N 
ATOM     53  N   UNL A   1      39.299  32.417  33.802  1.00  0.00    -0.248 NA
ATOM     54  C   UNL A   1      37.629  34.027  33.526  1.00  0.00     0.031 C 
ATOM     55  C   UNL A   1      41.941  32.181  37.399  1.00  0.00     0.029 A 
ATOM     56  C   UNL A   1      41.114  32.268  36.289  1.00  0.00     0.049 A 
ATOM     57  H   UNL A   1      41.038  31.020  34.591  1.00  0.00     0.167 HD
ATOM     58  C   UNL A   1      39.303  33.267  34.903  1.00  0.00     0.074 A 
ATOM     59  C   UNL A   1      38.270  34.256  34.665  1.00  0.00     0.031 C 
ATOM     60  C   UNL A   1      40.084  33.239  36.012  1.00  0.00     0.037 A 
BRANCH  47  61
ATOM     61  C   UNL A   1      44.193  28.610  36.155  1.00  0.00     0.058 A 
ATOM     62  C   UNL A   1      45.536  29.002  36.024  1.00  0.00     0.135 A 
ATOM     63  C   UNL A   1      43.910  27.514  36.985  1.00  0.00     0.135 A 
ATOM     64  F   UNL A   1      45.866  30.023  35.217  1.00  0.00    -0.206 F 
ATOM     65  C   UNL A   1      46.559  28.320  36.672  1.00  0.00     0.059 A 
ATOM     66  C   UNL A   1      44.915  26.832  37.664  1.00  0.00     0.059 A 
ATOM     67  F   UNL A   1      42.646  27.086  37.132  1.00  0.00    -0.206 F 
ATOM     68  C   UNL A   1      46.238  27.235  37.491  1.00  0.00     0.060 A 
BRANCH  68  69
ATOM     69  S   UNL A   1      47.577  26.363  38.333  1.00  0.00     0.124 S 
ATOM     70  O   UNL A   1      48.502  27.456  38.618  1.00  0.00    -0.237 OA
ATOM     71  O   UNL A   1      46.897  25.791  39.490  1.00  0.00    -0.237 OA
ATOM     72  O   UNL A   1      48.033  25.399  37.336  1.00  0.00    -0.744 OA
ENDBRANCH  68  69
ENDBRANCH  47  61
BRANCH  48  73
ATOM     73  C   UNL A   1      36.810  32.966  30.902  1.00  0.00     0.058 A 
ATOM     74  C   UNL A   1      35.470  32.727  31.237  1.00  0.00     0.135 A 
ATOM     75  C   UNL A   1      37.067  33.827  29.822  1.00  0.00     0.135 A 
ATOM     76  F   UNL A   1      35.171  31.903  32.254  1.00  0.00    -0.206 F 
ATOM     77  C   UNL A   1      34.424  33.307  30.526  1.00  0.00     0.059 A 
ATOM     78  C   UNL A   1      36.039  34.440  29.111  1.00  0.00     0.059 A 
ATOM     79  F   UNL A   1      38.332  34.097  29.463  1.00  0.00    -0.206 F 
ATOM     80  C   UNL A   1      34.719  34.166  29.464  1.00  0.00     0.060 A 
BRANCH  80  81
ATOM     81  S   UNL A   1      33.357  34.953  28.579  1.00  0.00     0.124 S 
ATOM     82  O   UNL A   1      32.549  35.467  29.679  1.00  0.00    -0.237 OA
ATOM     83  O   UNL A   1      34.052  35.955  27.776  1.00  0.00    -0.237 OA
ATOM     84  O   UNL A   1      32.767  33.853  27.823  1.00  0.00    -0.744 OA
ENDBRANCH  80  81
ENDBRANCH  48  73
BRANCH  60  85
ATOM     85  C   UNL A   1      39.877  34.322  37.032  1.00  0.00     0.058 A 
ATOM     86  C   UNL A   1      39.067  34.127  38.161  1.00  0.00     0.135 A 
ATOM     87  C   UNL A   1      40.557  35.545  36.913  1.00  0.00     0.135 A 
ATOM     88  F   UNL A   1      38.396  32.975  38.320  1.00  0.00    -0.206 F 
ATOM     89  C   UNL A   1      38.920  35.117  39.126  1.00  0.00     0.059 A 
ATOM     90  C   UNL A   1      40.447  36.538  37.880  1.00  0.00     0.059 A 
ATOM     91  F   UNL A   1      41.358  35.775  35.859  1.00  0.00    -0.206 F 
ATOM     92  C   UNL A   1      39.616  36.318  38.977  1.00  0.00     0.060 A 
BRANCH  92  93
ATOM     93  S   UNL A   1      39.443  37.581  40.255  1.00  0.00     0.124 S 
ATOM     94  O   UNL A   1      38.514  38.511  39.623  1.00  0.00    -0.237 OA
ATOM     95  O   UNL A   1      38.911  36.817  41.379  1.00  0.00    -0.237 OA
ATOM     96  O   UNL A   1      40.806  38.074  40.430  1.00  0.00    -0.744 OA
ENDBRANCH  92  93
ENDBRANCH  60  85
ENDBRANCH  34  35
ENDBRANCH  27  29
ENDBRANCH  26  27
ENDBRANCH  25  26
ENDBRANCH  24  25
ENDBRANCH  23  24
ENDBRANCH   1  23
TORSDOF 23
ENDMDL
