MODEL 1
REMARK VINA RESULT:     -10.5      0.000      0.000
REMARK SMILES O=C(CC1(Nc2ccc(C(F)(F)F)cc2)CCC1)OCCOCCOC(=O)c1ccc(-c2c3nc(c(-c4c(F)cc(S(=O)(=O)[O-])cc4F)c4ccc([nH]4)c(-c4c(F)cc(S(=O)(=O)[O-])cc4F)c4nc(c(-c5c(F)cc(S(=O)(=O)[O-])cc5F)c5ccc2[nH]5)C=C4)C=C3)cc1
REMARK SMILES IDX 21 1 20 2 19 3 2 4 1 5 3 6 4 7 16 8 18 9 17 10 5 11 6 13
REMARK SMILES IDX 7 14 15 15 8 16 14 17 9 18 10 19 11 20 12 21 13 22 22 23
REMARK SMILES IDX 23 24 24 25 25 26 26 27 27 28 28 29 29 30 93 31 30 32 92 33
REMARK SMILES IDX 31 34 32 35 33 36 86 37 34 38 91 39 85 40 87 41 35 42 90 43
REMARK SMILES IDX 84 44 83 45 36 47 70 48 49 49 69 50 50 51 53 52 68 53 88 54
REMARK SMILES IDX 51 55 52 56 67 58 89 59 54 60 37 61 38 62 47 63 39 64 40 65
REMARK SMILES IDX 46 66 48 67 41 68 42 69 43 70 44 71 45 72 71 73 72 74 81 75
REMARK SMILES IDX 73 76 74 77 80 78 82 79 75 80 76 81 77 82 78 83 79 84 55 85
REMARK SMILES IDX 56 86 65 87 57 88 58 89 64 90 66 91 59 92 60 93 61 94 62 95
REMARK SMILES IDX 63 96
REMARK H PARENT 5 12 87 46 53 57
REMARK Flexibility Score: inf
ROOT
ATOM      1  C   UNL A   1      34.647  30.457  27.733  1.00  0.00     0.202 C 
ENDROOT
BRANCH   1   2
ATOM      2  C   UNL A   1      33.585  29.678  26.979  1.00  0.00     0.261 C 
BRANCH   2   3
ATOM      3  O   UNL A   1      33.610  28.279  27.291  1.00  0.00    -0.463 OA
BRANCH   3   4
ATOM      4  C   UNL A   1      32.824  27.350  26.716  1.00  0.00     0.308 C 
ATOM      5  O   UNL A   1      31.709  27.135  27.197  1.00  0.00    -0.252 OA
BRANCH   4   6
ATOM      6  C   UNL A   1      33.275  26.552  25.521  1.00  0.00     0.151 C 
BRANCH   6   7
ATOM      7  C   UNL A   1      32.753  26.865  24.111  1.00  0.00     0.048 C 
ATOM      8  C   UNL A   1      33.647  27.838  23.282  1.00  0.00     0.029 C 
ATOM      9  C   UNL A   1      33.061  25.780  23.025  1.00  0.00     0.029 C 
ATOM     10  C   UNL A   1      33.612  26.862  22.098  1.00  0.00     0.005 C 
BRANCH   7  11
ATOM     11  N   UNL A   1      31.360  27.288  24.038  1.00  0.00    -0.379 N 
ATOM     12  H   UNL A   1      30.711  26.597  24.303  1.00  0.00     0.161 HD
BRANCH  11  13
ATOM     13  C   UNL A   1      30.780  28.517  23.651  1.00  0.00     0.034 A 
ATOM     14  C   UNL A   1      30.067  28.570  22.442  1.00  0.00     0.026 A 
ATOM     15  C   UNL A   1      30.724  29.634  24.488  1.00  0.00     0.026 A 
ATOM     16  C   UNL A   1      29.256  29.669  22.122  1.00  0.00     0.015 A 
ATOM     17  C   UNL A   1      29.914  30.736  24.174  1.00  0.00     0.015 A 
ATOM     18  C   UNL A   1      29.152  30.757  22.998  1.00  0.00     0.056 A 
BRANCH  18  19
ATOM     19  C   UNL A   1      28.200  31.898  22.720  1.00  0.00     0.416 C 
ATOM     20  F   UNL A   1      28.758  33.130  22.881  1.00  0.00    -0.166 F 
ATOM     21  F   UNL A   1      27.667  31.875  21.468  1.00  0.00    -0.166 F 
ATOM     22  F   UNL A   1      27.118  31.881  23.558  1.00  0.00    -0.166 F 
ENDBRANCH  18  19
ENDBRANCH  11  13
ENDBRANCH   7  11
ENDBRANCH   6   7
ENDBRANCH   4   6
ENDBRANCH   3   4
ENDBRANCH   2   3
ENDBRANCH   1   2
BRANCH   1  23
ATOM     23  O   UNL A   1      34.395  31.857  27.742  1.00  0.00    -0.374 OA
BRANCH  23  24
ATOM     24  C   UNL A   1      35.253  32.615  28.592  1.00  0.00     0.202 C 
BRANCH  24  25
ATOM     25  C   UNL A   1      35.313  32.074  30.023  1.00  0.00     0.261 C 
BRANCH  25  26
ATOM     26  O   UNL A   1      36.670  31.840  30.429  1.00  0.00    -0.460 OA
BRANCH  26  27
ATOM     27  C   UNL A   1      36.971  30.561  30.768  1.00  0.00     0.338 C 
ATOM     28  O   UNL A   1      36.256  29.750  31.333  1.00  0.00    -0.246 OA
BRANCH  27  29
ATOM     29  C   UNL A   1      38.250  30.194  30.127  1.00  0.00     0.060 A 
ATOM     30  C   UNL A   1      39.338  29.889  30.960  1.00  0.00     0.016 A 
ATOM     31  C   UNL A   1      38.364  30.076  28.740  1.00  0.00     0.016 A 
ATOM     32  C   UNL A   1      40.540  29.454  30.411  1.00  0.00     0.010 A 
ATOM     33  C   UNL A   1      39.573  29.660  28.189  1.00  0.00     0.010 A 
ATOM     34  C   UNL A   1      40.665  29.359  29.022  1.00  0.00    -0.014 A 
BRANCH  34  35
ATOM     35  C   UNL A   1      41.972  29.070  28.401  1.00  0.00     0.031 A 
ATOM     36  C   UNL A   1      42.245  27.662  27.962  1.00  0.00     0.074 A 
ATOM     37  C   UNL A   1      42.903  30.034  28.300  1.00  0.00     0.049 A 
ATOM     38  N   UNL A   1      43.367  27.122  27.576  1.00  0.00    -0.248 NA
ATOM     39  C   UNL A   1      41.100  26.734  27.978  1.00  0.00     0.031 C 
ATOM     40  C   UNL A   1      42.712  31.437  28.671  1.00  0.00     0.029 A 
ATOM     41  N   UNL A   1      44.210  29.970  27.892  1.00  0.00    -0.354 N 
ATOM     42  C   UNL A   1      43.073  25.787  27.330  1.00  0.00     0.074 A 
ATOM     43  C   UNL A   1      41.669  25.595  27.612  1.00  0.00     0.031 C 
ATOM     44  C   UNL A   1      43.875  32.092  28.513  1.00  0.00     0.029 A 
ATOM     45  C   UNL A   1      44.899  31.146  28.077  1.00  0.00     0.049 A 
ATOM     46  H   UNL A   1      44.616  29.161  27.505  1.00  0.00     0.167 HD
ATOM     47  C   UNL A   1      43.912  24.813  26.911  1.00  0.00     0.037 A 
ATOM     48  C   UNL A   1      46.216  31.405  27.960  1.00  0.00     0.037 A 
ATOM     49  C   UNL A   1      45.305  25.035  26.627  1.00  0.00     0.049 A 
ATOM     50  C   UNL A   1      47.139  30.284  27.548  1.00  0.00     0.074 A 
ATOM     51  C   UNL A   1      46.236  24.136  26.144  1.00  0.00     0.029 A 
ATOM     52  N   UNL A   1      45.966  26.240  26.814  1.00  0.00    -0.354 N 
ATOM     53  N   UNL A   1      46.844  29.037  27.265  1.00  0.00    -0.248 NA
ATOM     54  C   UNL A   1      48.570  30.602  27.446  1.00  0.00     0.031 C 
ATOM     55  C   UNL A   1      47.475  24.779  26.098  1.00  0.00     0.029 A 
ATOM     56  C   UNL A   1      47.304  26.097  26.495  1.00  0.00     0.049 A 
ATOM     57  H   UNL A   1      45.546  27.073  27.127  1.00  0.00     0.167 HD
ATOM     58  C   UNL A   1      48.050  28.427  26.935  1.00  0.00     0.074 A 
ATOM     59  C   UNL A   1      49.073  29.448  27.031  1.00  0.00     0.031 C 
ATOM     60  C   UNL A   1      48.296  27.138  26.593  1.00  0.00     0.037 A 
BRANCH  47  61
ATOM     61  C   UNL A   1      43.370  23.421  26.760  1.00  0.00     0.058 A 
ATOM     62  C   UNL A   1      43.106  22.861  25.501  1.00  0.00     0.135 A 
ATOM     63  C   UNL A   1      43.195  22.607  27.891  1.00  0.00     0.135 A 
ATOM     64  F   UNL A   1      43.231  23.603  24.389  1.00  0.00    -0.206 F 
ATOM     65  C   UNL A   1      42.695  21.539  25.368  1.00  0.00     0.059 A 
ATOM     66  C   UNL A   1      42.809  21.276  27.781  1.00  0.00     0.059 A 
ATOM     67  F   UNL A   1      43.419  23.102  29.119  1.00  0.00    -0.206 F 
ATOM     68  C   UNL A   1      42.561  20.751  26.513  1.00  0.00     0.060 A 
BRANCH  68  69
ATOM     69  S   UNL A   1      42.096  19.018  26.316  1.00  0.00     0.124 S 
ATOM     70  O   UNL A   1      42.201  18.528  27.687  1.00  0.00    -0.237 OA
ATOM     71  O   UNL A   1      40.741  19.121  25.783  1.00  0.00    -0.237 OA
ATOM     72  O   UNL A   1      43.094  18.499  25.388  1.00  0.00    -0.744 OA
ENDBRANCH  68  69
ENDBRANCH  47  61
BRANCH  48  73
ATOM     73  C   UNL A   1      46.755  32.753  28.292  1.00  0.00     0.058 A 
ATOM     74  C   UNL A   1      46.836  33.762  27.321  1.00  0.00     0.135 A 
ATOM     75  C   UNL A   1      47.234  33.049  29.579  1.00  0.00     0.135 A 
ATOM     76  F   UNL A   1      46.400  33.529  26.074  1.00  0.00    -0.206 F 
ATOM     77  C   UNL A   1      47.401  35.002  27.602  1.00  0.00     0.059 A 
ATOM     78  C   UNL A   1      47.774  34.292  29.893  1.00  0.00     0.059 A 
ATOM     79  F   UNL A   1      47.170  32.125  30.551  1.00  0.00    -0.206 F 
ATOM     80  C   UNL A   1      47.871  35.257  28.892  1.00  0.00     0.060 A 
BRANCH  80  81
ATOM     81  S   UNL A   1      48.594  36.873  29.248  1.00  0.00     0.124 S 
ATOM     82  O   UNL A   1      49.078  36.683  30.610  1.00  0.00    -0.237 OA
ATOM     83  O   UNL A   1      49.619  36.982  28.215  1.00  0.00    -0.237 OA
ATOM     84  O   UNL A   1      47.464  37.786  29.100  1.00  0.00    -0.744 OA
ENDBRANCH  80  81
ENDBRANCH  48  73
BRANCH  60  85
ATOM     85  C   UNL A   1      49.717  26.765  26.276  1.00  0.00     0.058 A 
ATOM     86  C   UNL A   1      50.548  26.162  27.232  1.00  0.00     0.135 A 
ATOM     87  C   UNL A   1      50.229  26.946  24.980  1.00  0.00     0.135 A 
ATOM     88  F   UNL A   1      50.109  25.976  28.487  1.00  0.00    -0.206 F 
ATOM     89  C   UNL A   1      51.843  25.766  26.919  1.00  0.00     0.059 A 
ATOM     90  C   UNL A   1      51.509  26.528  24.636  1.00  0.00     0.059 A 
ATOM     91  F   UNL A   1      49.469  27.508  24.026  1.00  0.00    -0.206 F 
ATOM     92  C   UNL A   1      52.312  25.946  25.617  1.00  0.00     0.060 A 
BRANCH  92  93
ATOM     93  S   UNL A   1      53.977  25.380  25.215  1.00  0.00     0.124 S 
ATOM     94  O   UNL A   1      54.134  25.871  23.850  1.00  0.00    -0.237 OA
ATOM     95  O   UNL A   1      54.787  26.051  26.227  1.00  0.00    -0.237 OA
ATOM     96  O   UNL A   1      53.886  23.929  25.353  1.00  0.00    -0.744 OA
ENDBRANCH  92  93
ENDBRANCH  60  85
ENDBRANCH  34  35
ENDBRANCH  27  29
ENDBRANCH  26  27
ENDBRANCH  25  26
ENDBRANCH  24  25
ENDBRANCH  23  24
ENDBRANCH   1  23
TORSDOF 21
ENDMDL
MODEL 2
REMARK VINA RESULT:     -10.2      6.908      9.852
REMARK SMILES O=C(CC1(Nc2ccc(C(F)(F)F)cc2)CCC1)OCCOCCOC(=O)c1ccc(-c2c3nc(c(-c4c(F)cc(S(=O)(=O)[O-])cc4F)c4ccc([nH]4)c(-c4c(F)cc(S(=O)(=O)[O-])cc4F)c4nc(c(-c5c(F)cc(S(=O)(=O)[O-])cc5F)c5ccc2[nH]5)C=C4)C=C3)cc1
REMARK SMILES IDX 21 1 20 2 19 3 2 4 1 5 3 6 4 7 16 8 18 9 17 10 5 11 6 13
REMARK SMILES IDX 7 14 15 15 8 16 14 17 9 18 10 19 11 20 12 21 13 22 22 23
REMARK SMILES IDX 23 24 24 25 25 26 26 27 27 28 28 29 29 30 93 31 30 32 92 33
REMARK SMILES IDX 31 34 32 35 33 36 86 37 34 38 91 39 85 40 87 41 35 42 90 43
REMARK SMILES IDX 84 44 83 45 36 47 70 48 49 49 69 50 50 51 53 52 68 53 88 54
REMARK SMILES IDX 51 55 52 56 67 58 89 59 54 60 37 61 38 62 47 63 39 64 40 65
REMARK SMILES IDX 46 66 48 67 41 68 42 69 43 70 44 71 45 72 71 73 72 74 81 75
REMARK SMILES IDX 73 76 74 77 80 78 82 79 75 80 76 81 77 82 78 83 79 84 55 85
REMARK SMILES IDX 56 86 65 87 57 88 58 89 64 90 66 91 59 92 60 93 61 94 62 95
REMARK SMILES IDX 63 96
REMARK H PARENT 5 12 87 46 53 57
REMARK Flexibility Score: inf
ROOT
ATOM      1  C   UNL A   1      33.645  28.837  27.226  1.00  0.00     0.202 C 
ENDROOT
BRANCH   1   2
ATOM      2  C   UNL A   1      32.971  27.664  26.539  1.00  0.00     0.261 C 
BRANCH   2   3
ATOM      3  O   UNL A   1      33.907  26.814  25.864  1.00  0.00    -0.463 OA
BRANCH   3   4
ATOM      4  C   UNL A   1      33.630  26.081  24.771  1.00  0.00     0.308 C 
ATOM      5  O   UNL A   1      33.696  26.618  23.663  1.00  0.00    -0.252 OA
BRANCH   4   6
ATOM      6  C   UNL A   1      33.221  24.634  24.862  1.00  0.00     0.151 C 
BRANCH   6   7
ATOM      7  C   UNL A   1      34.244  23.504  24.686  1.00  0.00     0.048 C 
ATOM      8  C   UNL A   1      34.747  23.295  23.224  1.00  0.00     0.029 C 
ATOM      9  C   UNL A   1      35.721  23.871  25.058  1.00  0.00     0.029 C 
ATOM     10  C   UNL A   1      36.199  23.312  23.720  1.00  0.00     0.005 C 
BRANCH   7  11
ATOM     11  N   UNL A   1      33.869  22.221  25.269  1.00  0.00    -0.379 N 
ATOM     12  H   UNL A   1      33.506  22.280  26.183  1.00  0.00     0.161 HD
BRANCH  11  13
ATOM     13  C   UNL A   1      33.937  20.908  24.752  1.00  0.00     0.034 A 
ATOM     14  C   UNL A   1      35.091  20.148  25.001  1.00  0.00     0.026 A 
ATOM     15  C   UNL A   1      32.849  20.262  24.161  1.00  0.00     0.026 A 
ATOM     16  C   UNL A   1      35.125  18.770  24.746  1.00  0.00     0.015 A 
ATOM     17  C   UNL A   1      32.876  18.883  23.904  1.00  0.00     0.015 A 
ATOM     18  C   UNL A   1      34.006  18.115  24.216  1.00  0.00     0.056 A 
BRANCH  18  19
ATOM     19  C   UNL A   1      33.988  16.614  24.037  1.00  0.00     0.416 C 
ATOM     20  F   UNL A   1      32.887  16.012  24.566  1.00  0.00    -0.166 F 
ATOM     21  F   UNL A   1      34.060  16.215  22.738  1.00  0.00    -0.166 F 
ATOM     22  F   UNL A   1      35.055  16.011  24.646  1.00  0.00    -0.166 F 
ENDBRANCH  18  19
ENDBRANCH  11  13
ENDBRANCH   7  11
ENDBRANCH   6   7
ENDBRANCH   4   6
ENDBRANCH   3   4
ENDBRANCH   2   3
ENDBRANCH   1   2
BRANCH   1  23
ATOM     23  O   UNL A   1      32.863  30.024  27.173  1.00  0.00    -0.374 OA
BRANCH  23  24
ATOM     24  C   UNL A   1      33.567  31.220  27.501  1.00  0.00     0.202 C 
BRANCH  24  25
ATOM     25  C   UNL A   1      32.656  32.447  27.599  1.00  0.00     0.261 C 
BRANCH  25  26
ATOM     26  O   UNL A   1      33.424  33.657  27.662  1.00  0.00    -0.460 OA
BRANCH  26  27
ATOM     27  C   UNL A   1      33.421  34.295  28.860  1.00  0.00     0.338 C 
ATOM     28  O   UNL A   1      32.522  34.957  29.350  1.00  0.00    -0.246 OA
BRANCH  27  29
ATOM     29  C   UNL A   1      34.612  33.869  29.623  1.00  0.00     0.060 A 
ATOM     30  C   UNL A   1      35.875  34.202  29.109  1.00  0.00     0.016 A 
ATOM     31  C   UNL A   1      34.496  33.224  30.856  1.00  0.00     0.016 A 
ATOM     32  C   UNL A   1      37.026  33.901  29.828  1.00  0.00     0.010 A 
ATOM     33  C   UNL A   1      35.649  32.904  31.567  1.00  0.00     0.010 A 
ATOM     34  C   UNL A   1      36.915  33.232  31.051  1.00  0.00    -0.014 A 
BRANCH  34  35
ATOM     35  C   UNL A   1      38.117  32.745  31.755  1.00  0.00     0.031 A 
ATOM     36  C   UNL A   1      38.827  31.552  31.189  1.00  0.00     0.074 A 
ATOM     37  C   UNL A   1      38.512  33.324  32.903  1.00  0.00     0.049 A 
ATOM     38  N   UNL A   1      39.773  30.828  31.719  1.00  0.00    -0.248 NA
ATOM     39  C   UNL A   1      38.399  31.105  29.851  1.00  0.00     0.031 C 
ATOM     40  C   UNL A   1      37.900  34.507  33.508  1.00  0.00     0.029 A 
ATOM     41  N   UNL A   1      39.497  32.966  33.786  1.00  0.00    -0.354 N 
ATOM     42  C   UNL A   1      40.036  29.824  30.795  1.00  0.00     0.074 A 
ATOM     43  C   UNL A   1      39.149  30.028  29.673  1.00  0.00     0.031 C 
ATOM     44  C   UNL A   1      38.498  34.753  34.687  1.00  0.00     0.029 A 
ATOM     45  C   UNL A   1      39.498  33.719  34.938  1.00  0.00     0.049 A 
ATOM     46  H   UNL A   1      40.141  32.242  33.613  1.00  0.00     0.167 HD
ATOM     47  C   UNL A   1      40.937  28.821  30.890  1.00  0.00     0.037 A 
ATOM     48  C   UNL A   1      40.190  33.550  36.081  1.00  0.00     0.037 A 
ATOM     49  C   UNL A   1      41.815  28.649  32.016  1.00  0.00     0.049 A 
ATOM     50  C   UNL A   1      41.146  32.386  36.182  1.00  0.00     0.074 A 
ATOM     51  C   UNL A   1      42.805  27.701  32.195  1.00  0.00     0.029 A 
ATOM     52  N   UNL A   1      41.797  29.435  33.159  1.00  0.00    -0.354 N 
ATOM     53  N   UNL A   1      41.428  31.472  35.282  1.00  0.00    -0.248 NA
ATOM     54  C   UNL A   1      41.871  32.226  37.449  1.00  0.00     0.031 C 
ATOM     55  C   UNL A   1      43.345  27.875  33.472  1.00  0.00     0.029 A 
ATOM     56  C   UNL A   1      42.732  28.968  34.066  1.00  0.00     0.049 A 
ATOM     57  H   UNL A   1      41.208  30.209  33.304  1.00  0.00     0.167 HD
ATOM     58  C   UNL A   1      42.375  30.639  35.871  1.00  0.00     0.074 A 
ATOM     59  C   UNL A   1      42.635  31.173  37.192  1.00  0.00     0.031 C 
ATOM     60  C   UNL A   1      42.972  29.529  35.372  1.00  0.00     0.037 A 
BRANCH  47  61
ATOM     61  C   UNL A   1      41.007  27.818  29.775  1.00  0.00     0.058 A 
ATOM     62  C   UNL A   1      39.986  26.881  29.556  1.00  0.00     0.135 A 
ATOM     63  C   UNL A   1      42.072  27.855  28.861  1.00  0.00     0.135 A 
ATOM     64  F   UNL A   1      38.959  26.785  30.414  1.00  0.00    -0.206 F 
ATOM     65  C   UNL A   1      40.016  26.020  28.464  1.00  0.00     0.059 A 
ATOM     66  C   UNL A   1      42.111  27.021  27.749  1.00  0.00     0.059 A 
ATOM     67  F   UNL A   1      43.082  28.723  29.036  1.00  0.00    -0.206 F 
ATOM     68  C   UNL A   1      41.076  26.106  27.559  1.00  0.00     0.060 A 
BRANCH  68  69
ATOM     69  S   UNL A   1      41.061  25.030  26.110  1.00  0.00     0.124 S 
ATOM     70  O   UNL A   1      41.271  25.989  25.030  1.00  0.00    -0.237 OA
ATOM     71  O   UNL A   1      42.176  24.129  26.383  1.00  0.00    -0.237 OA
ATOM     72  O   UNL A   1      39.738  24.416  26.154  1.00  0.00    -0.744 OA
ENDBRANCH  68  69
ENDBRANCH  47  61
BRANCH  48  73
ATOM     73  C   UNL A   1      39.968  34.455  37.242  1.00  0.00     0.058 A 
ATOM     74  C   UNL A   1      40.735  35.618  37.413  1.00  0.00     0.135 A 
ATOM     75  C   UNL A   1      39.009  34.159  38.224  1.00  0.00     0.135 A 
ATOM     76  F   UNL A   1      41.670  35.943  36.508  1.00  0.00    -0.206 F 
ATOM     77  C   UNL A   1      40.582  36.435  38.529  1.00  0.00     0.059 A 
ATOM     78  C   UNL A   1      38.816  34.977  39.333  1.00  0.00     0.059 A 
ATOM     79  F   UNL A   1      38.238  33.066  38.105  1.00  0.00    -0.206 F 
ATOM     80  C   UNL A   1      39.622  36.103  39.486  1.00  0.00     0.060 A 
BRANCH  80  81
ATOM     81  S   UNL A   1      39.427  37.176  40.926  1.00  0.00     0.124 S 
ATOM     82  O   UNL A   1      38.859  36.254  41.903  1.00  0.00    -0.237 OA
ATOM     83  O   UNL A   1      40.800  37.605  41.175  1.00  0.00    -0.237 OA
ATOM     84  O   UNL A   1      38.528  38.222  40.447  1.00  0.00    -0.744 OA
ENDBRANCH  80  81
ENDBRANCH  48  73
BRANCH  60  85
ATOM     85  C   UNL A   1      43.977  28.831  36.245  1.00  0.00     0.058 A 
ATOM     86  C   UNL A   1      43.636  27.691  36.988  1.00  0.00     0.135 A 
ATOM     87  C   UNL A   1      45.312  29.265  36.281  1.00  0.00     0.135 A 
ATOM     88  F   UNL A   1      42.371  27.242  36.994  1.00  0.00    -0.206 F 
ATOM     89  C   UNL A   1      44.582  27.014  37.749  1.00  0.00     0.059 A 
ATOM     90  C   UNL A   1      46.281  28.585  37.009  1.00  0.00     0.059 A 
ATOM     91  F   UNL A   1      45.691  30.345  35.577  1.00  0.00    -0.206 F 
ATOM     92  C   UNL A   1      45.903  27.464  37.747  1.00  0.00     0.060 A 
BRANCH  92  93
ATOM     93  S   UNL A   1      47.128  26.544  38.701  1.00  0.00     0.124 S 
ATOM     94  O   UNL A   1      46.387  26.244  39.921  1.00  0.00    -0.237 OA
ATOM     95  O   UNL A   1      47.408  25.406  37.831  1.00  0.00    -0.237 OA
ATOM     96  O   UNL A   1      48.226  27.495  38.852  1.00  0.00    -0.744 OA
ENDBRANCH  92  93
ENDBRANCH  60  85
ENDBRANCH  34  35
ENDBRANCH  27  29
ENDBRANCH  26  27
ENDBRANCH  25  26
ENDBRANCH  24  25
ENDBRANCH  23  24
ENDBRANCH   1  23
TORSDOF 21
ENDMDL
MODEL 3
REMARK VINA RESULT:     -10.0      3.714      9.564
REMARK SMILES O=C(CC1(Nc2ccc(C(F)(F)F)cc2)CCC1)OCCOCCOC(=O)c1ccc(-c2c3nc(c(-c4c(F)cc(S(=O)(=O)[O-])cc4F)c4ccc([nH]4)c(-c4c(F)cc(S(=O)(=O)[O-])cc4F)c4nc(c(-c5c(F)cc(S(=O)(=O)[O-])cc5F)c5ccc2[nH]5)C=C4)C=C3)cc1
REMARK SMILES IDX 21 1 20 2 19 3 2 4 1 5 3 6 4 7 16 8 18 9 17 10 5 11 6 13
REMARK SMILES IDX 7 14 15 15 8 16 14 17 9 18 10 19 11 20 12 21 13 22 22 23
REMARK SMILES IDX 23 24 24 25 25 26 26 27 27 28 28 29 29 30 93 31 30 32 92 33
REMARK SMILES IDX 31 34 32 35 33 36 86 37 34 38 91 39 85 40 87 41 35 42 90 43
REMARK SMILES IDX 84 44 83 45 36 47 70 48 49 49 69 50 50 51 53 52 68 53 88 54
REMARK SMILES IDX 51 55 52 56 67 58 89 59 54 60 37 61 38 62 47 63 39 64 40 65
REMARK SMILES IDX 46 66 48 67 41 68 42 69 43 70 44 71 45 72 71 73 72 74 81 75
REMARK SMILES IDX 73 76 74 77 80 78 82 79 75 80 76 81 77 82 78 83 79 84 55 85
REMARK SMILES IDX 56 86 65 87 57 88 58 89 64 90 66 91 59 92 60 93 61 94 62 95
REMARK SMILES IDX 63 96
REMARK H PARENT 5 12 87 46 53 57
REMARK Flexibility Score: inf
ROOT
ATOM      1  C   UNL A   1      37.946  22.782  25.922  1.00  0.00     0.202 C 
ENDROOT
BRANCH   1   2
ATOM      2  C   UNL A   1      36.911  23.396  24.997  1.00  0.00     0.261 C 
BRANCH   2   3
ATOM      3  O   UNL A   1      35.959  24.204  25.702  1.00  0.00    -0.463 OA
BRANCH   3   4
ATOM      4  C   UNL A   1      34.667  23.881  25.889  1.00  0.00     0.308 C 
ATOM      5  O   UNL A   1      34.366  23.165  26.847  1.00  0.00    -0.252 OA
BRANCH   4   6
ATOM      6  C   UNL A   1      33.583  24.348  24.954  1.00  0.00     0.151 C 
BRANCH   6   7
ATOM      7  C   UNL A   1      33.036  23.434  23.848  1.00  0.00     0.048 C 
ATOM      8  C   UNL A   1      32.287  24.173  22.697  1.00  0.00     0.029 C 
ATOM      9  C   UNL A   1      34.080  22.982  22.773  1.00  0.00     0.029 C 
ATOM     10  C   UNL A   1      33.126  23.412  21.661  1.00  0.00     0.005 C 
BRANCH   7  11
ATOM     11  N   UNL A   1      32.243  22.300  24.307  1.00  0.00    -0.379 N 
ATOM     12  H   UNL A   1      31.362  22.542  24.675  1.00  0.00     0.161 HD
BRANCH  11  13
ATOM     13  C   UNL A   1      32.519  20.915  24.317  1.00  0.00     0.034 A 
ATOM     14  C   UNL A   1      32.082  20.136  23.234  1.00  0.00     0.026 A 
ATOM     15  C   UNL A   1      33.356  20.309  25.257  1.00  0.00     0.026 A 
ATOM     16  C   UNL A   1      32.536  18.822  23.050  1.00  0.00     0.015 A 
ATOM     17  C   UNL A   1      33.815  18.995  25.079  1.00  0.00     0.015 A 
ATOM     18  C   UNL A   1      33.429  18.243  23.961  1.00  0.00     0.056 A 
BRANCH  18  19
ATOM     19  C   UNL A   1      34.013  16.869  23.720  1.00  0.00     0.416 C 
ATOM     20  F   UNL A   1      34.364  16.642  22.424  1.00  0.00    -0.166 F 
ATOM     21  F   UNL A   1      35.115  16.603  24.472  1.00  0.00    -0.166 F 
ATOM     22  F   UNL A   1      33.129  15.873  24.033  1.00  0.00    -0.166 F 
ENDBRANCH  18  19
ENDBRANCH  11  13
ENDBRANCH   7  11
ENDBRANCH   6   7
ENDBRANCH   4   6
ENDBRANCH   3   4
ENDBRANCH   2   3
ENDBRANCH   1   2
BRANCH   1  23
ATOM     23  O   UNL A   1      38.463  21.553  25.424  1.00  0.00    -0.374 OA
BRANCH  23  24
ATOM     24  C   UNL A   1      39.604  21.058  26.121  1.00  0.00     0.202 C 
BRANCH  24  25
ATOM     25  C   UNL A   1      39.829  19.557  25.915  1.00  0.00     0.261 C 
BRANCH  25  26
ATOM     26  O   UNL A   1      41.153  19.296  25.428  1.00  0.00    -0.460 OA
BRANCH  26  27
ATOM     27  C   UNL A   1      42.147  19.380  26.349  1.00  0.00     0.338 C 
ATOM     28  O   UNL A   1      42.728  18.463  26.905  1.00  0.00    -0.246 OA
BRANCH  27  29
ATOM     29  C   UNL A   1      42.610  20.782  26.415  1.00  0.00     0.060 A 
ATOM     30  C   UNL A   1      42.653  21.399  27.675  1.00  0.00     0.016 A 
ATOM     31  C   UNL A   1      43.064  21.455  25.280  1.00  0.00     0.016 A 
ATOM     32  C   UNL A   1      43.161  22.687  27.807  1.00  0.00     0.010 A 
ATOM     33  C   UNL A   1      43.553  22.752  25.408  1.00  0.00     0.010 A 
ATOM     34  C   UNL A   1      43.593  23.373  26.668  1.00  0.00    -0.014 A 
BRANCH  34  35
ATOM     35  C   UNL A   1      43.974  24.797  26.746  1.00  0.00     0.031 A 
ATOM     36  C   UNL A   1      45.412  25.153  26.513  1.00  0.00     0.074 A 
ATOM     37  C   UNL A   1      43.061  25.725  27.082  1.00  0.00     0.049 A 
ATOM     38  N   UNL A   1      46.023  26.287  26.713  1.00  0.00    -0.248 NA
ATOM     39  C   UNL A   1      46.280  24.079  25.999  1.00  0.00     0.031 C 
ATOM     40  C   UNL A   1      41.636  25.473  27.295  1.00  0.00     0.029 A 
ATOM     41  N   UNL A   1      43.208  27.063  27.344  1.00  0.00    -0.354 N 
ATOM     42  C   UNL A   1      47.352  26.059  26.379  1.00  0.00     0.074 A 
ATOM     43  C   UNL A   1      47.461  24.679  25.966  1.00  0.00     0.031 C 
ATOM     44  C   UNL A   1      41.046  26.612  27.697  1.00  0.00     0.029 A 
ATOM     45  C   UNL A   1      42.060  27.657  27.814  1.00  0.00     0.049 A 
ATOM     46  H   UNL A   1      44.053  27.551  27.209  1.00  0.00     0.167 HD
ATOM     47  C   UNL A   1      48.383  26.932  26.424  1.00  0.00     0.037 A 
ATOM     48  C   UNL A   1      41.871  28.886  28.331  1.00  0.00     0.037 A 
ATOM     49  C   UNL A   1      48.242  28.305  26.830  1.00  0.00     0.049 A 
ATOM     50  C   UNL A   1      43.053  29.820  28.424  1.00  0.00     0.074 A 
ATOM     51  C   UNL A   1      49.207  29.293  26.861  1.00  0.00     0.029 A 
ATOM     52  N   UNL A   1      47.064  28.875  27.289  1.00  0.00    -0.354 N 
ATOM     53  N   UNL A   1      44.296  29.614  28.055  1.00  0.00    -0.248 NA
ATOM     54  C   UNL A   1      42.811  31.147  29.007  1.00  0.00     0.031 C 
ATOM     55  C   UNL A   1      48.628  30.446  27.397  1.00  0.00     0.029 A 
ATOM     56  C   UNL A   1      47.287  30.194  27.644  1.00  0.00     0.049 A 
ATOM     57  H   UNL A   1      46.198  28.412  27.351  1.00  0.00     0.167 HD
ATOM     58  C   UNL A   1      44.979  30.791  28.347  1.00  0.00     0.074 A 
ATOM     59  C   UNL A   1      44.005  31.711  28.899  1.00  0.00     0.031 C 
ATOM     60  C   UNL A   1      46.292  31.086  28.183  1.00  0.00     0.037 A 
BRANCH  47  61
ATOM     61  C   UNL A   1      49.752  26.437  26.057  1.00  0.00     0.058 A 
ATOM     62  C   UNL A   1      50.293  26.634  24.778  1.00  0.00     0.135 A 
ATOM     63  C   UNL A   1      50.566  25.833  27.029  1.00  0.00     0.135 A 
ATOM     64  F   UNL A   1      49.549  27.181  23.804  1.00  0.00    -0.206 F 
ATOM     65  C   UNL A   1      51.597  26.256  24.477  1.00  0.00     0.059 A 
ATOM     66  C   UNL A   1      51.881  25.470  26.758  1.00  0.00     0.059 A 
ATOM     67  F   UNL A   1      50.089  25.609  28.264  1.00  0.00    -0.206 F 
ATOM     68  C   UNL A   1      52.388  25.687  25.478  1.00  0.00     0.060 A 
BRANCH  68  69
ATOM     69  S   UNL A   1      54.100  25.268  25.089  1.00  0.00     0.124 S 
ATOM     70  O   UNL A   1      54.034  23.812  25.006  1.00  0.00    -0.237 OA
ATOM     71  O   UNL A   1      54.309  25.966  23.825  1.00  0.00    -0.237 OA
ATOM     72  O   UNL A   1      54.848  25.796  26.225  1.00  0.00    -0.744 OA
ENDBRANCH  68  69
ENDBRANCH  47  61
BRANCH  48  73
ATOM     73  C   UNL A   1      40.538  29.291  28.856  1.00  0.00     0.058 A 
ATOM     74  C   UNL A   1      39.482  29.611  27.989  1.00  0.00     0.135 A 
ATOM     75  C   UNL A   1      40.301  29.400  30.236  1.00  0.00     0.135 A 
ATOM     76  F   UNL A   1      39.657  29.531  26.662  1.00  0.00    -0.206 F 
ATOM     77  C   UNL A   1      38.253  30.055  28.468  1.00  0.00     0.059 A 
ATOM     78  C   UNL A   1      39.072  29.812  30.741  1.00  0.00     0.059 A 
ATOM     79  F   UNL A   1      41.272  29.094  31.113  1.00  0.00    -0.206 F 
ATOM     80  C   UNL A   1      38.059  30.156  29.847  1.00  0.00     0.060 A 
BRANCH  80  81
ATOM     81  S   UNL A   1      36.458  30.725  30.458  1.00  0.00     0.124 S 
ATOM     82  O   UNL A   1      36.117  29.674  31.409  1.00  0.00    -0.237 OA
ATOM     83  O   UNL A   1      36.795  32.024  31.033  1.00  0.00    -0.237 OA
ATOM     84  O   UNL A   1      35.637  30.776  29.251  1.00  0.00    -0.744 OA
ENDBRANCH  80  81
ENDBRANCH  48  73
BRANCH  60  85
ATOM     85  C   UNL A   1      46.748  32.461  28.584  1.00  0.00     0.058 A 
ATOM     86  C   UNL A   1      46.673  33.546  27.697  1.00  0.00     0.135 A 
ATOM     87  C   UNL A   1      47.194  32.711  29.892  1.00  0.00     0.135 A 
ATOM     88  F   UNL A   1      46.261  33.358  26.433  1.00  0.00    -0.206 F 
ATOM     89  C   UNL A   1      47.041  34.828  28.088  1.00  0.00     0.059 A 
ATOM     90  C   UNL A   1      47.536  33.990  30.315  1.00  0.00     0.059 A 
ATOM     91  F   UNL A   1      47.272  31.708  30.783  1.00  0.00    -0.206 F 
ATOM     92  C   UNL A   1      47.463  35.042  29.401  1.00  0.00     0.060 A 
BRANCH  92  93
ATOM     93  S   UNL A   1      47.889  36.720  29.907  1.00  0.00     0.124 S 
ATOM     94  O   UNL A   1      49.344  36.648  29.976  1.00  0.00    -0.237 OA
ATOM     95  O   UNL A   1      47.344  37.521  28.815  1.00  0.00    -0.237 OA
ATOM     96  O   UNL A   1      47.207  36.872  31.190  1.00  0.00    -0.744 OA
ENDBRANCH  92  93
ENDBRANCH  60  85
ENDBRANCH  34  35
ENDBRANCH  27  29
ENDBRANCH  26  27
ENDBRANCH  25  26
ENDBRANCH  24  25
ENDBRANCH  23  24
ENDBRANCH   1  23
TORSDOF 21
ENDMDL
