MODEL 1
REMARK VINA RESULT:     -10.1      0.000      0.000
REMARK SMILES C[C@@](NC(=O)CSCc1ccccc1)(C(=O)OCCOCCOC(=O)c1ccc(-c2c3nc(c(-c4c(F)cc(S(=O)(=O)[O-])cc4F)c4ccc([nH]4)c(-c4c(F)cc(S(=O)(=O)[O-])cc4F)c4nc(c(-c5c(F)cc(S(=O)(=O)[O-])cc5F)c5ccc2[nH]5)C=C4)C=C3)cc1)C1CC1
REMARK SMILES IDX 19 1 18 2 17 3 15 4 16 5 2 6 1 7 3 8 4 9 5 11 6 12 7 13 8 14
REMARK SMILES IDX 9 15 10 16 14 17 11 18 13 19 12 20 92 21 93 22 94 23 20 24
REMARK SMILES IDX 21 25 22 26 23 27 24 28 25 29 26 30 27 31 91 32 28 33 90 34
REMARK SMILES IDX 29 35 30 36 31 37 84 38 32 39 89 40 83 41 85 42 33 43 88 44
REMARK SMILES IDX 82 45 81 46 34 48 68 49 47 50 67 51 48 52 51 53 66 54 86 55
REMARK SMILES IDX 49 56 50 57 65 59 87 60 52 61 35 62 36 63 45 64 37 65 38 66
REMARK SMILES IDX 44 67 46 68 39 69 40 70 41 71 42 72 43 73 69 74 70 75 79 76
REMARK SMILES IDX 71 77 72 78 78 79 80 80 73 81 74 82 75 83 76 84 77 85 53 86
REMARK SMILES IDX 54 87 63 88 55 89 56 90 62 91 64 92 57 93 58 94 59 95 60 96
REMARK SMILES IDX 61 97
REMARK H PARENT 3 10 85 47 51 58
REMARK Flexibility Score: inf
ROOT
ATOM      1  C   UNL A   1      33.142  30.229  26.963  1.00  0.00     0.202 C 
ENDROOT
BRANCH   1   2
ATOM      2  C   UNL A   1      32.959  29.164  25.881  1.00  0.00     0.261 C 
BRANCH   2   3
ATOM      3  O   UNL A   1      33.046  27.858  26.469  1.00  0.00    -0.461 OA
BRANCH   3   4
ATOM      4  C   UNL A   1      31.860  27.289  26.808  1.00  0.00     0.331 C 
ATOM      5  O   UNL A   1      31.103  27.738  27.662  1.00  0.00    -0.249 OA
BRANCH   4   6
ATOM      6  C   UNL A   1      31.554  26.026  25.947  1.00  0.00     0.138 C 
ATOM      7  C   UNL A   1      32.701  25.515  25.054  1.00  0.00     0.048 C 
BRANCH   6   8
ATOM      8  N   UNL A   1      31.135  24.902  26.830  1.00  0.00    -0.340 N 
ATOM      9  C   UNL A   1      31.709  23.682  27.061  1.00  0.00     0.230 C 
ATOM     10  H   UNL A   1      30.306  25.064  27.334  1.00  0.00     0.164 HD
ATOM     11  O   UNL A   1      30.952  22.769  27.411  1.00  0.00    -0.274 OA
BRANCH   9  12
ATOM     12  C   UNL A   1      33.214  23.461  27.014  1.00  0.00     0.169 C 
BRANCH  12  13
ATOM     13  S   UNL A   1      33.690  21.760  27.427  1.00  0.00    -0.147 SA
BRANCH  13  14
ATOM     14  C   UNL A   1      33.753  21.028  25.765  1.00  0.00     0.105 C 
BRANCH  14  15
ATOM     15  C   UNL A   1      34.795  21.668  24.883  1.00  0.00    -0.038 A 
ATOM     16  C   UNL A   1      34.431  22.496  23.808  1.00  0.00     0.004 A 
ATOM     17  C   UNL A   1      36.154  21.401  25.095  1.00  0.00     0.004 A 
ATOM     18  C   UNL A   1      35.401  23.060  22.980  1.00  0.00     0.000 A 
ATOM     19  C   UNL A   1      37.123  21.959  24.261  1.00  0.00     0.000 A 
ATOM     20  C   UNL A   1      36.748  22.788  23.205  1.00  0.00     0.000 A 
ENDBRANCH  14  15
ENDBRANCH  13  14
ENDBRANCH  12  13
ENDBRANCH   9  12
ENDBRANCH   6   8
BRANCH   6  21
ATOM     21  C   UNL A   1      30.331  26.338  25.031  1.00  0.00     0.026 C 
ATOM     22  C   UNL A   1      30.312  27.497  24.046  1.00  0.00     0.007 C 
ATOM     23  C   UNL A   1      30.349  26.095  23.528  1.00  0.00     0.007 C 
ENDBRANCH   6  21
ENDBRANCH   4   6
ENDBRANCH   3   4
ENDBRANCH   2   3
ENDBRANCH   1   2
BRANCH   1  24
ATOM     24  O   UNL A   1      34.466  30.330  27.498  1.00  0.00    -0.374 OA
BRANCH  24  25
ATOM     25  C   UNL A   1      34.997  31.638  27.696  1.00  0.00     0.202 C 
BRANCH  25  26
ATOM     26  C   UNL A   1      35.097  32.140  29.144  1.00  0.00     0.261 C 
BRANCH  26  27
ATOM     27  O   UNL A   1      35.823  31.274  30.036  1.00  0.00    -0.460 OA
BRANCH  27  28
ATOM     28  C   UNL A   1      37.078  31.701  30.311  1.00  0.00     0.338 C 
ATOM     29  O   UNL A   1      37.384  32.758  30.859  1.00  0.00    -0.246 OA
BRANCH  28  30
ATOM     30  C   UNL A   1      38.112  30.715  29.953  1.00  0.00     0.060 A 
ATOM     31  C   UNL A   1      39.048  30.388  30.941  1.00  0.00     0.016 A 
ATOM     32  C   UNL A   1      38.318  30.320  28.627  1.00  0.00     0.016 A 
ATOM     33  C   UNL A   1      40.241  29.758  30.591  1.00  0.00     0.010 A 
ATOM     34  C   UNL A   1      39.520  29.686  28.278  1.00  0.00     0.010 A 
ATOM     35  C   UNL A   1      40.514  29.465  29.249  1.00  0.00    -0.014 A 
BRANCH  35  36
ATOM     36  C   UNL A   1      41.913  29.127  28.865  1.00  0.00     0.031 A 
ATOM     37  C   UNL A   1      42.230  27.728  28.399  1.00  0.00     0.074 A 
ATOM     38  C   UNL A   1      42.873  30.069  28.841  1.00  0.00     0.049 A 
ATOM     39  N   UNL A   1      43.354  27.241  27.938  1.00  0.00    -0.248 NA
ATOM     40  C   UNL A   1      41.133  26.748  28.460  1.00  0.00     0.031 C 
ATOM     41  C   UNL A   1      42.696  31.461  29.248  1.00  0.00     0.029 A 
ATOM     42  N   UNL A   1      44.186  29.997  28.447  1.00  0.00    -0.354 N 
ATOM     43  C   UNL A   1      43.103  25.902  27.660  1.00  0.00     0.074 A 
ATOM     44  C   UNL A   1      41.729  25.644  28.031  1.00  0.00     0.031 C 
ATOM     45  C   UNL A   1      43.855  32.117  29.073  1.00  0.00     0.029 A 
ATOM     46  C   UNL A   1      44.859  31.190  28.552  1.00  0.00     0.049 A 
ATOM     47  H   UNL A   1      44.605  29.168  28.122  1.00  0.00     0.167 HD
ATOM     48  C   UNL A   1      43.936  24.972  27.132  1.00  0.00     0.037 A 
ATOM     49  C   UNL A   1      46.137  31.500  28.258  1.00  0.00     0.037 A 
ATOM     50  C   UNL A   1      45.299  25.224  26.743  1.00  0.00     0.049 A 
ATOM     51  C   UNL A   1      47.046  30.449  27.680  1.00  0.00     0.074 A 
ATOM     52  C   UNL A   1      46.211  24.349  26.178  1.00  0.00     0.029 A 
ATOM     53  N   UNL A   1      45.946  26.443  26.877  1.00  0.00    -0.354 N 
ATOM     54  N   UNL A   1      46.785  29.195  27.397  1.00  0.00    -0.248 NA
ATOM     55  C   UNL A   1      48.425  30.858  27.374  1.00  0.00     0.031 C 
ATOM     56  C   UNL A   1      47.420  25.032  25.997  1.00  0.00     0.029 A 
ATOM     57  C   UNL A   1      47.249  26.340  26.417  1.00  0.00     0.049 A 
ATOM     58  H   UNL A   1      45.539  27.261  27.244  1.00  0.00     0.167 HD
ATOM     59  C   UNL A   1      47.955  28.676  26.854  1.00  0.00     0.074 A 
ATOM     60  C   UNL A   1      48.925  29.751  26.842  1.00  0.00     0.031 C 
ATOM     61  C   UNL A   1      48.202  27.421  26.401  1.00  0.00     0.037 A 
BRANCH  48  62
ATOM     62  C   UNL A   1      43.395  23.581  26.959  1.00  0.00     0.058 A 
ATOM     63  C   UNL A   1      43.026  23.086  25.699  1.00  0.00     0.135 A 
ATOM     64  C   UNL A   1      43.261  22.727  28.066  1.00  0.00     0.135 A 
ATOM     65  F   UNL A   1      43.117  23.867  24.612  1.00  0.00    -0.206 F 
ATOM     66  C   UNL A   1      42.517  21.799  25.546  1.00  0.00     0.059 A 
ATOM     67  C   UNL A   1      42.775  21.430  27.932  1.00  0.00     0.059 A 
ATOM     68  F   UNL A   1      43.600  23.154  29.293  1.00  0.00    -0.206 F 
ATOM     69  C   UNL A   1      42.390  20.981  26.669  1.00  0.00     0.060 A 
BRANCH  69  70
ATOM     70  S   UNL A   1      41.722  19.316  26.462  1.00  0.00     0.124 S 
ATOM     71  O   UNL A   1      41.936  18.751  27.790  1.00  0.00    -0.237 OA
ATOM     72  O   UNL A   1      40.331  19.576  26.101  1.00  0.00    -0.237 OA
ATOM     73  O   UNL A   1      42.545  18.752  25.398  1.00  0.00    -0.744 OA
ENDBRANCH  69  70
ENDBRANCH  48  62
BRANCH  49  74
ATOM     74  C   UNL A   1      46.629  32.884  28.481  1.00  0.00     0.058 A 
ATOM     75  C   UNL A   1      46.569  33.846  27.462  1.00  0.00     0.135 A 
ATOM     76  C   UNL A   1      47.162  33.271  29.719  1.00  0.00     0.135 A 
ATOM     77  F   UNL A   1      46.078  33.519  26.258  1.00  0.00    -0.206 F 
ATOM     78  C   UNL A   1      47.030  35.144  27.660  1.00  0.00     0.059 A 
ATOM     79  C   UNL A   1      47.610  34.568  29.947  1.00  0.00     0.059 A 
ATOM     80  F   UNL A   1      47.234  32.386  30.725  1.00  0.00    -0.206 F 
ATOM     81  C   UNL A   1      47.547  35.495  28.908  1.00  0.00     0.060 A 
BRANCH  81  82
ATOM     82  S   UNL A   1      48.086  37.197  29.180  1.00  0.00     0.124 S 
ATOM     83  O   UNL A   1      47.089  37.945  28.426  1.00  0.00    -0.237 OA
ATOM     84  O   UNL A   1      48.010  37.316  30.633  1.00  0.00    -0.237 OA
ATOM     85  O   UNL A   1      49.438  37.210  28.631  1.00  0.00    -0.744 OA
ENDBRANCH  81  82
ENDBRANCH  49  74
BRANCH  61  86
ATOM     86  C   UNL A   1      49.561  27.152  25.820  1.00  0.00     0.058 A 
ATOM     87  C   UNL A   1      50.623  26.688  26.613  1.00  0.00     0.135 A 
ATOM     88  C   UNL A   1      49.796  27.331  24.447  1.00  0.00     0.135 A 
ATOM     89  F   UNL A   1      50.451  26.504  27.931  1.00  0.00    -0.206 F 
ATOM     90  C   UNL A   1      51.879  26.438  26.069  1.00  0.00     0.059 A 
ATOM     91  C   UNL A   1      51.039  27.067  23.879  1.00  0.00     0.059 A 
ATOM     92  F   UNL A   1      48.810  27.761  23.643  1.00  0.00    -0.206 F 
ATOM     93  C   UNL A   1      52.079  26.636  24.702  1.00  0.00     0.060 A 
BRANCH  93  94
ATOM     94  S   UNL A   1      53.708  26.298  23.998  1.00  0.00     0.124 S 
ATOM     95  O   UNL A   1      53.373  26.023  22.605  1.00  0.00    -0.237 OA
ATOM     96  O   UNL A   1      54.424  27.547  24.243  1.00  0.00    -0.237 OA
ATOM     97  O   UNL A   1      54.178  25.153  24.771  1.00  0.00    -0.744 OA
ENDBRANCH  93  94
ENDBRANCH  61  86
ENDBRANCH  35  36
ENDBRANCH  28  30
ENDBRANCH  27  28
ENDBRANCH  26  27
ENDBRANCH  25  26
ENDBRANCH  24  25
ENDBRANCH   1  24
TORSDOF 23
ENDMDL
MODEL 2
REMARK VINA RESULT:      -9.5      5.837     11.027
REMARK SMILES C[C@@](NC(=O)CSCc1ccccc1)(C(=O)OCCOCCOC(=O)c1ccc(-c2c3nc(c(-c4c(F)cc(S(=O)(=O)[O-])cc4F)c4ccc([nH]4)c(-c4c(F)cc(S(=O)(=O)[O-])cc4F)c4nc(c(-c5c(F)cc(S(=O)(=O)[O-])cc5F)c5ccc2[nH]5)C=C4)C=C3)cc1)C1CC1
REMARK SMILES IDX 19 1 18 2 17 3 15 4 16 5 2 6 1 7 3 8 4 9 5 11 6 12 7 13 8 14
REMARK SMILES IDX 9 15 10 16 14 17 11 18 13 19 12 20 92 21 93 22 94 23 20 24
REMARK SMILES IDX 21 25 22 26 23 27 24 28 25 29 26 30 27 31 91 32 28 33 90 34
REMARK SMILES IDX 29 35 30 36 31 37 84 38 32 39 89 40 83 41 85 42 33 43 88 44
REMARK SMILES IDX 82 45 81 46 34 48 68 49 47 50 67 51 48 52 51 53 66 54 86 55
REMARK SMILES IDX 49 56 50 57 65 59 87 60 52 61 35 62 36 63 45 64 37 65 38 66
REMARK SMILES IDX 44 67 46 68 39 69 40 70 41 71 42 72 43 73 69 74 70 75 79 76
REMARK SMILES IDX 71 77 72 78 78 79 80 80 73 81 74 82 75 83 76 84 77 85 53 86
REMARK SMILES IDX 54 87 63 88 55 89 56 90 62 91 64 92 57 93 58 94 59 95 60 96
REMARK SMILES IDX 61 97
REMARK H PARENT 3 10 85 47 51 58
REMARK Flexibility Score: inf
ROOT
ATOM      1  C   UNL A   1      36.305  20.690  24.944  1.00  0.00     0.202 C 
ENDROOT
BRANCH   1   2
ATOM      2  C   UNL A   1      34.976  21.119  25.568  1.00  0.00     0.261 C 
BRANCH   2   3
ATOM      3  O   UNL A   1      34.251  21.944  24.645  1.00  0.00    -0.461 OA
BRANCH   3   4
ATOM      4  C   UNL A   1      33.498  22.925  25.204  1.00  0.00     0.331 C 
ATOM      5  O   UNL A   1      33.762  23.470  26.272  1.00  0.00    -0.249 OA
BRANCH   4   6
ATOM      6  C   UNL A   1      32.285  23.311  24.304  1.00  0.00     0.138 C 
ATOM      7  C   UNL A   1      31.971  22.357  23.136  1.00  0.00     0.048 C 
BRANCH   6   8
ATOM      8  N   UNL A   1      31.054  23.425  25.137  1.00  0.00    -0.340 N 
ATOM      9  C   UNL A   1      30.610  24.434  25.947  1.00  0.00     0.230 C 
ATOM     10  H   UNL A   1      30.459  22.642  25.097  1.00  0.00     0.164 HD
ATOM     11  O   UNL A   1      29.872  24.109  26.884  1.00  0.00    -0.274 OA
BRANCH   9  12
ATOM     12  C   UNL A   1      30.898  25.901  25.662  1.00  0.00     0.169 C 
BRANCH  12  13
ATOM     13  S   UNL A   1      31.760  26.728  27.028  1.00  0.00    -0.147 SA
BRANCH  13  14
ATOM     14  C   UNL A   1      31.745  28.443  26.430  1.00  0.00     0.105 C 
BRANCH  14  15
ATOM     15  C   UNL A   1      32.234  28.571  25.009  1.00  0.00    -0.038 A 
ATOM     16  C   UNL A   1      33.601  28.486  24.698  1.00  0.00     0.004 A 
ATOM     17  C   UNL A   1      31.324  28.832  23.976  1.00  0.00     0.004 A 
ATOM     18  C   UNL A   1      34.045  28.635  23.385  1.00  0.00     0.000 A 
ATOM     19  C   UNL A   1      31.771  28.990  22.663  1.00  0.00     0.000 A 
ATOM     20  C   UNL A   1      33.130  28.890  22.368  1.00  0.00     0.000 A 
ENDBRANCH  14  15
ENDBRANCH  13  14
ENDBRANCH  12  13
ENDBRANCH   9  12
ENDBRANCH   6   8
BRANCH   6  21
ATOM     21  C   UNL A   1      32.542  24.731  23.713  1.00  0.00     0.026 C 
ATOM     22  C   UNL A   1      33.891  25.162  23.159  1.00  0.00     0.007 C 
ATOM     23  C   UNL A   1      32.741  24.975  22.223  1.00  0.00     0.007 C 
ENDBRANCH   6  21
ENDBRANCH   4   6
ENDBRANCH   3   4
ENDBRANCH   2   3
ENDBRANCH   1   2
BRANCH   1  24
ATOM     24  O   UNL A   1      37.193  21.761  24.613  1.00  0.00    -0.374 OA
BRANCH  24  25
ATOM     25  C   UNL A   1      37.910  22.377  25.681  1.00  0.00     0.202 C 
BRANCH  25  26
ATOM     26  C   UNL A   1      39.223  21.712  26.117  1.00  0.00     0.261 C 
BRANCH  26  27
ATOM     27  O   UNL A   1      39.920  22.389  27.181  1.00  0.00    -0.460 OA
BRANCH  27  28
ATOM     28  C   UNL A   1      40.822  23.301  26.749  1.00  0.00     0.338 C 
ATOM     29  O   UNL A   1      41.732  23.102  25.948  1.00  0.00    -0.246 OA
BRANCH  28  30
ATOM     30  C   UNL A   1      40.574  24.651  27.284  1.00  0.00     0.060 A 
ATOM     31  C   UNL A   1      41.536  25.630  27.008  1.00  0.00     0.016 A 
ATOM     32  C   UNL A   1      39.576  24.890  28.234  1.00  0.00     0.016 A 
ATOM     33  C   UNL A   1      41.567  26.807  27.754  1.00  0.00     0.010 A 
ATOM     34  C   UNL A   1      39.610  26.076  28.983  1.00  0.00     0.010 A 
ATOM     35  C   UNL A   1      40.647  27.007  28.791  1.00  0.00    -0.014 A 
BRANCH  35  36
ATOM     36  C   UNL A   1      40.918  28.083  29.784  1.00  0.00     0.031 A 
ATOM     37  C   UNL A   1      39.933  29.217  29.927  1.00  0.00     0.074 A 
ATOM     38  C   UNL A   1      41.974  28.012  30.614  1.00  0.00     0.049 A 
ATOM     39  N   UNL A   1      39.925  30.207  30.782  1.00  0.00    -0.248 NA
ATOM     40  C   UNL A   1      38.806  29.235  28.980  1.00  0.00     0.031 C 
ATOM     41  C   UNL A   1      42.990  26.963  30.595  1.00  0.00     0.029 A 
ATOM     42  N   UNL A   1      42.360  28.836  31.642  1.00  0.00    -0.354 N 
ATOM     43  C   UNL A   1      38.803  30.968  30.474  1.00  0.00     0.074 A 
ATOM     44  C   UNL A   1      38.168  30.341  29.336  1.00  0.00     0.031 C 
ATOM     45  C   UNL A   1      43.880  27.199  31.574  1.00  0.00     0.029 A 
ATOM     46  C   UNL A   1      43.502  28.422  32.282  1.00  0.00     0.049 A 
ATOM     47  H   UNL A   1      41.864  29.648  31.896  1.00  0.00     0.167 HD
ATOM     48  C   UNL A   1      38.333  32.080  31.091  1.00  0.00     0.037 A 
ATOM     49  C   UNL A   1      44.167  28.963  33.322  1.00  0.00     0.037 A 
ATOM     50  C   UNL A   1      38.948  32.700  32.235  1.00  0.00     0.049 A 
ATOM     51  C   UNL A   1      43.631  30.204  33.985  1.00  0.00     0.074 A 
ATOM     52  C   UNL A   1      38.531  33.817  32.940  1.00  0.00     0.029 A 
ATOM     53  N   UNL A   1      40.111  32.256  32.844  1.00  0.00    -0.354 N 
ATOM     54  N   UNL A   1      42.553  30.893  33.699  1.00  0.00    -0.248 NA
ATOM     55  C   UNL A   1      44.401  30.736  35.119  1.00  0.00     0.031 C 
ATOM     56  C   UNL A   1      39.458  34.064  33.959  1.00  0.00     0.029 A 
ATOM     57  C   UNL A   1      40.433  33.082  33.908  1.00  0.00     0.049 A 
ATOM     58  H   UNL A   1      40.632  31.469  32.562  1.00  0.00     0.167 HD
ATOM     59  C   UNL A   1      42.499  31.921  34.634  1.00  0.00     0.074 A 
ATOM     60  C   UNL A   1      43.650  31.762  35.499  1.00  0.00     0.031 C 
ATOM     61  C   UNL A   1      41.577  32.907  34.768  1.00  0.00     0.037 A 
BRANCH  48  62
ATOM     62  C   UNL A   1      37.094  32.711  30.522  1.00  0.00     0.058 A 
ATOM     63  C   UNL A   1      35.813  32.362  30.979  1.00  0.00     0.135 A 
ATOM     64  C   UNL A   1      37.189  33.691  29.520  1.00  0.00     0.135 A 
ATOM     65  F   UNL A   1      35.666  31.420  31.922  1.00  0.00    -0.206 F 
ATOM     66  C   UNL A   1      34.668  32.944  30.444  1.00  0.00     0.059 A 
ATOM     67  C   UNL A   1      36.058  34.300  28.986  1.00  0.00     0.059 A 
ATOM     68  F   UNL A   1      38.391  34.059  29.048  1.00  0.00    -0.206 F 
ATOM     69  C   UNL A   1      34.800  33.908  29.443  1.00  0.00     0.060 A 
BRANCH  69  70
ATOM     70  S   UNL A   1      33.309  34.651  28.748  1.00  0.00     0.124 S 
ATOM     71  O   UNL A   1      32.554  34.969  29.955  1.00  0.00    -0.237 OA
ATOM     72  O   UNL A   1      33.838  35.795  28.012  1.00  0.00    -0.237 OA
ATOM     73  O   UNL A   1      32.753  33.584  27.921  1.00  0.00    -0.744 OA
ENDBRANCH  69  70
ENDBRANCH  48  62
BRANCH  49  74
ATOM     74  C   UNL A   1      45.407  28.316  33.821  1.00  0.00     0.058 A 
ATOM     75  C   UNL A   1      46.663  28.658  33.299  1.00  0.00     0.135 A 
ATOM     76  C   UNL A   1      45.359  27.347  34.835  1.00  0.00     0.135 A 
ATOM     77  F   UNL A   1      46.756  29.571  32.321  1.00  0.00    -0.206 F 
ATOM     78  C   UNL A   1      47.830  28.055  33.757  1.00  0.00     0.059 A 
ATOM     79  C   UNL A   1      46.514  26.745  35.324  1.00  0.00     0.059 A 
ATOM     80  F   UNL A   1      44.180  26.992  35.369  1.00  0.00    -0.206 F 
ATOM     81  C   UNL A   1      47.744  27.101  34.772  1.00  0.00     0.060 A 
BRANCH  81  82
ATOM     82  S   UNL A   1      49.267  26.367  35.409  1.00  0.00     0.124 S 
ATOM     83  O   UNL A   1      50.259  27.357  35.011  1.00  0.00    -0.237 OA
ATOM     84  O   UNL A   1      48.992  26.276  36.839  1.00  0.00    -0.237 OA
ATOM     85  O   UNL A   1      49.334  25.085  34.712  1.00  0.00    -0.744 OA
ENDBRANCH  81  82
ENDBRANCH  49  74
BRANCH  61  86
ATOM     86  C   UNL A   1      41.752  33.866  35.911  1.00  0.00     0.058 A 
ATOM     87  C   UNL A   1      42.518  35.035  35.781  1.00  0.00     0.135 A 
ATOM     88  C   UNL A   1      41.119  33.629  37.142  1.00  0.00     0.135 A 
ATOM     89  F   UNL A   1      43.146  35.306  34.626  1.00  0.00    -0.206 F 
ATOM     90  C   UNL A   1      42.675  35.921  36.842  1.00  0.00     0.059 A 
ATOM     91  C   UNL A   1      41.245  34.513  38.209  1.00  0.00     0.059 A 
ATOM     92  F   UNL A   1      40.364  32.532  37.314  1.00  0.00    -0.206 F 
ATOM     93  C   UNL A   1      42.039  35.649  38.054  1.00  0.00     0.060 A 
BRANCH  93  94
ATOM     94  S   UNL A   1      42.235  36.809  39.425  1.00  0.00     0.124 S 
ATOM     95  O   UNL A   1      42.668  35.922  40.499  1.00  0.00    -0.237 OA
ATOM     96  O   UNL A   1      43.247  37.731  38.918  1.00  0.00    -0.237 OA
ATOM     97  O   UNL A   1      40.900  37.379  39.578  1.00  0.00    -0.744 OA
ENDBRANCH  93  94
ENDBRANCH  61  86
ENDBRANCH  35  36
ENDBRANCH  28  30
ENDBRANCH  27  28
ENDBRANCH  26  27
ENDBRANCH  25  26
ENDBRANCH  24  25
ENDBRANCH   1  24
TORSDOF 23
ENDMDL
MODEL 3
REMARK VINA RESULT:      -9.2      8.576     16.477
REMARK SMILES C[C@@](NC(=O)CSCc1ccccc1)(C(=O)OCCOCCOC(=O)c1ccc(-c2c3nc(c(-c4c(F)cc(S(=O)(=O)[O-])cc4F)c4ccc([nH]4)c(-c4c(F)cc(S(=O)(=O)[O-])cc4F)c4nc(c(-c5c(F)cc(S(=O)(=O)[O-])cc5F)c5ccc2[nH]5)C=C4)C=C3)cc1)C1CC1
REMARK SMILES IDX 19 1 18 2 17 3 15 4 16 5 2 6 1 7 3 8 4 9 5 11 6 12 7 13 8 14
REMARK SMILES IDX 9 15 10 16 14 17 11 18 13 19 12 20 92 21 93 22 94 23 20 24
REMARK SMILES IDX 21 25 22 26 23 27 24 28 25 29 26 30 27 31 91 32 28 33 90 34
REMARK SMILES IDX 29 35 30 36 31 37 84 38 32 39 89 40 83 41 85 42 33 43 88 44
REMARK SMILES IDX 82 45 81 46 34 48 68 49 47 50 67 51 48 52 51 53 66 54 86 55
REMARK SMILES IDX 49 56 50 57 65 59 87 60 52 61 35 62 36 63 45 64 37 65 38 66
REMARK SMILES IDX 44 67 46 68 39 69 40 70 41 71 42 72 43 73 69 74 70 75 79 76
REMARK SMILES IDX 71 77 72 78 78 79 80 80 73 81 74 82 75 83 76 84 77 85 53 86
REMARK SMILES IDX 54 87 63 88 55 89 56 90 62 91 64 92 57 93 58 94 59 95 60 96
REMARK SMILES IDX 61 97
REMARK H PARENT 3 10 85 47 51 58
REMARK Flexibility Score: inf
ROOT
ATOM      1  C   UNL A   1      46.946  22.371  35.690  1.00  0.00     0.202 C 
ENDROOT
BRANCH   1   2
ATOM      2  C   UNL A   1      47.689  21.129  35.195  1.00  0.00     0.261 C 
BRANCH   2   3
ATOM      3  O   UNL A   1      48.943  21.515  34.613  1.00  0.00    -0.461 OA
BRANCH   3   4
ATOM      4  C   UNL A   1      49.594  20.541  33.928  1.00  0.00     0.331 C 
ATOM      5  O   UNL A   1      49.116  19.937  32.972  1.00  0.00    -0.249 OA
BRANCH   4   6
ATOM      6  C   UNL A   1      51.038  20.315  34.469  1.00  0.00     0.138 C 
ATOM      7  C   UNL A   1      51.677  21.499  35.220  1.00  0.00     0.048 C 
BRANCH   6   8
ATOM      8  N   UNL A   1      51.058  19.138  35.382  1.00  0.00    -0.340 N 
ATOM      9  C   UNL A   1      51.122  19.062  36.746  1.00  0.00     0.230 C 
ATOM     10  H   UNL A   1      51.017  18.266  34.926  1.00  0.00     0.164 HD
ATOM     11  O   UNL A   1      51.622  18.037  37.222  1.00  0.00    -0.274 OA
BRANCH   9  12
ATOM     12  C   UNL A   1      50.509  20.117  37.655  1.00  0.00     0.169 C 
BRANCH  12  13
ATOM     13  S   UNL A   1      49.834  19.419  39.188  1.00  0.00    -0.147 SA
BRANCH  13  14
ATOM     14  C   UNL A   1      48.111  19.139  38.687  1.00  0.00     0.105 C 
BRANCH  14  15
ATOM     15  C   UNL A   1      47.370  18.225  39.629  1.00  0.00    -0.038 A 
ATOM     16  C   UNL A   1      48.027  17.587  40.694  1.00  0.00     0.004 A 
ATOM     17  C   UNL A   1      46.010  17.957  39.422  1.00  0.00     0.004 A 
ATOM     18  C   UNL A   1      47.339  16.720  41.542  1.00  0.00     0.000 A 
ATOM     19  C   UNL A   1      45.324  17.084  40.267  1.00  0.00     0.000 A 
ATOM     20  C   UNL A   1      45.987  16.466  41.326  1.00  0.00     0.000 A 
ENDBRANCH  14  15
ENDBRANCH  13  14
ENDBRANCH  12  13
ENDBRANCH   9  12
ENDBRANCH   6   8
BRANCH   6  21
ATOM     21  C   UNL A   1      51.963  19.949  33.268  1.00  0.00     0.026 C 
ATOM     22  C   UNL A   1      53.131  20.820  32.830  1.00  0.00     0.007 C 
ATOM     23  C   UNL A   1      53.402  19.488  33.451  1.00  0.00     0.007 C 
ENDBRANCH   6  21
ENDBRANCH   4   6
ENDBRANCH   3   4
ENDBRANCH   2   3
ENDBRANCH   1   2
BRANCH   1  24
ATOM     24  O   UNL A   1      46.901  22.525  37.112  1.00  0.00    -0.374 OA
BRANCH  24  25
ATOM     25  C   UNL A   1      48.074  23.014  37.758  1.00  0.00     0.202 C 
BRANCH  25  26
ATOM     26  C   UNL A   1      48.192  24.534  37.940  1.00  0.00     0.261 C 
BRANCH  26  27
ATOM     27  O   UNL A   1      47.080  25.292  37.428  1.00  0.00    -0.460 OA
BRANCH  27  28
ATOM     28  C   UNL A   1      47.444  26.410  36.758  1.00  0.00     0.338 C 
ATOM     29  O   UNL A   1      48.521  26.607  36.200  1.00  0.00    -0.246 OA
BRANCH  28  30
ATOM     30  C   UNL A   1      46.363  27.409  36.676  1.00  0.00     0.060 A 
ATOM     31  C   UNL A   1      45.087  26.998  37.082  1.00  0.00     0.016 A 
ATOM     32  C   UNL A   1      46.531  28.614  35.988  1.00  0.00     0.016 A 
ATOM     33  C   UNL A   1      43.966  27.737  36.710  1.00  0.00     0.010 A 
ATOM     34  C   UNL A   1      45.400  29.356  35.616  1.00  0.00     0.010 A 
ATOM     35  C   UNL A   1      44.110  28.883  35.917  1.00  0.00    -0.014 A 
BRANCH  35  36
ATOM     36  C   UNL A   1      42.902  29.441  35.248  1.00  0.00     0.031 A 
ATOM     37  C   UNL A   1      42.177  30.600  35.886  1.00  0.00     0.074 A 
ATOM     38  C   UNL A   1      42.504  28.989  34.045  1.00  0.00     0.049 A 
ATOM     39  N   UNL A   1      41.162  31.293  35.437  1.00  0.00    -0.248 NA
ATOM     40  C   UNL A   1      42.663  31.036  37.206  1.00  0.00     0.031 C 
ATOM     41  C   UNL A   1      43.125  27.890  33.312  1.00  0.00     0.029 A 
ATOM     42  N   UNL A   1      41.486  29.409  33.225  1.00  0.00    -0.354 N 
ATOM     43  C   UNL A   1      40.884  32.240  36.417  1.00  0.00     0.074 A 
ATOM     44  C   UNL A   1      41.818  32.015  37.498  1.00  0.00     0.031 C 
ATOM     45  C   UNL A   1      42.483  27.727  32.143  1.00  0.00     0.029 A 
ATOM     46  C   UNL A   1      41.398  28.704  32.050  1.00  0.00     0.049 A 
ATOM     47  H   UNL A   1      40.876  30.147  33.458  1.00  0.00     0.167 HD
ATOM     48  C   UNL A   1      39.944  33.217  36.414  1.00  0.00     0.037 A 
ATOM     49  C   UNL A   1      40.544  28.832  31.015  1.00  0.00     0.037 A 
ATOM     50  C   UNL A   1      39.023  33.460  35.335  1.00  0.00     0.049 A 
ATOM     51  C   UNL A   1      39.503  29.919  31.038  1.00  0.00     0.074 A 
ATOM     52  C   UNL A   1      38.052  34.441  35.234  1.00  0.00     0.029 A 
ATOM     53  N   UNL A   1      38.959  32.714  34.168  1.00  0.00    -0.354 N 
ATOM     54  N   UNL A   1      39.273  30.824  31.960  1.00  0.00    -0.248 NA
ATOM     55  C   UNL A   1      38.610  30.009  29.873  1.00  0.00     0.031 C 
ATOM     56  C   UNL A   1      37.381  34.271  34.018  1.00  0.00     0.029 A 
ATOM     57  C   UNL A   1      37.958  33.206  33.347  1.00  0.00     0.049 A 
ATOM     58  H   UNL A   1      39.540  31.948  33.955  1.00  0.00     0.167 HD
ATOM     59  C   UNL A   1      38.230  31.605  31.474  1.00  0.00     0.074 A 
ATOM     60  C   UNL A   1      37.877  31.072  30.175  1.00  0.00     0.031 C 
ATOM     61  C   UNL A   1      37.622  32.672  32.051  1.00  0.00     0.037 A 
BRANCH  48  62
ATOM     62  C   UNL A   1      39.857  34.091  37.633  1.00  0.00     0.058 A 
ATOM     63  C   UNL A   1      40.552  35.308  37.717  1.00  0.00     0.135 A 
ATOM     64  C   UNL A   1      39.053  33.717  38.721  1.00  0.00     0.135 A 
ATOM     65  F   UNL A   1      41.347  35.704  36.712  1.00  0.00    -0.206 F 
ATOM     66  C   UNL A   1      40.474  36.111  38.852  1.00  0.00     0.059 A 
ATOM     67  C   UNL A   1      38.944  34.515  39.856  1.00  0.00     0.059 A 
ATOM     68  F   UNL A   1      38.369  32.562  38.690  1.00  0.00    -0.206 F 
ATOM     69  C   UNL A   1      39.672  35.703  39.919  1.00  0.00     0.060 A 
BRANCH  69  70
ATOM     70  S   UNL A   1      39.583  36.747  41.389  1.00  0.00     0.124 S 
ATOM     71  O   UNL A   1      38.669  35.983  42.232  1.00  0.00    -0.237 OA
ATOM     72  O   UNL A   1      40.972  36.785  41.835  1.00  0.00    -0.237 OA
ATOM     73  O   UNL A   1      39.060  38.009  40.876  1.00  0.00    -0.744 OA
ENDBRANCH  69  70
ENDBRANCH  48  62
BRANCH  49  74
ATOM     74  C   UNL A   1      40.654  27.917  29.851  1.00  0.00     0.058 A 
ATOM     75  C   UNL A   1      39.731  26.879  29.657  1.00  0.00     0.135 A 
ATOM     76  C   UNL A   1      41.682  28.068  28.908  1.00  0.00     0.135 A 
ATOM     77  F   UNL A   1      38.739  26.689  30.538  1.00  0.00    -0.206 F 
ATOM     78  C   UNL A   1      39.828  26.014  28.571  1.00  0.00     0.059 A 
ATOM     79  C   UNL A   1      41.787  27.229  27.803  1.00  0.00     0.059 A 
ATOM     80  F   UNL A   1      42.585  29.050  29.050  1.00  0.00    -0.206 F 
ATOM     81  C   UNL A   1      40.859  26.200  27.649  1.00  0.00     0.060 A 
BRANCH  81  82
ATOM     82  S   UNL A   1      40.944  25.115  26.207  1.00  0.00     0.124 S 
ATOM     83  O   UNL A   1      39.597  24.561  26.176  1.00  0.00    -0.237 OA
ATOM     84  O   UNL A   1      41.276  26.049  25.136  1.00  0.00    -0.237 OA
ATOM     85  O   UNL A   1      42.007  24.178  26.558  1.00  0.00    -0.744 OA
ENDBRANCH  81  82
ENDBRANCH  49  74
BRANCH  61  86
ATOM     86  C   UNL A   1      36.540  33.357  31.266  1.00  0.00     0.058 A 
ATOM     87  C   UNL A   1      36.833  34.164  30.155  1.00  0.00     0.135 A 
ATOM     88  C   UNL A   1      35.190  33.180  31.611  1.00  0.00     0.135 A 
ATOM     89  F   UNL A   1      38.107  34.368  29.786  1.00  0.00    -0.206 F 
ATOM     90  C   UNL A   1      35.826  34.794  29.430  1.00  0.00     0.059 A 
ATOM     91  C   UNL A   1      34.167  33.784  30.888  1.00  0.00     0.059 A 
ATOM     92  F   UNL A   1      34.856  32.408  32.658  1.00  0.00    -0.206 F 
ATOM     93  C   UNL A   1      34.496  34.603  29.808  1.00  0.00     0.060 A 
BRANCH  93  94
ATOM     94  S   UNL A   1      33.191  35.412  28.856  1.00  0.00     0.124 S 
ATOM     95  O   UNL A   1      32.411  36.049  29.912  1.00  0.00    -0.237 OA
ATOM     96  O   UNL A   1      33.944  36.317  27.992  1.00  0.00    -0.237 OA
ATOM     97  O   UNL A   1      32.536  34.304  28.170  1.00  0.00    -0.744 OA
ENDBRANCH  93  94
ENDBRANCH  61  86
ENDBRANCH  35  36
ENDBRANCH  28  30
ENDBRANCH  27  28
ENDBRANCH  26  27
ENDBRANCH  25  26
ENDBRANCH  24  25
ENDBRANCH   1  24
TORSDOF 23
ENDMDL
