MODEL 1
REMARK VINA RESULT:     -10.2      0.000      0.000
REMARK SMILES CC(C)C[C@H](Nc1ncnc2scc(-c3ccccc3)c12)C(=O)OCCOCCOC(=O)c1ccc(-c2c3nc(c(-c4c(F)cc(S(=O)(=O)[O-])cc4F)c4ccc([nH]4)c(-c4c(F)cc(S(=O)(=O)[O-])cc4F)c4nc(c(-c5c(F)cc(S(=O)(=O)[O-])cc5F)c5ccc2[nH]5)C=C4)C=C3)cc1
REMARK SMILES IDX 27 1 26 2 25 3 24 4 22 5 23 6 5 7 4 8 2 9 1 10 3 11 6 12
REMARK SMILES IDX 7 14 8 15 21 16 9 17 11 18 14 19 10 20 12 21 13 22 15 23
REMARK SMILES IDX 16 24 20 25 17 26 19 27 18 28 28 29 29 30 30 31 31 32 32 33
REMARK SMILES IDX 33 34 34 35 98 36 35 37 97 38 36 39 37 40 38 41 91 42 39 43
REMARK SMILES IDX 96 44 90 45 92 46 40 47 95 48 89 49 88 50 41 52 75 53 54 54
REMARK SMILES IDX 74 55 55 56 58 57 73 58 93 59 56 60 57 61 72 63 94 64 59 65
REMARK SMILES IDX 42 66 43 67 52 68 44 69 45 70 51 71 53 72 46 73 47 74 48 75
REMARK SMILES IDX 49 76 50 77 76 78 77 79 86 80 78 81 79 82 85 83 87 84 80 85
REMARK SMILES IDX 81 86 82 87 83 88 84 89 60 90 61 91 70 92 62 93 63 94 69 95
REMARK SMILES IDX 71 96 64 97 65 98 66 99 67 100 68 101
REMARK H PARENT 6 13 92 51 58 62
REMARK Flexibility Score: inf
ROOT
ATOM      1  O   UNL A   1      33.410  31.058  27.289  1.00  0.00    -0.374 OA
ENDROOT
BRANCH   1   2
ATOM      2  C   UNL A   1      33.992  29.777  27.069  1.00  0.00     0.202 C 
BRANCH   2   3
ATOM      3  C   UNL A   1      33.215  28.754  26.232  1.00  0.00     0.261 C 
BRANCH   3   4
ATOM      4  O   UNL A   1      33.882  27.496  26.083  1.00  0.00    -0.462 OA
BRANCH   4   5
ATOM      5  C   UNL A   1      33.838  27.010  24.811  1.00  0.00     0.328 C 
ATOM      6  O   UNL A   1      34.024  27.685  23.800  1.00  0.00    -0.250 OA
BRANCH   5   7
ATOM      7  C   UNL A   1      33.456  25.534  24.740  1.00  0.00     0.191 C 
BRANCH   7   8
ATOM      8  C   UNL A   1      33.218  25.023  26.169  1.00  0.00     0.040 C 
BRANCH   8   9
ATOM      9  C   UNL A   1      31.769  24.604  26.470  1.00  0.00    -0.015 C 
ATOM     10  C   UNL A   1      30.829  24.928  25.308  1.00  0.00     0.007 C 
ATOM     11  C   UNL A   1      31.733  23.106  26.772  1.00  0.00     0.007 C 
ENDBRANCH   8   9
ENDBRANCH   7   8
BRANCH   7  12
ATOM     12  N   UNL A   1      34.447  24.658  24.066  1.00  0.00    -0.356 N 
ATOM     13  H   UNL A   1      35.393  24.897  23.932  1.00  0.00     0.163 HD
BRANCH  12  14
ATOM     14  C   UNL A   1      33.877  23.454  23.644  1.00  0.00     0.139 A 
ATOM     15  N   UNL A   1      32.840  23.556  22.776  1.00  0.00    -0.219 NA
ATOM     16  C   UNL A   1      34.194  22.178  24.172  1.00  0.00     0.062 A 
ATOM     17  C   UNL A   1      32.111  22.475  22.487  1.00  0.00     0.225 A 
ATOM     18  C   UNL A   1      33.296  21.168  23.835  1.00  0.00     0.129 A 
ATOM     19  C   UNL A   1      35.232  21.643  25.035  1.00  0.00     0.006 A 
ATOM     20  N   UNL A   1      32.248  21.257  22.999  1.00  0.00    -0.225 NA
ATOM     21  S   UNL A   1      33.595  19.697  24.636  1.00  0.00    -0.123 S 
ATOM     22  C   UNL A   1      34.981  20.329  25.393  1.00  0.00     0.076 A 
BRANCH  19  23
ATOM     23  C   UNL A   1      36.476  22.257  25.481  1.00  0.00    -0.017 A 
ATOM     24  C   UNL A   1      37.679  21.551  25.327  1.00  0.00     0.009 A 
ATOM     25  C   UNL A   1      36.499  23.513  26.090  1.00  0.00     0.009 A 
ATOM     26  C   UNL A   1      38.886  22.107  25.751  1.00  0.00     0.001 A 
ATOM     27  C   UNL A   1      37.711  24.081  26.487  1.00  0.00     0.001 A 
ATOM     28  C   UNL A   1      38.904  23.379  26.317  1.00  0.00     0.000 A 
ENDBRANCH  19  23
ENDBRANCH  12  14
ENDBRANCH   7  12
ENDBRANCH   5   7
ENDBRANCH   4   5
ENDBRANCH   3   4
ENDBRANCH   2   3
ENDBRANCH   1   2
BRANCH   1  29
ATOM     29  C   UNL A   1      34.208  32.068  27.910  1.00  0.00     0.202 C 
BRANCH  29  30
ATOM     30  C   UNL A   1      34.857  31.750  29.261  1.00  0.00     0.261 C 
BRANCH  30  31
ATOM     31  O   UNL A   1      36.288  31.637  29.169  1.00  0.00    -0.460 OA
BRANCH  31  32
ATOM     32  C   UNL A   1      36.874  30.952  30.177  1.00  0.00     0.338 C 
ATOM     33  O   UNL A   1      36.425  30.751  31.297  1.00  0.00    -0.246 OA
BRANCH  32  34
ATOM     34  C   UNL A   1      38.086  30.282  29.677  1.00  0.00     0.060 A 
ATOM     35  C   UNL A   1      39.096  29.973  30.601  1.00  0.00     0.016 A 
ATOM     36  C   UNL A   1      38.263  30.038  28.316  1.00  0.00     0.016 A 
ATOM     37  C   UNL A   1      40.312  29.461  30.157  1.00  0.00     0.010 A 
ATOM     38  C   UNL A   1      39.489  29.542  27.872  1.00  0.00     0.010 A 
ATOM     39  C   UNL A   1      40.528  29.286  28.786  1.00  0.00    -0.014 A 
BRANCH  39  40
ATOM     40  C   UNL A   1      41.887  29.000  28.276  1.00  0.00     0.031 A 
ATOM     41  C   UNL A   1      42.221  27.593  27.874  1.00  0.00     0.074 A 
ATOM     42  C   UNL A   1      42.815  29.970  28.211  1.00  0.00     0.049 A 
ATOM     43  N   UNL A   1      43.375  27.076  27.545  1.00  0.00    -0.248 NA
ATOM     44  C   UNL A   1      41.102  26.638  27.855  1.00  0.00     0.031 C 
ATOM     45  C   UNL A   1      42.588  31.376  28.539  1.00  0.00     0.029 A 
ATOM     46  N   UNL A   1      44.144  29.907  27.879  1.00  0.00    -0.354 N 
ATOM     47  C   UNL A   1      43.129  25.729  27.306  1.00  0.00     0.074 A 
ATOM     48  C   UNL A   1      41.718  25.508  27.541  1.00  0.00     0.031 C 
ATOM     49  C   UNL A   1      43.752  32.038  28.433  1.00  0.00     0.029 A 
ATOM     50  C   UNL A   1      44.808  31.094  28.068  1.00  0.00     0.049 A 
ATOM     51  H   UNL A   1      44.578  29.092  27.537  1.00  0.00     0.167 HD
ATOM     52  C   UNL A   1      44.003  24.766  26.930  1.00  0.00     0.037 A 
ATOM     53  C   UNL A   1      46.126  31.374  28.001  1.00  0.00     0.037 A 
ATOM     54  C   UNL A   1      45.403  25.004  26.701  1.00  0.00     0.049 A 
ATOM     55  C   UNL A   1      47.093  30.284  27.625  1.00  0.00     0.074 A 
ATOM     56  C   UNL A   1      46.371  24.108  26.283  1.00  0.00     0.029 A 
ATOM     57  N   UNL A   1      46.039  26.224  26.887  1.00  0.00    -0.354 N 
ATOM     58  N   UNL A   1      46.848  29.020  27.371  1.00  0.00    -0.248 NA
ATOM     59  C   UNL A   1      48.511  30.653  27.523  1.00  0.00     0.031 C 
ATOM     60  C   UNL A   1      47.601  24.774  26.266  1.00  0.00     0.029 A 
ATOM     61  C   UNL A   1      47.391  26.098  26.620  1.00  0.00     0.049 A 
ATOM     62  H   UNL A   1      45.593  27.055  27.167  1.00  0.00     0.167 HD
ATOM     63  C   UNL A   1      48.076  28.447  27.055  1.00  0.00     0.074 A 
ATOM     64  C   UNL A   1      49.063  29.505  27.150  1.00  0.00     0.031 C 
ATOM     65  C   UNL A   1      48.358  27.166  26.712  1.00  0.00     0.037 A 
BRANCH  52  66
ATOM     66  C   UNL A   1      43.473  23.365  26.798  1.00  0.00     0.058 A 
ATOM     67  C   UNL A   1      43.142  22.584  27.918  1.00  0.00     0.135 A 
ATOM     68  C   UNL A   1      43.303  22.792  25.527  1.00  0.00     0.135 A 
ATOM     69  F   UNL A   1      43.301  23.077  29.156  1.00  0.00    -0.206 F 
ATOM     70  C   UNL A   1      42.706  21.270  27.784  1.00  0.00     0.059 A 
ATOM     71  C   UNL A   1      42.841  21.489  25.369  1.00  0.00     0.059 A 
ATOM     72  F   UNL A   1      43.604  23.494  24.424  1.00  0.00    -0.206 F 
ATOM     73  C   UNL A   1      42.567  20.729  26.505  1.00  0.00     0.060 A 
BRANCH  73  74
ATOM     74  S   UNL A   1      42.035  19.011  26.344  1.00  0.00     0.124 S 
ATOM     75  O   UNL A   1      40.655  19.176  25.900  1.00  0.00    -0.237 OA
ATOM     76  O   UNL A   1      42.964  18.487  25.348  1.00  0.00    -0.237 OA
ATOM     77  O   UNL A   1      42.201  18.477  27.693  1.00  0.00    -0.744 OA
ENDBRANCH  73  74
ENDBRANCH  52  66
BRANCH  53  78
ATOM     78  C   UNL A   1      46.590  32.745  28.331  1.00  0.00     0.058 A 
ATOM     79  C   UNL A   1      47.037  33.073  29.618  1.00  0.00     0.135 A 
ATOM     80  C   UNL A   1      46.659  33.739  27.340  1.00  0.00     0.135 A 
ATOM     81  F   UNL A   1      46.980  32.160  30.600  1.00  0.00    -0.206 F 
ATOM     82  C   UNL A   1      47.546  34.333  29.912  1.00  0.00     0.059 A 
ATOM     83  C   UNL A   1      47.184  35.000  27.604  1.00  0.00     0.059 A 
ATOM     84  F   UNL A   1      46.257  33.469  26.088  1.00  0.00    -0.206 F 
ATOM     85  C   UNL A   1      47.627  35.287  28.894  1.00  0.00     0.060 A 
BRANCH  85  86
ATOM     86  S   UNL A   1      48.388  36.884  29.259  1.00  0.00     0.124 S 
ATOM     87  O   UNL A   1      47.802  37.731  28.229  1.00  0.00    -0.237 OA
ATOM     88  O   UNL A   1      47.936  37.131  30.625  1.00  0.00    -0.237 OA
ATOM     89  O   UNL A   1      49.816  36.613  29.121  1.00  0.00    -0.744 OA
ENDBRANCH  85  86
ENDBRANCH  53  78
BRANCH  65  90
ATOM     90  C   UNL A   1      49.784  26.828  26.373  1.00  0.00     0.058 A 
ATOM     91  C   UNL A   1      50.684  26.365  27.345  1.00  0.00     0.135 A 
ATOM     92  C   UNL A   1      50.222  26.870  25.039  1.00  0.00     0.135 A 
ATOM     93  F   UNL A   1      50.318  26.313  28.635  1.00  0.00    -0.206 F 
ATOM     94  C   UNL A   1      51.970  25.957  27.005  1.00  0.00     0.059 A 
ATOM     95  C   UNL A   1      51.494  26.444  24.673  1.00  0.00     0.059 A 
ATOM     96  F   UNL A   1      49.395  27.297  24.070  1.00  0.00    -0.206 F 
ATOM     97  C   UNL A   1      52.363  25.991  25.665  1.00  0.00     0.060 A 
BRANCH  97  98
ATOM     98  S   UNL A   1      54.009  25.390  25.228  1.00  0.00     0.124 S 
ATOM     99  O   UNL A   1      54.467  26.427  24.310  1.00  0.00    -0.237 OA
ATOM    100  O   UNL A   1      54.680  25.349  26.524  1.00  0.00    -0.237 OA
ATOM    101  O   UNL A   1      53.746  24.087  24.624  1.00  0.00    -0.744 OA
ENDBRANCH  97  98
ENDBRANCH  65  90
ENDBRANCH  39  40
ENDBRANCH  32  34
ENDBRANCH  31  32
ENDBRANCH  30  31
ENDBRANCH  29  30
ENDBRANCH   1  29
TORSDOF 22
ENDMDL
MODEL 2
REMARK VINA RESULT:     -10.0      3.359      9.003
REMARK SMILES CC(C)C[C@H](Nc1ncnc2scc(-c3ccccc3)c12)C(=O)OCCOCCOC(=O)c1ccc(-c2c3nc(c(-c4c(F)cc(S(=O)(=O)[O-])cc4F)c4ccc([nH]4)c(-c4c(F)cc(S(=O)(=O)[O-])cc4F)c4nc(c(-c5c(F)cc(S(=O)(=O)[O-])cc5F)c5ccc2[nH]5)C=C4)C=C3)cc1
REMARK SMILES IDX 27 1 26 2 25 3 24 4 22 5 23 6 5 7 4 8 2 9 1 10 3 11 6 12
REMARK SMILES IDX 7 14 8 15 21 16 9 17 11 18 14 19 10 20 12 21 13 22 15 23
REMARK SMILES IDX 16 24 20 25 17 26 19 27 18 28 28 29 29 30 30 31 31 32 32 33
REMARK SMILES IDX 33 34 34 35 98 36 35 37 97 38 36 39 37 40 38 41 91 42 39 43
REMARK SMILES IDX 96 44 90 45 92 46 40 47 95 48 89 49 88 50 41 52 75 53 54 54
REMARK SMILES IDX 74 55 55 56 58 57 73 58 93 59 56 60 57 61 72 63 94 64 59 65
REMARK SMILES IDX 42 66 43 67 52 68 44 69 45 70 51 71 53 72 46 73 47 74 48 75
REMARK SMILES IDX 49 76 50 77 76 78 77 79 86 80 78 81 79 82 85 83 87 84 80 85
REMARK SMILES IDX 81 86 82 87 83 88 84 89 60 90 61 91 70 92 62 93 63 94 69 95
REMARK SMILES IDX 71 96 64 97 65 98 66 99 67 100 68 101
REMARK H PARENT 6 13 92 51 58 62
REMARK Flexibility Score: inf
ROOT
ATOM      1  O   UNL A   1      35.382  20.355  25.228  1.00  0.00    -0.374 OA
ENDROOT
BRANCH   1   2
ATOM      2  C   UNL A   1      34.001  20.690  25.140  1.00  0.00     0.202 C 
BRANCH   2   3
ATOM      3  C   UNL A   1      33.393  21.584  26.227  1.00  0.00     0.261 C 
BRANCH   3   4
ATOM      4  O   UNL A   1      32.302  22.392  25.774  1.00  0.00    -0.462 OA
BRANCH   4   5
ATOM      5  C   UNL A   1      32.120  23.518  26.520  1.00  0.00     0.328 C 
ATOM      6  O   UNL A   1      31.801  23.523  27.708  1.00  0.00    -0.250 OA
BRANCH   5   7
ATOM      7  C   UNL A   1      32.275  24.807  25.718  1.00  0.00     0.191 C 
BRANCH   7   8
ATOM      8  C   UNL A   1      33.774  25.092  25.538  1.00  0.00     0.040 C 
BRANCH   8   9
ATOM      9  C   UNL A   1      34.243  25.170  24.075  1.00  0.00    -0.015 C 
ATOM     10  C   UNL A   1      35.171  24.010  23.711  1.00  0.00     0.007 C 
ATOM     11  C   UNL A   1      33.020  25.172  23.158  1.00  0.00     0.007 C 
ENDBRANCH   8   9
ENDBRANCH   7   8
BRANCH   7  12
ATOM     12  N   UNL A   1      31.618  26.000  26.309  1.00  0.00    -0.356 N 
ATOM     13  H   UNL A   1      31.853  26.381  27.186  1.00  0.00     0.163 HD
BRANCH  12  14
ATOM     14  C   UNL A   1      30.627  26.518  25.471  1.00  0.00     0.139 A 
ATOM     15  N   UNL A   1      29.560  25.712  25.240  1.00  0.00    -0.219 NA
ATOM     16  C   UNL A   1      30.733  27.726  24.739  1.00  0.00     0.062 A 
ATOM     17  C   UNL A   1      28.675  26.042  24.296  1.00  0.00     0.225 A 
ATOM     18  C   UNL A   1      29.775  27.889  23.742  1.00  0.00     0.129 A 
ATOM     19  C   UNL A   1      31.639  28.861  24.738  1.00  0.00     0.006 A 
ATOM     20  N   UNL A   1      28.727  27.089  23.480  1.00  0.00    -0.225 NA
ATOM     21  S   UNL A   1      30.043  29.252  22.758  1.00  0.00    -0.123 S 
ATOM     22  C   UNL A   1      31.394  29.718  23.680  1.00  0.00     0.076 A 
BRANCH  19  23
ATOM     23  C   UNL A   1      32.666  29.229  25.706  1.00  0.00    -0.017 A 
ATOM     24  C   UNL A   1      33.821  28.439  25.809  1.00  0.00     0.009 A 
ATOM     25  C   UNL A   1      32.513  30.324  26.557  1.00  0.00     0.009 A 
ATOM     26  C   UNL A   1      34.818  28.758  26.730  1.00  0.00     0.001 A 
ATOM     27  C   UNL A   1      33.525  30.661  27.459  1.00  0.00     0.001 A 
ATOM     28  C   UNL A   1      34.677  29.879  27.545  1.00  0.00     0.000 A 
ENDBRANCH  19  23
ENDBRANCH  12  14
ENDBRANCH   7  12
ENDBRANCH   5   7
ENDBRANCH   4   5
ENDBRANCH   3   4
ENDBRANCH   2   3
ENDBRANCH   1   2
BRANCH   1  29
ATOM     29  C   UNL A   1      36.338  21.417  25.266  1.00  0.00     0.202 C 
BRANCH  29  30
ATOM     30  C   UNL A   1      37.822  21.052  25.376  1.00  0.00     0.261 C 
BRANCH  30  31
ATOM     31  O   UNL A   1      38.654  22.202  25.607  1.00  0.00    -0.460 OA
BRANCH  31  32
ATOM     32  C   UNL A   1      39.548  22.069  26.614  1.00  0.00     0.338 C 
ATOM     33  O   UNL A   1      40.156  21.058  26.937  1.00  0.00    -0.246 OA
BRANCH  32  34
ATOM     34  C   UNL A   1      39.859  23.395  27.174  1.00  0.00     0.060 A 
ATOM     35  C   UNL A   1      39.222  24.512  26.615  1.00  0.00     0.016 A 
ATOM     36  C   UNL A   1      40.821  23.545  28.171  1.00  0.00     0.016 A 
ATOM     37  C   UNL A   1      39.581  25.794  27.020  1.00  0.00     0.010 A 
ATOM     38  C   UNL A   1      41.193  24.832  28.564  1.00  0.00     0.010 A 
ATOM     39  C   UNL A   1      40.601  25.959  27.964  1.00  0.00    -0.014 A 
BRANCH  39  40
ATOM     40  C   UNL A   1      41.179  27.299  28.210  1.00  0.00     0.031 A 
ATOM     41  C   UNL A   1      42.649  27.498  27.982  1.00  0.00     0.074 A 
ATOM     42  C   UNL A   1      40.413  28.304  28.665  1.00  0.00     0.049 A 
ATOM     43  N   UNL A   1      43.402  28.527  28.269  1.00  0.00    -0.248 NA
ATOM     44  C   UNL A   1      43.369  26.377  27.357  1.00  0.00     0.031 C 
ATOM     45  C   UNL A   1      38.970  28.232  28.885  1.00  0.00     0.029 A 
ATOM     46  N   UNL A   1      40.755  29.573  29.057  1.00  0.00    -0.354 N 
ATOM     47  C   UNL A   1      44.689  28.169  27.886  1.00  0.00     0.074 A 
ATOM     48  C   UNL A   1      44.616  26.824  27.358  1.00  0.00     0.031 C 
ATOM     49  C   UNL A   1      38.555  29.395  29.415  1.00  0.00     0.029 A 
ATOM     50  C   UNL A   1      39.709  30.274  29.605  1.00  0.00     0.049 A 
ATOM     51  H   UNL A   1      41.661  29.945  28.955  1.00  0.00     0.167 HD
ATOM     52  C   UNL A   1      45.827  28.898  27.974  1.00  0.00     0.037 A 
ATOM     53  C   UNL A   1      39.694  31.468  30.232  1.00  0.00     0.037 A 
ATOM     54  C   UNL A   1      45.881  30.235  28.502  1.00  0.00     0.049 A 
ATOM     55  C   UNL A   1      40.974  32.248  30.361  1.00  0.00     0.074 A 
ATOM     56  C   UNL A   1      46.974  31.077  28.604  1.00  0.00     0.029 A 
ATOM     57  N   UNL A   1      44.796  30.920  29.034  1.00  0.00    -0.354 N 
ATOM     58  N   UNL A   1      42.182  31.916  29.970  1.00  0.00    -0.248 NA
ATOM     59  C   UNL A   1      40.894  33.563  31.013  1.00  0.00     0.031 C 
ATOM     60  C   UNL A   1      46.561  32.250  29.243  1.00  0.00     0.029 A 
ATOM     61  C   UNL A   1      45.199  32.162  29.491  1.00  0.00     0.049 A 
ATOM     62  H   UNL A   1      43.876  30.571  29.078  1.00  0.00     0.167 HD
ATOM     63  C   UNL A   1      43.002  32.990  30.304  1.00  0.00     0.074 A 
ATOM     64  C   UNL A   1      42.150  33.982  30.931  1.00  0.00     0.031 C 
ATOM     65  C   UNL A   1      44.335  33.141  30.105  1.00  0.00     0.037 A 
BRANCH  52  66
ATOM     66  C   UNL A   1      47.105  28.237  27.536  1.00  0.00     0.058 A 
ATOM     67  C   UNL A   1      47.596  28.358  26.225  1.00  0.00     0.135 A 
ATOM     68  C   UNL A   1      47.844  27.461  28.443  1.00  0.00     0.135 A 
ATOM     69  F   UNL A   1      46.919  29.075  25.314  1.00  0.00    -0.206 F 
ATOM     70  C   UNL A   1      48.749  27.695  25.818  1.00  0.00     0.059 A 
ATOM     71  C   UNL A   1      49.016  26.813  28.064  1.00  0.00     0.059 A 
ATOM     72  F   UNL A   1      47.420  27.312  29.707  1.00  0.00    -0.206 F 
ATOM     73  C   UNL A   1      49.447  26.918  26.743  1.00  0.00     0.060 A 
BRANCH  73  74
ATOM     74  S   UNL A   1      50.922  26.033  26.193  1.00  0.00     0.124 S 
ATOM     75  O   UNL A   1      51.973  26.994  26.518  1.00  0.00    -0.237 OA
ATOM     76  O   UNL A   1      50.889  24.828  27.014  1.00  0.00    -0.237 OA
ATOM     77  O   UNL A   1      50.681  25.825  24.769  1.00  0.00    -0.744 OA
ENDBRANCH  73  74
ENDBRANCH  52  66
BRANCH  53  78
ATOM     78  C   UNL A   1      38.418  31.967  30.805  1.00  0.00     0.058 A 
ATOM     79  C   UNL A   1      38.040  31.658  32.118  1.00  0.00     0.135 A 
ATOM     80  C   UNL A   1      37.583  32.821  30.066  1.00  0.00     0.135 A 
ATOM     81  F   UNL A   1      38.800  30.838  32.859  1.00  0.00    -0.206 F 
ATOM     82  C   UNL A   1      36.885  32.187  32.685  1.00  0.00     0.059 A 
ATOM     83  C   UNL A   1      36.434  33.379  30.618  1.00  0.00     0.059 A 
ATOM     84  F   UNL A   1      37.909  33.157  28.808  1.00  0.00    -0.206 F 
ATOM     85  C   UNL A   1      36.095  33.057  31.930  1.00  0.00     0.060 A 
BRANCH  85  86
ATOM     86  S   UNL A   1      34.656  33.822  32.711  1.00  0.00     0.124 S 
ATOM     87  O   UNL A   1      33.651  32.777  32.561  1.00  0.00    -0.237 OA
ATOM     88  O   UNL A   1      35.137  34.058  34.069  1.00  0.00    -0.237 OA
ATOM     89  O   UNL A   1      34.444  35.026  31.913  1.00  0.00    -0.744 OA
ENDBRANCH  85  86
ENDBRANCH  53  78
BRANCH  65  90
ATOM     90  C   UNL A   1      44.964  34.439  30.530  1.00  0.00     0.058 A 
ATOM     91  C   UNL A   1      44.993  35.557  29.684  1.00  0.00     0.135 A 
ATOM     92  C   UNL A   1      45.451  34.593  31.839  1.00  0.00     0.135 A 
ATOM     93  F   UNL A   1      44.548  35.461  28.421  1.00  0.00    -0.206 F 
ATOM     94  C   UNL A   1      45.484  36.784  30.121  1.00  0.00     0.059 A 
ATOM     95  C   UNL A   1      45.923  35.815  32.304  1.00  0.00     0.059 A 
ATOM     96  F   UNL A   1      45.437  33.555  32.691  1.00  0.00    -0.206 F 
ATOM     97  C   UNL A   1      45.939  36.906  31.436  1.00  0.00     0.060 A 
BRANCH  97  98
ATOM     98  S   UNL A   1      46.505  38.521  32.012  1.00  0.00     0.124 S 
ATOM     99  O   UNL A   1      45.325  39.012  32.716  1.00  0.00    -0.237 OA
ATOM    100  O   UNL A   1      47.645  38.170  32.853  1.00  0.00    -0.237 OA
ATOM    101  O   UNL A   1      46.838  39.224  30.777  1.00  0.00    -0.744 OA
ENDBRANCH  97  98
ENDBRANCH  65  90
ENDBRANCH  39  40
ENDBRANCH  32  34
ENDBRANCH  31  32
ENDBRANCH  30  31
ENDBRANCH  29  30
ENDBRANCH   1  29
TORSDOF 22
ENDMDL
MODEL 3
REMARK VINA RESULT:      -9.8      2.226      8.571
REMARK SMILES CC(C)C[C@H](Nc1ncnc2scc(-c3ccccc3)c12)C(=O)OCCOCCOC(=O)c1ccc(-c2c3nc(c(-c4c(F)cc(S(=O)(=O)[O-])cc4F)c4ccc([nH]4)c(-c4c(F)cc(S(=O)(=O)[O-])cc4F)c4nc(c(-c5c(F)cc(S(=O)(=O)[O-])cc5F)c5ccc2[nH]5)C=C4)C=C3)cc1
REMARK SMILES IDX 27 1 26 2 25 3 24 4 22 5 23 6 5 7 4 8 2 9 1 10 3 11 6 12
REMARK SMILES IDX 7 14 8 15 21 16 9 17 11 18 14 19 10 20 12 21 13 22 15 23
REMARK SMILES IDX 16 24 20 25 17 26 19 27 18 28 28 29 29 30 30 31 31 32 32 33
REMARK SMILES IDX 33 34 34 35 98 36 35 37 97 38 36 39 37 40 38 41 91 42 39 43
REMARK SMILES IDX 96 44 90 45 92 46 40 47 95 48 89 49 88 50 41 52 75 53 54 54
REMARK SMILES IDX 74 55 55 56 58 57 73 58 93 59 56 60 57 61 72 63 94 64 59 65
REMARK SMILES IDX 42 66 43 67 52 68 44 69 45 70 51 71 53 72 46 73 47 74 48 75
REMARK SMILES IDX 49 76 50 77 76 78 77 79 86 80 78 81 79 82 85 83 87 84 80 85
REMARK SMILES IDX 81 86 82 87 83 88 84 89 60 90 61 91 70 92 62 93 63 94 69 95
REMARK SMILES IDX 71 96 64 97 65 98 66 99 67 100 68 101
REMARK H PARENT 6 13 92 51 58 62
REMARK Flexibility Score: inf
ROOT
ATOM      1  O   UNL A   1      32.200  29.801  25.448  1.00  0.00    -0.374 OA
ENDROOT
BRANCH   1   2
ATOM      2  C   UNL A   1      32.363  28.556  26.119  1.00  0.00     0.202 C 
BRANCH   2   3
ATOM      3  C   UNL A   1      33.742  27.886  26.095  1.00  0.00     0.261 C 
BRANCH   3   4
ATOM      4  O   UNL A   1      33.711  26.502  25.735  1.00  0.00    -0.462 OA
BRANCH   4   5
ATOM      5  C   UNL A   1      33.959  26.283  24.412  1.00  0.00     0.328 C 
ATOM      6  O   UNL A   1      34.269  27.160  23.608  1.00  0.00    -0.250 OA
BRANCH   5   7
ATOM      7  C   UNL A   1      33.744  24.834  23.987  1.00  0.00     0.191 C 
BRANCH   7   8
ATOM      8  C   UNL A   1      35.048  24.308  23.368  1.00  0.00     0.040 C 
BRANCH   8   9
ATOM      9  C   UNL A   1      35.658  23.094  24.089  1.00  0.00    -0.015 C 
ATOM     10  C   UNL A   1      36.876  22.543  23.346  1.00  0.00     0.007 C 
ATOM     11  C   UNL A   1      36.049  23.500  25.510  1.00  0.00     0.007 C 
ENDBRANCH   8   9
ENDBRANCH   7   8
BRANCH   7  12
ATOM     12  N   UNL A   1      32.627  24.616  23.033  1.00  0.00    -0.356 N 
ATOM     13  H   UNL A   1      32.741  24.254  22.125  1.00  0.00     0.163 HD
BRANCH  12  14
ATOM     14  C   UNL A   1      31.395  24.986  23.579  1.00  0.00     0.139 A 
ATOM     15  N   UNL A   1      30.781  26.049  23.002  1.00  0.00    -0.219 NA
ATOM     16  C   UNL A   1      30.838  24.444  24.763  1.00  0.00     0.062 A 
ATOM     17  C   UNL A   1      29.711  26.592  23.588  1.00  0.00     0.225 A 
ATOM     18  C   UNL A   1      29.769  25.167  25.289  1.00  0.00     0.129 A 
ATOM     19  C   UNL A   1      31.127  23.307  25.619  1.00  0.00     0.006 A 
ATOM     20  N   UNL A   1      29.166  26.238  24.746  1.00  0.00    -0.225 NA
ATOM     21  S   UNL A   1      29.247  24.602  26.807  1.00  0.00    -0.123 S 
ATOM     22  C   UNL A   1      30.367  23.323  26.776  1.00  0.00     0.076 A 
BRANCH  19  23
ATOM     23  C   UNL A   1      32.013  22.173  25.387  1.00  0.00    -0.017 A 
ATOM     24  C   UNL A   1      31.911  21.465  24.180  1.00  0.00     0.009 A 
ATOM     25  C   UNL A   1      32.932  21.750  26.347  1.00  0.00     0.009 A 
ATOM     26  C   UNL A   1      32.737  20.369  23.929  1.00  0.00     0.001 A 
ATOM     27  C   UNL A   1      33.780  20.671  26.084  1.00  0.00     0.001 A 
ATOM     28  C   UNL A   1      33.682  19.981  24.876  1.00  0.00     0.000 A 
ENDBRANCH  19  23
ENDBRANCH  12  14
ENDBRANCH   7  12
ENDBRANCH   5   7
ENDBRANCH   4   5
ENDBRANCH   3   4
ENDBRANCH   2   3
ENDBRANCH   1   2
BRANCH   1  29
ATOM     29  C   UNL A   1      32.116  30.991  26.236  1.00  0.00     0.202 C 
BRANCH  29  30
ATOM     30  C   UNL A   1      32.798  31.000  27.608  1.00  0.00     0.261 C 
BRANCH  30  31
ATOM     31  O   UNL A   1      34.232  31.032  27.507  1.00  0.00    -0.460 OA
BRANCH  31  32
ATOM     32  C   UNL A   1      34.880  31.353  28.651  1.00  0.00     0.338 C 
ATOM     33  O   UNL A   1      34.458  32.035  29.575  1.00  0.00    -0.246 OA
BRANCH  32  34
ATOM     34  C   UNL A   1      36.134  30.587  28.738  1.00  0.00     0.060 A 
ATOM     35  C   UNL A   1      36.628  30.276  30.014  1.00  0.00     0.016 A 
ATOM     36  C   UNL A   1      36.853  30.253  27.592  1.00  0.00     0.016 A 
ATOM     37  C   UNL A   1      37.874  29.671  30.149  1.00  0.00     0.010 A 
ATOM     38  C   UNL A   1      38.110  29.662  27.730  1.00  0.00     0.010 A 
ATOM     39  C   UNL A   1      38.639  29.403  29.008  1.00  0.00    -0.014 A 
BRANCH  39  40
ATOM     40  C   UNL A   1      40.059  29.011  29.139  1.00  0.00     0.031 A 
ATOM     41  C   UNL A   1      41.065  30.068  29.497  1.00  0.00     0.074 A 
ATOM     42  C   UNL A   1      40.448  27.747  28.904  1.00  0.00     0.049 A 
ATOM     43  N   UNL A   1      42.369  29.997  29.520  1.00  0.00    -0.248 NA
ATOM     44  C   UNL A   1      40.522  31.385  29.864  1.00  0.00     0.031 C 
ATOM     45  C   UNL A   1      39.553  26.635  28.587  1.00  0.00     0.029 A 
ATOM     46  N   UNL A   1      41.704  27.197  28.862  1.00  0.00    -0.354 N 
ATOM     47  C   UNL A   1      42.807  31.267  29.877  1.00  0.00     0.074 A 
ATOM     48  C   UNL A   1      41.629  32.090  30.048  1.00  0.00     0.031 C 
ATOM     49  C   UNL A   1      40.293  25.542  28.340  1.00  0.00     0.029 A 
ATOM     50  C   UNL A   1      41.711  25.888  28.445  1.00  0.00     0.049 A 
ATOM     51  H   UNL A   1      42.519  27.691  29.107  1.00  0.00     0.167 HD
ATOM     52  C   UNL A   1      44.078  31.705  30.042  1.00  0.00     0.037 A 
ATOM     53  C   UNL A   1      42.744  25.079  28.135  1.00  0.00     0.037 A 
ATOM     54  C   UNL A   1      45.238  30.873  29.868  1.00  0.00     0.049 A 
ATOM     55  C   UNL A   1      44.151  25.592  28.281  1.00  0.00     0.074 A 
ATOM     56  C   UNL A   1      46.570  31.205  30.044  1.00  0.00     0.029 A 
ATOM     57  N   UNL A   1      45.206  29.546  29.460  1.00  0.00    -0.354 N 
ATOM     58  N   UNL A   1      44.557  26.784  28.648  1.00  0.00    -0.248 NA
ATOM     59  C   UNL A   1      45.240  24.655  27.974  1.00  0.00     0.031 C 
ATOM     60  C   UNL A   1      47.344  30.094  29.694  1.00  0.00     0.029 A 
ATOM     61  C   UNL A   1      46.494  29.053  29.352  1.00  0.00     0.049 A 
ATOM     62  H   UNL A   1      44.386  29.032  29.276  1.00  0.00     0.167 HD
ATOM     63  C   UNL A   1      45.947  26.735  28.642  1.00  0.00     0.074 A 
ATOM     64  C   UNL A   1      46.312  25.393  28.232  1.00  0.00     0.031 C 
ATOM     65  C   UNL A   1      46.839  27.710  28.951  1.00  0.00     0.037 A 
BRANCH  52  66
ATOM     66  C   UNL A   1      44.269  33.158  30.377  1.00  0.00     0.058 A 
ATOM     67  C   UNL A   1      44.355  33.613  31.703  1.00  0.00     0.135 A 
ATOM     68  C   UNL A   1      44.357  34.112  29.350  1.00  0.00     0.135 A 
ATOM     69  F   UNL A   1      44.261  32.745  32.722  1.00  0.00    -0.206 F 
ATOM     70  C   UNL A   1      44.475  34.967  32.000  1.00  0.00     0.059 A 
ATOM     71  C   UNL A   1      44.506  35.469  29.625  1.00  0.00     0.059 A 
ATOM     72  F   UNL A   1      44.280  33.733  28.066  1.00  0.00    -0.206 F 
ATOM     73  C   UNL A   1      44.541  35.887  30.953  1.00  0.00     0.060 A 
BRANCH  73  74
ATOM     74  S   UNL A   1      44.660  37.645  31.352  1.00  0.00     0.124 S 
ATOM     75  O   UNL A   1      44.279  37.647  32.761  1.00  0.00    -0.237 OA
ATOM     76  O   UNL A   1      46.062  37.935  31.073  1.00  0.00    -0.237 OA
ATOM     77  O   UNL A   1      43.702  38.265  30.442  1.00  0.00    -0.744 OA
ENDBRANCH  73  74
ENDBRANCH  52  66
BRANCH  53  78
ATOM     78  C   UNL A   1      42.464  23.711  27.630  1.00  0.00     0.058 A 
ATOM     79  C   UNL A   1      42.360  23.449  26.258  1.00  0.00     0.135 A 
ATOM     80  C   UNL A   1      42.360  22.625  28.514  1.00  0.00     0.135 A 
ATOM     81  F   UNL A   1      42.441  24.456  25.375  1.00  0.00    -0.206 F 
ATOM     82  C   UNL A   1      42.176  22.157  25.776  1.00  0.00     0.059 A 
ATOM     83  C   UNL A   1      42.198  21.321  28.056  1.00  0.00     0.059 A 
ATOM     84  F   UNL A   1      42.467  22.822  29.838  1.00  0.00    -0.206 F 
ATOM     85  C   UNL A   1      42.108  21.097  26.684  1.00  0.00     0.060 A 
BRANCH  85  86
ATOM     86  S   UNL A   1      41.976  19.413  26.044  1.00  0.00     0.124 S 
ATOM     87  O   UNL A   1      42.398  18.627  27.196  1.00  0.00    -0.237 OA
ATOM     88  O   UNL A   1      40.561  19.330  25.695  1.00  0.00    -0.237 OA
ATOM     89  O   UNL A   1      42.893  19.415  24.907  1.00  0.00    -0.744 OA
ENDBRANCH  85  86
ENDBRANCH  53  78
BRANCH  65  90
ATOM     90  C   UNL A   1      48.301  27.364  28.901  1.00  0.00     0.058 A 
ATOM     91  C   UNL A   1      49.068  27.564  27.743  1.00  0.00     0.135 A 
ATOM     92  C   UNL A   1      48.964  26.927  30.060  1.00  0.00     0.135 A 
ATOM     93  F   UNL A   1      48.482  27.973  26.607  1.00  0.00    -0.206 F 
ATOM     94  C   UNL A   1      50.441  27.339  27.736  1.00  0.00     0.059 A 
ATOM     95  C   UNL A   1      50.338  26.720  30.082  1.00  0.00     0.059 A 
ATOM     96  F   UNL A   1      48.276  26.730  31.197  1.00  0.00    -0.206 F 
ATOM     97  C   UNL A   1      51.069  26.926  28.913  1.00  0.00     0.060 A 
BRANCH  97  98
ATOM     98  S   UNL A   1      52.862  26.710  28.909  1.00  0.00     0.124 S 
ATOM     99  O   UNL A   1      53.324  28.083  28.744  1.00  0.00    -0.237 OA
ATOM    100  O   UNL A   1      53.107  26.112  30.219  1.00  0.00    -0.237 OA
ATOM    101  O   UNL A   1      53.095  25.826  27.771  1.00  0.00    -0.744 OA
ENDBRANCH  97  98
ENDBRANCH  65  90
ENDBRANCH  39  40
ENDBRANCH  32  34
ENDBRANCH  31  32
ENDBRANCH  30  31
ENDBRANCH  29  30
ENDBRANCH   1  29
TORSDOF 22
ENDMDL
