MODEL 1
REMARK VINA RESULT:     -10.0      0.000      0.000
REMARK SMILES CC[C@H]1CCCC[C@@H]1C1(C(=O)OCCOCCOC(=O)c2ccc(-c3c4nc(c(-c5c(F)cc(S(=O)(=O)[O-])cc5F)c5ccc([nH]5)c(-c5c(F)cc(S(=O)(=O)[O-])cc5F)c5nc(c(-c6c(F)cc(S(=O)(=O)[O-])cc6F)c6ccc3[nH]6)C=C5)C=C4)cc2)CC1
REMARK SMILES IDX 16 1 15 2 14 3 13 4 12 5 10 6 11 7 9 8 87 9 88 10 8 11 3 12
REMARK SMILES IDX 4 13 5 14 7 15 6 16 2 17 1 18 17 19 18 20 19 21 20 22 21 23
REMARK SMILES IDX 22 24 86 25 23 26 85 27 24 28 25 29 26 30 79 31 27 32 84 33
REMARK SMILES IDX 78 34 80 35 28 36 83 37 77 38 76 39 29 41 63 42 42 43 62 44
REMARK SMILES IDX 43 45 46 46 61 47 81 48 44 49 45 50 60 52 82 53 47 54 30 55
REMARK SMILES IDX 31 56 40 57 32 58 33 59 39 60 41 61 34 62 35 63 36 64 37 65
REMARK SMILES IDX 38 66 64 67 65 68 74 69 66 70 67 71 73 72 75 73 68 74 69 75
REMARK SMILES IDX 70 76 71 77 72 78 48 79 49 80 58 81 50 82 51 83 57 84 59 85
REMARK SMILES IDX 52 86 53 87 54 88 55 89 56 90
REMARK H PARENT 80 40 46 51
REMARK Flexibility Score: inf
ROOT
ATOM      1  C   UNL A   1      31.878  29.308  25.554  1.00  0.00     0.202 C 
ENDROOT
BRANCH   1   2
ATOM      2  O   UNL A   1      32.805  28.476  24.865  1.00  0.00    -0.374 OA
BRANCH   2   3
ATOM      3  C   UNL A   1      33.393  29.003  23.668  1.00  0.00     0.202 C 
BRANCH   3   4
ATOM      4  C   UNL A   1      33.514  28.068  22.456  1.00  0.00     0.261 C 
BRANCH   4   5
ATOM      5  O   UNL A   1      32.472  27.073  22.470  1.00  0.00    -0.463 OA
BRANCH   5   6
ATOM      6  C   UNL A   1      32.867  25.842  22.049  1.00  0.00     0.312 C 
ATOM      7  O   UNL A   1      33.280  25.562  20.931  1.00  0.00    -0.252 OA
BRANCH   6   8
ATOM      8  C   UNL A   1      32.896  24.828  23.177  1.00  0.00     0.071 C 
ATOM      9  C   UNL A   1      34.249  24.648  23.866  1.00  0.00     0.020 C 
ATOM     10  C   UNL A   1      33.733  23.567  22.973  1.00  0.00     0.020 C 
BRANCH   8  11
ATOM     11  C   UNL A   1      31.554  24.717  23.945  1.00  0.00     0.009 C 
ATOM     12  C   UNL A   1      31.379  25.468  25.287  1.00  0.00    -0.007 C 
ATOM     13  C   UNL A   1      31.787  24.594  26.489  1.00  0.00     0.004 C 
ATOM     14  C   UNL A   1      31.039  23.267  26.535  1.00  0.00     0.000 C 
ATOM     15  C   UNL A   1      31.067  23.262  24.007  1.00  0.00     0.005 C 
ATOM     16  C   UNL A   1      31.308  22.467  25.278  1.00  0.00     0.000 C 
BRANCH  12  17
ATOM     17  C   UNL A   1      29.899  25.942  25.377  1.00  0.00     0.000 C 
ATOM     18  C   UNL A   1      29.321  26.509  24.091  1.00  0.00     0.004 C 
ENDBRANCH  12  17
ENDBRANCH   8  11
ENDBRANCH   6   8
ENDBRANCH   5   6
ENDBRANCH   4   5
ENDBRANCH   3   4
ENDBRANCH   2   3
ENDBRANCH   1   2
BRANCH   1  19
ATOM     19  C   UNL A   1      32.440  30.315  26.578  1.00  0.00     0.261 C 
BRANCH  19  20
ATOM     20  O   UNL A   1      33.576  29.829  27.288  1.00  0.00    -0.460 OA
BRANCH  20  21
ATOM     21  C   UNL A   1      34.446  30.813  27.613  1.00  0.00     0.338 C 
ATOM     22  O   UNL A   1      34.214  32.004  27.745  1.00  0.00    -0.246 OA
BRANCH  21  23
ATOM     23  C   UNL A   1      35.717  30.199  27.997  1.00  0.00     0.060 A 
ATOM     24  C   UNL A   1      35.750  29.544  29.233  1.00  0.00     0.016 A 
ATOM     25  C   UNL A   1      36.849  30.281  27.180  1.00  0.00     0.016 A 
ATOM     26  C   UNL A   1      36.942  29.010  29.690  1.00  0.00     0.010 A 
ATOM     27  C   UNL A   1      38.050  29.754  27.648  1.00  0.00     0.010 A 
ATOM     28  C   UNL A   1      38.103  29.158  28.921  1.00  0.00    -0.014 A 
BRANCH  28  29
ATOM     29  C   UNL A   1      39.401  28.867  29.556  1.00  0.00     0.031 A 
ATOM     30  C   UNL A   1      39.792  29.672  30.761  1.00  0.00     0.074 A 
ATOM     31  C   UNL A   1      40.162  27.858  29.101  1.00  0.00     0.049 A 
ATOM     32  N   UNL A   1      40.861  29.585  31.502  1.00  0.00    -0.248 NA
ATOM     33  C   UNL A   1      38.845  30.717  31.188  1.00  0.00     0.031 C 
ATOM     34  C   UNL A   1      39.830  26.999  27.965  1.00  0.00     0.029 A 
ATOM     35  N   UNL A   1      41.366  27.384  29.545  1.00  0.00    -0.354 N 
ATOM     36  C   UNL A   1      40.720  30.563  32.481  1.00  0.00     0.074 A 
ATOM     37  C   UNL A   1      39.480  31.257  32.217  1.00  0.00     0.031 C 
ATOM     38  C   UNL A   1      40.813  26.098  27.798  1.00  0.00     0.029 A 
ATOM     39  C   UNL A   1      41.852  26.340  28.796  1.00  0.00     0.049 A 
ATOM     40  H   UNL A   1      41.838  27.754  30.324  1.00  0.00     0.167 HD
ATOM     41  C   UNL A   1      41.550  30.843  33.511  1.00  0.00     0.037 A 
ATOM     42  C   UNL A   1      43.017  25.673  28.902  1.00  0.00     0.037 A 
ATOM     43  C   UNL A   1      42.782  30.138  33.744  1.00  0.00     0.049 A 
ATOM     44  C   UNL A   1      43.958  26.048  30.017  1.00  0.00     0.074 A 
ATOM     45  C   UNL A   1      43.706  30.326  34.755  1.00  0.00     0.029 A 
ATOM     46  N   UNL A   1      43.266  29.113  32.941  1.00  0.00    -0.354 N 
ATOM     47  N   UNL A   1      43.808  26.961  30.950  1.00  0.00    -0.248 NA
ATOM     48  C   UNL A   1      45.219  25.303  30.101  1.00  0.00     0.031 C 
ATOM     49  C   UNL A   1      44.776  29.453  34.530  1.00  0.00     0.029 A 
ATOM     50  C   UNL A   1      44.491  28.677  33.416  1.00  0.00     0.049 A 
ATOM     51  H   UNL A   1      42.806  28.749  32.150  1.00  0.00     0.167 HD
ATOM     52  C   UNL A   1      44.945  26.884  31.747  1.00  0.00     0.074 A 
ATOM     53  C   UNL A   1      45.765  25.825  31.192  1.00  0.00     0.031 C 
ATOM     54  C   UNL A   1      45.282  27.617  32.838  1.00  0.00     0.037 A 
BRANCH  41  55
ATOM     55  C   UNL A   1      41.168  31.978  34.423  1.00  0.00     0.058 A 
ATOM     56  C   UNL A   1      41.548  33.304  34.162  1.00  0.00     0.135 A 
ATOM     57  C   UNL A   1      40.409  31.733  35.579  1.00  0.00     0.135 A 
ATOM     58  F   UNL A   1      42.295  33.595  33.085  1.00  0.00    -0.206 F 
ATOM     59  C   UNL A   1      41.215  34.342  35.029  1.00  0.00     0.059 A 
ATOM     60  C   UNL A   1      40.039  32.759  36.444  1.00  0.00     0.059 A 
ATOM     61  F   UNL A   1      40.025  30.483  35.884  1.00  0.00    -0.206 F 
ATOM     62  C   UNL A   1      40.461  34.059  36.169  1.00  0.00     0.060 A 
BRANCH  62  63
ATOM     63  S   UNL A   1      40.041  35.414  37.285  1.00  0.00     0.124 S 
ATOM     64  O   UNL A   1      39.652  36.458  36.342  1.00  0.00    -0.237 OA
ATOM     65  O   UNL A   1      38.958  34.839  38.078  1.00  0.00    -0.237 OA
ATOM     66  O   UNL A   1      41.284  35.656  38.011  1.00  0.00    -0.744 OA
ENDBRANCH  62  63
ENDBRANCH  41  55
BRANCH  42  67
ATOM     67  C   UNL A   1      43.347  24.598  27.930  1.00  0.00     0.058 A 
ATOM     68  C   UNL A   1      44.087  24.867  26.770  1.00  0.00     0.135 A 
ATOM     69  C   UNL A   1      42.953  23.270  28.160  1.00  0.00     0.135 A 
ATOM     70  F   UNL A   1      44.482  26.120  26.502  1.00  0.00    -0.206 F 
ATOM     71  C   UNL A   1      44.417  23.861  25.867  1.00  0.00     0.059 A 
ATOM     72  C   UNL A   1      43.294  22.243  27.286  1.00  0.00     0.059 A 
ATOM     73  F   UNL A   1      42.254  22.955  29.262  1.00  0.00    -0.206 F 
ATOM     74  C   UNL A   1      44.020  22.550  26.137  1.00  0.00     0.060 A 
BRANCH  74  75
ATOM     75  S   UNL A   1      44.504  21.244  24.987  1.00  0.00     0.124 S 
ATOM     76  O   UNL A   1      43.480  20.236  25.239  1.00  0.00    -0.237 OA
ATOM     77  O   UNL A   1      44.425  21.927  23.699  1.00  0.00    -0.237 OA
ATOM     78  O   UNL A   1      45.854  20.896  25.422  1.00  0.00    -0.744 OA
ENDBRANCH  74  75
ENDBRANCH  42  67
BRANCH  54  79
ATOM     79  C   UNL A   1      46.578  27.276  33.520  1.00  0.00     0.058 A 
ATOM     80  C   UNL A   1      46.652  26.294  34.519  1.00  0.00     0.135 A 
ATOM     81  C   UNL A   1      47.771  27.901  33.123  1.00  0.00     0.135 A 
ATOM     82  F   UNL A   1      45.539  25.672  34.938  1.00  0.00    -0.206 F 
ATOM     83  C   UNL A   1      47.860  25.962  35.121  1.00  0.00     0.059 A 
ATOM     84  C   UNL A   1      48.996  27.561  33.687  1.00  0.00     0.059 A 
ATOM     85  F   UNL A   1      47.756  28.839  32.161  1.00  0.00    -0.206 F 
ATOM     86  C   UNL A   1      49.028  26.599  34.694  1.00  0.00     0.060 A 
BRANCH  86  87
ATOM     87  S   UNL A   1      50.594  26.132  35.459  1.00  0.00     0.124 S 
ATOM     88  O   UNL A   1      50.730  24.745  35.029  1.00  0.00    -0.237 OA
ATOM     89  O   UNL A   1      51.529  27.078  34.859  1.00  0.00    -0.237 OA
ATOM     90  O   UNL A   1      50.346  26.325  36.885  1.00  0.00    -0.744 OA
ENDBRANCH  86  87
ENDBRANCH  54  79
ENDBRANCH  28  29
ENDBRANCH  21  23
ENDBRANCH  20  21
ENDBRANCH  19  20
ENDBRANCH   1  19
TORSDOF 19
ENDMDL
MODEL 2
REMARK VINA RESULT:      -9.9      3.588      9.552
REMARK SMILES CC[C@H]1CCCC[C@@H]1C1(C(=O)OCCOCCOC(=O)c2ccc(-c3c4nc(c(-c5c(F)cc(S(=O)(=O)[O-])cc5F)c5ccc([nH]5)c(-c5c(F)cc(S(=O)(=O)[O-])cc5F)c5nc(c(-c6c(F)cc(S(=O)(=O)[O-])cc6F)c6ccc3[nH]6)C=C5)C=C4)cc2)CC1
REMARK SMILES IDX 16 1 15 2 14 3 13 4 12 5 10 6 11 7 9 8 87 9 88 10 8 11 3 12
REMARK SMILES IDX 4 13 5 14 7 15 6 16 2 17 1 18 17 19 18 20 19 21 20 22 21 23
REMARK SMILES IDX 22 24 86 25 23 26 85 27 24 28 25 29 26 30 79 31 27 32 84 33
REMARK SMILES IDX 78 34 80 35 28 36 83 37 77 38 76 39 29 41 63 42 42 43 62 44
REMARK SMILES IDX 43 45 46 46 61 47 81 48 44 49 45 50 60 52 82 53 47 54 30 55
REMARK SMILES IDX 31 56 40 57 32 58 33 59 39 60 41 61 34 62 35 63 36 64 37 65
REMARK SMILES IDX 38 66 64 67 65 68 74 69 66 70 67 71 73 72 75 73 68 74 69 75
REMARK SMILES IDX 70 76 71 77 72 78 48 79 49 80 58 81 50 82 51 83 57 84 59 85
REMARK SMILES IDX 52 86 53 87 54 88 55 89 56 90
REMARK H PARENT 80 40 46 51
REMARK Flexibility Score: inf
ROOT
ATOM      1  C   UNL A   1      39.496  22.050  26.369  1.00  0.00     0.202 C 
ENDROOT
BRANCH   1   2
ATOM      2  O   UNL A   1      38.162  22.319  25.955  1.00  0.00    -0.374 OA
BRANCH   2   3
ATOM      3  C   UNL A   1      37.579  21.422  24.999  1.00  0.00     0.202 C 
BRANCH   3   4
ATOM      4  C   UNL A   1      36.700  22.023  23.894  1.00  0.00     0.261 C 
BRANCH   4   5
ATOM      5  O   UNL A   1      36.092  23.252  24.333  1.00  0.00    -0.463 OA
BRANCH   5   6
ATOM      6  C   UNL A   1      35.049  23.668  23.566  1.00  0.00     0.312 C 
ATOM      7  O   UNL A   1      34.878  23.409  22.382  1.00  0.00    -0.252 OA
BRANCH   6   8
ATOM      8  C   UNL A   1      33.987  24.387  24.377  1.00  0.00     0.071 C 
ATOM      9  C   UNL A   1      33.636  25.797  23.899  1.00  0.00     0.020 C 
ATOM     10  C   UNL A   1      34.416  25.625  25.162  1.00  0.00     0.020 C 
BRANCH   8  11
ATOM     11  C   UNL A   1      32.932  23.437  24.999  1.00  0.00     0.009 C 
ATOM     12  C   UNL A   1      33.089  22.981  26.469  1.00  0.00    -0.007 C 
ATOM     13  C   UNL A   1      33.888  21.669  26.580  1.00  0.00     0.004 C 
ATOM     14  C   UNL A   1      33.290  20.541  25.747  1.00  0.00     0.000 C 
ATOM     15  C   UNL A   1      32.598  22.279  24.047  1.00  0.00     0.005 C 
ATOM     16  C   UNL A   1      33.252  20.929  24.285  1.00  0.00     0.000 C 
BRANCH  12  17
ATOM     17  C   UNL A   1      31.663  22.858  27.083  1.00  0.00     0.000 C 
ATOM     18  C   UNL A   1      30.619  23.789  26.488  1.00  0.00     0.004 C 
ENDBRANCH  12  17
ENDBRANCH   8  11
ENDBRANCH   6   8
ENDBRANCH   5   6
ENDBRANCH   4   5
ENDBRANCH   3   4
ENDBRANCH   2   3
ENDBRANCH   1   2
BRANCH   1  19
ATOM     19  C   UNL A   1      40.457  23.246  26.521  1.00  0.00     0.261 C 
BRANCH  19  20
ATOM     20  O   UNL A   1      39.826  24.509  26.333  1.00  0.00    -0.460 OA
BRANCH  20  21
ATOM     21  C   UNL A   1      40.715  25.515  26.163  1.00  0.00     0.338 C 
ATOM     22  O   UNL A   1      41.233  25.888  25.121  1.00  0.00    -0.246 OA
BRANCH  21  23
ATOM     23  C   UNL A   1      40.826  26.254  27.420  1.00  0.00     0.060 A 
ATOM     24  C   UNL A   1      39.828  26.023  28.373  1.00  0.00     0.016 A 
ATOM     25  C   UNL A   1      41.864  27.162  27.650  1.00  0.00     0.016 A 
ATOM     26  C   UNL A   1      39.831  26.748  29.552  1.00  0.00     0.010 A 
ATOM     27  C   UNL A   1      41.858  27.899  28.832  1.00  0.00     0.010 A 
ATOM     28  C   UNL A   1      40.817  27.721  29.760  1.00  0.00    -0.014 A 
BRANCH  28  29
ATOM     29  C   UNL A   1      40.623  28.684  30.859  1.00  0.00     0.031 A 
ATOM     30  C   UNL A   1      41.516  28.570  32.061  1.00  0.00     0.074 A 
ATOM     31  C   UNL A   1      39.720  29.671  30.739  1.00  0.00     0.049 A 
ATOM     32  N   UNL A   1      41.556  29.310  33.134  1.00  0.00    -0.248 NA
ATOM     33  C   UNL A   1      42.498  27.472  32.048  1.00  0.00     0.031 C 
ATOM     34  C   UNL A   1      38.848  29.878  29.583  1.00  0.00     0.029 A 
ATOM     35  N   UNL A   1      39.396  30.687  31.595  1.00  0.00    -0.354 N 
ATOM     36  C   UNL A   1      42.562  28.768  33.926  1.00  0.00     0.074 A 
ATOM     37  C   UNL A   1      43.082  27.615  33.227  1.00  0.00     0.031 C 
ATOM     38  C   UNL A   1      38.081  30.959  29.804  1.00  0.00     0.029 A 
ATOM     39  C   UNL A   1      38.390  31.496  31.126  1.00  0.00     0.049 A 
ATOM     40  H   UNL A   1      39.838  30.825  32.462  1.00  0.00     0.167 HD
ATOM     41  C   UNL A   1      43.014  29.206  35.123  1.00  0.00     0.037 A 
ATOM     42  C   UNL A   1      37.781  32.543  31.716  1.00  0.00     0.037 A 
ATOM     43  C   UNL A   1      42.471  30.355  35.797  1.00  0.00     0.049 A 
ATOM     44  C   UNL A   1      38.256  32.972  33.080  1.00  0.00     0.074 A 
ATOM     45  C   UNL A   1      42.846  30.901  37.011  1.00  0.00     0.029 A 
ATOM     46  N   UNL A   1      41.423  31.129  35.314  1.00  0.00    -0.354 N 
ATOM     47  N   UNL A   1      39.221  32.466  33.814  1.00  0.00    -0.248 NA
ATOM     48  C   UNL A   1      37.567  34.113  33.694  1.00  0.00     0.031 C 
ATOM     49  C   UNL A   1      41.987  31.970  37.288  1.00  0.00     0.029 A 
ATOM     50  C   UNL A   1      41.117  32.132  36.218  1.00  0.00     0.049 A 
ATOM     51  H   UNL A   1      40.965  30.986  34.454  1.00  0.00     0.167 HD
ATOM     52  C   UNL A   1      39.272  33.242  34.966  1.00  0.00     0.074 A 
ATOM     53  C   UNL A   1      38.249  34.259  34.823  1.00  0.00     0.031 C 
ATOM     54  C   UNL A   1      40.090  33.130  36.043  1.00  0.00     0.037 A 
BRANCH  41  55
ATOM     55  C   UNL A   1      44.111  28.417  35.784  1.00  0.00     0.058 A 
ATOM     56  C   UNL A   1      45.469  28.688  35.553  1.00  0.00     0.135 A 
ATOM     57  C   UNL A   1      43.798  27.370  36.666  1.00  0.00     0.135 A 
ATOM     58  F   UNL A   1      45.829  29.662  34.700  1.00  0.00    -0.206 F 
ATOM     59  C   UNL A   1      46.476  27.932  36.146  1.00  0.00     0.059 A 
ATOM     60  C   UNL A   1      44.788  26.620  37.295  1.00  0.00     0.059 A 
ATOM     61  F   UNL A   1      42.516  27.059  36.919  1.00  0.00    -0.206 F 
ATOM     62  C   UNL A   1      46.125  26.898  37.016  1.00  0.00     0.060 A 
BRANCH  62  63
ATOM     63  S   UNL A   1      47.441  25.923  37.775  1.00  0.00     0.124 S 
ATOM     64  O   UNL A   1      48.057  25.304  36.605  1.00  0.00    -0.237 OA
ATOM     65  O   UNL A   1      48.239  26.946  38.444  1.00  0.00    -0.237 OA
ATOM     66  O   UNL A   1      46.723  25.012  38.661  1.00  0.00    -0.744 OA
ENDBRANCH  62  63
ENDBRANCH  41  55
BRANCH  42  67
ATOM     67  C   UNL A   1      36.668  33.241  31.021  1.00  0.00     0.058 A 
ATOM     68  C   UNL A   1      36.912  34.141  29.975  1.00  0.00     0.135 A 
ATOM     69  C   UNL A   1      35.330  32.995  31.372  1.00  0.00     0.135 A 
ATOM     70  F   UNL A   1      38.172  34.413  29.604  1.00  0.00    -0.206 F 
ATOM     71  C   UNL A   1      35.872  34.780  29.306  1.00  0.00     0.059 A 
ATOM     72  C   UNL A   1      34.273  33.601  30.702  1.00  0.00     0.059 A 
ATOM     73  F   UNL A   1      35.040  32.132  32.358  1.00  0.00    -0.206 F 
ATOM     74  C   UNL A   1      34.555  34.500  29.674  1.00  0.00     0.060 A 
BRANCH  74  75
ATOM     75  S   UNL A   1      33.213  35.292  28.761  1.00  0.00     0.124 S 
ATOM     76  O   UNL A   1      32.580  34.147  28.116  1.00  0.00    -0.237 OA
ATOM     77  O   UNL A   1      32.448  35.925  29.832  1.00  0.00    -0.237 OA
ATOM     78  O   UNL A   1      33.911  36.214  27.869  1.00  0.00    -0.744 OA
ENDBRANCH  74  75
ENDBRANCH  42  67
BRANCH  54  79
ATOM     79  C   UNL A   1      39.930  34.150  37.135  1.00  0.00     0.058 A 
ATOM     80  C   UNL A   1      40.482  35.437  37.031  1.00  0.00     0.135 A 
ATOM     81  C   UNL A   1      39.164  33.854  38.274  1.00  0.00     0.135 A 
ATOM     82  F   UNL A   1      41.228  35.768  35.966  1.00  0.00    -0.206 F 
ATOM     83  C   UNL A   1      40.301  36.385  38.031  1.00  0.00     0.059 A 
ATOM     84  C   UNL A   1      38.941  34.798  39.270  1.00  0.00     0.059 A 
ATOM     85  F   UNL A   1      38.603  32.641  38.415  1.00  0.00    -0.206 F 
ATOM     86  C   UNL A   1      39.525  36.057  39.146  1.00  0.00     0.060 A 
BRANCH  86  87
ATOM     87  S   UNL A   1      39.270  37.310  40.419  1.00  0.00     0.124 S 
ATOM     88  O   UNL A   1      40.620  37.473  40.945  1.00  0.00    -0.237 OA
ATOM     89  O   UNL A   1      38.749  38.435  39.649  1.00  0.00    -0.237 OA
ATOM     90  O   UNL A   1      38.313  36.683  41.326  1.00  0.00    -0.744 OA
ENDBRANCH  86  87
ENDBRANCH  54  79
ENDBRANCH  28  29
ENDBRANCH  21  23
ENDBRANCH  20  21
ENDBRANCH  19  20
ENDBRANCH   1  19
TORSDOF 19
ENDMDL
MODEL 3
REMARK VINA RESULT:      -9.9      3.495      9.789
REMARK SMILES CC[C@H]1CCCC[C@@H]1C1(C(=O)OCCOCCOC(=O)c2ccc(-c3c4nc(c(-c5c(F)cc(S(=O)(=O)[O-])cc5F)c5ccc([nH]5)c(-c5c(F)cc(S(=O)(=O)[O-])cc5F)c5nc(c(-c6c(F)cc(S(=O)(=O)[O-])cc6F)c6ccc3[nH]6)C=C5)C=C4)cc2)CC1
REMARK SMILES IDX 16 1 15 2 14 3 13 4 12 5 10 6 11 7 9 8 87 9 88 10 8 11 3 12
REMARK SMILES IDX 4 13 5 14 7 15 6 16 2 17 1 18 17 19 18 20 19 21 20 22 21 23
REMARK SMILES IDX 22 24 86 25 23 26 85 27 24 28 25 29 26 30 79 31 27 32 84 33
REMARK SMILES IDX 78 34 80 35 28 36 83 37 77 38 76 39 29 41 63 42 42 43 62 44
REMARK SMILES IDX 43 45 46 46 61 47 81 48 44 49 45 50 60 52 82 53 47 54 30 55
REMARK SMILES IDX 31 56 40 57 32 58 33 59 39 60 41 61 34 62 35 63 36 64 37 65
REMARK SMILES IDX 38 66 64 67 65 68 74 69 66 70 67 71 73 72 75 73 68 74 69 75
REMARK SMILES IDX 70 76 71 77 72 78 48 79 49 80 58 81 50 82 51 83 57 84 59 85
REMARK SMILES IDX 52 86 53 87 54 88 55 89 56 90
REMARK H PARENT 80 40 46 51
REMARK Flexibility Score: inf
ROOT
ATOM      1  C   UNL A   1      39.240  21.739  25.854  1.00  0.00     0.202 C 
ENDROOT
BRANCH   1   2
ATOM      2  O   UNL A   1      37.864  22.082  25.737  1.00  0.00    -0.374 OA
BRANCH   2   3
ATOM      3  C   UNL A   1      37.138  21.514  24.638  1.00  0.00     0.202 C 
BRANCH   3   4
ATOM      4  C   UNL A   1      35.963  20.581  24.958  1.00  0.00     0.261 C 
BRANCH   4   5
ATOM      5  O   UNL A   1      35.141  21.133  26.004  1.00  0.00    -0.463 OA
BRANCH   5   6
ATOM      6  C   UNL A   1      33.956  21.644  25.575  1.00  0.00     0.312 C 
ATOM      7  O   UNL A   1      33.211  21.137  24.746  1.00  0.00    -0.252 OA
BRANCH   6   8
ATOM      8  C   UNL A   1      33.543  22.878  26.355  1.00  0.00     0.071 C 
ATOM      9  C   UNL A   1      33.857  22.846  27.851  1.00  0.00     0.020 C 
ATOM     10  C   UNL A   1      32.439  22.718  27.398  1.00  0.00     0.020 C 
BRANCH   8  11
ATOM     11  C   UNL A   1      33.602  24.186  25.525  1.00  0.00     0.009 C 
ATOM     12  C   UNL A   1      32.318  24.714  24.842  1.00  0.00    -0.007 C 
ATOM     13  C   UNL A   1      32.167  24.171  23.408  1.00  0.00     0.004 C 
ATOM     14  C   UNL A   1      33.380  24.468  22.534  1.00  0.00     0.000 C 
ATOM     15  C   UNL A   1      34.822  24.197  24.593  1.00  0.00     0.005 C 
ATOM     16  C   UNL A   1      34.624  23.843  23.129  1.00  0.00     0.000 C 
BRANCH  12  17
ATOM     17  C   UNL A   1      32.364  26.270  24.883  1.00  0.00     0.000 C 
ATOM     18  C   UNL A   1      32.908  26.868  26.170  1.00  0.00     0.004 C 
ENDBRANCH  12  17
ENDBRANCH   8  11
ENDBRANCH   6   8
ENDBRANCH   5   6
ENDBRANCH   4   5
ENDBRANCH   3   4
ENDBRANCH   2   3
ENDBRANCH   1   2
BRANCH   1  19
ATOM     19  C   UNL A   1      40.068  22.451  26.941  1.00  0.00     0.261 C 
BRANCH  19  20
ATOM     20  O   UNL A   1      40.278  23.836  26.681  1.00  0.00    -0.460 OA
BRANCH  20  21
ATOM     21  C   UNL A   1      41.380  24.321  27.299  1.00  0.00     0.338 C 
ATOM     22  O   UNL A   1      42.542  23.988  27.127  1.00  0.00    -0.246 OA
BRANCH  21  23
ATOM     23  C   UNL A   1      40.992  25.486  28.093  1.00  0.00     0.060 A 
ATOM     24  C   UNL A   1      41.949  26.498  28.231  1.00  0.00     0.016 A 
ATOM     25  C   UNL A   1      39.736  25.577  28.700  1.00  0.00     0.016 A 
ATOM     26  C   UNL A   1      41.673  27.592  29.033  1.00  0.00     0.010 A 
ATOM     27  C   UNL A   1      39.466  26.673  29.517  1.00  0.00     0.010 A 
ATOM     28  C   UNL A   1      40.452  27.656  29.716  1.00  0.00    -0.014 A 
BRANCH  28  29
ATOM     29  C   UNL A   1      40.308  28.652  30.792  1.00  0.00     0.031 A 
ATOM     30  C   UNL A   1      41.223  28.547  31.977  1.00  0.00     0.074 A 
ATOM     31  C   UNL A   1      39.429  29.660  30.663  1.00  0.00     0.049 A 
ATOM     32  N   UNL A   1      41.306  29.314  33.029  1.00  0.00    -0.248 NA
ATOM     33  C   UNL A   1      42.175  27.423  31.973  1.00  0.00     0.031 C 
ATOM     34  C   UNL A   1      38.538  29.859  29.520  1.00  0.00     0.029 A 
ATOM     35  N   UNL A   1      39.150  30.707  31.498  1.00  0.00    -0.354 N 
ATOM     36  C   UNL A   1      42.314  28.766  33.813  1.00  0.00     0.074 A 
ATOM     37  C   UNL A   1      42.789  27.581  33.136  1.00  0.00     0.031 C 
ATOM     38  C   UNL A   1      37.805  30.966  29.728  1.00  0.00     0.029 A 
ATOM     39  C   UNL A   1      38.156  31.530  31.028  1.00  0.00     0.049 A 
ATOM     40  H   UNL A   1      39.615  30.856  32.352  1.00  0.00     0.167 HD
ATOM     41  C   UNL A   1      42.803  29.224  34.988  1.00  0.00     0.037 A 
ATOM     42  C   UNL A   1      37.588  32.608  31.602  1.00  0.00     0.037 A 
ATOM     43  C   UNL A   1      42.305  30.405  35.642  1.00  0.00     0.049 A 
ATOM     44  C   UNL A   1      38.103  33.060  32.943  1.00  0.00     0.074 A 
ATOM     45  C   UNL A   1      42.721  30.972  36.832  1.00  0.00     0.029 A 
ATOM     46  N   UNL A   1      41.268  31.194  35.160  1.00  0.00    -0.354 N 
ATOM     47  N   UNL A   1      39.070  32.549  33.670  1.00  0.00    -0.248 NA
ATOM     48  C   UNL A   1      37.458  34.236  33.540  1.00  0.00     0.031 C 
ATOM     49  C   UNL A   1      41.897  32.072  37.098  1.00  0.00     0.029 A 
ATOM     50  C   UNL A   1      41.009  32.228  36.043  1.00  0.00     0.049 A 
ATOM     51  H   UNL A   1      40.788  31.040  34.314  1.00  0.00     0.167 HD
ATOM     52  C   UNL A   1      39.167  33.353  34.799  1.00  0.00     0.074 A 
ATOM     53  C   UNL A   1      38.168  34.394  34.650  1.00  0.00     0.031 C 
ATOM     54  C   UNL A   1      40.005  33.248  35.862  1.00  0.00     0.037 A 
BRANCH  41  55
ATOM     55  C   UNL A   1      43.893  28.423  35.648  1.00  0.00     0.058 A 
ATOM     56  C   UNL A   1      45.253  28.655  35.384  1.00  0.00     0.135 A 
ATOM     57  C   UNL A   1      43.571  27.406  36.561  1.00  0.00     0.135 A 
ATOM     58  F   UNL A   1      45.620  29.599  34.502  1.00  0.00    -0.206 F 
ATOM     59  C   UNL A   1      46.252  27.887  35.977  1.00  0.00     0.059 A 
ATOM     60  C   UNL A   1      44.554  26.647  37.189  1.00  0.00     0.059 A 
ATOM     61  F   UNL A   1      42.288  27.134  36.845  1.00  0.00    -0.206 F 
ATOM     62  C   UNL A   1      45.892  26.884  36.878  1.00  0.00     0.060 A 
BRANCH  62  63
ATOM     63  S   UNL A   1      47.199  25.895  37.636  1.00  0.00     0.124 S 
ATOM     64  O   UNL A   1      47.298  26.507  38.957  1.00  0.00    -0.237 OA
ATOM     65  O   UNL A   1      46.631  24.551  37.600  1.00  0.00    -0.237 OA
ATOM     66  O   UNL A   1      48.344  26.112  36.757  1.00  0.00    -0.744 OA
ENDBRANCH  62  63
ENDBRANCH  41  55
BRANCH  42  67
ATOM     67  C   UNL A   1      36.478  33.317  30.911  1.00  0.00     0.058 A 
ATOM     68  C   UNL A   1      35.159  33.233  31.376  1.00  0.00     0.135 A 
ATOM     69  C   UNL A   1      36.724  34.121  29.786  1.00  0.00     0.135 A 
ATOM     70  F   UNL A   1      34.871  32.474  32.444  1.00  0.00    -0.206 F 
ATOM     71  C   UNL A   1      34.119  33.912  30.747  1.00  0.00     0.059 A 
ATOM     72  C   UNL A   1      35.707  34.830  29.156  1.00  0.00     0.059 A 
ATOM     73  F   UNL A   1      37.972  34.247  29.307  1.00  0.00    -0.206 F 
ATOM     74  C   UNL A   1      34.405  34.712  29.639  1.00  0.00     0.060 A 
BRANCH  74  75
ATOM     75  S   UNL A   1      33.058  35.634  28.865  1.00  0.00     0.124 S 
ATOM     76  O   UNL A   1      33.788  36.660  28.131  1.00  0.00    -0.237 OA
ATOM     77  O   UNL A   1      32.412  34.605  28.055  1.00  0.00    -0.237 OA
ATOM     78  O   UNL A   1      32.277  36.106  30.005  1.00  0.00    -0.744 OA
ENDBRANCH  74  75
ENDBRANCH  42  67
BRANCH  54  79
ATOM     79  C   UNL A   1      39.896  34.302  36.929  1.00  0.00     0.058 A 
ATOM     80  C   UNL A   1      40.525  35.550  36.803  1.00  0.00     0.135 A 
ATOM     81  C   UNL A   1      39.100  34.078  38.064  1.00  0.00     0.135 A 
ATOM     82  F   UNL A   1      41.302  35.810  35.739  1.00  0.00    -0.206 F 
ATOM     83  C   UNL A   1      40.392  36.530  37.779  1.00  0.00     0.059 A 
ATOM     84  C   UNL A   1      38.925  35.057  39.037  1.00  0.00     0.059 A 
ATOM     85  F   UNL A   1      38.466  32.906  38.226  1.00  0.00    -0.206 F 
ATOM     86  C   UNL A   1      39.586  36.275  38.891  1.00  0.00     0.060 A 
BRANCH  86  87
ATOM     87  S   UNL A   1      39.394  37.571  40.132  1.00  0.00     0.124 S 
ATOM     88  O   UNL A   1      38.991  36.800  41.303  1.00  0.00    -0.237 OA
ATOM     89  O   UNL A   1      40.731  38.153  40.185  1.00  0.00    -0.237 OA
ATOM     90  O   UNL A   1      38.362  38.435  39.564  1.00  0.00    -0.744 OA
ENDBRANCH  86  87
ENDBRANCH  54  79
ENDBRANCH  28  29
ENDBRANCH  21  23
ENDBRANCH  20  21
ENDBRANCH  19  20
ENDBRANCH   1  19
TORSDOF 19
ENDMDL
