MODEL 1
REMARK VINA RESULT:     -11.5      0.000      0.000
REMARK SMILES CS(=O)(=O)c1ccc(N2N=C(C(=O)OCCOCCOC(=O)c3ccc(-c4c5nc(c(-c6c(F)cc(S(=O)(=O)[O-])cc6F)c6ccc([nH]6)c(-c6c(F)cc(S(=O)(=O)[O-])cc6F)c6nc(c(-c7c(F)cc(S(=O)(=O)[O-])cc7F)c7ccc4[nH]7)C=C6)C=C5)cc3)C[C@H]2c2cccs2)cc1
REMARK SMILES IDX 18 1 17 2 16 3 15 4 14 5 12 6 13 7 11 8 9 9 10 10 90 11
REMARK SMILES IDX 89 12 8 13 5 14 6 15 97 16 7 17 96 18 2 19 1 20 3 21 4 22
REMARK SMILES IDX 91 23 92 24 95 25 93 26 94 27 19 28 20 29 21 30 22 31 23 32
REMARK SMILES IDX 24 33 88 34 25 35 87 36 26 37 27 38 28 39 81 40 29 41 86 42
REMARK SMILES IDX 80 43 82 44 30 45 85 46 79 47 78 48 31 50 65 51 44 52 64 53
REMARK SMILES IDX 45 54 48 55 63 56 83 57 46 58 47 59 62 61 84 62 49 63 32 64
REMARK SMILES IDX 33 65 42 66 34 67 35 68 41 69 43 70 36 71 37 72 38 73 39 74
REMARK SMILES IDX 40 75 66 76 67 77 76 78 68 79 69 80 75 81 77 82 70 83 71 84
REMARK SMILES IDX 72 85 73 86 74 87 50 88 51 89 60 90 52 91 53 92 59 93 61 94
REMARK SMILES IDX 54 95 55 96 56 97 57 98 58 99
REMARK H PARENT 82 49 48 60
REMARK Flexibility Score: inf
ROOT
ATOM      1  C   UNL A   1      37.287  22.809  25.540  1.00  0.00     0.202 C 
ENDROOT
BRANCH   1   2
ATOM      2  O   UNL A   1      36.506  21.763  26.129  1.00  0.00    -0.374 OA
BRANCH   2   3
ATOM      3  C   UNL A   1      35.234  21.509  25.523  1.00  0.00     0.202 C 
BRANCH   3   4
ATOM      4  C   UNL A   1      34.086  21.497  26.532  1.00  0.00     0.261 C 
BRANCH   4   5
ATOM      5  O   UNL A   1      33.949  22.819  27.073  1.00  0.00    -0.459 OA
BRANCH   5   6
ATOM      6  C   UNL A   1      32.705  23.326  27.027  1.00  0.00     0.354 C 
ATOM      7  O   UNL A   1      31.718  22.959  27.634  1.00  0.00    -0.245 OA
BRANCH   6   8
ATOM      8  C   UNL A   1      32.736  24.575  26.190  1.00  0.00     0.148 C 
ATOM      9  N   UNL A   1      32.097  26.329  25.195  1.00  0.00    -0.256 N 
ATOM     10  N   UNL A   1      31.692  25.330  26.031  1.00  0.00    -0.169 NA
ATOM     11  C   UNL A   1      33.364  25.997  24.519  1.00  0.00     0.154 C 
ATOM     12  C   UNL A   1      34.004  25.071  25.567  1.00  0.00     0.099 C 
BRANCH   9  13
ATOM     13  C   UNL A   1      31.120  27.162  24.673  1.00  0.00     0.060 A 
ATOM     14  C   UNL A   1      29.201  28.791  23.427  1.00  0.00     0.067 A 
ATOM     15  C   UNL A   1      28.962  27.423  23.578  1.00  0.00     0.022 A 
ATOM     16  C   UNL A   1      30.384  29.356  23.901  1.00  0.00     0.022 A 
ATOM     17  C   UNL A   1      29.918  26.618  24.202  1.00  0.00     0.029 A 
ATOM     18  C   UNL A   1      31.338  28.536  24.509  1.00  0.00     0.029 A 
BRANCH  14  19
ATOM     19  S   UNL A   1      27.974  29.749  22.574  1.00  0.00     0.175 S 
ATOM     20  C   UNL A   1      27.969  31.364  23.300  1.00  0.00     0.163 C 
ATOM     21  O   UNL A   1      26.692  29.138  22.869  1.00  0.00    -0.224 OA
ATOM     22  O   UNL A   1      28.434  29.897  21.207  1.00  0.00    -0.224 OA
ENDBRANCH  14  19
ENDBRANCH   9  13
BRANCH  11  23
ATOM     23  C   UNL A   1      33.254  25.367  23.136  1.00  0.00     0.030 A 
ATOM     24  C   UNL A   1      32.846  25.989  21.967  1.00  0.00     0.017 A 
ATOM     25  S   UNL A   1      33.594  23.704  22.846  1.00  0.00    -0.147 S 
ATOM     26  C   UNL A   1      32.846  25.111  20.844  1.00  0.00     0.012 A 
ATOM     27  C   UNL A   1      33.260  23.844  21.181  1.00  0.00     0.065 A 
ENDBRANCH  11  23
ENDBRANCH   6   8
ENDBRANCH   5   6
ENDBRANCH   4   5
ENDBRANCH   3   4
ENDBRANCH   2   3
ENDBRANCH   1   2
BRANCH   1  28
ATOM     28  C   UNL A   1      38.745  22.834  26.010  1.00  0.00     0.261 C 
BRANCH  28  29
ATOM     29  O   UNL A   1      38.948  23.882  26.977  1.00  0.00    -0.460 OA
BRANCH  29  30
ATOM     30  C   UNL A   1      40.059  24.635  26.789  1.00  0.00     0.338 C 
ATOM     31  O   UNL A   1      40.792  24.634  25.814  1.00  0.00    -0.246 OA
BRANCH  30  32
ATOM     32  C   UNL A   1      40.176  25.626  27.881  1.00  0.00     0.060 A 
ATOM     33  C   UNL A   1      39.154  25.654  28.838  1.00  0.00     0.016 A 
ATOM     34  C   UNL A   1      41.246  26.524  27.964  1.00  0.00     0.016 A 
ATOM     35  C   UNL A   1      39.184  26.594  29.867  1.00  0.00     0.010 A 
ATOM     36  C   UNL A   1      41.267  27.475  28.990  1.00  0.00     0.010 A 
ATOM     37  C   UNL A   1      40.227  27.527  29.933  1.00  0.00    -0.014 A 
BRANCH  37  38
ATOM     38  C   UNL A   1      40.177  28.615  30.938  1.00  0.00     0.031 A 
ATOM     39  C   UNL A   1      41.065  28.544  32.148  1.00  0.00     0.074 A 
ATOM     40  C   UNL A   1      39.347  29.659  30.773  1.00  0.00     0.049 A 
ATOM     41  N   UNL A   1      41.167  29.379  33.148  1.00  0.00    -0.248 NA
ATOM     42  C   UNL A   1      41.953  27.375  32.242  1.00  0.00     0.031 C 
ATOM     43  C   UNL A   1      38.442  29.846  29.639  1.00  0.00     0.029 A 
ATOM     44  N   UNL A   1      39.117  30.751  31.572  1.00  0.00    -0.354 N 
ATOM     45  C   UNL A   1      42.128  28.840  33.993  1.00  0.00     0.074 A 
ATOM     46  C   UNL A   1      42.563  27.594  33.398  1.00  0.00     0.031 C 
ATOM     47  C   UNL A   1      37.734  30.973  29.829  1.00  0.00     0.029 A 
ATOM     48  C   UNL A   1      38.124  31.575  31.104  1.00  0.00     0.049 A 
ATOM     49  H   UNL A   1      39.618  30.927  32.401  1.00  0.00     0.167 HD
ATOM     50  C   UNL A   1      42.609  29.341  35.157  1.00  0.00     0.037 A 
ATOM     51  C   UNL A   1      37.573  32.676  31.652  1.00  0.00     0.037 A 
ATOM     52  C   UNL A   1      42.177  30.578  35.750  1.00  0.00     0.049 A 
ATOM     53  C   UNL A   1      38.085  33.190  32.969  1.00  0.00     0.074 A 
ATOM     54  C   UNL A   1      42.651  31.198  36.892  1.00  0.00     0.029 A 
ATOM     55  N   UNL A   1      41.152  31.373  35.258  1.00  0.00    -0.354 N 
ATOM     56  N   UNL A   1      39.042  32.704  33.725  1.00  0.00    -0.248 NA
ATOM     57  C   UNL A   1      37.448  34.400  33.508  1.00  0.00     0.031 C 
ATOM     58  C   UNL A   1      41.885  32.350  37.114  1.00  0.00     0.029 A 
ATOM     59  C   UNL A   1      40.954  32.461  36.093  1.00  0.00     0.049 A 
ATOM     60  H   UNL A   1      40.641  31.192  34.437  1.00  0.00     0.167 HD
ATOM     61  C   UNL A   1      39.123  33.550  34.825  1.00  0.00     0.074 A 
ATOM     62  C   UNL A   1      38.128  34.586  34.631  1.00  0.00     0.031 C 
ATOM     63  C   UNL A   1      39.948  33.474  35.898  1.00  0.00     0.037 A 
BRANCH  50  64
ATOM     64  C   UNL A   1      43.646  28.528  35.871  1.00  0.00     0.058 A 
ATOM     65  C   UNL A   1      45.019  28.767  35.695  1.00  0.00     0.135 A 
ATOM     66  C   UNL A   1      43.266  27.495  36.741  1.00  0.00     0.135 A 
ATOM     67  F   UNL A   1      45.433  29.733  34.860  1.00  0.00    -0.206 F 
ATOM     68  C   UNL A   1      45.978  27.989  36.332  1.00  0.00     0.059 A 
ATOM     69  C   UNL A   1      44.209  26.715  37.403  1.00  0.00     0.059 A 
ATOM     70  F   UNL A   1      41.965  27.225  36.940  1.00  0.00    -0.206 F 
ATOM     71  C   UNL A   1      45.563  26.958  37.177  1.00  0.00     0.060 A 
BRANCH  71  72
ATOM     72  S   UNL A   1      46.814  25.933  37.978  1.00  0.00     0.124 S 
ATOM     73  O   UNL A   1      46.730  26.401  39.359  1.00  0.00    -0.237 OA
ATOM     74  O   UNL A   1      46.320  24.582  37.737  1.00  0.00    -0.237 OA
ATOM     75  O   UNL A   1      48.042  26.284  37.269  1.00  0.00    -0.744 OA
ENDBRANCH  71  72
ENDBRANCH  50  64
BRANCH  51  76
ATOM     76  C   UNL A   1      36.445  33.346  30.958  1.00  0.00     0.058 A 
ATOM     77  C   UNL A   1      35.140  33.283  31.464  1.00  0.00     0.135 A 
ATOM     78  C   UNL A   1      36.666  34.102  29.796  1.00  0.00     0.135 A 
ATOM     79  F   UNL A   1      34.882  32.565  32.566  1.00  0.00    -0.206 F 
ATOM     80  C   UNL A   1      34.090  33.955  30.846  1.00  0.00     0.059 A 
ATOM     81  C   UNL A   1      35.637  34.794  29.169  1.00  0.00     0.059 A 
ATOM     82  F   UNL A   1      37.902  34.196  29.281  1.00  0.00    -0.206 F 
ATOM     83  C   UNL A   1      34.351  34.714  29.702  1.00  0.00     0.060 A 
BRANCH  83  84
ATOM     84  S   UNL A   1      33.005  35.662  28.958  1.00  0.00     0.124 S 
ATOM     85  O   UNL A   1      32.239  36.058  30.135  1.00  0.00    -0.237 OA
ATOM     86  O   UNL A   1      33.722  36.733  28.273  1.00  0.00    -0.237 OA
ATOM     87  O   UNL A   1      32.361  34.690  28.080  1.00  0.00    -0.744 OA
ENDBRANCH  83  84
ENDBRANCH  51  76
BRANCH  63  88
ATOM     88  C   UNL A   1      39.808  34.533  36.954  1.00  0.00     0.058 A 
ATOM     89  C   UNL A   1      39.016  34.324  38.092  1.00  0.00     0.135 A 
ATOM     90  C   UNL A   1      40.514  35.742  36.856  1.00  0.00     0.135 A 
ATOM     91  F   UNL A   1      38.314  33.188  38.227  1.00  0.00    -0.206 F 
ATOM     92  C   UNL A   1      38.918  35.284  39.095  1.00  0.00     0.059 A 
ATOM     93  C   UNL A   1      40.446  36.708  37.855  1.00  0.00     0.059 A 
ATOM     94  F   UNL A   1      41.292  35.986  35.790  1.00  0.00    -0.206 F 
ATOM     95  C   UNL A   1      39.637  36.474  38.968  1.00  0.00     0.060 A 
BRANCH  95  96
ATOM     96  S   UNL A   1      39.541  37.696  40.293  1.00  0.00     0.124 S 
ATOM     97  O   UNL A   1      38.950  36.911  41.373  1.00  0.00    -0.237 OA
ATOM     98  O   UNL A   1      40.938  38.077  40.477  1.00  0.00    -0.237 OA
ATOM     99  O   UNL A   1      38.685  38.737  39.730  1.00  0.00    -0.744 OA
ENDBRANCH  95  96
ENDBRANCH  63  88
ENDBRANCH  37  38
ENDBRANCH  30  32
ENDBRANCH  29  30
ENDBRANCH  28  29
ENDBRANCH   1  28
TORSDOF 20
ENDMDL
MODEL 2
REMARK VINA RESULT:     -11.4      1.464      2.323
REMARK SMILES CS(=O)(=O)c1ccc(N2N=C(C(=O)OCCOCCOC(=O)c3ccc(-c4c5nc(c(-c6c(F)cc(S(=O)(=O)[O-])cc6F)c6ccc([nH]6)c(-c6c(F)cc(S(=O)(=O)[O-])cc6F)c6nc(c(-c7c(F)cc(S(=O)(=O)[O-])cc7F)c7ccc4[nH]7)C=C6)C=C5)cc3)C[C@H]2c2cccs2)cc1
REMARK SMILES IDX 18 1 17 2 16 3 15 4 14 5 12 6 13 7 11 8 9 9 10 10 90 11
REMARK SMILES IDX 89 12 8 13 5 14 6 15 97 16 7 17 96 18 2 19 1 20 3 21 4 22
REMARK SMILES IDX 91 23 92 24 95 25 93 26 94 27 19 28 20 29 21 30 22 31 23 32
REMARK SMILES IDX 24 33 88 34 25 35 87 36 26 37 27 38 28 39 81 40 29 41 86 42
REMARK SMILES IDX 80 43 82 44 30 45 85 46 79 47 78 48 31 50 65 51 44 52 64 53
REMARK SMILES IDX 45 54 48 55 63 56 83 57 46 58 47 59 62 61 84 62 49 63 32 64
REMARK SMILES IDX 33 65 42 66 34 67 35 68 41 69 43 70 36 71 37 72 38 73 39 74
REMARK SMILES IDX 40 75 66 76 67 77 76 78 68 79 69 80 75 81 77 82 70 83 71 84
REMARK SMILES IDX 72 85 73 86 74 87 50 88 51 89 60 90 52 91 53 92 59 93 61 94
REMARK SMILES IDX 54 95 55 96 56 97 57 98 58 99
REMARK H PARENT 82 49 48 60
REMARK Flexibility Score: inf
ROOT
ATOM      1  C   UNL A   1      39.565  22.147  26.637  1.00  0.00     0.202 C 
ENDROOT
BRANCH   1   2
ATOM      2  O   UNL A   1      38.635  22.321  25.561  1.00  0.00    -0.374 OA
BRANCH   2   3
ATOM      3  C   UNL A   1      37.579  23.262  25.788  1.00  0.00     0.202 C 
BRANCH   3   4
ATOM      4  C   UNL A   1      36.722  23.505  24.545  1.00  0.00     0.261 C 
BRANCH   4   5
ATOM      5  O   UNL A   1      35.499  24.131  24.959  1.00  0.00    -0.459 OA
BRANCH   5   6
ATOM      6  C   UNL A   1      34.676  24.487  23.957  1.00  0.00     0.354 C 
ATOM      7  O   UNL A   1      34.735  24.173  22.784  1.00  0.00    -0.245 OA
BRANCH   6   8
ATOM      8  C   UNL A   1      33.522  25.250  24.546  1.00  0.00     0.148 C 
ATOM      9  N   UNL A   1      31.814  26.491  24.692  1.00  0.00    -0.256 N 
ATOM     10  N   UNL A   1      32.684  25.916  23.811  1.00  0.00    -0.169 NA
ATOM     11  C   UNL A   1      32.335  26.465  26.071  1.00  0.00     0.154 C 
ATOM     12  C   UNL A   1      33.218  25.207  26.011  1.00  0.00     0.099 C 
BRANCH   9  13
ATOM     13  C   UNL A   1      30.940  27.445  24.198  1.00  0.00     0.060 A 
ATOM     14  C   UNL A   1      29.202  29.303  23.007  1.00  0.00     0.067 A 
ATOM     15  C   UNL A   1      28.762  28.003  23.267  1.00  0.00     0.022 A 
ATOM     16  C   UNL A   1      30.498  29.688  23.345  1.00  0.00     0.022 A 
ATOM     17  C   UNL A   1      29.629  27.084  23.862  1.00  0.00     0.029 A 
ATOM     18  C   UNL A   1      31.360  28.754  23.926  1.00  0.00     0.029 A 
BRANCH  14  19
ATOM     19  S   UNL A   1      28.073  30.406  22.196  1.00  0.00     0.175 S 
ATOM     20  C   UNL A   1      28.823  32.009  22.178  1.00  0.00     0.163 C 
ATOM     21  O   UNL A   1      26.895  30.489  23.040  1.00  0.00    -0.224 OA
ATOM     22  O   UNL A   1      27.974  29.965  20.817  1.00  0.00    -0.224 OA
ENDBRANCH  14  19
ENDBRANCH   9  13
BRANCH  11  23
ATOM     23  C   UNL A   1      33.079  27.708  26.542  1.00  0.00     0.030 A 
ATOM     24  C   UNL A   1      34.434  27.970  26.408  1.00  0.00     0.017 A 
ATOM     25  S   UNL A   1      32.300  28.991  27.387  1.00  0.00    -0.147 S 
ATOM     26  C   UNL A   1      34.813  29.225  26.966  1.00  0.00     0.012 A 
ATOM     27  C   UNL A   1      33.740  29.894  27.506  1.00  0.00     0.065 A 
ENDBRANCH  11  23
ENDBRANCH   6   8
ENDBRANCH   5   6
ENDBRANCH   4   5
ENDBRANCH   3   4
ENDBRANCH   2   3
ENDBRANCH   1   2
BRANCH   1  28
ATOM     28  C   UNL A   1      41.025  22.378  26.238  1.00  0.00     0.261 C 
BRANCH  28  29
ATOM     29  O   UNL A   1      41.653  23.318  27.130  1.00  0.00    -0.460 OA
BRANCH  29  30
ATOM     30  C   UNL A   1      41.911  24.538  26.597  1.00  0.00     0.338 C 
ATOM     31  O   UNL A   1      42.239  24.783  25.448  1.00  0.00    -0.246 OA
BRANCH  30  32
ATOM     32  C   UNL A   1      41.559  25.591  27.575  1.00  0.00     0.060 A 
ATOM     33  C   UNL A   1      42.480  26.627  27.765  1.00  0.00     0.016 A 
ATOM     34  C   UNL A   1      40.367  25.562  28.306  1.00  0.00     0.016 A 
ATOM     35  C   UNL A   1      42.227  27.626  28.705  1.00  0.00     0.010 A 
ATOM     36  C   UNL A   1      40.120  26.557  29.258  1.00  0.00     0.010 A 
ATOM     37  C   UNL A   1      41.058  27.582  29.475  1.00  0.00    -0.014 A 
BRANCH  37  38
ATOM     38  C   UNL A   1      40.863  28.559  30.572  1.00  0.00     0.031 A 
ATOM     39  C   UNL A   1      41.687  28.438  31.823  1.00  0.00     0.074 A 
ATOM     40  C   UNL A   1      39.959  29.547  30.454  1.00  0.00     0.049 A 
ATOM     41  N   UNL A   1      41.665  29.176  32.902  1.00  0.00    -0.248 NA
ATOM     42  C   UNL A   1      42.662  27.338  31.862  1.00  0.00     0.031 C 
ATOM     43  C   UNL A   1      39.104  29.773  29.289  1.00  0.00     0.029 A 
ATOM     44  N   UNL A   1      39.597  30.534  31.336  1.00  0.00    -0.354 N 
ATOM     45  C   UNL A   1      42.621  28.633  33.750  1.00  0.00     0.074 A 
ATOM     46  C   UNL A   1      43.189  27.489  33.069  1.00  0.00     0.031 C 
ATOM     47  C   UNL A   1      38.296  30.818  29.540  1.00  0.00     0.029 A 
ATOM     48  C   UNL A   1      38.565  31.320  30.887  1.00  0.00     0.049 A 
ATOM     49  H   UNL A   1      40.036  30.665  32.208  1.00  0.00     0.167 HD
ATOM     50  C   UNL A   1      42.994  29.053  34.983  1.00  0.00     0.037 A 
ATOM     51  C   UNL A   1      37.896  32.316  31.500  1.00  0.00     0.037 A 
ATOM     52  C   UNL A   1      42.429  30.188  35.661  1.00  0.00     0.049 A 
ATOM     53  C   UNL A   1      38.292  32.736  32.889  1.00  0.00     0.074 A 
ATOM     54  C   UNL A   1      42.788  30.728  36.883  1.00  0.00     0.029 A 
ATOM     55  N   UNL A   1      41.371  30.946  35.184  1.00  0.00    -0.354 N 
ATOM     56  N   UNL A   1      39.243  32.254  33.653  1.00  0.00    -0.248 NA
ATOM     57  C   UNL A   1      37.528  33.834  33.498  1.00  0.00     0.031 C 
ATOM     58  C   UNL A   1      41.918  31.790  37.165  1.00  0.00     0.029 A 
ATOM     59  C   UNL A   1      41.038  31.928  36.103  1.00  0.00     0.049 A 
ATOM     60  H   UNL A   1      40.922  30.808  34.319  1.00  0.00     0.167 HD
ATOM     61  C   UNL A   1      39.194  32.991  34.831  1.00  0.00     0.074 A 
ATOM     62  C   UNL A   1      38.129  33.961  34.673  1.00  0.00     0.031 C 
ATOM     63  C   UNL A   1      39.963  32.874  35.942  1.00  0.00     0.037 A 
BRANCH  50  64
ATOM     64  C   UNL A   1      44.056  28.256  35.681  1.00  0.00     0.058 A 
ATOM     65  C   UNL A   1      43.732  27.183  36.527  1.00  0.00     0.135 A 
ATOM     66  C   UNL A   1      45.411  28.570  35.506  1.00  0.00     0.135 A 
ATOM     67  F   UNL A   1      42.448  26.854  36.739  1.00  0.00    -0.206 F 
ATOM     68  C   UNL A   1      44.717  26.468  37.199  1.00  0.00     0.059 A 
ATOM     69  C   UNL A   1      46.415  27.857  36.156  1.00  0.00     0.059 A 
ATOM     70  F   UNL A   1      45.771  29.590  34.710  1.00  0.00    -0.206 F 
ATOM     71  C   UNL A   1      46.055  26.820  37.015  1.00  0.00     0.060 A 
BRANCH  71  72
ATOM     72  S   UNL A   1      47.326  25.906  37.915  1.00  0.00     0.124 S 
ATOM     73  O   UNL A   1      46.696  24.596  38.053  1.00  0.00    -0.237 OA
ATOM     74  O   UNL A   1      48.465  25.968  37.005  1.00  0.00    -0.237 OA
ATOM     75  O   UNL A   1      47.475  26.666  39.152  1.00  0.00    -0.744 OA
ENDBRANCH  71  72
ENDBRANCH  50  64
BRANCH  51  76
ATOM     76  C   UNL A   1      36.755  32.961  30.803  1.00  0.00     0.058 A 
ATOM     77  C   UNL A   1      35.430  32.639  31.126  1.00  0.00     0.135 A 
ATOM     78  C   UNL A   1      36.976  33.950  29.832  1.00  0.00     0.135 A 
ATOM     79  F   UNL A   1      35.173  31.695  32.042  1.00  0.00    -0.206 F 
ATOM     80  C   UNL A   1      34.359  33.282  30.513  1.00  0.00     0.059 A 
ATOM     81  C   UNL A   1      35.923  34.616  29.217  1.00  0.00     0.059 A 
ATOM     82  F   UNL A   1      38.229  34.296  29.498  1.00  0.00    -0.206 F 
ATOM     83  C   UNL A   1      34.616  34.274  29.565  1.00  0.00     0.060 A 
BRANCH  83  84
ATOM     84  S   UNL A   1      33.226  35.173  28.841  1.00  0.00     0.124 S 
ATOM     85  O   UNL A   1      32.479  35.564  30.032  1.00  0.00    -0.237 OA
ATOM     86  O   UNL A   1      33.895  36.253  28.123  1.00  0.00    -0.237 OA
ATOM     87  O   UNL A   1      32.588  34.170  27.994  1.00  0.00    -0.744 OA
ENDBRANCH  83  84
ENDBRANCH  51  76
BRANCH  63  88
ATOM     88  C   UNL A   1      39.678  33.811  37.081  1.00  0.00     0.058 A 
ATOM     89  C   UNL A   1      38.885  33.413  38.167  1.00  0.00     0.135 A 
ATOM     90  C   UNL A   1      40.248  35.093  37.116  1.00  0.00     0.135 A 
ATOM     91  F   UNL A   1      38.311  32.200  38.176  1.00  0.00    -0.206 F 
ATOM     92  C   UNL A   1      38.655  34.260  39.247  1.00  0.00     0.059 A 
ATOM     93  C   UNL A   1      40.047  35.950  38.193  1.00  0.00     0.059 A 
ATOM     94  F   UNL A   1      41.021  35.516  36.104  1.00  0.00    -0.206 F 
ATOM     95  C   UNL A   1      39.241  35.528  39.251  1.00  0.00     0.060 A 
BRANCH  95  96
ATOM     96  S   UNL A   1      38.974  36.606  40.675  1.00  0.00     0.124 S 
ATOM     97  O   UNL A   1      40.318  36.681  41.241  1.00  0.00    -0.237 OA
ATOM     98  O   UNL A   1      38.477  37.832  40.058  1.00  0.00    -0.237 OA
ATOM     99  O   UNL A   1      37.995  35.874  41.473  1.00  0.00    -0.744 OA
ENDBRANCH  95  96
ENDBRANCH  63  88
ENDBRANCH  37  38
ENDBRANCH  30  32
ENDBRANCH  29  30
ENDBRANCH  28  29
ENDBRANCH   1  28
TORSDOF 20
ENDMDL
MODEL 3
REMARK VINA RESULT:     -10.9      4.794      5.880
REMARK SMILES CS(=O)(=O)c1ccc(N2N=C(C(=O)OCCOCCOC(=O)c3ccc(-c4c5nc(c(-c6c(F)cc(S(=O)(=O)[O-])cc6F)c6ccc([nH]6)c(-c6c(F)cc(S(=O)(=O)[O-])cc6F)c6nc(c(-c7c(F)cc(S(=O)(=O)[O-])cc7F)c7ccc4[nH]7)C=C6)C=C5)cc3)C[C@H]2c2cccs2)cc1
REMARK SMILES IDX 18 1 17 2 16 3 15 4 14 5 12 6 13 7 11 8 9 9 10 10 90 11
REMARK SMILES IDX 89 12 8 13 5 14 6 15 97 16 7 17 96 18 2 19 1 20 3 21 4 22
REMARK SMILES IDX 91 23 92 24 95 25 93 26 94 27 19 28 20 29 21 30 22 31 23 32
REMARK SMILES IDX 24 33 88 34 25 35 87 36 26 37 27 38 28 39 81 40 29 41 86 42
REMARK SMILES IDX 80 43 82 44 30 45 85 46 79 47 78 48 31 50 65 51 44 52 64 53
REMARK SMILES IDX 45 54 48 55 63 56 83 57 46 58 47 59 62 61 84 62 49 63 32 64
REMARK SMILES IDX 33 65 42 66 34 67 35 68 41 69 43 70 36 71 37 72 38 73 39 74
REMARK SMILES IDX 40 75 66 76 67 77 76 78 68 79 69 80 75 81 77 82 70 83 71 84
REMARK SMILES IDX 72 85 73 86 74 87 50 88 51 89 60 90 52 91 53 92 59 93 61 94
REMARK SMILES IDX 54 95 55 96 56 97 57 98 58 99
REMARK H PARENT 82 49 48 60
REMARK Flexibility Score: inf
ROOT
ATOM      1  C   UNL A   1      36.478  21.284  24.902  1.00  0.00     0.202 C 
ENDROOT
BRANCH   1   2
ATOM      2  O   UNL A   1      35.291  20.674  25.421  1.00  0.00    -0.374 OA
BRANCH   2   3
ATOM      3  C   UNL A   1      34.084  20.922  24.690  1.00  0.00     0.202 C 
BRANCH   3   4
ATOM      4  C   UNL A   1      32.924  21.352  25.588  1.00  0.00     0.261 C 
BRANCH   4   5
ATOM      5  O   UNL A   1      33.340  22.501  26.340  1.00  0.00    -0.459 OA
BRANCH   5   6
ATOM      6  C   UNL A   1      32.345  23.320  26.724  1.00  0.00     0.354 C 
ATOM      7  O   UNL A   1      31.532  23.156  27.612  1.00  0.00    -0.245 OA
BRANCH   6   8
ATOM      8  C   UNL A   1      32.475  24.608  25.958  1.00  0.00     0.148 C 
ATOM      9  N   UNL A   1      31.971  26.451  25.048  1.00  0.00    -0.256 N 
ATOM     10  N   UNL A   1      31.484  25.435  25.819  1.00  0.00    -0.169 NA
ATOM     11  C   UNL A   1      33.231  26.075  24.381  1.00  0.00     0.154 C 
ATOM     12  C   UNL A   1      33.786  25.055  25.389  1.00  0.00     0.099 C 
BRANCH   9  13
ATOM     13  C   UNL A   1      31.061  27.371  24.553  1.00  0.00     0.060 A 
ATOM     14  C   UNL A   1      29.287  29.193  23.361  1.00  0.00     0.067 A 
ATOM     15  C   UNL A   1      28.984  27.829  23.371  1.00  0.00     0.022 A 
ATOM     16  C   UNL A   1      30.461  29.657  23.949  1.00  0.00     0.022 A 
ATOM     17  C   UNL A   1      29.868  26.928  23.968  1.00  0.00     0.029 A 
ATOM     18  C   UNL A   1      31.344  28.743  24.530  1.00  0.00     0.029 A 
BRANCH  14  19
ATOM     19  S   UNL A   1      28.152  30.280  22.535  1.00  0.00     0.175 S 
ATOM     20  C   UNL A   1      28.750  31.932  22.756  1.00  0.00     0.163 C 
ATOM     21  O   UNL A   1      26.890  30.178  23.243  1.00  0.00    -0.224 OA
ATOM     22  O   UNL A   1      28.240  29.979  21.118  1.00  0.00    -0.224 OA
ENDBRANCH  14  19
ENDBRANCH   9  13
BRANCH  11  23
ATOM     23  C   UNL A   1      33.115  25.529  22.963  1.00  0.00     0.030 A 
ATOM     24  C   UNL A   1      32.816  26.246  21.816  1.00  0.00     0.017 A 
ATOM     25  S   UNL A   1      33.302  23.857  22.596  1.00  0.00    -0.147 S 
ATOM     26  C   UNL A   1      32.774  25.429  20.648  1.00  0.00     0.012 A 
ATOM     27  C   UNL A   1      33.050  24.112  20.930  1.00  0.00     0.065 A 
ENDBRANCH  11  23
ENDBRANCH   6   8
ENDBRANCH   5   6
ENDBRANCH   4   5
ENDBRANCH   3   4
ENDBRANCH   2   3
ENDBRANCH   1   2
BRANCH   1  28
ATOM     28  C   UNL A   1      37.001  22.445  25.752  1.00  0.00     0.261 C 
BRANCH  28  29
ATOM     29  O   UNL A   1      38.374  22.735  25.425  1.00  0.00    -0.460 OA
BRANCH  29  30
ATOM     30  C   UNL A   1      39.253  22.596  26.448  1.00  0.00     0.338 C 
ATOM     31  O   UNL A   1      39.778  21.563  26.830  1.00  0.00    -0.246 OA
BRANCH  30  32
ATOM     32  C   UNL A   1      39.648  23.931  26.947  1.00  0.00     0.060 A 
ATOM     33  C   UNL A   1      39.983  24.901  25.994  1.00  0.00     0.016 A 
ATOM     34  C   UNL A   1      39.711  24.230  28.312  1.00  0.00     0.016 A 
ATOM     35  C   UNL A   1      40.405  26.166  26.402  1.00  0.00     0.010 A 
ATOM     36  C   UNL A   1      40.148  25.495  28.719  1.00  0.00     0.010 A 
ATOM     37  C   UNL A   1      40.516  26.461  27.767  1.00  0.00    -0.014 A 
BRANCH  37  38
ATOM     38  C   UNL A   1      41.105  27.752  28.194  1.00  0.00     0.031 A 
ATOM     39  C   UNL A   1      42.593  27.946  28.118  1.00  0.00     0.074 A 
ATOM     40  C   UNL A   1      40.319  28.745  28.646  1.00  0.00     0.049 A 
ATOM     41  N   UNL A   1      43.309  28.987  28.454  1.00  0.00    -0.248 NA
ATOM     42  C   UNL A   1      43.375  26.814  27.598  1.00  0.00     0.031 C 
ATOM     43  C   UNL A   1      38.862  28.682  28.761  1.00  0.00     0.029 A 
ATOM     44  N   UNL A   1      40.640  29.995  29.112  1.00  0.00    -0.354 N 
ATOM     45  C   UNL A   1      44.627  28.640  28.186  1.00  0.00     0.074 A 
ATOM     46  C   UNL A   1      44.613  27.282  27.682  1.00  0.00     0.031 C 
ATOM     47  C   UNL A   1      38.418  29.834  29.291  1.00  0.00     0.029 A 
ATOM     48  C   UNL A   1      39.559  30.706  29.568  1.00  0.00     0.049 A 
ATOM     49  H   UNL A   1      41.560  30.348  29.117  1.00  0.00     0.167 HD
ATOM     50  C   UNL A   1      45.747  29.386  28.342  1.00  0.00     0.037 A 
ATOM     51  C   UNL A   1      39.496  31.914  30.164  1.00  0.00     0.037 A 
ATOM     52  C   UNL A   1      45.762  30.734  28.844  1.00  0.00     0.049 A 
ATOM     53  C   UNL A   1      40.756  32.707  30.374  1.00  0.00     0.074 A 
ATOM     54  C   UNL A   1      46.839  31.592  28.977  1.00  0.00     0.029 A 
ATOM     55  N   UNL A   1      44.649  31.412  29.317  1.00  0.00    -0.354 N 
ATOM     56  N   UNL A   1      41.989  32.392  30.055  1.00  0.00    -0.248 NA
ATOM     57  C   UNL A   1      40.618  34.020  31.021  1.00  0.00     0.031 C 
ATOM     58  C   UNL A   1      46.384  32.777  29.569  1.00  0.00     0.029 A 
ATOM     59  C   UNL A   1      45.018  32.667  29.776  1.00  0.00     0.049 A 
ATOM     60  H   UNL A   1      43.732  31.056  29.326  1.00  0.00     0.167 HD
ATOM     61  C   UNL A   1      42.773  33.467  30.460  1.00  0.00     0.074 A 
ATOM     62  C   UNL A   1      41.873  34.448  31.034  1.00  0.00     0.031 C 
ATOM     63  C   UNL A   1      44.116  33.625  30.363  1.00  0.00     0.037 A 
BRANCH  50  64
ATOM     64  C   UNL A   1      47.051  28.741  27.981  1.00  0.00     0.058 A 
ATOM     65  C   UNL A   1      47.802  28.022  28.925  1.00  0.00     0.135 A 
ATOM     66  C   UNL A   1      47.559  28.845  26.677  1.00  0.00     0.135 A 
ATOM     67  F   UNL A   1      47.366  27.909  30.189  1.00  0.00    -0.206 F 
ATOM     68  C   UNL A   1      49.027  27.454  28.596  1.00  0.00     0.059 A 
ATOM     69  C   UNL A   1      48.775  28.270  26.321  1.00  0.00     0.059 A 
ATOM     70  F   UNL A   1      46.879  29.525  25.740  1.00  0.00    -0.206 F 
ATOM     71  C   UNL A   1      49.511  27.593  27.293  1.00  0.00     0.060 A 
BRANCH  71  72
ATOM     72  S   UNL A   1      51.116  26.878  26.881  1.00  0.00     0.124 S 
ATOM     73  O   UNL A   1      51.995  27.593  27.802  1.00  0.00    -0.237 OA
ATOM     74  O   UNL A   1      50.916  25.462  27.167  1.00  0.00    -0.237 OA
ATOM     75  O   UNL A   1      51.281  27.211  25.469  1.00  0.00    -0.744 OA
ENDBRANCH  71  72
ENDBRANCH  50  64
BRANCH  51  76
ATOM     76  C   UNL A   1      38.184  32.425  30.631  1.00  0.00     0.058 A 
ATOM     77  C   UNL A   1      37.751  32.219  31.948  1.00  0.00     0.135 A 
ATOM     78  C   UNL A   1      37.360  33.173  29.775  1.00  0.00     0.135 A 
ATOM     79  F   UNL A   1      38.502  31.503  32.797  1.00  0.00    -0.206 F 
ATOM     80  C   UNL A   1      36.547  32.745  32.405  1.00  0.00     0.059 A 
ATOM     81  C   UNL A   1      36.160  33.720  30.213  1.00  0.00     0.059 A 
ATOM     82  F   UNL A   1      37.740  33.402  28.509  1.00  0.00    -0.206 F 
ATOM     83  C   UNL A   1      35.761  33.500  31.531  1.00  0.00     0.060 A 
BRANCH  83  84
ATOM     84  S   UNL A   1      34.246  34.261  32.154  1.00  0.00     0.124 S 
ATOM     85  O   UNL A   1      33.709  33.198  32.996  1.00  0.00    -0.237 OA
ATOM     86  O   UNL A   1      34.754  35.436  32.855  1.00  0.00    -0.237 OA
ATOM     87  O   UNL A   1      33.494  34.546  30.936  1.00  0.00    -0.744 OA
ENDBRANCH  83  84
ENDBRANCH  51  76
BRANCH  63  88
ATOM     88  C   UNL A   1      44.701  34.902  30.897  1.00  0.00     0.058 A 
ATOM     89  C   UNL A   1      45.209  34.978  32.203  1.00  0.00     0.135 A 
ATOM     90  C   UNL A   1      44.808  36.039  30.082  1.00  0.00     0.135 A 
ATOM     91  F   UNL A   1      45.122  33.920  33.023  1.00  0.00    -0.206 F 
ATOM     92  C   UNL A   1      45.793  36.144  32.688  1.00  0.00     0.059 A 
ATOM     93  C   UNL A   1      45.405  37.209  30.539  1.00  0.00     0.059 A 
ATOM     94  F   UNL A   1      44.345  36.013  28.822  1.00  0.00    -0.206 F 
ATOM     95  C   UNL A   1      45.887  37.255  31.848  1.00  0.00     0.060 A 
BRANCH  95  96
ATOM     96  S   UNL A   1      46.685  38.751  32.468  1.00  0.00     0.124 S 
ATOM     97  O   UNL A   1      47.906  38.784  31.669  1.00  0.00    -0.237 OA
ATOM     98  O   UNL A   1      45.702  39.786  32.166  1.00  0.00    -0.237 OA
ATOM     99  O   UNL A   1      46.870  38.469  33.889  1.00  0.00    -0.744 OA
ENDBRANCH  95  96
ENDBRANCH  63  88
ENDBRANCH  37  38
ENDBRANCH  30  32
ENDBRANCH  29  30
ENDBRANCH  28  29
ENDBRANCH   1  28
TORSDOF 20
ENDMDL
