MODEL 1
REMARK VINA RESULT:     -12.8      0.000      0.000
REMARK SMILES Cc1ccc(S(=O)(=O)n2cc(C(=O)C(=O)N[C@H](Cc3c[nH]c4ccccc34)C(=O)NCC(=O)OCCOCCOC(=O)c3ccc(-c4c5nc(c(-c6c(F)cc(S(=O)(=O)[O-])cc6F)c6ccc([nH]6)c(-c6c(F)cc(S(=O)(=O)[O-])cc6F)c6nc(c(-c7c(F)cc(S(=O)(=O)[O-])cc7F)c7ccc4[nH]7)C=C6)C=C5)cc3)c3ccccc32)cc1
REMARK SMILES IDX 35 1 34 2 32 3 33 4 31 5 30 6 28 7 29 8 17 10 16 11 14 12
REMARK SMILES IDX 15 13 12 15 13 16 11 17 9 18 10 19 114 20 109 21 113 22
REMARK SMILES IDX 110 23 112 24 111 25 6 26 7 27 8 28 5 29 1 30 2 31 3 32
REMARK SMILES IDX 116 33 4 34 115 35 18 36 19 37 20 38 27 39 21 40 22 41 26 42
REMARK SMILES IDX 23 44 25 45 24 46 36 47 37 48 38 49 39 50 40 51 41 52 42 53
REMARK SMILES IDX 43 54 44 55 108 56 45 57 107 58 46 59 47 60 48 61 101 62
REMARK SMILES IDX 49 63 106 64 100 65 102 66 50 67 105 68 99 69 98 70 51 72
REMARK SMILES IDX 85 73 64 74 84 75 65 76 68 77 83 78 103 79 66 80 67 81 82 83
REMARK SMILES IDX 104 84 69 85 52 86 53 87 62 88 54 89 55 90 61 91 63 92 56 93
REMARK SMILES IDX 57 94 58 95 59 96 60 97 86 98 87 99 96 100 88 101 89 102
REMARK SMILES IDX 95 103 97 104 90 105 91 106 92 107 93 108 94 109 70 110
REMARK SMILES IDX 71 111 80 112 72 113 73 114 79 115 81 116 74 117 75 118
REMARK SMILES IDX 76 119 77 120 78 121
REMARK H PARENT 30 9 16 14 21 43 102 71 68 82
REMARK Flexibility Score: inf
ROOT
ATOM      1  C   UNL A   1      39.858  24.381  26.807  1.00  0.00     0.261 C 
ENDROOT
BRANCH   1   2
ATOM      2  O   UNL A   1      38.459  24.352  26.502  1.00  0.00    -0.462 OA
BRANCH   2   3
ATOM      3  C   UNL A   1      37.960  23.164  26.065  1.00  0.00     0.325 C 
ATOM      4  O   UNL A   1      38.569  22.169  25.771  1.00  0.00    -0.250 OA
BRANCH   3   5
ATOM      5  C   UNL A   1      36.460  23.260  25.882  1.00  0.00     0.238 C 
BRANCH   5   6
ATOM      6  N   UNL A   1      36.036  23.320  24.506  1.00  0.00    -0.343 N 
ATOM      7  C   UNL A   1      34.864  23.034  23.903  1.00  0.00     0.243 C 
ATOM      8  O   UNL A   1      34.843  23.282  22.690  1.00  0.00    -0.273 OA
ATOM      9  H   UNL A   1      36.735  23.630  23.886  1.00  0.00     0.164 HD
BRANCH   7  10
ATOM     10  C   UNL A   1      33.618  22.418  24.602  1.00  0.00     0.176 C 
BRANCH  10  11
ATOM     11  N   UNL A   1      33.466  22.631  26.099  1.00  0.00    -0.337 N 
ATOM     12  C   UNL A   1      32.629  23.210  27.050  1.00  0.00     0.293 C 
ATOM     13  O   UNL A   1      32.912  23.036  28.235  1.00  0.00    -0.265 OA
ATOM     14  H   UNL A   1      34.227  22.210  26.560  1.00  0.00     0.164 HD
BRANCH  12  15
ATOM     15  C   UNL A   1      31.386  24.032  26.719  1.00  0.00     0.252 C 
ATOM     16  O   UNL A   1      30.358  23.613  27.250  1.00  0.00    -0.283 OA
BRANCH  15  17
ATOM     17  C   UNL A   1      31.300  25.159  25.746  1.00  0.00     0.054 A 
ATOM     18  N   UNL A   1      30.383  27.114  25.042  1.00  0.00    -0.240 N 
ATOM     19  C   UNL A   1      30.248  25.689  24.970  1.00  0.00     0.117 A 
ATOM     20  C   UNL A   1      31.350  27.248  25.999  1.00  0.00     0.065 A 
ATOM     21  C   UNL A   1      32.238  26.225  25.698  1.00  0.00     0.012 A 
ATOM     22  C   UNL A   1      31.577  28.076  27.046  1.00  0.00     0.028 A 
ATOM     23  C   UNL A   1      33.602  26.473  25.863  1.00  0.00     0.011 A 
ATOM     24  C   UNL A   1      32.932  28.337  27.176  1.00  0.00     0.002 A 
ATOM     25  C   UNL A   1      33.936  27.671  26.468  1.00  0.00     0.001 A 
BRANCH  18  26
ATOM     26  S   UNL A   1      30.678  28.141  23.563  1.00  0.00     0.268 S 
ATOM     27  O   UNL A   1      30.666  27.174  22.479  1.00  0.00    -0.201 OA
ATOM     28  O   UNL A   1      31.862  28.925  23.868  1.00  0.00    -0.201 OA
BRANCH  26  29
ATOM     29  C   UNL A   1      29.363  29.344  23.224  1.00  0.00     0.088 A 
ATOM     30  C   UNL A   1      27.915  32.859  21.129  1.00  0.00     0.044 C 
ATOM     31  C   UNL A   1      28.122  31.620  21.971  1.00  0.00    -0.051 A 
ATOM     32  C   UNL A   1      28.749  31.746  23.195  1.00  0.00     0.005 A 
ATOM     33  C   UNL A   1      27.984  30.325  21.458  1.00  0.00     0.005 A 
ATOM     34  C   UNL A   1      29.470  30.636  23.695  1.00  0.00     0.022 A 
ATOM     35  C   UNL A   1      28.556  29.194  22.103  1.00  0.00     0.022 A 
ENDBRANCH  26  29
ENDBRANCH  18  26
ENDBRANCH  15  17
ENDBRANCH  12  15
ENDBRANCH  10  11
BRANCH  10  36
ATOM     36  C   UNL A   1      33.034  21.141  23.928  1.00  0.00     0.072 C 
BRANCH  36  37
ATOM     37  C   UNL A   1      33.013  19.849  24.747  1.00  0.00    -0.020 A 
ATOM     38  C   UNL A   1      32.601  19.772  26.065  1.00  0.00     0.087 A 
ATOM     39  C   UNL A   1      33.318  18.483  24.377  1.00  0.00     0.003 A 
ATOM     40  N   UNL A   1      32.761  18.499  26.540  1.00  0.00    -0.361 N 
ATOM     41  C   UNL A   1      33.162  17.680  25.516  1.00  0.00     0.046 A 
ATOM     42  C   UNL A   1      33.725  17.836  23.188  1.00  0.00     0.010 A 
ATOM     43  H   UNL A   1      32.610  18.216  27.471  1.00  0.00     0.166 HD
ATOM     44  C   UNL A   1      33.394  16.297  25.533  1.00  0.00     0.026 A 
ATOM     45  C   UNL A   1      33.965  16.450  23.187  1.00  0.00     0.001 A 
ATOM     46  C   UNL A   1      33.801  15.694  24.345  1.00  0.00     0.002 A 
ENDBRANCH  36  37
ENDBRANCH  10  36
ENDBRANCH   7  10
ENDBRANCH   5   6
ENDBRANCH   3   5
ENDBRANCH   2   3
ENDBRANCH   1   2
BRANCH   1  47
ATOM     47  C   UNL A   1      40.316  25.817  26.682  1.00  0.00     0.202 C 
BRANCH  47  48
ATOM     48  O   UNL A   1      41.592  25.877  27.317  1.00  0.00    -0.374 OA
BRANCH  48  49
ATOM     49  C   UNL A   1      42.655  26.430  26.565  1.00  0.00     0.202 C 
BRANCH  49  50
ATOM     50  C   UNL A   1      43.184  25.493  25.476  1.00  0.00     0.261 C 
BRANCH  50  51
ATOM     51  O   UNL A   1      43.640  24.247  26.043  1.00  0.00    -0.460 OA
BRANCH  51  52
ATOM     52  C   UNL A   1      44.923  24.271  26.506  1.00  0.00     0.338 C 
ATOM     53  O   UNL A   1      45.900  24.421  25.792  1.00  0.00    -0.246 OA
BRANCH  52  54
ATOM     54  C   UNL A   1      44.955  24.069  27.978  1.00  0.00     0.060 A 
ATOM     55  C   UNL A   1      43.883  23.454  28.646  1.00  0.00     0.016 A 
ATOM     56  C   UNL A   1      45.959  24.693  28.706  1.00  0.00     0.016 A 
ATOM     57  C   UNL A   1      43.742  23.591  30.033  1.00  0.00     0.010 A 
ATOM     58  C   UNL A   1      45.726  24.963  30.033  1.00  0.00     0.010 A 
ATOM     59  C   UNL A   1      44.628  24.408  30.717  1.00  0.00    -0.014 A 
BRANCH  59  60
ATOM     60  C   UNL A   1      44.545  24.788  32.139  1.00  0.00     0.031 A 
ATOM     61  C   UNL A   1      43.973  26.180  32.373  1.00  0.00     0.074 A 
ATOM     62  C   UNL A   1      44.469  23.697  32.949  1.00  0.00     0.049 A 
ATOM     63  N   UNL A   1      43.721  26.779  33.490  1.00  0.00    -0.248 NA
ATOM     64  C   UNL A   1      43.661  27.064  31.231  1.00  0.00     0.031 C 
ATOM     65  C   UNL A   1      43.539  23.358  34.004  1.00  0.00     0.029 A 
ATOM     66  N   UNL A   1      45.408  22.674  33.083  1.00  0.00    -0.354 N 
ATOM     67  C   UNL A   1      42.902  27.880  33.206  1.00  0.00     0.074 A 
ATOM     68  C   UNL A   1      42.907  28.011  31.781  1.00  0.00     0.031 C 
ATOM     69  C   UNL A   1      44.048  22.494  34.881  1.00  0.00     0.029 A 
ATOM     70  C   UNL A   1      45.376  22.233  34.430  1.00  0.00     0.049 A 
ATOM     71  H   UNL A   1      45.988  22.319  32.371  1.00  0.00     0.167 HD
ATOM     72  C   UNL A   1      42.159  28.502  34.168  1.00  0.00     0.037 A 
ATOM     73  C   UNL A   1      46.454  22.333  35.245  1.00  0.00     0.037 A 
ATOM     74  C   UNL A   1      42.519  27.976  35.526  1.00  0.00     0.049 A 
ATOM     75  C   UNL A   1      46.255  23.387  36.315  1.00  0.00     0.074 A 
ATOM     76  C   UNL A   1      41.810  27.341  36.522  1.00  0.00     0.029 A 
ATOM     77  N   UNL A   1      43.859  27.722  35.909  1.00  0.00    -0.354 N 
ATOM     78  N   UNL A   1      45.660  24.552  36.169  1.00  0.00    -0.248 NA
ATOM     79  C   UNL A   1      46.596  23.084  37.704  1.00  0.00     0.031 C 
ATOM     80  C   UNL A   1      42.632  26.608  37.384  1.00  0.00     0.029 A 
ATOM     81  C   UNL A   1      43.919  26.812  36.960  1.00  0.00     0.049 A 
ATOM     82  H   UNL A   1      44.646  28.136  35.486  1.00  0.00     0.167 HD
ATOM     83  C   UNL A   1      45.616  25.173  37.408  1.00  0.00     0.074 A 
ATOM     84  C   UNL A   1      46.171  24.191  38.328  1.00  0.00     0.031 C 
ATOM     85  C   UNL A   1      45.098  26.413  37.691  1.00  0.00     0.037 A 
BRANCH  72  86
ATOM     86  C   UNL A   1      40.848  29.284  33.744  1.00  0.00     0.058 A 
ATOM     87  C   UNL A   1      40.807  30.672  33.880  1.00  0.00     0.135 A 
ATOM     88  C   UNL A   1      39.644  28.813  33.182  1.00  0.00     0.135 A 
ATOM     89  F   UNL A   1      41.967  31.285  33.699  1.00  0.00    -0.206 F 
ATOM     90  C   UNL A   1      39.672  31.506  33.807  1.00  0.00     0.059 A 
ATOM     91  C   UNL A   1      38.508  29.639  32.914  1.00  0.00     0.059 A 
ATOM     92  F   UNL A   1      39.565  27.559  32.715  1.00  0.00    -0.206 F 
ATOM     93  C   UNL A   1      38.525  30.989  33.250  1.00  0.00     0.060 A 
BRANCH  93  94
ATOM     94  S   UNL A   1      37.269  32.156  32.640  1.00  0.00     0.124 S 
ATOM     95  O   UNL A   1      36.057  31.346  32.548  1.00  0.00    -0.237 OA
ATOM     96  O   UNL A   1      37.266  33.156  33.705  1.00  0.00    -0.237 OA
ATOM     97  O   UNL A   1      37.812  32.606  31.362  1.00  0.00    -0.744 OA
ENDBRANCH  93  94
ENDBRANCH  72  86
BRANCH  73  98
ATOM     98  C   UNL A   1      47.684  21.846  34.544  1.00  0.00     0.058 A 
ATOM     99  C   UNL A   1      48.746  22.782  34.594  1.00  0.00     0.135 A 
ATOM    100  C   UNL A   1      48.022  20.489  34.671  1.00  0.00     0.135 A 
ATOM    101  F   UNL A   1      48.490  24.091  34.423  1.00  0.00    -0.206 F 
ATOM    102  C   UNL A   1      49.991  22.433  35.108  1.00  0.00     0.059 A 
ATOM    103  C   UNL A   1      49.269  20.118  35.187  1.00  0.00     0.059 A 
ATOM    104  F   UNL A   1      47.065  19.552  34.594  1.00  0.00    -0.206 F 
ATOM    105  C   UNL A   1      50.193  21.116  35.512  1.00  0.00     0.060 A 
BRANCH 105 106
ATOM    106  S   UNL A   1      51.479  20.810  36.751  1.00  0.00     0.124 S 
ATOM    107  O   UNL A   1      51.143  19.478  37.241  1.00  0.00    -0.237 OA
ATOM    108  O   UNL A   1      52.685  20.870  35.925  1.00  0.00    -0.237 OA
ATOM    109  O   UNL A   1      51.307  21.904  37.697  1.00  0.00    -0.744 OA
ENDBRANCH 105 106
ENDBRANCH  73  98
BRANCH  85 110
ATOM    110  C   UNL A   1      45.380  27.220  38.955  1.00  0.00     0.058 A 
ATOM    111  C   UNL A   1      45.968  28.491  38.931  1.00  0.00     0.135 A 
ATOM    112  C   UNL A   1      44.906  26.801  40.234  1.00  0.00     0.135 A 
ATOM    113  F   UNL A   1      46.362  29.058  37.781  1.00  0.00    -0.206 F 
ATOM    114  C   UNL A   1      46.122  29.263  40.082  1.00  0.00     0.059 A 
ATOM    115  C   UNL A   1      45.034  27.559  41.386  1.00  0.00     0.059 A 
ATOM    116  F   UNL A   1      44.242  25.655  40.431  1.00  0.00    -0.206 F 
ATOM    117  C   UNL A   1      45.641  28.794  41.301  1.00  0.00     0.060 A 
BRANCH 117 118
ATOM    118  S   UNL A   1      45.692  29.860  42.744  1.00  0.00     0.124 S 
ATOM    119  O   UNL A   1      46.453  29.043  43.683  1.00  0.00    -0.237 OA
ATOM    120  O   UNL A   1      46.377  31.040  42.226  1.00  0.00    -0.237 OA
ATOM    121  O   UNL A   1      44.284  30.057  43.077  1.00  0.00    -0.744 OA
ENDBRANCH 117 118
ENDBRANCH  85 110
ENDBRANCH  59  60
ENDBRANCH  52  54
ENDBRANCH  51  52
ENDBRANCH  50  51
ENDBRANCH  49  50
ENDBRANCH  48  49
ENDBRANCH  47  48
ENDBRANCH   1  47
TORSDOF 26
ENDMDL
MODEL 2
REMARK VINA RESULT:     -12.3      7.118     13.167
REMARK SMILES Cc1ccc(S(=O)(=O)n2cc(C(=O)C(=O)N[C@H](Cc3c[nH]c4ccccc34)C(=O)NCC(=O)OCCOCCOC(=O)c3ccc(-c4c5nc(c(-c6c(F)cc(S(=O)(=O)[O-])cc6F)c6ccc([nH]6)c(-c6c(F)cc(S(=O)(=O)[O-])cc6F)c6nc(c(-c7c(F)cc(S(=O)(=O)[O-])cc7F)c7ccc4[nH]7)C=C6)C=C5)cc3)c3ccccc32)cc1
REMARK SMILES IDX 35 1 34 2 32 3 33 4 31 5 30 6 28 7 29 8 17 10 16 11 14 12
REMARK SMILES IDX 15 13 12 15 13 16 11 17 9 18 10 19 114 20 109 21 113 22
REMARK SMILES IDX 110 23 112 24 111 25 6 26 7 27 8 28 5 29 1 30 2 31 3 32
REMARK SMILES IDX 116 33 4 34 115 35 18 36 19 37 20 38 27 39 21 40 22 41 26 42
REMARK SMILES IDX 23 44 25 45 24 46 36 47 37 48 38 49 39 50 40 51 41 52 42 53
REMARK SMILES IDX 43 54 44 55 108 56 45 57 107 58 46 59 47 60 48 61 101 62
REMARK SMILES IDX 49 63 106 64 100 65 102 66 50 67 105 68 99 69 98 70 51 72
REMARK SMILES IDX 85 73 64 74 84 75 65 76 68 77 83 78 103 79 66 80 67 81 82 83
REMARK SMILES IDX 104 84 69 85 52 86 53 87 62 88 54 89 55 90 61 91 63 92 56 93
REMARK SMILES IDX 57 94 58 95 59 96 60 97 86 98 87 99 96 100 88 101 89 102
REMARK SMILES IDX 95 103 97 104 90 105 91 106 92 107 93 108 94 109 70 110
REMARK SMILES IDX 71 111 80 112 72 113 73 114 79 115 81 116 74 117 75 118
REMARK SMILES IDX 76 119 77 120 78 121
REMARK H PARENT 30 9 16 14 21 43 102 71 68 82
REMARK Flexibility Score: inf
ROOT
ATOM      1  C   UNL A   1      39.521  29.365  31.439  1.00  0.00     0.261 C 
ENDROOT
BRANCH   1   2
ATOM      2  O   UNL A   1      38.582  28.953  30.440  1.00  0.00    -0.462 OA
BRANCH   2   3
ATOM      3  C   UNL A   1      37.996  29.943  29.715  1.00  0.00     0.325 C 
ATOM      4  O   UNL A   1      38.524  30.898  29.205  1.00  0.00    -0.250 OA
BRANCH   3   5
ATOM      5  C   UNL A   1      36.493  29.761  29.693  1.00  0.00     0.238 C 
BRANCH   5   6
ATOM      6  N   UNL A   1      35.973  29.301  28.429  1.00  0.00    -0.343 N 
ATOM      7  C   UNL A   1      35.154  29.872  27.522  1.00  0.00     0.243 C 
ATOM      8  O   UNL A   1      34.982  29.198  26.499  1.00  0.00    -0.273 OA
ATOM      9  H   UNL A   1      36.273  28.398  28.179  1.00  0.00     0.164 HD
BRANCH   7  10
ATOM     10  C   UNL A   1      34.433  31.239  27.695  1.00  0.00     0.176 C 
BRANCH  10  11
ATOM     11  N   UNL A   1      33.116  31.446  26.966  1.00  0.00    -0.337 N 
ATOM     12  C   UNL A   1      32.012  30.757  26.470  1.00  0.00     0.293 C 
ATOM     13  O   UNL A   1      31.096  31.427  25.991  1.00  0.00    -0.265 OA
ATOM     14  H   UNL A   1      33.002  32.406  26.780  1.00  0.00     0.164 HD
BRANCH  12  15
ATOM     15  C   UNL A   1      31.861  29.239  26.491  1.00  0.00     0.252 C 
ATOM     16  O   UNL A   1      31.753  28.766  27.621  1.00  0.00    -0.283 OA
BRANCH  15  17
ATOM     17  C   UNL A   1      31.966  28.321  25.320  1.00  0.00     0.054 A 
ATOM     18  N   UNL A   1      33.198  27.105  23.850  1.00  0.00    -0.240 N 
ATOM     19  C   UNL A   1      32.639  28.404  24.083  1.00  0.00     0.117 A 
ATOM     20  C   UNL A   1      32.968  26.490  25.048  1.00  0.00     0.065 A 
ATOM     21  C   UNL A   1      31.697  26.928  25.390  1.00  0.00     0.012 A 
ATOM     22  C   UNL A   1      33.652  25.649  25.859  1.00  0.00     0.028 A 
ATOM     23  C   UNL A   1      30.841  26.023  26.021  1.00  0.00     0.011 A 
ATOM     24  C   UNL A   1      32.792  24.738  26.453  1.00  0.00     0.002 A 
ATOM     25  C   UNL A   1      31.398  24.814  26.395  1.00  0.00     0.001 A 
BRANCH  18  26
ATOM     26  S   UNL A   1      32.730  26.087  22.410  1.00  0.00     0.268 S 
ATOM     27  O   UNL A   1      33.643  26.535  21.373  1.00  0.00    -0.201 OA
ATOM     28  O   UNL A   1      31.292  26.246  22.275  1.00  0.00    -0.201 OA
BRANCH  26  29
ATOM     29  C   UNL A   1      33.010  24.309  22.639  1.00  0.00     0.088 A 
ATOM     30  C   UNL A   1      33.813  20.921  25.231  1.00  0.00     0.044 C 
ATOM     31  C   UNL A   1      33.509  21.879  24.101  1.00  0.00    -0.051 A 
ATOM     32  C   UNL A   1      34.550  22.581  23.528  1.00  0.00     0.005 A 
ATOM     33  C   UNL A   1      32.212  22.313  23.806  1.00  0.00     0.005 A 
ATOM     34  C   UNL A   1      34.270  23.842  22.951  1.00  0.00     0.022 A 
ATOM     35  C   UNL A   1      31.964  23.487  23.042  1.00  0.00     0.022 A 
ENDBRANCH  26  29
ENDBRANCH  18  26
ENDBRANCH  15  17
ENDBRANCH  12  15
ENDBRANCH  10  11
BRANCH  10  36
ATOM     36  C   UNL A   1      35.361  32.454  27.997  1.00  0.00     0.072 C 
BRANCH  36  37
ATOM     37  C   UNL A   1      34.800  33.583  28.862  1.00  0.00    -0.020 A 
ATOM     38  C   UNL A   1      34.400  34.811  28.370  1.00  0.00     0.087 A 
ATOM     39  C   UNL A   1      34.496  33.636  30.277  1.00  0.00     0.003 A 
ATOM     40  N   UNL A   1      34.008  35.629  29.394  1.00  0.00    -0.361 N 
ATOM     41  C   UNL A   1      34.019  34.922  30.569  1.00  0.00     0.046 A 
ATOM     42  C   UNL A   1      34.584  32.726  31.353  1.00  0.00     0.010 A 
ATOM     43  H   UNL A   1      33.755  36.577  29.301  1.00  0.00     0.166 HD
ATOM     44  C   UNL A   1      33.644  35.341  31.853  1.00  0.00     0.026 A 
ATOM     45  C   UNL A   1      34.215  33.128  32.649  1.00  0.00     0.001 A 
ATOM     46  C   UNL A   1      33.752  34.419  32.893  1.00  0.00     0.002 A 
ENDBRANCH  36  37
ENDBRANCH  10  36
ENDBRANCH   7  10
ENDBRANCH   5   6
ENDBRANCH   3   5
ENDBRANCH   2   3
ENDBRANCH   1   2
BRANCH   1  47
ATOM     47  C   UNL A   1      38.747  29.600  32.717  1.00  0.00     0.202 C 
BRANCH  47  48
ATOM     48  O   UNL A   1      39.689  30.115  33.656  1.00  0.00    -0.374 OA
BRANCH  48  49
ATOM     49  C   UNL A   1      39.305  31.269  34.378  1.00  0.00     0.202 C 
BRANCH  49  50
ATOM     50  C   UNL A   1      37.788  31.470  34.446  1.00  0.00     0.261 C 
BRANCH  50  51
ATOM     51  O   UNL A   1      37.328  32.307  33.365  1.00  0.00    -0.460 OA
BRANCH  51  52
ATOM     52  C   UNL A   1      37.546  33.641  33.550  1.00  0.00     0.338 C 
ATOM     53  O   UNL A   1      37.010  34.301  34.424  1.00  0.00    -0.246 OA
BRANCH  52  54
ATOM     54  C   UNL A   1      38.495  34.165  32.534  1.00  0.00     0.060 A 
ATOM     55  C   UNL A   1      38.223  34.046  31.161  1.00  0.00     0.016 A 
ATOM     56  C   UNL A   1      39.752  34.575  32.959  1.00  0.00     0.016 A 
ATOM     57  C   UNL A   1      39.251  34.196  30.221  1.00  0.00     0.010 A 
ATOM     58  C   UNL A   1      40.783  34.555  32.049  1.00  0.00     0.010 A 
ATOM     59  C   UNL A   1      40.547  34.380  30.673  1.00  0.00    -0.014 A 
BRANCH  59  60
ATOM     60  C   UNL A   1      41.766  34.406  29.843  1.00  0.00     0.031 A 
ATOM     61  C   UNL A   1      42.500  33.072  29.783  1.00  0.00     0.074 A 
ATOM     62  C   UNL A   1      41.710  35.382  28.896  1.00  0.00     0.049 A 
ATOM     63  N   UNL A   1      43.554  32.754  29.106  1.00  0.00    -0.248 NA
ATOM     64  C   UNL A   1      42.046  31.930  30.602  1.00  0.00     0.031 C 
ATOM     65  C   UNL A   1      41.926  35.334  27.466  1.00  0.00     0.029 A 
ATOM     66  N   UNL A   1      41.595  36.757  29.102  1.00  0.00    -0.354 N 
ATOM     67  C   UNL A   1      43.650  31.355  29.105  1.00  0.00     0.074 A 
ATOM     68  C   UNL A   1      42.688  30.899  30.060  1.00  0.00     0.031 C 
ATOM     69  C   UNL A   1      42.275  36.515  26.958  1.00  0.00     0.029 A 
ATOM     70  C   UNL A   1      42.315  37.410  28.069  1.00  0.00     0.049 A 
ATOM     71  H   UNL A   1      41.101  37.196  29.831  1.00  0.00     0.167 HD
ATOM     72  C   UNL A   1      44.413  30.679  28.197  1.00  0.00     0.037 A 
ATOM     73  C   UNL A   1      43.383  38.201  28.328  1.00  0.00     0.037 A 
ATOM     74  C   UNL A   1      45.245  31.638  27.398  1.00  0.00     0.049 A 
ATOM     75  C   UNL A   1      44.680  37.562  27.876  1.00  0.00     0.074 A 
ATOM     76  C   UNL A   1      45.337  31.932  26.056  1.00  0.00     0.029 A 
ATOM     77  N   UNL A   1      45.902  32.747  27.989  1.00  0.00    -0.354 N 
ATOM     78  N   UNL A   1      45.001  36.288  27.964  1.00  0.00    -0.248 NA
ATOM     79  C   UNL A   1      45.654  38.351  27.122  1.00  0.00     0.031 C 
ATOM     80  C   UNL A   1      45.870  33.204  25.819  1.00  0.00     0.029 A 
ATOM     81  C   UNL A   1      46.177  33.731  27.046  1.00  0.00     0.049 A 
ATOM     82  H   UNL A   1      46.133  32.811  28.944  1.00  0.00     0.167 HD
ATOM     83  C   UNL A   1      46.237  36.111  27.360  1.00  0.00     0.074 A 
ATOM     84  C   UNL A   1      46.568  37.420  26.817  1.00  0.00     0.031 C 
ATOM     85  C   UNL A   1      46.942  34.938  27.254  1.00  0.00     0.037 A 
BRANCH  72  86
ATOM     86  C   UNL A   1      44.037  29.183  27.835  1.00  0.00     0.058 A 
ATOM     87  C   UNL A   1      42.873  28.928  27.109  1.00  0.00     0.135 A 
ATOM     88  C   UNL A   1      44.723  27.979  28.097  1.00  0.00     0.135 A 
ATOM     89  F   UNL A   1      42.545  29.867  26.235  1.00  0.00    -0.206 F 
ATOM     90  C   UNL A   1      42.240  27.683  26.916  1.00  0.00     0.059 A 
ATOM     91  C   UNL A   1      44.219  26.683  27.767  1.00  0.00     0.059 A 
ATOM     92  F   UNL A   1      45.988  28.008  28.540  1.00  0.00    -0.206 F 
ATOM     93  C   UNL A   1      42.961  26.543  27.190  1.00  0.00     0.060 A 
BRANCH  93  94
ATOM     94  S   UNL A   1      42.405  24.980  26.443  1.00  0.00     0.124 S 
ATOM     95  O   UNL A   1      43.075  23.955  27.240  1.00  0.00    -0.237 OA
ATOM     96  O   UNL A   1      40.959  25.068  26.637  1.00  0.00    -0.237 OA
ATOM     97  O   UNL A   1      42.857  25.081  25.058  1.00  0.00    -0.744 OA
ENDBRANCH  93  94
ENDBRANCH  72  86
BRANCH  73  98
ATOM     98  C   UNL A   1      43.075  39.141  29.452  1.00  0.00     0.058 A 
ATOM     99  C   UNL A   1      43.935  38.960  30.564  1.00  0.00     0.135 A 
ATOM    100  C   UNL A   1      42.717  40.460  29.130  1.00  0.00     0.135 A 
ATOM    101  F   UNL A   1      44.268  37.717  30.954  1.00  0.00    -0.206 F 
ATOM    102  C   UNL A   1      44.681  40.016  31.079  1.00  0.00     0.059 A 
ATOM    103  C   UNL A   1      43.456  41.536  29.637  1.00  0.00     0.059 A 
ATOM    104  F   UNL A   1      41.876  40.694  28.111  1.00  0.00    -0.206 F 
ATOM    105  C   UNL A   1      44.511  41.279  30.517  1.00  0.00     0.060 A 
BRANCH 105 106
ATOM    106  S   UNL A   1      45.882  42.454  30.677  1.00  0.00     0.124 S 
ATOM    107  O   UNL A   1      47.037  41.656  30.280  1.00  0.00    -0.237 OA
ATOM    108  O   UNL A   1      45.486  43.480  29.712  1.00  0.00    -0.237 OA
ATOM    109  O   UNL A   1      45.828  42.851  32.077  1.00  0.00    -0.744 OA
ENDBRANCH 105 106
ENDBRANCH  73  98
BRANCH  85 110
ATOM    110  C   UNL A   1      48.427  34.827  26.924  1.00  0.00     0.058 A 
ATOM    111  C   UNL A   1      48.931  34.978  25.625  1.00  0.00     0.135 A 
ATOM    112  C   UNL A   1      49.419  34.729  27.945  1.00  0.00     0.135 A 
ATOM    113  F   UNL A   1      48.118  35.188  24.579  1.00  0.00    -0.206 F 
ATOM    114  C   UNL A   1      50.298  34.981  25.352  1.00  0.00     0.059 A 
ATOM    115  C   UNL A   1      50.781  34.746  27.696  1.00  0.00     0.059 A 
ATOM    116  F   UNL A   1      49.124  34.666  29.250  1.00  0.00    -0.206 F 
ATOM    117  C   UNL A   1      51.214  34.877  26.394  1.00  0.00     0.060 A 
BRANCH 117 118
ATOM    118  S   UNL A   1      52.968  35.049  26.054  1.00  0.00     0.124 S 
ATOM    119  O   UNL A   1      53.400  33.655  26.039  1.00  0.00    -0.237 OA
ATOM    120  O   UNL A   1      52.962  35.728  24.763  1.00  0.00    -0.237 OA
ATOM    121  O   UNL A   1      53.460  35.847  27.173  1.00  0.00    -0.744 OA
ENDBRANCH 117 118
ENDBRANCH  85 110
ENDBRANCH  59  60
ENDBRANCH  52  54
ENDBRANCH  51  52
ENDBRANCH  50  51
ENDBRANCH  49  50
ENDBRANCH  48  49
ENDBRANCH  47  48
ENDBRANCH   1  47
TORSDOF 26
ENDMDL
MODEL 3
REMARK VINA RESULT:     -11.8      1.673      2.632
REMARK SMILES Cc1ccc(S(=O)(=O)n2cc(C(=O)C(=O)N[C@H](Cc3c[nH]c4ccccc34)C(=O)NCC(=O)OCCOCCOC(=O)c3ccc(-c4c5nc(c(-c6c(F)cc(S(=O)(=O)[O-])cc6F)c6ccc([nH]6)c(-c6c(F)cc(S(=O)(=O)[O-])cc6F)c6nc(c(-c7c(F)cc(S(=O)(=O)[O-])cc7F)c7ccc4[nH]7)C=C6)C=C5)cc3)c3ccccc32)cc1
REMARK SMILES IDX 35 1 34 2 32 3 33 4 31 5 30 6 28 7 29 8 17 10 16 11 14 12
REMARK SMILES IDX 15 13 12 15 13 16 11 17 9 18 10 19 114 20 109 21 113 22
REMARK SMILES IDX 110 23 112 24 111 25 6 26 7 27 8 28 5 29 1 30 2 31 3 32
REMARK SMILES IDX 116 33 4 34 115 35 18 36 19 37 20 38 27 39 21 40 22 41 26 42
REMARK SMILES IDX 23 44 25 45 24 46 36 47 37 48 38 49 39 50 40 51 41 52 42 53
REMARK SMILES IDX 43 54 44 55 108 56 45 57 107 58 46 59 47 60 48 61 101 62
REMARK SMILES IDX 49 63 106 64 100 65 102 66 50 67 105 68 99 69 98 70 51 72
REMARK SMILES IDX 85 73 64 74 84 75 65 76 68 77 83 78 103 79 66 80 67 81 82 83
REMARK SMILES IDX 104 84 69 85 52 86 53 87 62 88 54 89 55 90 61 91 63 92 56 93
REMARK SMILES IDX 57 94 58 95 59 96 60 97 86 98 87 99 96 100 88 101 89 102
REMARK SMILES IDX 95 103 97 104 90 105 91 106 92 107 93 108 94 109 70 110
REMARK SMILES IDX 71 111 80 112 72 113 73 114 79 115 81 116 74 117 75 118
REMARK SMILES IDX 76 119 77 120 78 121
REMARK H PARENT 30 9 16 14 21 43 102 71 68 82
REMARK Flexibility Score: inf
ROOT
ATOM      1  C   UNL A   1      40.392  24.866  26.748  1.00  0.00     0.261 C 
ENDROOT
BRANCH   1   2
ATOM      2  O   UNL A   1      39.008  24.731  26.406  1.00  0.00    -0.462 OA
BRANCH   2   3
ATOM      3  C   UNL A   1      38.507  23.467  26.401  1.00  0.00     0.325 C 
ATOM      4  O   UNL A   1      39.117  22.429  26.408  1.00  0.00    -0.250 OA
BRANCH   3   5
ATOM      5  C   UNL A   1      36.998  23.500  26.280  1.00  0.00     0.238 C 
BRANCH   5   6
ATOM      6  N   UNL A   1      36.516  23.581  24.923  1.00  0.00    -0.343 N 
ATOM      7  C   UNL A   1      35.511  22.957  24.277  1.00  0.00     0.243 C 
ATOM      8  O   UNL A   1      35.340  23.341  23.113  1.00  0.00    -0.273 OA
ATOM      9  H   UNL A   1      37.017  24.214  24.360  1.00  0.00     0.164 HD
BRANCH   7  10
ATOM     10  C   UNL A   1      34.624  21.825  24.871  1.00  0.00     0.176 C 
BRANCH  10  11
ATOM     11  N   UNL A   1      33.808  22.141  26.113  1.00  0.00    -0.337 N 
ATOM     12  C   UNL A   1      32.686  22.845  26.545  1.00  0.00     0.293 C 
ATOM     13  O   UNL A   1      32.358  22.719  27.725  1.00  0.00    -0.265 OA
ATOM     14  H   UNL A   1      34.214  21.687  26.886  1.00  0.00     0.164 HD
BRANCH  12  15
ATOM     15  C   UNL A   1      31.837  23.746  25.653  1.00  0.00     0.252 C 
ATOM     16  O   UNL A   1      31.092  23.131  24.891  1.00  0.00    -0.283 OA
BRANCH  15  17
ATOM     17  C   UNL A   1      31.933  25.231  25.543  1.00  0.00     0.054 A 
ATOM     18  N   UNL A   1      33.156  27.140  25.423  1.00  0.00    -0.240 N 
ATOM     19  C   UNL A   1      32.547  26.221  26.338  1.00  0.00     0.117 A 
ATOM     20  C   UNL A   1      33.009  26.481  24.235  1.00  0.00     0.065 A 
ATOM     21  C   UNL A   1      31.734  25.940  24.329  1.00  0.00     0.012 A 
ATOM     22  C   UNL A   1      33.767  26.279  23.131  1.00  0.00     0.028 A 
ATOM     23  C   UNL A   1      30.951  25.907  23.173  1.00  0.00     0.011 A 
ATOM     24  C   UNL A   1      32.978  26.280  21.991  1.00  0.00     0.002 A 
ATOM     25  C   UNL A   1      31.581  26.272  21.998  1.00  0.00     0.001 A 
BRANCH  18  26
ATOM     26  S   UNL A   1      32.673  28.899  25.341  1.00  0.00     0.268 S 
ATOM     27  O   UNL A   1      31.230  28.855  25.496  1.00  0.00    -0.201 OA
ATOM     28  O   UNL A   1      33.292  29.413  24.132  1.00  0.00    -0.201 OA
BRANCH  26  29
ATOM     29  C   UNL A   1      33.329  29.909  26.698  1.00  0.00     0.088 A 
ATOM     30  C   UNL A   1      35.775  33.207  28.105  1.00  0.00     0.044 C 
ATOM     31  C   UNL A   1      34.838  32.034  27.922  1.00  0.00    -0.051 A 
ATOM     32  C   UNL A   1      35.376  30.767  27.802  1.00  0.00     0.005 A 
ATOM     33  C   UNL A   1      33.493  32.188  27.570  1.00  0.00     0.005 A 
ATOM     34  C   UNL A   1      34.655  29.801  27.062  1.00  0.00     0.022 A 
ATOM     35  C   UNL A   1      32.732  31.124  27.011  1.00  0.00     0.022 A 
ENDBRANCH  26  29
ENDBRANCH  18  26
ENDBRANCH  15  17
ENDBRANCH  12  15
ENDBRANCH  10  11
BRANCH  10  36
ATOM     36  C   UNL A   1      35.125  20.374  24.610  1.00  0.00     0.072 C 
BRANCH  36  37
ATOM     37  C   UNL A   1      34.079  19.258  24.556  1.00  0.00    -0.020 A 
ATOM     38  C   UNL A   1      32.761  19.449  24.186  1.00  0.00     0.087 A 
ATOM     39  C   UNL A   1      34.196  17.833  24.782  1.00  0.00     0.003 A 
ATOM     40  N   UNL A   1      32.061  18.279  24.300  1.00  0.00    -0.361 N 
ATOM     41  C   UNL A   1      32.923  17.264  24.626  1.00  0.00     0.046 A 
ATOM     42  C   UNL A   1      35.252  16.957  25.116  1.00  0.00     0.010 A 
ATOM     43  H   UNL A   1      31.089  18.182  24.168  1.00  0.00     0.166 HD
ATOM     44  C   UNL A   1      32.654  15.898  24.792  1.00  0.00     0.026 A 
ATOM     45  C   UNL A   1      35.002  15.584  25.288  1.00  0.00     0.001 A 
ATOM     46  C   UNL A   1      33.719  15.065  25.129  1.00  0.00     0.002 A 
ENDBRANCH  36  37
ENDBRANCH  10  36
ENDBRANCH   7  10
ENDBRANCH   5   6
ENDBRANCH   3   5
ENDBRANCH   2   3
ENDBRANCH   1   2
BRANCH   1  47
ATOM     47  C   UNL A   1      40.893  26.139  26.103  1.00  0.00     0.202 C 
BRANCH  47  48
ATOM     48  O   UNL A   1      42.134  26.438  26.742  1.00  0.00    -0.374 OA
BRANCH  48  49
ATOM     49  C   UNL A   1      43.257  26.617  25.901  1.00  0.00     0.202 C 
BRANCH  49  50
ATOM     50  C   UNL A   1      43.617  25.369  25.090  1.00  0.00     0.261 C 
BRANCH  50  51
ATOM     51  O   UNL A   1      43.942  24.263  25.959  1.00  0.00    -0.460 OA
BRANCH  51  52
ATOM     52  C   UNL A   1      45.200  24.306  26.485  1.00  0.00     0.338 C 
ATOM     53  O   UNL A   1      46.208  24.476  25.819  1.00  0.00    -0.246 OA
BRANCH  52  54
ATOM     54  C   UNL A   1      45.163  24.098  27.955  1.00  0.00     0.060 A 
ATOM     55  C   UNL A   1      44.026  23.559  28.580  1.00  0.00     0.016 A 
ATOM     56  C   UNL A   1      46.181  24.647  28.723  1.00  0.00     0.016 A 
ATOM     57  C   UNL A   1      43.844  23.701  29.962  1.00  0.00     0.010 A 
ATOM     58  C   UNL A   1      45.919  24.929  30.043  1.00  0.00     0.010 A 
ATOM     59  C   UNL A   1      44.760  24.451  30.682  1.00  0.00    -0.014 A 
BRANCH  59  60
ATOM     60  C   UNL A   1      44.652  24.832  32.102  1.00  0.00     0.031 A 
ATOM     61  C   UNL A   1      44.081  26.227  32.325  1.00  0.00     0.074 A 
ATOM     62  C   UNL A   1      44.555  23.742  32.911  1.00  0.00     0.049 A 
ATOM     63  N   UNL A   1      43.811  26.827  33.437  1.00  0.00    -0.248 NA
ATOM     64  C   UNL A   1      43.795  27.112  31.178  1.00  0.00     0.031 C 
ATOM     65  C   UNL A   1      43.603  23.407  33.948  1.00  0.00     0.029 A 
ATOM     66  N   UNL A   1      45.487  22.714  33.063  1.00  0.00    -0.354 N 
ATOM     67  C   UNL A   1      43.002  27.931  33.138  1.00  0.00     0.074 A 
ATOM     68  C   UNL A   1      43.035  28.062  31.713  1.00  0.00     0.031 C 
ATOM     69  C   UNL A   1      44.092  22.541  34.835  1.00  0.00     0.029 A 
ATOM     70  C   UNL A   1      45.427  22.274  34.410  1.00  0.00     0.049 A 
ATOM     71  H   UNL A   1      46.078  22.357  32.362  1.00  0.00     0.167 HD
ATOM     72  C   UNL A   1      42.243  28.557  34.085  1.00  0.00     0.037 A 
ATOM     73  C   UNL A   1      46.490  22.369  35.244  1.00  0.00     0.037 A 
ATOM     74  C   UNL A   1      42.575  28.029  35.449  1.00  0.00     0.049 A 
ATOM     75  C   UNL A   1      46.275  23.424  36.310  1.00  0.00     0.074 A 
ATOM     76  C   UNL A   1      41.844  27.398  36.432  1.00  0.00     0.029 A 
ATOM     77  N   UNL A   1      43.907  27.769  35.859  1.00  0.00    -0.354 N 
ATOM     78  N   UNL A   1      45.688  24.592  36.153  1.00  0.00    -0.248 NA
ATOM     79  C   UNL A   1      46.588  23.120  37.706  1.00  0.00     0.031 C 
ATOM     80  C   UNL A   1      42.647  26.661  37.310  1.00  0.00     0.029 A 
ATOM     81  C   UNL A   1      43.943  26.860  36.911  1.00  0.00     0.049 A 
ATOM     82  H   UNL A   1      44.703  28.180  35.451  1.00  0.00     0.167 HD
ATOM     83  C   UNL A   1      45.623  25.214  37.391  1.00  0.00     0.074 A 
ATOM     84  C   UNL A   1      46.156  24.229  38.321  1.00  0.00     0.031 C 
ATOM     85  C   UNL A   1      45.106  26.456  37.664  1.00  0.00     0.037 A 
BRANCH  72  86
ATOM     86  C   UNL A   1      40.944  29.345  33.636  1.00  0.00     0.058 A 
ATOM     87  C   UNL A   1      39.943  28.670  32.937  1.00  0.00     0.135 A 
ATOM     88  C   UNL A   1      40.566  30.686  33.857  1.00  0.00     0.135 A 
ATOM     89  F   UNL A   1      39.800  27.394  33.263  1.00  0.00    -0.206 F 
ATOM     90  C   UNL A   1      38.857  29.234  32.239  1.00  0.00     0.059 A 
ATOM     91  C   UNL A   1      39.381  31.281  33.323  1.00  0.00     0.059 A 
ATOM     92  F   UNL A   1      41.245  31.440  34.732  1.00  0.00    -0.206 F 
ATOM     93  C   UNL A   1      38.537  30.548  32.495  1.00  0.00     0.060 A 
BRANCH  93  94
ATOM     94  S   UNL A   1      36.865  31.121  32.063  1.00  0.00     0.124 S 
ATOM     95  O   UNL A   1      36.137  29.887  31.778  1.00  0.00    -0.237 OA
ATOM     96  O   UNL A   1      36.470  31.804  33.293  1.00  0.00    -0.237 OA
ATOM     97  O   UNL A   1      37.087  31.989  30.910  1.00  0.00    -0.744 OA
ENDBRANCH  93  94
ENDBRANCH  72  86
BRANCH  73  98
ATOM     98  C   UNL A   1      47.730  21.876  34.567  1.00  0.00     0.058 A 
ATOM     99  C   UNL A   1      48.729  22.877  34.465  1.00  0.00     0.135 A 
ATOM    100  C   UNL A   1      48.162  20.570  34.850  1.00  0.00     0.135 A 
ATOM    101  F   UNL A   1      48.382  24.135  34.142  1.00  0.00    -0.206 F 
ATOM    102  C   UNL A   1      50.008  22.674  34.975  1.00  0.00     0.059 A 
ATOM    103  C   UNL A   1      49.444  20.346  35.364  1.00  0.00     0.059 A 
ATOM    104  F   UNL A   1      47.268  19.573  34.921  1.00  0.00    -0.206 F 
ATOM    105  C   UNL A   1      50.308  21.433  35.531  1.00  0.00     0.060 A 
BRANCH 105 106
ATOM    106  S   UNL A   1      51.643  21.367  36.753  1.00  0.00     0.124 S 
ATOM    107  O   UNL A   1      52.706  20.675  36.031  1.00  0.00    -0.237 OA
ATOM    108  O   UNL A   1      51.887  22.791  36.981  1.00  0.00    -0.237 OA
ATOM    109  O   UNL A   1      51.049  20.642  37.868  1.00  0.00    -0.744 OA
ENDBRANCH 105 106
ENDBRANCH  73  98
BRANCH  85 110
ATOM    110  C   UNL A   1      45.366  27.261  38.933  1.00  0.00     0.058 A 
ATOM    111  C   UNL A   1      44.903  26.865  40.195  1.00  0.00     0.135 A 
ATOM    112  C   UNL A   1      46.244  28.386  38.942  1.00  0.00     0.135 A 
ATOM    113  F   UNL A   1      44.157  25.762  40.351  1.00  0.00    -0.206 F 
ATOM    114  C   UNL A   1      45.238  27.552  41.361  1.00  0.00     0.059 A 
ATOM    115  C   UNL A   1      46.602  29.072  40.090  1.00  0.00     0.059 A 
ATOM    116  F   UNL A   1      46.850  28.852  37.842  1.00  0.00    -0.206 F 
ATOM    117  C   UNL A   1      46.097  28.645  41.300  1.00  0.00     0.060 A 
BRANCH 117 118
ATOM    118  S   UNL A   1      46.655  29.420  42.819  1.00  0.00     0.124 S 
ATOM    119  O   UNL A   1      46.108  28.516  43.826  1.00  0.00    -0.237 OA
ATOM    120  O   UNL A   1      48.106  29.393  42.659  1.00  0.00    -0.237 OA
ATOM    121  O   UNL A   1      46.051  30.748  42.771  1.00  0.00    -0.744 OA
ENDBRANCH 117 118
ENDBRANCH  85 110
ENDBRANCH  59  60
ENDBRANCH  52  54
ENDBRANCH  51  52
ENDBRANCH  50  51
ENDBRANCH  49  50
ENDBRANCH  48  49
ENDBRANCH  47  48
ENDBRANCH   1  47
TORSDOF 26
ENDMDL
