MODEL 1
REMARK VINA RESULT:      -9.8      0.000      0.000
REMARK SMILES CCC[C@@H]([NH2+]C[C@H]1CSc2ccccc21)C(=O)OCCOCCOC(=O)c1ccc(-c2c3nc(c(-c4c(F)cc(S(=O)(=O)[O-])cc4F)c4ccc([nH]4)c(-c4c(F)cc(S(=O)(=O)[O-])cc4F)c4nc(c(-c5c(F)cc(S(=O)(=O)[O-])cc5F)c5ccc2[nH]5)C=C4)C=C3)cc1
REMARK SMILES IDX 21 1 20 2 19 3 18 4 16 5 17 6 4 7 3 8 2 9 1 10 5 11 6 14
REMARK SMILES IDX 7 15 8 16 15 17 9 18 10 19 14 20 11 21 13 22 12 23 22 24
REMARK SMILES IDX 23 25 24 26 25 27 26 28 27 29 28 30 92 31 29 32 91 33 30 34
REMARK SMILES IDX 31 35 32 36 85 37 33 38 90 39 84 40 86 41 34 42 89 43 83 44
REMARK SMILES IDX 82 45 35 47 69 48 48 49 68 50 49 51 52 52 67 53 87 54 50 55
REMARK SMILES IDX 51 56 66 58 88 59 53 60 36 61 37 62 46 63 38 64 39 65 45 66
REMARK SMILES IDX 47 67 40 68 41 69 42 70 43 71 44 72 70 73 71 74 80 75 72 76
REMARK SMILES IDX 73 77 79 78 81 79 74 80 75 81 76 82 77 83 78 84 54 85 55 86
REMARK SMILES IDX 64 87 56 88 57 89 63 90 65 91 58 92 59 93 60 94 61 95 62 96
REMARK H PARENT 5 12 5 13 86 46 52 57
REMARK Flexibility Score: inf
ROOT
ATOM      1  O   UNL A   1      34.075  30.791  27.358  1.00  0.00    -0.374 OA
ENDROOT
BRANCH   1   2
ATOM      2  C   UNL A   1      32.970  30.675  26.471  1.00  0.00     0.202 C 
BRANCH   2   3
ATOM      3  C   UNL A   1      31.872  29.632  26.737  1.00  0.00     0.261 C 
BRANCH   3   4
ATOM      4  O   UNL A   1      31.891  28.503  25.856  1.00  0.00    -0.459 OA
BRANCH   4   5
ATOM      5  C   UNL A   1      31.596  27.349  26.504  1.00  0.00     0.364 C 
ATOM      6  O   UNL A   1      31.052  27.318  27.610  1.00  0.00    -0.245 OA
BRANCH   5   7
ATOM      7  C   UNL A   1      31.930  26.057  25.720  1.00  0.00     0.293 C 
BRANCH   7   8
ATOM      8  C   UNL A   1      31.692  26.146  24.198  1.00  0.00     0.077 C 
BRANCH   8   9
ATOM      9  C   UNL A   1      30.227  26.032  23.739  1.00  0.00     0.003 C 
ATOM     10  C   UNL A   1      29.544  27.360  23.442  1.00  0.00     0.004 C 
ENDBRANCH   8   9
ENDBRANCH   7   8
BRANCH   7  11
ATOM     11  N   UNL A   1      33.290  25.570  26.030  1.00  0.00    -0.334 N 
ATOM     12  H   UNL A   1      33.208  24.610  26.364  1.00  0.00     0.347 HD
ATOM     13  H   UNL A   1      33.664  26.221  26.720  1.00  0.00     0.347 HD
BRANCH  11  14
ATOM     14  C   UNL A   1      34.247  25.580  24.917  1.00  0.00     0.270 C 
BRANCH  14  15
ATOM     15  C   UNL A   1      35.077  24.313  24.559  1.00  0.00     0.086 C 
ATOM     16  C   UNL A   1      35.950  23.629  25.630  1.00  0.00     0.089 C 
ATOM     17  C   UNL A   1      34.167  23.237  24.019  1.00  0.00    -0.025 A 
ATOM     18  S   UNL A   1      35.050  22.174  26.263  1.00  0.00    -0.125 SA
ATOM     19  C   UNL A   1      34.004  22.127  24.847  1.00  0.00     0.011 A 
ATOM     20  C   UNL A   1      33.458  23.341  22.825  1.00  0.00     0.005 A 
ATOM     21  C   UNL A   1      33.095  21.133  24.529  1.00  0.00     0.015 A 
ATOM     22  C   UNL A   1      32.550  22.341  22.493  1.00  0.00     0.000 A 
ATOM     23  C   UNL A   1      32.359  21.247  23.346  1.00  0.00     0.001 A 
ENDBRANCH  14  15
ENDBRANCH  11  14
ENDBRANCH   7  11
ENDBRANCH   5   7
ENDBRANCH   4   5
ENDBRANCH   3   4
ENDBRANCH   2   3
ENDBRANCH   1   2
BRANCH   1  24
ATOM     24  C   UNL A   1      34.370  32.041  27.977  1.00  0.00     0.202 C 
BRANCH  24  25
ATOM     25  C   UNL A   1      34.783  32.085  29.452  1.00  0.00     0.261 C 
BRANCH  25  26
ATOM     26  O   UNL A   1      36.208  32.050  29.633  1.00  0.00    -0.460 OA
BRANCH  26  27
ATOM     27  C   UNL A   1      36.630  31.187  30.590  1.00  0.00     0.338 C 
ATOM     28  O   UNL A   1      36.051  30.900  31.629  1.00  0.00    -0.246 OA
BRANCH  27  29
ATOM     29  C   UNL A   1      37.807  30.443  30.109  1.00  0.00     0.060 A 
ATOM     30  C   UNL A   1      38.053  30.274  28.748  1.00  0.00     0.016 A 
ATOM     31  C   UNL A   1      38.723  29.982  31.065  1.00  0.00     0.016 A 
ATOM     32  C   UNL A   1      39.256  29.687  28.345  1.00  0.00     0.010 A 
ATOM     33  C   UNL A   1      39.918  29.393  30.661  1.00  0.00     0.010 A 
ATOM     34  C   UNL A   1      40.211  29.277  29.297  1.00  0.00    -0.014 A 
BRANCH  34  35
ATOM     35  C   UNL A   1      41.586  28.919  28.869  1.00  0.00     0.031 A 
ATOM     36  C   UNL A   1      41.951  27.527  28.452  1.00  0.00     0.074 A 
ATOM     37  C   UNL A   1      42.526  29.885  28.907  1.00  0.00     0.049 A 
ATOM     38  N   UNL A   1      43.089  27.089  27.978  1.00  0.00    -0.248 NA
ATOM     39  C   UNL A   1      40.918  26.491  28.596  1.00  0.00     0.031 C 
ATOM     40  C   UNL A   1      42.296  31.257  29.368  1.00  0.00     0.029 A 
ATOM     41  N   UNL A   1      43.849  29.872  28.550  1.00  0.00    -0.354 N 
ATOM     42  C   UNL A   1      42.905  25.734  27.737  1.00  0.00     0.074 A 
ATOM     43  C   UNL A   1      41.563  25.409  28.176  1.00  0.00     0.031 C 
ATOM     44  C   UNL A   1      43.426  31.964  29.222  1.00  0.00     0.029 A 
ATOM     45  C   UNL A   1      44.468  31.093  28.687  1.00  0.00     0.049 A 
ATOM     46  H   UNL A   1      44.314  29.066  28.226  1.00  0.00     0.167 HD
ATOM     47  C   UNL A   1      43.773  24.854  27.180  1.00  0.00     0.037 A 
ATOM     48  C   UNL A   1      45.728  31.475  28.404  1.00  0.00     0.037 A 
ATOM     49  C   UNL A   1      45.113  25.193  26.768  1.00  0.00     0.049 A 
ATOM     50  C   UNL A   1      46.679  30.473  27.811  1.00  0.00     0.074 A 
ATOM     51  C   UNL A   1      46.052  24.382  26.155  1.00  0.00     0.029 A 
ATOM     52  N   UNL A   1      45.711  26.434  26.939  1.00  0.00    -0.354 N 
ATOM     53  N   UNL A   1      46.460  29.218  27.500  1.00  0.00    -0.248 NA
ATOM     54  C   UNL A   1      48.044  30.935  27.524  1.00  0.00     0.031 C 
ATOM     55  C   UNL A   1      47.234  25.112  26.007  1.00  0.00     0.029 A 
ATOM     56  C   UNL A   1      47.014  26.401  26.468  1.00  0.00     0.049 A 
ATOM     57  H   UNL A   1      45.274  27.221  27.336  1.00  0.00     0.167 HD
ATOM     58  C   UNL A   1      47.650  28.749  26.954  1.00  0.00     0.074 A 
ATOM     59  C   UNL A   1      48.583  29.855  26.972  1.00  0.00     0.031 C 
ATOM     60  C   UNL A   1      47.934  27.513  26.477  1.00  0.00     0.037 A 
BRANCH  47  61
ATOM     61  C   UNL A   1      43.303  23.443  26.955  1.00  0.00     0.058 A 
ATOM     62  C   UNL A   1      43.009  22.970  25.666  1.00  0.00     0.135 A 
ATOM     63  C   UNL A   1      43.234  22.526  28.017  1.00  0.00     0.135 A 
ATOM     64  F   UNL A   1      43.053  23.802  24.613  1.00  0.00    -0.206 F 
ATOM     65  C   UNL A   1      42.646  21.646  25.441  1.00  0.00     0.059 A 
ATOM     66  C   UNL A   1      42.900  21.190  27.812  1.00  0.00     0.059 A 
ATOM     67  F   UNL A   1      43.510  22.922  29.271  1.00  0.00    -0.206 F 
ATOM     68  C   UNL A   1      42.599  20.762  26.520  1.00  0.00     0.060 A 
BRANCH  68  69
ATOM     69  S   UNL A   1      42.138  19.046  26.201  1.00  0.00     0.124 S 
ATOM     70  O   UNL A   1      42.400  18.428  27.498  1.00  0.00    -0.237 OA
ATOM     71  O   UNL A   1      40.732  19.166  25.831  1.00  0.00    -0.237 OA
ATOM     72  O   UNL A   1      43.038  18.644  25.125  1.00  0.00    -0.744 OA
ENDBRANCH  68  69
ENDBRANCH  47  61
BRANCH  48  73
ATOM     73  C   UNL A   1      46.134  32.888  28.628  1.00  0.00     0.058 A 
ATOM     74  C   UNL A   1      46.774  33.273  29.814  1.00  0.00     0.135 A 
ATOM     75  C   UNL A   1      45.938  33.869  27.643  1.00  0.00     0.135 A 
ATOM     76  F   UNL A   1      46.983  32.371  30.786  1.00  0.00    -0.206 F 
ATOM     77  C   UNL A   1      47.198  34.580  30.022  1.00  0.00     0.059 A 
ATOM     78  C   UNL A   1      46.377  35.178  27.815  1.00  0.00     0.059 A 
ATOM     79  F   UNL A   1      45.349  33.547  26.480  1.00  0.00    -0.206 F 
ATOM     80  C   UNL A   1      47.001  35.525  29.013  1.00  0.00     0.060 A 
BRANCH  80  81
ATOM     81  S   UNL A   1      47.605  37.206  29.276  1.00  0.00     0.124 S 
ATOM     82  O   UNL A   1      47.203  37.860  28.037  1.00  0.00    -0.237 OA
ATOM     83  O   UNL A   1      46.875  37.606  30.476  1.00  0.00    -0.237 OA
ATOM     84  O   UNL A   1      49.042  37.024  29.456  1.00  0.00    -0.744 OA
ENDBRANCH  80  81
ENDBRANCH  48  73
BRANCH  60  85
ATOM     85  C   UNL A   1      49.303  27.273  25.902  1.00  0.00     0.058 A 
ATOM     86  C   UNL A   1      50.382  26.878  26.708  1.00  0.00     0.135 A 
ATOM     87  C   UNL A   1      49.504  27.318  24.512  1.00  0.00     0.135 A 
ATOM     88  F   UNL A   1      50.248  26.830  28.042  1.00  0.00    -0.206 F 
ATOM     89  C   UNL A   1      51.610  26.528  26.155  1.00  0.00     0.059 A 
ATOM     90  C   UNL A   1      50.715  26.946  23.936  1.00  0.00     0.059 A 
ATOM     91  F   UNL A   1      48.503  27.684  23.696  1.00  0.00    -0.206 F 
ATOM     92  C   UNL A   1      51.761  26.548  24.766  1.00  0.00     0.060 A 
BRANCH  92  93
ATOM     93  S   UNL A   1      53.331  25.998  24.063  1.00  0.00     0.124 S 
ATOM     94  O   UNL A   1      53.454  24.657  24.625  1.00  0.00    -0.237 OA
ATOM     95  O   UNL A   1      53.065  26.062  22.629  1.00  0.00    -0.237 OA
ATOM     96  O   UNL A   1      54.291  26.977  24.562  1.00  0.00    -0.744 OA
ENDBRANCH  92  93
ENDBRANCH  60  85
ENDBRANCH  34  35
ENDBRANCH  27  29
ENDBRANCH  26  27
ENDBRANCH  25  26
ENDBRANCH  24  25
ENDBRANCH   1  24
TORSDOF 22
ENDMDL
MODEL 2
REMARK VINA RESULT:      -9.7      0.978      1.985
REMARK SMILES CCC[C@@H]([NH2+]C[C@H]1CSc2ccccc21)C(=O)OCCOCCOC(=O)c1ccc(-c2c3nc(c(-c4c(F)cc(S(=O)(=O)[O-])cc4F)c4ccc([nH]4)c(-c4c(F)cc(S(=O)(=O)[O-])cc4F)c4nc(c(-c5c(F)cc(S(=O)(=O)[O-])cc5F)c5ccc2[nH]5)C=C4)C=C3)cc1
REMARK SMILES IDX 21 1 20 2 19 3 18 4 16 5 17 6 4 7 3 8 2 9 1 10 5 11 6 14
REMARK SMILES IDX 7 15 8 16 15 17 9 18 10 19 14 20 11 21 13 22 12 23 22 24
REMARK SMILES IDX 23 25 24 26 25 27 26 28 27 29 28 30 92 31 29 32 91 33 30 34
REMARK SMILES IDX 31 35 32 36 85 37 33 38 90 39 84 40 86 41 34 42 89 43 83 44
REMARK SMILES IDX 82 45 35 47 69 48 48 49 68 50 49 51 52 52 67 53 87 54 50 55
REMARK SMILES IDX 51 56 66 58 88 59 53 60 36 61 37 62 46 63 38 64 39 65 45 66
REMARK SMILES IDX 47 67 40 68 41 69 42 70 43 71 44 72 70 73 71 74 80 75 72 76
REMARK SMILES IDX 73 77 79 78 81 79 74 80 75 81 76 82 77 83 78 84 54 85 55 86
REMARK SMILES IDX 64 87 56 88 57 89 63 90 65 91 58 92 59 93 60 94 61 95 62 96
REMARK H PARENT 5 12 5 13 86 46 52 57
REMARK Flexibility Score: inf
ROOT
ATOM      1  O   UNL A   1      34.274  31.375  27.262  1.00  0.00    -0.374 OA
ENDROOT
BRANCH   1   2
ATOM      2  C   UNL A   1      33.169  30.488  27.142  1.00  0.00     0.202 C 
BRANCH   2   3
ATOM      3  C   UNL A   1      33.376  28.972  27.294  1.00  0.00     0.261 C 
BRANCH   3   4
ATOM      4  O   UNL A   1      32.627  28.170  26.374  1.00  0.00    -0.459 OA
BRANCH   4   5
ATOM      5  C   UNL A   1      31.530  27.621  26.955  1.00  0.00     0.364 C 
ATOM      6  O   UNL A   1      31.055  28.030  28.016  1.00  0.00    -0.245 OA
BRANCH   5   7
ATOM      7  C   UNL A   1      30.870  26.477  26.150  1.00  0.00     0.293 C 
BRANCH   7   8
ATOM      8  C   UNL A   1      30.953  26.635  24.617  1.00  0.00     0.077 C 
BRANCH   8   9
ATOM      9  C   UNL A   1      30.425  27.965  24.049  1.00  0.00     0.003 C 
ATOM     10  C   UNL A   1      29.179  27.842  23.184  1.00  0.00     0.004 C 
ENDBRANCH   8   9
ENDBRANCH   7   8
BRANCH   7  11
ATOM     11  N   UNL A   1      31.358  25.153  26.587  1.00  0.00    -0.334 N 
ATOM     12  H   UNL A   1      30.731  24.447  26.202  1.00  0.00     0.347 HD
ATOM     13  H   UNL A   1      31.373  25.188  27.605  1.00  0.00     0.347 HD
BRANCH  11  14
ATOM     14  C   UNL A   1      32.727  24.806  26.183  1.00  0.00     0.270 C 
BRANCH  14  15
ATOM     15  C   UNL A   1      33.184  23.322  26.085  1.00  0.00     0.086 C 
ATOM     16  C   UNL A   1      32.287  22.276  25.393  1.00  0.00     0.089 C 
ATOM     17  C   UNL A   1      34.523  23.241  25.392  1.00  0.00    -0.025 A 
ATOM     18  S   UNL A   1      32.922  21.999  23.706  1.00  0.00    -0.125 SA
ATOM     19  C   UNL A   1      34.500  22.662  24.124  1.00  0.00     0.011 A 
ATOM     20  C   UNL A   1      35.703  23.767  25.909  1.00  0.00     0.005 A 
ATOM     21  C   UNL A   1      35.634  22.647  23.331  1.00  0.00     0.015 A 
ATOM     22  C   UNL A   1      36.850  23.748  25.123  1.00  0.00     0.000 A 
ATOM     23  C   UNL A   1      36.814  23.201  23.834  1.00  0.00     0.001 A 
ENDBRANCH  14  15
ENDBRANCH  11  14
ENDBRANCH   7  11
ENDBRANCH   5   7
ENDBRANCH   4   5
ENDBRANCH   3   4
ENDBRANCH   2   3
ENDBRANCH   1   2
BRANCH   1  24
ATOM     24  C   UNL A   1      34.397  32.216  28.408  1.00  0.00     0.202 C 
BRANCH  24  25
ATOM     25  C   UNL A   1      35.347  31.826  29.545  1.00  0.00     0.261 C 
BRANCH  25  26
ATOM     26  O   UNL A   1      35.897  30.508  29.384  1.00  0.00    -0.460 OA
BRANCH  26  27
ATOM     27  C   UNL A   1      36.643  30.079  30.431  1.00  0.00     0.338 C 
ATOM     28  O   UNL A   1      36.233  29.586  31.473  1.00  0.00    -0.246 OA
BRANCH  27  29
ATOM     29  C   UNL A   1      38.069  30.074  30.062  1.00  0.00     0.060 A 
ATOM     30  C   UNL A   1      39.071  30.102  31.029  1.00  0.00     0.016 A 
ATOM     31  C   UNL A   1      38.390  29.952  28.702  1.00  0.00     0.016 A 
ATOM     32  C   UNL A   1      40.402  29.949  30.630  1.00  0.00     0.010 A 
ATOM     33  C   UNL A   1      39.716  29.806  28.307  1.00  0.00     0.010 A 
ATOM     34  C   UNL A   1      40.729  29.763  29.272  1.00  0.00    -0.014 A 
BRANCH  34  35
ATOM     35  C   UNL A   1      42.094  29.325  28.887  1.00  0.00     0.031 A 
ATOM     36  C   UNL A   1      42.390  27.912  28.484  1.00  0.00     0.074 A 
ATOM     37  C   UNL A   1      43.086  30.235  28.952  1.00  0.00     0.049 A 
ATOM     38  N   UNL A   1      43.514  27.408  28.044  1.00  0.00    -0.248 NA
ATOM     39  C   UNL A   1      41.295  26.939  28.597  1.00  0.00     0.031 C 
ATOM     40  C   UNL A   1      42.923  31.619  29.404  1.00  0.00     0.029 A 
ATOM     41  N   UNL A   1      44.417  30.144  28.635  1.00  0.00    -0.354 N 
ATOM     42  C   UNL A   1      43.260  26.065  27.801  1.00  0.00     0.074 A 
ATOM     43  C   UNL A   1      41.889  25.819  28.199  1.00  0.00     0.031 C 
ATOM     44  C   UNL A   1      44.095  32.260  29.291  1.00  0.00     0.029 A 
ATOM     45  C   UNL A   1      45.101  31.328  28.790  1.00  0.00     0.049 A 
ATOM     46  H   UNL A   1      44.844  29.312  28.327  1.00  0.00     0.167 HD
ATOM     47  C   UNL A   1      44.091  25.135  27.271  1.00  0.00     0.037 A 
ATOM     48  C   UNL A   1      46.389  31.636  28.544  1.00  0.00     0.037 A 
ATOM     49  C   UNL A   1      45.461  25.394  26.900  1.00  0.00     0.049 A 
ATOM     50  C   UNL A   1      47.298  30.578  27.982  1.00  0.00     0.074 A 
ATOM     51  C   UNL A   1      46.370  24.528  26.316  1.00  0.00     0.029 A 
ATOM     52  N   UNL A   1      46.124  26.599  27.086  1.00  0.00    -0.354 N 
ATOM     53  N   UNL A   1      47.016  29.337  27.666  1.00  0.00    -0.248 NA
ATOM     54  C   UNL A   1      48.696  30.959  27.736  1.00  0.00     0.031 C 
ATOM     55  C   UNL A   1      47.595  25.188  26.203  1.00  0.00     0.029 A 
ATOM     56  C   UNL A   1      47.437  26.489  26.655  1.00  0.00     0.049 A 
ATOM     57  H   UNL A   1      45.722  27.411  27.469  1.00  0.00     0.167 HD
ATOM     58  C   UNL A   1      48.192  28.798  27.157  1.00  0.00     0.074 A 
ATOM     59  C   UNL A   1      49.188  29.848  27.202  1.00  0.00     0.031 C 
ATOM     60  C   UNL A   1      48.419  27.546  26.691  1.00  0.00     0.037 A 
BRANCH  47  61
ATOM     61  C   UNL A   1      43.548  23.752  27.034  1.00  0.00     0.058 A 
ATOM     62  C   UNL A   1      43.553  22.784  28.052  1.00  0.00     0.135 A 
ATOM     63  C   UNL A   1      42.933  23.415  25.817  1.00  0.00     0.135 A 
ATOM     64  F   UNL A   1      44.131  23.048  29.234  1.00  0.00    -0.206 F 
ATOM     65  C   UNL A   1      42.985  21.528  27.864  1.00  0.00     0.059 A 
ATOM     66  C   UNL A   1      42.334  22.174  25.617  1.00  0.00     0.059 A 
ATOM     67  F   UNL A   1      42.894  24.304  24.811  1.00  0.00    -0.206 F 
ATOM     68  C   UNL A   1      42.374  21.234  26.645  1.00  0.00     0.060 A 
BRANCH  68  69
ATOM     69  S   UNL A   1      41.632  19.602  26.431  1.00  0.00     0.124 S 
ATOM     70  O   UNL A   1      41.953  18.966  27.705  1.00  0.00    -0.237 OA
ATOM     71  O   UNL A   1      40.225  19.926  26.223  1.00  0.00    -0.237 OA
ATOM     72  O   UNL A   1      42.328  19.059  25.268  1.00  0.00    -0.744 OA
ENDBRANCH  68  69
ENDBRANCH  47  61
BRANCH  48  73
ATOM     73  C   UNL A   1      46.869  33.023  28.778  1.00  0.00     0.058 A 
ATOM     74  C   UNL A   1      46.814  33.985  27.759  1.00  0.00     0.135 A 
ATOM     75  C   UNL A   1      47.344  33.429  30.035  1.00  0.00     0.135 A 
ATOM     76  F   UNL A   1      46.367  33.645  26.540  1.00  0.00    -0.206 F 
ATOM     77  C   UNL A   1      47.219  35.297  27.974  1.00  0.00     0.059 A 
ATOM     78  C   UNL A   1      47.730  34.742  30.283  1.00  0.00     0.059 A 
ATOM     79  F   UNL A   1      47.397  32.551  31.050  1.00  0.00    -0.206 F 
ATOM     80  C   UNL A   1      47.670  35.668  29.242  1.00  0.00     0.060 A 
BRANCH  80  81
ATOM     81  S   UNL A   1      48.143  37.388  29.520  1.00  0.00     0.124 S 
ATOM     82  O   UNL A   1      48.893  37.290  30.766  1.00  0.00    -0.237 OA
ATOM     83  O   UNL A   1      48.927  37.684  28.324  1.00  0.00    -0.237 OA
ATOM     84  O   UNL A   1      46.861  38.081  29.608  1.00  0.00    -0.744 OA
ENDBRANCH  80  81
ENDBRANCH  48  73
BRANCH  60  85
ATOM     85  C   UNL A   1      49.789  27.226  26.159  1.00  0.00     0.058 A 
ATOM     86  C   UNL A   1      50.811  26.746  26.992  1.00  0.00     0.135 A 
ATOM     87  C   UNL A   1      50.041  27.280  24.777  1.00  0.00     0.135 A 
ATOM     88  F   UNL A   1      50.626  26.684  28.321  1.00  0.00    -0.206 F 
ATOM     89  C   UNL A   1      52.031  26.324  26.475  1.00  0.00     0.059 A 
ATOM     90  C   UNL A   1      51.244  26.838  24.236  1.00  0.00     0.059 A 
ATOM     91  F   UNL A   1      49.095  27.726  23.935  1.00  0.00    -0.206 F 
ATOM     92  C   UNL A   1      52.232  26.358  25.093  1.00  0.00     0.060 A 
BRANCH  92  93
ATOM     93  S   UNL A   1      53.786  25.717  24.433  1.00  0.00     0.124 S 
ATOM     94  O   UNL A   1      54.762  26.313  25.339  1.00  0.00    -0.237 OA
ATOM     95  O   UNL A   1      53.603  24.274  24.560  1.00  0.00    -0.237 OA
ATOM     96  O   UNL A   1      53.811  26.222  23.064  1.00  0.00    -0.744 OA
ENDBRANCH  92  93
ENDBRANCH  60  85
ENDBRANCH  34  35
ENDBRANCH  27  29
ENDBRANCH  26  27
ENDBRANCH  25  26
ENDBRANCH  24  25
ENDBRANCH   1  24
TORSDOF 22
ENDMDL
MODEL 3
REMARK VINA RESULT:      -9.6      1.055      8.301
REMARK SMILES CCC[C@@H]([NH2+]C[C@H]1CSc2ccccc21)C(=O)OCCOCCOC(=O)c1ccc(-c2c3nc(c(-c4c(F)cc(S(=O)(=O)[O-])cc4F)c4ccc([nH]4)c(-c4c(F)cc(S(=O)(=O)[O-])cc4F)c4nc(c(-c5c(F)cc(S(=O)(=O)[O-])cc5F)c5ccc2[nH]5)C=C4)C=C3)cc1
REMARK SMILES IDX 21 1 20 2 19 3 18 4 16 5 17 6 4 7 3 8 2 9 1 10 5 11 6 14
REMARK SMILES IDX 7 15 8 16 15 17 9 18 10 19 14 20 11 21 13 22 12 23 22 24
REMARK SMILES IDX 23 25 24 26 25 27 26 28 27 29 28 30 92 31 29 32 91 33 30 34
REMARK SMILES IDX 31 35 32 36 85 37 33 38 90 39 84 40 86 41 34 42 89 43 83 44
REMARK SMILES IDX 82 45 35 47 69 48 48 49 68 50 49 51 52 52 67 53 87 54 50 55
REMARK SMILES IDX 51 56 66 58 88 59 53 60 36 61 37 62 46 63 38 64 39 65 45 66
REMARK SMILES IDX 47 67 40 68 41 69 42 70 43 71 44 72 70 73 71 74 80 75 72 76
REMARK SMILES IDX 73 77 79 78 81 79 74 80 75 81 76 82 77 83 78 84 54 85 55 86
REMARK SMILES IDX 64 87 56 88 57 89 63 90 65 91 58 92 59 93 60 94 61 95 62 96
REMARK H PARENT 5 12 5 13 86 46 52 57
REMARK Flexibility Score: inf
ROOT
ATOM      1  O   UNL A   1      34.590  31.177  27.316  1.00  0.00    -0.374 OA
ENDROOT
BRANCH   1   2
ATOM      2  C   UNL A   1      33.396  30.408  27.256  1.00  0.00     0.202 C 
BRANCH   2   3
ATOM      3  C   UNL A   1      33.466  28.872  27.272  1.00  0.00     0.261 C 
BRANCH   3   4
ATOM      4  O   UNL A   1      32.607  28.224  26.326  1.00  0.00    -0.459 OA
BRANCH   4   5
ATOM      5  C   UNL A   1      31.581  27.575  26.933  1.00  0.00     0.364 C 
ATOM      6  O   UNL A   1      31.096  27.940  28.006  1.00  0.00    -0.245 OA
BRANCH   5   7
ATOM      7  C   UNL A   1      31.013  26.372  26.145  1.00  0.00     0.293 C 
BRANCH   7   8
ATOM      8  C   UNL A   1      31.234  26.438  24.618  1.00  0.00     0.077 C 
BRANCH   8   9
ATOM      9  C   UNL A   1      30.339  27.429  23.853  1.00  0.00     0.003 C 
ATOM     10  C   UNL A   1      30.657  27.566  22.371  1.00  0.00     0.004 C 
ENDBRANCH   8   9
ENDBRANCH   7   8
BRANCH   7  11
ATOM     11  N   UNL A   1      31.478  25.086  26.706  1.00  0.00    -0.334 N 
ATOM     12  H   UNL A   1      30.699  24.429  26.665  1.00  0.00     0.347 HD
ATOM     13  H   UNL A   1      31.797  25.298  27.650  1.00  0.00     0.347 HD
BRANCH  11  14
ATOM     14  C   UNL A   1      32.625  24.466  26.031  1.00  0.00     0.270 C 
BRANCH  14  15
ATOM     15  C   UNL A   1      33.626  23.565  26.810  1.00  0.00     0.086 C 
ATOM     16  C   UNL A   1      33.146  22.250  27.457  1.00  0.00     0.089 C 
ATOM     17  C   UNL A   1      34.782  23.188  25.916  1.00  0.00    -0.025 A 
ATOM     18  S   UNL A   1      33.618  20.866  26.366  1.00  0.00    -0.125 SA
ATOM     19  C   UNL A   1      34.833  21.844  25.548  1.00  0.00     0.011 A 
ATOM     20  C   UNL A   1      35.705  24.098  25.408  1.00  0.00     0.005 A 
ATOM     21  C   UNL A   1      35.766  21.397  24.627  1.00  0.00     0.015 A 
ATOM     22  C   UNL A   1      36.652  23.655  24.490  1.00  0.00     0.000 A 
ATOM     23  C   UNL A   1      36.675  22.313  24.091  1.00  0.00     0.001 A 
ENDBRANCH  14  15
ENDBRANCH  11  14
ENDBRANCH   7  11
ENDBRANCH   5   7
ENDBRANCH   4   5
ENDBRANCH   3   4
ENDBRANCH   2   3
ENDBRANCH   1   2
BRANCH   1  24
ATOM     24  C   UNL A   1      34.666  32.319  28.168  1.00  0.00     0.202 C 
BRANCH  24  25
ATOM     25  C   UNL A   1      35.179  32.169  29.604  1.00  0.00     0.261 C 
BRANCH  25  26
ATOM     26  O   UNL A   1      36.610  32.053  29.674  1.00  0.00    -0.460 OA
BRANCH  26  27
ATOM     27  C   UNL A   1      37.056  31.159  30.591  1.00  0.00     0.338 C 
ATOM     28  O   UNL A   1      36.514  30.853  31.644  1.00  0.00    -0.246 OA
BRANCH  27  29
ATOM     29  C   UNL A   1      38.199  30.409  30.043  1.00  0.00     0.060 A 
ATOM     30  C   UNL A   1      38.336  30.190  28.673  1.00  0.00     0.016 A 
ATOM     31  C   UNL A   1      39.197  29.995  30.937  1.00  0.00     0.016 A 
ATOM     32  C   UNL A   1      39.510  29.601  28.196  1.00  0.00     0.010 A 
ATOM     33  C   UNL A   1      40.363  29.404  30.459  1.00  0.00     0.010 A 
ATOM     34  C   UNL A   1      40.545  29.238  29.081  1.00  0.00    -0.014 A 
BRANCH  34  35
ATOM     35  C   UNL A   1      41.885  28.879  28.555  1.00  0.00     0.031 A 
ATOM     36  C   UNL A   1      42.984  29.889  28.425  1.00  0.00     0.074 A 
ATOM     37  C   UNL A   1      42.079  27.609  28.148  1.00  0.00     0.049 A 
ATOM     38  N   UNL A   1      44.227  29.701  28.060  1.00  0.00    -0.248 NA
ATOM     39  C   UNL A   1      42.650  31.287  28.729  1.00  0.00     0.031 C 
ATOM     40  C   UNL A   1      41.054  26.561  28.160  1.00  0.00     0.029 A 
ATOM     41  N   UNL A   1      43.192  26.977  27.657  1.00  0.00    -0.354 N 
ATOM     42  C   UNL A   1      44.833  30.948  28.116  1.00  0.00     0.074 A 
ATOM     43  C   UNL A   1      43.806  31.897  28.493  1.00  0.00     0.031 C 
ATOM     44  C   UNL A   1      41.597  25.409  27.743  1.00  0.00     0.029 A 
ATOM     45  C   UNL A   1      42.999  25.638  27.404  1.00  0.00     0.049 A 
ATOM     46  H   UNL A   1      44.049  27.437  27.499  1.00  0.00     0.167 HD
ATOM     47  C   UNL A   1      46.134  31.261  27.896  1.00  0.00     0.037 A 
ATOM     48  C   UNL A   1      43.854  24.697  26.962  1.00  0.00     0.037 A 
ATOM     49  C   UNL A   1      47.138  30.304  27.501  1.00  0.00     0.049 A 
ATOM     50  C   UNL A   1      45.285  25.075  26.699  1.00  0.00     0.074 A 
ATOM     51  C   UNL A   1      48.491  30.516  27.295  1.00  0.00     0.029 A 
ATOM     52  N   UNL A   1      46.903  28.962  27.238  1.00  0.00    -0.354 N 
ATOM     53  N   UNL A   1      45.867  26.240  26.850  1.00  0.00    -0.248 NA
ATOM     54  C   UNL A   1      46.178  24.015  26.212  1.00  0.00     0.031 C 
ATOM     55  C   UNL A   1      49.061  29.320  26.853  1.00  0.00     0.029 A 
ATOM     56  C   UNL A   1      48.079  28.342  26.845  1.00  0.00     0.049 A 
ATOM     57  H   UNL A   1      46.029  28.516  27.318  1.00  0.00     0.167 HD
ATOM     58  C   UNL A   1      47.200  26.047  26.506  1.00  0.00     0.074 A 
ATOM     59  C   UNL A   1      47.340  24.653  26.144  1.00  0.00     0.031 C 
ATOM     60  C   UNL A   1      48.213  26.947  26.498  1.00  0.00     0.037 A 
BRANCH  47  61
ATOM     61  C   UNL A   1      46.563  32.689  28.097  1.00  0.00     0.058 A 
ATOM     62  C   UNL A   1      46.413  33.644  27.078  1.00  0.00     0.135 A 
ATOM     63  C   UNL A   1      47.040  33.132  29.342  1.00  0.00     0.135 A 
ATOM     64  F   UNL A   1      45.967  33.277  25.867  1.00  0.00    -0.206 F 
ATOM     65  C   UNL A   1      46.738  34.981  27.281  1.00  0.00     0.059 A 
ATOM     66  C   UNL A   1      47.345  34.471  29.576  1.00  0.00     0.059 A 
ATOM     67  F   UNL A   1      47.197  32.263  30.354  1.00  0.00    -0.206 F 
ATOM     68  C   UNL A   1      47.198  35.386  28.535  1.00  0.00     0.060 A 
BRANCH  68  69
ATOM     69  S   UNL A   1      47.600  37.129  28.777  1.00  0.00     0.124 S 
ATOM     70  O   UNL A   1      47.531  37.637  27.410  1.00  0.00    -0.237 OA
ATOM     71  O   UNL A   1      46.534  37.571  29.670  1.00  0.00    -0.237 OA
ATOM     72  O   UNL A   1      48.936  37.095  29.365  1.00  0.00    -0.744 OA
ENDBRANCH  68  69
ENDBRANCH  47  61
BRANCH  48  73
ATOM     73  C   UNL A   1      43.382  23.296  26.799  1.00  0.00     0.058 A 
ATOM     74  C   UNL A   1      43.149  22.481  27.915  1.00  0.00     0.135 A 
ATOM     75  C   UNL A   1      43.106  22.763  25.530  1.00  0.00     0.135 A 
ATOM     76  F   UNL A   1      43.399  22.946  29.149  1.00  0.00    -0.206 F 
ATOM     77  C   UNL A   1      42.668  21.183  27.782  1.00  0.00     0.059 A 
ATOM     78  C   UNL A   1      42.598  21.477  25.371  1.00  0.00     0.059 A 
ATOM     79  F   UNL A   1      43.292  23.509  24.430  1.00  0.00    -0.206 F 
ATOM     80  C   UNL A   1      42.389  20.692  26.505  1.00  0.00     0.060 A 
BRANCH  80  81
ATOM     81  S   UNL A   1      41.714  19.025  26.351  1.00  0.00     0.124 S 
ATOM     82  O   UNL A   1      40.405  19.290  25.768  1.00  0.00    -0.237 OA
ATOM     83  O   UNL A   1      42.687  18.384  25.472  1.00  0.00    -0.237 OA
ATOM     84  O   UNL A   1      41.704  18.536  27.727  1.00  0.00    -0.744 OA
ENDBRANCH  80  81
ENDBRANCH  48  73
BRANCH  60  85
ATOM     85  C   UNL A   1      49.585  26.467  26.113  1.00  0.00     0.058 A 
ATOM     86  C   UNL A   1      50.122  26.712  24.840  1.00  0.00     0.135 A 
ATOM     87  C   UNL A   1      50.418  25.865  27.072  1.00  0.00     0.135 A 
ATOM     88  F   UNL A   1      49.365  27.274  23.884  1.00  0.00    -0.206 F 
ATOM     89  C   UNL A   1      51.439  26.385  24.533  1.00  0.00     0.059 A 
ATOM     90  C   UNL A   1      51.746  25.555  26.794  1.00  0.00     0.059 A 
ATOM     91  F   UNL A   1      49.956  25.613  28.307  1.00  0.00    -0.206 F 
ATOM     92  C   UNL A   1      52.248  25.823  25.523  1.00  0.00     0.060 A 
BRANCH  92  93
ATOM     93  S   UNL A   1      53.981  25.494  25.134  1.00  0.00     0.124 S 
ATOM     94  O   UNL A   1      54.065  24.053  25.346  1.00  0.00    -0.237 OA
ATOM     95  O   UNL A   1      54.074  25.936  23.746  1.00  0.00    -0.237 OA
ATOM     96  O   UNL A   1      54.709  26.313  26.098  1.00  0.00    -0.744 OA
ENDBRANCH  92  93
ENDBRANCH  60  85
ENDBRANCH  34  35
ENDBRANCH  27  29
ENDBRANCH  26  27
ENDBRANCH  25  26
ENDBRANCH  24  25
ENDBRANCH   1  24
TORSDOF 22
ENDMDL
