MODEL 1
REMARK VINA RESULT:      -9.4      0.000      0.000
REMARK SMILES COc1cc2c(cc1OC)C1=C(C#N)C[N@H+](CC(=O)OCCOCCOC(=O)c3ccc(-c4c5nc(c(-c6c(F)cc(S(=O)(=O)[O-])cc6F)c6ccc([nH]6)c(-c6c(F)cc(S(=O)(=O)[O-])cc6F)c6nc(c(-c7c(F)cc(S(=O)(=O)[O-])cc7F)c7ccc4[nH]7)C=C6)C=C5)cc3)CN1CC2
REMARK SMILES IDX 24 1 23 2 22 3 21 4 20 5 18 6 19 7 17 8 16 9 3 10 4 11 8 12
REMARK SMILES IDX 5 13 7 14 6 15 98 16 11 17 97 18 12 19 96 20 15 21 95 22
REMARK SMILES IDX 2 24 1 25 9 26 10 27 13 28 14 29 25 30 26 31 27 32 28 33
REMARK SMILES IDX 29 34 30 35 94 36 31 37 93 38 32 39 33 40 34 41 87 42 35 43
REMARK SMILES IDX 92 44 86 45 88 46 36 47 91 48 85 49 84 50 37 52 71 53 50 54
REMARK SMILES IDX 70 55 51 56 54 57 69 58 89 59 52 60 53 61 68 63 90 64 55 65
REMARK SMILES IDX 38 66 39 67 48 68 40 69 41 70 47 71 49 72 42 73 43 74 44 75
REMARK SMILES IDX 45 76 46 77 72 78 73 79 82 80 74 81 75 82 81 83 83 84 76 85
REMARK SMILES IDX 77 86 78 87 79 88 80 89 56 90 57 91 66 92 58 93 59 94 65 95
REMARK SMILES IDX 67 96 60 97 61 98 62 99 63 100 64 101
REMARK H PARENT 16 23 88 51 54 62
REMARK Flexibility Score: inf
ROOT
ATOM      1  C   UNL A   1      34.278  33.106  28.987  1.00  0.00     0.202 C 
ENDROOT
BRANCH   1   2
ATOM      2  O   UNL A   1      34.528  34.476  29.296  1.00  0.00    -0.374 OA
BRANCH   2   3
ATOM      3  C   UNL A   1      33.382  35.313  29.469  1.00  0.00     0.202 C 
BRANCH   3   4
ATOM      4  C   UNL A   1      32.951  35.557  30.922  1.00  0.00     0.261 C 
BRANCH   4   5
ATOM      5  O   UNL A   1      34.081  35.564  31.804  1.00  0.00    -0.459 OA
BRANCH   5   6
ATOM      6  C   UNL A   1      34.137  34.616  32.783  1.00  0.00     0.361 C 
ATOM      7  O   UNL A   1      33.501  33.568  32.786  1.00  0.00    -0.245 OA
BRANCH   6   8
ATOM      8  C   UNL A   1      35.152  34.967  33.889  1.00  0.00     0.388 C 
BRANCH   8   9
ATOM      9  N   UNL A   1      36.406  34.245  33.702  1.00  0.00    -0.304 N 
ATOM     10  C   UNL A   1      42.832  31.504  33.224  1.00  0.00     0.161 A 
ATOM     11  C   UNL A   1      42.362  32.596  32.494  1.00  0.00     0.055 A 
ATOM     12  C   UNL A   1      41.917  30.573  33.716  1.00  0.00     0.161 A 
ATOM     13  C   UNL A   1      40.983  32.845  32.377  1.00  0.00    -0.033 A 
ATOM     14  C   UNL A   1      40.536  30.845  33.606  1.00  0.00     0.061 A 
ATOM     15  C   UNL A   1      40.048  32.046  33.065  1.00  0.00     0.006 A 
ATOM     16  C   UNL A   1      40.523  34.001  31.531  1.00  0.00     0.058 C 
ATOM     17  C   UNL A   1      38.639  32.574  33.236  1.00  0.00     0.068 C 
ATOM     18  C   UNL A   1      39.066  33.821  31.098  1.00  0.00     0.127 C 
ATOM     19  C   UNL A   1      37.803  32.327  34.288  1.00  0.00     0.108 C 
ATOM     20  N   UNL A   1      38.231  33.500  32.252  1.00  0.00    -0.323 N 
ATOM     21  C   UNL A   1      36.437  32.943  34.362  1.00  0.00     0.314 C 
ATOM     22  C   UNL A   1      36.912  34.125  32.349  1.00  0.00     0.390 C 
ATOM     23  H   UNL A   1      37.055  34.879  34.169  1.00  0.00     0.350 HD
BRANCH  10  24
ATOM     24  O   UNL A   1      44.185  31.340  33.358  1.00  0.00    -0.493 OA
ATOM     25  C   UNL A   1      44.669  30.278  32.527  1.00  0.00     0.278 C 
ENDBRANCH  10  24
BRANCH  12  26
ATOM     26  O   UNL A   1      42.172  29.390  34.357  1.00  0.00    -0.493 OA
ATOM     27  C   UNL A   1      41.664  28.186  33.798  1.00  0.00     0.278 C 
ENDBRANCH  12  26
BRANCH  19  28
ATOM     28  C   UNL A   1      38.136  31.305  35.362  1.00  0.00     0.103 C 
ATOM     29  N   UNL A   1      38.413  30.457  36.253  1.00  0.00    -0.192 NA
ENDBRANCH  19  28
ENDBRANCH   8   9
ENDBRANCH   6   8
ENDBRANCH   5   6
ENDBRANCH   4   5
ENDBRANCH   3   4
ENDBRANCH   2   3
ENDBRANCH   1   2
BRANCH   1  30
ATOM     30  C   UNL A   1      35.439  32.326  28.365  1.00  0.00     0.261 C 
BRANCH  30  31
ATOM     31  O   UNL A   1      35.527  30.969  28.832  1.00  0.00    -0.460 OA
BRANCH  31  32
ATOM     32  C   UNL A   1      36.260  30.780  29.957  1.00  0.00     0.338 C 
ATOM     33  O   UNL A   1      35.889  30.939  31.113  1.00  0.00    -0.246 OA
BRANCH  32  34
ATOM     34  C   UNL A   1      37.597  30.258  29.614  1.00  0.00     0.060 A 
ATOM     35  C   UNL A   1      37.972  30.129  28.281  1.00  0.00     0.016 A 
ATOM     36  C   UNL A   1      38.518  29.966  30.621  1.00  0.00     0.016 A 
ATOM     37  C   UNL A   1      39.256  29.696  27.942  1.00  0.00     0.010 A 
ATOM     38  C   UNL A   1      39.813  29.545  30.283  1.00  0.00     0.010 A 
ATOM     39  C   UNL A   1      40.197  29.410  28.939  1.00  0.00    -0.014 A 
BRANCH  39  40
ATOM     40  C   UNL A   1      41.580  29.001  28.567  1.00  0.00     0.031 A 
ATOM     41  C   UNL A   1      42.709  29.992  28.619  1.00  0.00     0.074 A 
ATOM     42  C   UNL A   1      41.829  27.727  28.201  1.00  0.00     0.049 A 
ATOM     43  N   UNL A   1      43.941  29.863  28.196  1.00  0.00    -0.248 NA
ATOM     44  C   UNL A   1      42.412  31.303  29.217  1.00  0.00     0.031 C 
ATOM     45  C   UNL A   1      40.837  26.651  28.166  1.00  0.00     0.029 A 
ATOM     46  N   UNL A   1      42.993  27.114  27.807  1.00  0.00    -0.354 N 
ATOM     47  C   UNL A   1      44.561  31.081  28.450  1.00  0.00     0.074 A 
ATOM     48  C   UNL A   1      43.565  31.940  29.057  1.00  0.00     0.031 C 
ATOM     49  C   UNL A   1      41.442  25.504  27.817  1.00  0.00     0.029 A 
ATOM     50  C   UNL A   1      42.849  25.773  27.533  1.00  0.00     0.049 A 
ATOM     51  H   UNL A   1      43.852  27.589  27.727  1.00  0.00     0.167 HD
ATOM     52  C   UNL A   1      45.842  31.445  28.200  1.00  0.00     0.037 A 
ATOM     53  C   UNL A   1      43.740  24.868  27.079  1.00  0.00     0.037 A 
ATOM     54  C   UNL A   1      46.838  30.574  27.629  1.00  0.00     0.049 A 
ATOM     55  C   UNL A   1      45.143  25.312  26.761  1.00  0.00     0.074 A 
ATOM     56  C   UNL A   1      48.151  30.867  27.302  1.00  0.00     0.029 A 
ATOM     57  N   UNL A   1      46.640  29.237  27.322  1.00  0.00    -0.354 N 
ATOM     58  N   UNL A   1      45.690  26.493  26.925  1.00  0.00    -0.248 NA
ATOM     59  C   UNL A   1      46.041  24.311  26.167  1.00  0.00     0.031 C 
ATOM     60  C   UNL A   1      48.739  29.714  26.768  1.00  0.00     0.029 A 
ATOM     61  C   UNL A   1      47.803  28.694  26.799  1.00  0.00     0.049 A 
ATOM     62  H   UNL A   1      45.798  28.745  27.455  1.00  0.00     0.167 HD
ATOM     63  C   UNL A   1      46.994  26.376  26.457  1.00  0.00     0.074 A 
ATOM     64  C   UNL A   1      47.163  25.003  26.028  1.00  0.00     0.031 C 
ATOM     65  C   UNL A   1      47.959  27.324  26.377  1.00  0.00     0.037 A 
BRANCH  52  66
ATOM     66  C   UNL A   1      46.241  32.861  28.510  1.00  0.00     0.058 A 
ATOM     67  C   UNL A   1      46.067  33.898  27.583  1.00  0.00     0.135 A 
ATOM     68  C   UNL A   1      46.752  33.190  29.777  1.00  0.00     0.135 A 
ATOM     69  F   UNL A   1      45.597  33.635  26.354  1.00  0.00    -0.206 F 
ATOM     70  C   UNL A   1      46.399  35.213  27.895  1.00  0.00     0.059 A 
ATOM     71  C   UNL A   1      47.070  34.501  30.118  1.00  0.00     0.059 A 
ATOM     72  F   UNL A   1      46.936  32.234  30.700  1.00  0.00    -0.206 F 
ATOM     73  C   UNL A   1      46.899  35.505  29.166  1.00  0.00     0.060 A 
BRANCH  73  74
ATOM     74  S   UNL A   1      47.315  37.217  29.559  1.00  0.00     0.124 S 
ATOM     75  O   UNL A   1      48.769  37.145  29.673  1.00  0.00    -0.237 OA
ATOM     76  O   UNL A   1      46.806  37.938  28.396  1.00  0.00    -0.237 OA
ATOM     77  O   UNL A   1      46.601  37.465  30.808  1.00  0.00    -0.744 OA
ENDBRANCH  73  74
ENDBRANCH  52  66
BRANCH  53  78
ATOM     78  C   UNL A   1      43.330  23.453  26.866  1.00  0.00     0.058 A 
ATOM     79  C   UNL A   1      43.197  22.571  27.949  1.00  0.00     0.135 A 
ATOM     80  C   UNL A   1      43.071  22.951  25.581  1.00  0.00     0.135 A 
ATOM     81  F   UNL A   1      43.449  22.998  29.196  1.00  0.00    -0.206 F 
ATOM     82  C   UNL A   1      42.832  21.240  27.766  1.00  0.00     0.059 A 
ATOM     83  C   UNL A   1      42.679  21.633  25.376  1.00  0.00     0.059 A 
ATOM     84  F   UNL A   1      43.176  23.754  24.511  1.00  0.00    -0.206 F 
ATOM     85  C   UNL A   1      42.573  20.781  26.474  1.00  0.00     0.060 A 
BRANCH  85  86
ATOM     86  S   UNL A   1      42.055  19.065  26.249  1.00  0.00     0.124 S 
ATOM     87  O   UNL A   1      43.009  18.600  25.249  1.00  0.00    -0.237 OA
ATOM     88  O   UNL A   1      42.215  18.515  27.591  1.00  0.00    -0.237 OA
ATOM     89  O   UNL A   1      40.673  19.191  25.793  1.00  0.00    -0.744 OA
ENDBRANCH  85  86
ENDBRANCH  53  78
BRANCH  65  90
ATOM     90  C   UNL A   1      49.288  26.917  25.806  1.00  0.00     0.058 A 
ATOM     91  C   UNL A   1      49.603  27.144  24.458  1.00  0.00     0.135 A 
ATOM     92  C   UNL A   1      50.282  26.363  26.629  1.00  0.00     0.135 A 
ATOM     93  F   UNL A   1      48.685  27.665  23.628  1.00  0.00    -0.206 F 
ATOM     94  C   UNL A   1      50.856  26.829  23.942  1.00  0.00     0.059 A 
ATOM     95  C   UNL A   1      51.549  26.060  26.139  1.00  0.00     0.059 A 
ATOM     96  F   UNL A   1      50.033  26.133  27.929  1.00  0.00    -0.206 F 
ATOM     97  C   UNL A   1      51.824  26.292  24.792  1.00  0.00     0.060 A 
BRANCH  97  98
ATOM     98  S   UNL A   1      53.463  25.939  24.120  1.00  0.00     0.124 S 
ATOM     99  O   UNL A   1      53.201  25.943  22.685  1.00  0.00    -0.237 OA
ATOM    100  O   UNL A   1      54.255  27.057  24.624  1.00  0.00    -0.237 OA
ATOM    101  O   UNL A   1      53.793  24.637  24.694  1.00  0.00    -0.744 OA
ENDBRANCH  97  98
ENDBRANCH  65  90
ENDBRANCH  39  40
ENDBRANCH  32  34
ENDBRANCH  31  32
ENDBRANCH  30  31
ENDBRANCH   1  30
TORSDOF 21
ENDMDL
MODEL 2
REMARK VINA RESULT:      -9.4      5.894     13.829
REMARK SMILES COc1cc2c(cc1OC)C1=C(C#N)C[N@H+](CC(=O)OCCOCCOC(=O)c3ccc(-c4c5nc(c(-c6c(F)cc(S(=O)(=O)[O-])cc6F)c6ccc([nH]6)c(-c6c(F)cc(S(=O)(=O)[O-])cc6F)c6nc(c(-c7c(F)cc(S(=O)(=O)[O-])cc7F)c7ccc4[nH]7)C=C6)C=C5)cc3)CN1CC2
REMARK SMILES IDX 24 1 23 2 22 3 21 4 20 5 18 6 19 7 17 8 16 9 3 10 4 11 8 12
REMARK SMILES IDX 5 13 7 14 6 15 98 16 11 17 97 18 12 19 96 20 15 21 95 22
REMARK SMILES IDX 2 24 1 25 9 26 10 27 13 28 14 29 25 30 26 31 27 32 28 33
REMARK SMILES IDX 29 34 30 35 94 36 31 37 93 38 32 39 33 40 34 41 87 42 35 43
REMARK SMILES IDX 92 44 86 45 88 46 36 47 91 48 85 49 84 50 37 52 71 53 50 54
REMARK SMILES IDX 70 55 51 56 54 57 69 58 89 59 52 60 53 61 68 63 90 64 55 65
REMARK SMILES IDX 38 66 39 67 48 68 40 69 41 70 47 71 49 72 42 73 43 74 44 75
REMARK SMILES IDX 45 76 46 77 72 78 73 79 82 80 74 81 75 82 81 83 83 84 76 85
REMARK SMILES IDX 77 86 78 87 79 88 80 89 56 90 57 91 66 92 58 93 59 94 65 95
REMARK SMILES IDX 67 96 60 97 61 98 62 99 63 100 64 101
REMARK H PARENT 16 23 88 51 54 62
REMARK Flexibility Score: inf
ROOT
ATOM      1  C   UNL A   1      44.444  23.176  25.103  1.00  0.00     0.202 C 
ENDROOT
BRANCH   1   2
ATOM      2  O   UNL A   1      45.235  22.005  25.298  1.00  0.00    -0.374 OA
BRANCH   2   3
ATOM      3  C   UNL A   1      45.016  20.924  24.389  1.00  0.00     0.202 C 
BRANCH   3   4
ATOM      4  C   UNL A   1      44.415  19.652  25.002  1.00  0.00     0.261 C 
BRANCH   4   5
ATOM      5  O   UNL A   1      43.012  19.808  25.248  1.00  0.00    -0.459 OA
BRANCH   5   6
ATOM      6  C   UNL A   1      42.402  18.920  26.084  1.00  0.00     0.361 C 
ATOM      7  O   UNL A   1      42.492  17.699  26.000  1.00  0.00    -0.245 OA
BRANCH   6   8
ATOM      8  C   UNL A   1      41.617  19.614  27.215  1.00  0.00     0.388 C 
BRANCH   8   9
ATOM      9  N   UNL A   1      40.376  20.195  26.715  1.00  0.00    -0.304 N 
ATOM     10  C   UNL A   1      34.024  22.657  25.093  1.00  0.00     0.161 A 
ATOM     11  C   UNL A   1      34.396  21.312  25.089  1.00  0.00     0.055 A 
ATOM     12  C   UNL A   1      35.007  23.632  24.920  1.00  0.00     0.161 A 
ATOM     13  C   UNL A   1      35.751  20.939  25.064  1.00  0.00    -0.033 A 
ATOM     14  C   UNL A   1      36.365  23.244  24.915  1.00  0.00     0.061 A 
ATOM     15  C   UNL A   1      36.767  21.915  25.127  1.00  0.00     0.006 A 
ATOM     16  C   UNL A   1      36.101  19.477  25.003  1.00  0.00     0.058 C 
ATOM     17  C   UNL A   1      38.167  21.472  25.497  1.00  0.00     0.068 C 
ATOM     18  C   UNL A   1      37.521  19.272  24.471  1.00  0.00     0.127 C 
ATOM     19  C   UNL A   1      39.096  22.207  26.177  1.00  0.00     0.108 C 
ATOM     20  N   UNL A   1      38.461  20.125  25.194  1.00  0.00    -0.323 N 
ATOM     21  C   UNL A   1      40.443  21.641  26.519  1.00  0.00     0.314 C 
ATOM     22  C   UNL A   1      39.763  19.568  25.561  1.00  0.00     0.390 C 
ATOM     23  H   UNL A   1      39.749  19.986  27.492  1.00  0.00     0.350 HD
BRANCH  10  24
ATOM     24  O   UNL A   1      32.694  22.969  25.178  1.00  0.00    -0.493 OA
ATOM     25  C   UNL A   1      31.883  21.790  25.252  1.00  0.00     0.278 C 
ENDBRANCH  10  24
BRANCH  12  26
ATOM     26  O   UNL A   1      34.846  24.986  24.788  1.00  0.00    -0.493 OA
ATOM     27  C   UNL A   1      33.996  25.476  23.761  1.00  0.00     0.278 C 
ENDBRANCH  12  26
BRANCH  19  28
ATOM     28  C   UNL A   1      38.888  23.678  26.496  1.00  0.00     0.103 C 
ATOM     29  N   UNL A   1      38.715  24.899  26.761  1.00  0.00    -0.192 NA
ENDBRANCH  19  28
ENDBRANCH   8   9
ENDBRANCH   6   8
ENDBRANCH   5   6
ENDBRANCH   4   5
ENDBRANCH   3   4
ENDBRANCH   2   3
ENDBRANCH   1   2
BRANCH   1  30
ATOM     30  C   UNL A   1      44.062  23.956  26.363  1.00  0.00     0.261 C 
BRANCH  30  31
ATOM     31  O   UNL A   1      42.679  24.347  26.392  1.00  0.00    -0.460 OA
BRANCH  31  32
ATOM     32  C   UNL A   1      42.430  25.651  26.117  1.00  0.00     0.338 C 
ATOM     33  O   UNL A   1      42.324  26.163  25.009  1.00  0.00    -0.246 OA
BRANCH  32  34
ATOM     34  C   UNL A   1      42.211  26.405  27.366  1.00  0.00     0.060 A 
ATOM     35  C   UNL A   1      42.803  27.652  27.538  1.00  0.00     0.016 A 
ATOM     36  C   UNL A   1      41.349  25.911  28.346  1.00  0.00     0.016 A 
ATOM     37  C   UNL A   1      42.554  28.406  28.687  1.00  0.00     0.010 A 
ATOM     38  C   UNL A   1      41.087  26.671  29.495  1.00  0.00     0.010 A 
ATOM     39  C   UNL A   1      41.683  27.930  29.676  1.00  0.00    -0.014 A 
BRANCH  39  40
ATOM     40  C   UNL A   1      41.382  28.763  30.872  1.00  0.00     0.031 A 
ATOM     41  C   UNL A   1      40.236  29.735  30.857  1.00  0.00     0.074 A 
ATOM     42  C   UNL A   1      42.128  28.632  31.987  1.00  0.00     0.049 A 
ATOM     43  N   UNL A   1      39.911  30.644  31.741  1.00  0.00    -0.248 NA
ATOM     44  C   UNL A   1      39.340  29.684  29.690  1.00  0.00     0.031 C 
ATOM     45  C   UNL A   1      43.231  27.685  32.158  1.00  0.00     0.029 A 
ATOM     46  N   UNL A   1      42.064  29.282  33.196  1.00  0.00    -0.354 N 
ATOM     47  C   UNL A   1      38.793  31.293  31.229  1.00  0.00     0.074 A 
ATOM     48  C   UNL A   1      38.500  30.678  29.950  1.00  0.00     0.031 C 
ATOM     49  C   UNL A   1      43.708  27.783  33.409  1.00  0.00     0.029 A 
ATOM     50  C   UNL A   1      42.997  28.847  34.110  1.00  0.00     0.049 A 
ATOM     51  H   UNL A   1      41.411  29.993  33.391  1.00  0.00     0.167 HD
ATOM     52  C   UNL A   1      38.080  32.306  31.777  1.00  0.00     0.037 A 
ATOM     53  C   UNL A   1      43.267  29.275  35.361  1.00  0.00     0.037 A 
ATOM     54  C   UNL A   1      38.355  32.890  33.066  1.00  0.00     0.049 A 
ATOM     55  C   UNL A   1      42.493  30.436  35.925  1.00  0.00     0.074 A 
ATOM     56  C   UNL A   1      37.711  33.948  33.686  1.00  0.00     0.029 A 
ATOM     57  N   UNL A   1      39.338  32.453  33.941  1.00  0.00    -0.354 N 
ATOM     58  N   UNL A   1      41.494  31.098  35.391  1.00  0.00    -0.248 NA
ATOM     59  C   UNL A   1      42.902  30.931  37.248  1.00  0.00     0.031 C 
ATOM     60  C   UNL A   1      38.325  34.170  34.925  1.00  0.00     0.029 A 
ATOM     61  C   UNL A   1      39.326  33.227  35.091  1.00  0.00     0.049 A 
ATOM     62  H   UNL A   1      39.954  31.705  33.771  1.00  0.00     0.167 HD
ATOM     63  C   UNL A   1      41.155  32.083  36.311  1.00  0.00     0.074 A 
ATOM     64  C   UNL A   1      42.037  31.916  37.448  1.00  0.00     0.031 C 
ATOM     65  C   UNL A   1      40.208  33.048  36.216  1.00  0.00     0.037 A 
BRANCH  52  66
ATOM     66  C   UNL A   1      36.946  32.879  30.974  1.00  0.00     0.058 A 
ATOM     67  C   UNL A   1      37.167  33.773  29.916  1.00  0.00     0.135 A 
ATOM     68  C   UNL A   1      35.624  32.481  31.232  1.00  0.00     0.135 A 
ATOM     69  F   UNL A   1      38.410  34.197  29.637  1.00  0.00    -0.206 F 
ATOM     70  C   UNL A   1      36.115  34.265  29.150  1.00  0.00     0.059 A 
ATOM     71  C   UNL A   1      34.559  32.943  30.465  1.00  0.00     0.059 A 
ATOM     72  F   UNL A   1      35.359  31.627  32.233  1.00  0.00    -0.206 F 
ATOM     73  C   UNL A   1      34.814  33.843  29.432  1.00  0.00     0.060 A 
BRANCH  73  74
ATOM     74  S   UNL A   1      33.460  34.482  28.422  1.00  0.00     0.124 S 
ATOM     75  O   UNL A   1      33.061  33.289  27.681  1.00  0.00    -0.237 OA
ATOM     76  O   UNL A   1      32.512  34.949  29.428  1.00  0.00    -0.237 OA
ATOM     77  O   UNL A   1      34.091  35.531  27.626  1.00  0.00    -0.744 OA
ENDBRANCH  73  74
ENDBRANCH  52  66
BRANCH  53  78
ATOM     78  C   UNL A   1      44.341  28.624  36.160  1.00  0.00     0.058 A 
ATOM     79  C   UNL A   1      44.054  27.542  37.005  1.00  0.00     0.135 A 
ATOM     80  C   UNL A   1      45.670  29.072  36.103  1.00  0.00     0.135 A 
ATOM     81  F   UNL A   1      42.796  27.086  37.107  1.00  0.00    -0.206 F 
ATOM     82  C   UNL A   1      45.043  26.933  37.773  1.00  0.00     0.059 A 
ATOM     83  C   UNL A   1      46.680  28.464  36.841  1.00  0.00     0.059 A 
ATOM     84  F   UNL A   1      46.000  30.100  35.305  1.00  0.00    -0.206 F 
ATOM     85  C   UNL A   1      46.354  27.401  37.682  1.00  0.00     0.060 A 
BRANCH  85  86
ATOM     86  S   UNL A   1      47.640  26.577  38.646  1.00  0.00     0.124 S 
ATOM     87  O   UNL A   1      47.817  27.508  39.755  1.00  0.00    -0.237 OA
ATOM     88  O   UNL A   1      47.011  25.302  38.975  1.00  0.00    -0.237 OA
ATOM     89  O   UNL A   1      48.757  26.492  37.709  1.00  0.00    -0.744 OA
ENDBRANCH  85  86
ENDBRANCH  53  78
BRANCH  65  90
ATOM     90  C   UNL A   1      40.069  34.001  37.370  1.00  0.00     0.058 A 
ATOM     91  C   UNL A   1      40.819  35.186  37.431  1.00  0.00     0.135 A 
ATOM     92  C   UNL A   1      39.127  33.766  38.384  1.00  0.00     0.135 A 
ATOM     93  F   UNL A   1      41.738  35.453  36.490  1.00  0.00    -0.206 F 
ATOM     94  C   UNL A   1      40.645  36.102  38.463  1.00  0.00     0.059 A 
ATOM     95  C   UNL A   1      38.922  34.679  39.414  1.00  0.00     0.059 A 
ATOM     96  F   UNL A   1      38.379  32.651  38.367  1.00  0.00    -0.206 F 
ATOM     97  C   UNL A   1      39.690  35.843  39.448  1.00  0.00     0.060 A 
BRANCH  97  98
ATOM     98  S   UNL A   1      39.439  37.067  40.751  1.00  0.00     0.124 S 
ATOM     99  O   UNL A   1      38.499  36.377  41.627  1.00  0.00    -0.237 OA
ATOM    100  O   UNL A   1      40.789  37.241  41.280  1.00  0.00    -0.237 OA
ATOM    101  O   UNL A   1      38.900  38.221  40.036  1.00  0.00    -0.744 OA
ENDBRANCH  97  98
ENDBRANCH  65  90
ENDBRANCH  39  40
ENDBRANCH  32  34
ENDBRANCH  31  32
ENDBRANCH  30  31
ENDBRANCH   1  30
TORSDOF 21
ENDMDL
MODEL 3
REMARK VINA RESULT:      -9.3      5.235      7.522
REMARK SMILES COc1cc2c(cc1OC)C1=C(C#N)C[N@H+](CC(=O)OCCOCCOC(=O)c3ccc(-c4c5nc(c(-c6c(F)cc(S(=O)(=O)[O-])cc6F)c6ccc([nH]6)c(-c6c(F)cc(S(=O)(=O)[O-])cc6F)c6nc(c(-c7c(F)cc(S(=O)(=O)[O-])cc7F)c7ccc4[nH]7)C=C6)C=C5)cc3)CN1CC2
REMARK SMILES IDX 24 1 23 2 22 3 21 4 20 5 18 6 19 7 17 8 16 9 3 10 4 11 8 12
REMARK SMILES IDX 5 13 7 14 6 15 98 16 11 17 97 18 12 19 96 20 15 21 95 22
REMARK SMILES IDX 2 24 1 25 9 26 10 27 13 28 14 29 25 30 26 31 27 32 28 33
REMARK SMILES IDX 29 34 30 35 94 36 31 37 93 38 32 39 33 40 34 41 87 42 35 43
REMARK SMILES IDX 92 44 86 45 88 46 36 47 91 48 85 49 84 50 37 52 71 53 50 54
REMARK SMILES IDX 70 55 51 56 54 57 69 58 89 59 52 60 53 61 68 63 90 64 55 65
REMARK SMILES IDX 38 66 39 67 48 68 40 69 41 70 47 71 49 72 42 73 43 74 44 75
REMARK SMILES IDX 45 76 46 77 72 78 73 79 82 80 74 81 75 82 81 83 83 84 76 85
REMARK SMILES IDX 77 86 78 87 79 88 80 89 56 90 57 91 66 92 58 93 59 94 65 95
REMARK SMILES IDX 67 96 60 97 61 98 62 99 63 100 64 101
REMARK H PARENT 16 23 88 51 54 62
REMARK Flexibility Score: inf
ROOT
ATOM      1  C   UNL A   1      31.776  28.816  26.814  1.00  0.00     0.202 C 
ENDROOT
BRANCH   1   2
ATOM      2  O   UNL A   1      31.669  28.193  25.536  1.00  0.00    -0.374 OA
BRANCH   2   3
ATOM      3  C   UNL A   1      32.548  28.669  24.514  1.00  0.00     0.202 C 
BRANCH   3   4
ATOM      4  C   UNL A   1      31.869  29.329  23.306  1.00  0.00     0.261 C 
BRANCH   4   5
ATOM      5  O   UNL A   1      30.489  29.608  23.576  1.00  0.00    -0.459 OA
BRANCH   5   6
ATOM      6  C   UNL A   1      29.556  29.153  22.692  1.00  0.00     0.361 C 
ATOM      7  O   UNL A   1      29.259  29.704  21.637  1.00  0.00    -0.245 OA
BRANCH   6   8
ATOM      8  C   UNL A   1      28.934  27.810  23.124  1.00  0.00     0.388 C 
BRANCH   8   9
ATOM      9  N   UNL A   1      29.967  26.824  23.423  1.00  0.00    -0.304 N 
ATOM     10  C   UNL A   1      35.436  22.812  25.163  1.00  0.00     0.161 A 
ATOM     11  C   UNL A   1      35.395  23.702  24.090  1.00  0.00     0.055 A 
ATOM     12  C   UNL A   1      34.241  22.282  25.651  1.00  0.00     0.161 A 
ATOM     13  C   UNL A   1      34.168  24.181  23.598  1.00  0.00    -0.033 A 
ATOM     14  C   UNL A   1      33.017  22.786  25.158  1.00  0.00     0.061 A 
ATOM     15  C   UNL A   1      32.956  23.838  24.230  1.00  0.00     0.006 A 
ATOM     16  C   UNL A   1      34.173  25.095  22.402  1.00  0.00     0.058 C 
ATOM     17  C   UNL A   1      31.727  24.671  23.930  1.00  0.00     0.068 C 
ATOM     18  C   UNL A   1      32.811  25.094  21.704  1.00  0.00     0.127 C 
ATOM     19  C   UNL A   1      30.696  24.931  24.786  1.00  0.00     0.108 C 
ATOM     20  N   UNL A   1      31.743  25.317  22.675  1.00  0.00    -0.323 N 
ATOM     21  C   UNL A   1      29.547  25.807  24.383  1.00  0.00     0.314 C 
ATOM     22  C   UNL A   1      30.637  26.198  22.301  1.00  0.00     0.390 C 
ATOM     23  H   UNL A   1      30.674  27.423  23.850  1.00  0.00     0.350 HD
BRANCH  10  24
ATOM     24  O   UNL A   1      36.657  22.422  25.645  1.00  0.00    -0.493 OA
ATOM     25  C   UNL A   1      37.402  21.696  24.660  1.00  0.00     0.278 C 
ENDBRANCH  10  24
BRANCH  12  26
ATOM     26  O   UNL A   1      34.067  21.324  26.613  1.00  0.00    -0.493 OA
ATOM     27  C   UNL A   1      33.484  21.699  27.854  1.00  0.00     0.278 C 
ENDBRANCH  12  26
BRANCH  19  28
ATOM     28  C   UNL A   1      30.569  24.238  26.133  1.00  0.00     0.103 C 
ATOM     29  N   UNL A   1      30.463  23.663  27.250  1.00  0.00    -0.192 NA
ENDBRANCH  19  28
ENDBRANCH   8   9
ENDBRANCH   6   8
ENDBRANCH   5   6
ENDBRANCH   4   5
ENDBRANCH   3   4
ENDBRANCH   2   3
ENDBRANCH   1   2
BRANCH   1  30
ATOM     30  C   UNL A   1      33.159  28.790  27.470  1.00  0.00     0.261 C 
BRANCH  30  31
ATOM     31  O   UNL A   1      34.005  29.877  27.056  1.00  0.00    -0.460 OA
BRANCH  31  32
ATOM     32  C   UNL A   1      34.583  30.586  28.058  1.00  0.00     0.338 C 
ATOM     33  O   UNL A   1      34.054  31.447  28.751  1.00  0.00    -0.246 OA
BRANCH  32  34
ATOM     34  C   UNL A   1      35.965  30.123  28.281  1.00  0.00     0.060 A 
ATOM     35  C   UNL A   1      36.892  30.177  27.246  1.00  0.00     0.016 A 
ATOM     36  C   UNL A   1      36.371  29.703  29.549  1.00  0.00     0.016 A 
ATOM     37  C   UNL A   1      38.220  29.802  27.460  1.00  0.00     0.010 A 
ATOM     38  C   UNL A   1      37.707  29.338  29.770  1.00  0.00     0.010 A 
ATOM     39  C   UNL A   1      38.648  29.389  28.728  1.00  0.00    -0.014 A 
BRANCH  39  40
ATOM     40  C   UNL A   1      40.077  29.042  28.960  1.00  0.00     0.031 A 
ATOM     41  C   UNL A   1      41.008  30.030  29.606  1.00  0.00     0.074 A 
ATOM     42  C   UNL A   1      40.539  27.825  28.608  1.00  0.00     0.049 A 
ATOM     43  N   UNL A   1      42.306  29.966  29.756  1.00  0.00    -0.248 NA
ATOM     44  C   UNL A   1      40.399  31.255  30.149  1.00  0.00     0.031 C 
ATOM     45  C   UNL A   1      39.730  26.752  28.028  1.00  0.00     0.029 A 
ATOM     46  N   UNL A   1      41.795  27.276  28.702  1.00  0.00    -0.354 N 
ATOM     47  C   UNL A   1      42.677  31.149  30.384  1.00  0.00     0.074 A 
ATOM     48  C   UNL A   1      41.465  31.918  30.579  1.00  0.00     0.031 C 
ATOM     49  C   UNL A   1      40.497  25.662  27.861  1.00  0.00     0.029 A 
ATOM     50  C   UNL A   1      41.868  25.977  28.252  1.00  0.00     0.049 A 
ATOM     51  H   UNL A   1      42.571  27.766  29.058  1.00  0.00     0.167 HD
ATOM     52  C   UNL A   1      43.914  31.553  30.760  1.00  0.00     0.037 A 
ATOM     53  C   UNL A   1      42.922  25.143  28.142  1.00  0.00     0.037 A 
ATOM     54  C   UNL A   1      45.112  30.769  30.596  1.00  0.00     0.049 A 
ATOM     55  C   UNL A   1      44.293  25.637  28.521  1.00  0.00     0.074 A 
ATOM     56  C   UNL A   1      46.416  31.112  30.911  1.00  0.00     0.029 A 
ATOM     57  N   UNL A   1      45.151  29.477  30.093  1.00  0.00    -0.354 N 
ATOM     58  N   UNL A   1      44.640  26.794  29.032  1.00  0.00    -0.248 NA
ATOM     59  C   UNL A   1      45.421  24.724  28.279  1.00  0.00     0.031 C 
ATOM     60  C   UNL A   1      47.247  30.039  30.571  1.00  0.00     0.029 A 
ATOM     61  C   UNL A   1      46.456  29.014  30.079  1.00  0.00     0.049 A 
ATOM     62  H   UNL A   1      44.367  28.965  29.790  1.00  0.00     0.167 HD
ATOM     63  C   UNL A   1      46.023  26.747  29.174  1.00  0.00     0.074 A 
ATOM     64  C   UNL A   1      46.447  25.439  28.720  1.00  0.00     0.031 C 
ATOM     65  C   UNL A   1      46.865  27.707  29.626  1.00  0.00     0.037 A 
BRANCH  52  66
ATOM     66  C   UNL A   1      44.050  32.924  31.362  1.00  0.00     0.058 A 
ATOM     67  C   UNL A   1      44.251  34.064  30.570  1.00  0.00     0.135 A 
ATOM     68  C   UNL A   1      43.919  33.104  32.750  1.00  0.00     0.135 A 
ATOM     69  F   UNL A   1      44.397  33.945  29.241  1.00  0.00    -0.206 F 
ATOM     70  C   UNL A   1      44.332  35.334  31.132  1.00  0.00     0.059 A 
ATOM     71  C   UNL A   1      43.975  34.367  33.332  1.00  0.00     0.059 A 
ATOM     72  F   UNL A   1      43.725  32.046  33.552  1.00  0.00    -0.206 F 
ATOM     73  C   UNL A   1      44.192  35.475  32.514  1.00  0.00     0.060 A 
BRANCH  73  74
ATOM     74  S   UNL A   1      44.288  37.131  33.228  1.00  0.00     0.124 S 
ATOM     75  O   UNL A   1      44.648  37.931  32.061  1.00  0.00    -0.237 OA
ATOM     76  O   UNL A   1      42.936  37.331  33.740  1.00  0.00    -0.237 OA
ATOM     77  O   UNL A   1      45.328  37.006  34.245  1.00  0.00    -0.744 OA
ENDBRANCH  73  74
ENDBRANCH  52  66
BRANCH  53  78
ATOM     78  C   UNL A   1      42.734  23.761  27.623  1.00  0.00     0.058 A 
ATOM     79  C   UNL A   1      42.535  22.683  28.499  1.00  0.00     0.135 A 
ATOM     80  C   UNL A   1      42.757  23.487  26.247  1.00  0.00     0.135 A 
ATOM     81  F   UNL A   1      42.521  22.891  29.825  1.00  0.00    -0.206 F 
ATOM     82  C   UNL A   1      42.376  21.382  28.031  1.00  0.00     0.059 A 
ATOM     83  C   UNL A   1      42.574  22.199  25.754  1.00  0.00     0.059 A 
ATOM     84  F   UNL A   1      42.938  24.482  25.365  1.00  0.00    -0.206 F 
ATOM     85  C   UNL A   1      42.394  21.151  26.655  1.00  0.00     0.060 A 
BRANCH  85  86
ATOM     86  S   UNL A   1      42.141  19.467  26.053  1.00  0.00     0.124 S 
ATOM     87  O   UNL A   1      40.713  19.472  25.756  1.00  0.00    -0.237 OA
ATOM     88  O   UNL A   1      43.034  19.413  24.899  1.00  0.00    -0.237 OA
ATOM     89  O   UNL A   1      42.548  18.642  27.187  1.00  0.00    -0.744 OA
ENDBRANCH  85  86
ENDBRANCH  53  78
BRANCH  65  90
ATOM     90  C   UNL A   1      48.333  27.386  29.657  1.00  0.00     0.058 A 
ATOM     91  C   UNL A   1      49.159  27.643  28.552  1.00  0.00     0.135 A 
ATOM     92  C   UNL A   1      48.932  26.886  30.824  1.00  0.00     0.135 A 
ATOM     93  F   UNL A   1      48.633  28.114  27.410  1.00  0.00    -0.206 F 
ATOM     94  C   UNL A   1      50.529  27.408  28.600  1.00  0.00     0.059 A 
ATOM     95  C   UNL A   1      50.304  26.664  30.901  1.00  0.00     0.059 A 
ATOM     96  F   UNL A   1      48.187  26.631  31.912  1.00  0.00    -0.206 F 
ATOM     97  C   UNL A   1      51.094  26.924  29.781  1.00  0.00     0.060 A 
BRANCH  97  98
ATOM     98  S   UNL A   1      52.881  26.675  29.845  1.00  0.00     0.124 S 
ATOM     99  O   UNL A   1      53.176  26.292  28.469  1.00  0.00    -0.237 OA
ATOM    100  O   UNL A   1      53.365  27.991  30.254  1.00  0.00    -0.237 OA
ATOM    101  O   UNL A   1      53.043  25.619  30.840  1.00  0.00    -0.744 OA
ENDBRANCH  97  98
ENDBRANCH  65  90
ENDBRANCH  39  40
ENDBRANCH  32  34
ENDBRANCH  31  32
ENDBRANCH  30  31
ENDBRANCH   1  30
TORSDOF 21
ENDMDL
