MODEL 1
REMARK VINA RESULT:     -10.8      0.000      0.000
REMARK SMILES O=C(OCCOCCOC(=O)C1([C@@H]2CCCC[C@H]2O)CCOCC1)c1ccc(-c2c3nc(c(-c4c(F)cc(S(=O)(=O)[O-])cc4F)c4ccc([nH]4)c(-c4c(F)cc(S(=O)(=O)[O-])cc4F)c4nc(c(-c5c(F)cc(S(=O)(=O)[O-])cc5F)c5ccc2[nH]5)C=C4)C=C3)cc1
REMARK SMILES IDX 5 1 4 2 3 3 2 4 1 5 25 6 26 7 90 8 27 9 89 10 28 11 29 12
REMARK SMILES IDX 30 13 83 14 31 15 88 16 82 17 84 18 32 19 87 20 81 21 80 22
REMARK SMILES IDX 33 24 67 25 46 26 66 27 47 28 50 29 65 30 85 31 48 32 49 33
REMARK SMILES IDX 64 35 86 36 51 37 34 38 35 39 44 40 36 41 37 42 43 43 45 44
REMARK SMILES IDX 38 45 39 46 40 47 41 48 42 49 68 50 69 51 78 52 70 53 71 54
REMARK SMILES IDX 77 55 79 56 72 57 73 58 74 59 75 60 76 61 52 62 53 63 62 64
REMARK SMILES IDX 54 65 55 66 61 67 63 68 56 69 57 70 58 71 59 72 60 73 6 74
REMARK SMILES IDX 7 75 8 76 9 77 10 78 11 79 12 80 20 81 24 82 21 83 23 84
REMARK SMILES IDX 22 85 13 86 14 87 18 88 15 89 17 90 16 91 19 92
REMARK H PARENT 84 23 50 34 19 93
REMARK Flexibility Score: inf
ROOT
ATOM      1  C   UNL A   1      33.305  29.051  25.186  1.00  0.00     0.202 C 
ENDROOT
BRANCH   1   2
ATOM      2  C   UNL A   1      34.156  28.426  26.314  1.00  0.00     0.261 C 
BRANCH   2   3
ATOM      3  O   UNL A   1      34.120  28.973  27.653  1.00  0.00    -0.460 OA
BRANCH   3   4
ATOM      4  C   UNL A   1      34.709  30.162  27.984  1.00  0.00     0.338 C 
ATOM      5  O   UNL A   1      34.145  31.232  27.897  1.00  0.00    -0.246 OA
BRANCH   4   6
ATOM      6  C   UNL A   1      36.111  30.031  28.422  1.00  0.00     0.060 A 
ATOM      7  C   UNL A   1      37.079  30.383  27.506  1.00  0.00     0.016 A 
ATOM      8  C   UNL A   1      36.475  29.448  29.630  1.00  0.00     0.016 A 
ATOM      9  C   UNL A   1      38.304  29.779  27.576  1.00  0.00     0.010 A 
ATOM     10  C   UNL A   1      37.825  29.147  29.844  1.00  0.00     0.010 A 
ATOM     11  C   UNL A   1      38.747  29.270  28.788  1.00  0.00    -0.014 A 
BRANCH  11  12
ATOM     12  C   UNL A   1      40.184  28.927  28.902  1.00  0.00     0.031 A 
ATOM     13  C   UNL A   1      41.150  29.952  29.405  1.00  0.00     0.074 A 
ATOM     14  C   UNL A   1      40.591  27.675  28.590  1.00  0.00     0.049 A 
ATOM     15  N   UNL A   1      42.444  29.989  29.264  1.00  0.00    -0.248 NA
ATOM     16  C   UNL A   1      40.589  31.109  30.123  1.00  0.00     0.031 C 
ATOM     17  C   UNL A   1      39.718  26.565  28.171  1.00  0.00     0.029 A 
ATOM     18  N   UNL A   1      41.833  27.100  28.605  1.00  0.00    -0.354 N 
ATOM     19  C   UNL A   1      42.841  31.222  29.765  1.00  0.00     0.074 A 
ATOM     20  C   UNL A   1      41.656  31.884  30.260  1.00  0.00     0.031 C 
ATOM     21  C   UNL A   1      40.423  25.435  28.095  1.00  0.00     0.029 A 
ATOM     22  C   UNL A   1      41.823  25.778  28.218  1.00  0.00     0.049 A 
ATOM     23  H   UNL A   1      42.651  27.582  28.866  1.00  0.00     0.167 HD
ATOM     24  C   UNL A   1      44.091  31.743  29.753  1.00  0.00     0.037 A 
ATOM     25  C   UNL A   1      42.829  24.955  27.876  1.00  0.00     0.037 A 
ATOM     26  C   UNL A   1      45.230  30.995  29.287  1.00  0.00     0.049 A 
ATOM     27  C   UNL A   1      44.200  25.547  27.865  1.00  0.00     0.074 A 
ATOM     28  C   UNL A   1      46.545  31.397  29.159  1.00  0.00     0.029 A 
ATOM     29  N   UNL A   1      45.177  29.660  28.895  1.00  0.00    -0.354 N 
ATOM     30  N   UNL A   1      44.560  26.772  28.175  1.00  0.00    -0.248 NA
ATOM     31  C   UNL A   1      45.291  24.680  27.421  1.00  0.00     0.031 C 
ATOM     32  C   UNL A   1      47.281  30.310  28.668  1.00  0.00     0.029 A 
ATOM     33  C   UNL A   1      46.435  29.217  28.534  1.00  0.00     0.049 A 
ATOM     34  H   UNL A   1      44.361  29.109  28.879  1.00  0.00     0.167 HD
ATOM     35  C   UNL A   1      45.925  26.829  27.963  1.00  0.00     0.074 A 
ATOM     36  C   UNL A   1      46.327  25.506  27.516  1.00  0.00     0.031 C 
ATOM     37  C   UNL A   1      46.772  27.877  28.114  1.00  0.00     0.037 A 
BRANCH  24  38
ATOM     38  C   UNL A   1      44.241  33.188  30.150  1.00  0.00     0.058 A 
ATOM     39  C   UNL A   1      44.589  33.585  31.451  1.00  0.00     0.135 A 
ATOM     40  C   UNL A   1      43.965  34.201  29.215  1.00  0.00     0.135 A 
ATOM     41  F   UNL A   1      44.840  32.663  32.394  1.00  0.00    -0.206 F 
ATOM     42  C   UNL A   1      44.606  34.928  31.823  1.00  0.00     0.059 A 
ATOM     43  C   UNL A   1      44.001  35.550  29.559  1.00  0.00     0.059 A 
ATOM     44  F   UNL A   1      43.620  33.884  27.957  1.00  0.00    -0.206 F 
ATOM     45  C   UNL A   1      44.296  35.903  30.874  1.00  0.00     0.060 A 
BRANCH  45  46
ATOM     46  S   UNL A   1      44.251  37.635  31.384  1.00  0.00     0.124 S 
ATOM     47  O   UNL A   1      43.631  38.263  30.222  1.00  0.00    -0.237 OA
ATOM     48  O   UNL A   1      43.430  37.588  32.590  1.00  0.00    -0.237 OA
ATOM     49  O   UNL A   1      45.656  37.963  31.600  1.00  0.00    -0.744 OA
ENDBRANCH  45  46
ENDBRANCH  24  38
BRANCH  25  50
ATOM     50  C   UNL A   1      42.529  23.570  27.419  1.00  0.00     0.058 A 
ATOM     51  C   UNL A   1      42.455  23.261  26.055  1.00  0.00     0.135 A 
ATOM     52  C   UNL A   1      42.426  22.504  28.333  1.00  0.00     0.135 A 
ATOM     53  F   UNL A   1      42.544  24.238  25.141  1.00  0.00    -0.206 F 
ATOM     54  C   UNL A   1      42.306  21.948  25.613  1.00  0.00     0.059 A 
ATOM     55  C   UNL A   1      42.311  21.182  27.914  1.00  0.00     0.059 A 
ATOM     56  F   UNL A   1      42.515  22.738  29.653  1.00  0.00    -0.206 F 
ATOM     57  C   UNL A   1      42.247  20.914  26.550  1.00  0.00     0.060 A 
BRANCH  57  58
ATOM     58  S   UNL A   1      42.147  19.208  25.964  1.00  0.00     0.124 S 
ATOM     59  O   UNL A   1      42.644  18.472  27.120  1.00  0.00    -0.237 OA
ATOM     60  O   UNL A   1      40.724  19.061  25.676  1.00  0.00    -0.237 OA
ATOM     61  O   UNL A   1      43.018  19.205  24.791  1.00  0.00    -0.744 OA
ENDBRANCH  57  58
ENDBRANCH  25  50
BRANCH  37  62
ATOM     62  C   UNL A   1      48.215  27.598  27.846  1.00  0.00     0.058 A 
ATOM     63  C   UNL A   1      48.771  27.764  26.571  1.00  0.00     0.135 A 
ATOM     64  C   UNL A   1      49.056  27.217  28.903  1.00  0.00     0.135 A 
ATOM     65  F   UNL A   1      47.994  28.110  25.533  1.00  0.00    -0.206 F 
ATOM     66  C   UNL A   1      50.125  27.558  26.349  1.00  0.00     0.059 A 
ATOM     67  C   UNL A   1      50.416  27.026  28.706  1.00  0.00     0.059 A 
ATOM     68  F   UNL A   1      48.558  27.049  30.138  1.00  0.00    -0.206 F 
ATOM     69  C   UNL A   1      50.940  27.196  27.425  1.00  0.00     0.060 A 
BRANCH  69  70
ATOM     70  S   UNL A   1      52.708  26.997  27.140  1.00  0.00     0.124 S 
ATOM     71  O   UNL A   1      53.205  26.813  28.499  1.00  0.00    -0.237 OA
ATOM     72  O   UNL A   1      52.756  25.818  26.281  1.00  0.00    -0.237 OA
ATOM     73  O   UNL A   1      53.089  28.249  26.494  1.00  0.00    -0.744 OA
ENDBRANCH  69  70
ENDBRANCH  37  62
ENDBRANCH  11  12
ENDBRANCH   4   6
ENDBRANCH   3   4
ENDBRANCH   2   3
ENDBRANCH   1   2
BRANCH   1  74
ATOM     74  O   UNL A   1      33.574  28.808  23.814  1.00  0.00    -0.374 OA
BRANCH  74  75
ATOM     75  C   UNL A   1      32.770  27.919  23.061  1.00  0.00     0.202 C 
BRANCH  75  76
ATOM     76  C   UNL A   1      33.376  26.577  22.675  1.00  0.00     0.261 C 
BRANCH  76  77
ATOM     77  O   UNL A   1      34.005  25.840  23.740  1.00  0.00    -0.463 OA
BRANCH  77  78
ATOM     78  C   UNL A   1      34.085  24.506  23.491  1.00  0.00     0.312 C 
ATOM     79  O   UNL A   1      34.292  24.045  22.372  1.00  0.00    -0.252 OA
BRANCH  78  80
ATOM     80  C   UNL A   1      33.650  23.636  24.672  1.00  0.00     0.078 C 
ATOM     81  C   UNL A   1      32.497  22.740  24.110  1.00  0.00     0.047 C 
ATOM     82  C   UNL A   1      32.951  24.630  25.654  1.00  0.00     0.047 C 
ATOM     83  C   UNL A   1      31.665  22.098  25.203  1.00  0.00     0.161 C 
ATOM     84  C   UNL A   1      32.042  23.935  26.662  1.00  0.00     0.161 C 
ATOM     85  O   UNL A   1      31.078  23.108  26.019  1.00  0.00    -0.381 OA
BRANCH  80  86
ATOM     86  C   UNL A   1      34.744  22.769  25.430  1.00  0.00     0.035 C 
ATOM     87  C   UNL A   1      35.721  23.507  26.381  1.00  0.00     0.007 C 
ATOM     88  C   UNL A   1      35.443  21.616  24.664  1.00  0.00     0.118 C 
ATOM     89  C   UNL A   1      37.140  23.738  25.883  1.00  0.00     0.001 C 
ATOM     90  C   UNL A   1      36.817  21.937  24.100  1.00  0.00     0.032 C 
ATOM     91  C   UNL A   1      37.747  22.552  25.141  1.00  0.00     0.003 C 
BRANCH  88  92
ATOM     92  O   UNL A   1      35.608  20.539  25.602  1.00  0.00    -0.393 OA
ATOM     93  H   UNL A   1      35.948  20.889  26.440  1.00  0.00     0.210 HD
ENDBRANCH  88  92
ENDBRANCH  80  86
ENDBRANCH  78  80
ENDBRANCH  77  78
ENDBRANCH  76  77
ENDBRANCH  75  76
ENDBRANCH  74  75
ENDBRANCH   1  74
TORSDOF 19
ENDMDL
MODEL 2
REMARK VINA RESULT:     -10.8      0.767      2.361
REMARK SMILES O=C(OCCOCCOC(=O)C1([C@@H]2CCCC[C@H]2O)CCOCC1)c1ccc(-c2c3nc(c(-c4c(F)cc(S(=O)(=O)[O-])cc4F)c4ccc([nH]4)c(-c4c(F)cc(S(=O)(=O)[O-])cc4F)c4nc(c(-c5c(F)cc(S(=O)(=O)[O-])cc5F)c5ccc2[nH]5)C=C4)C=C3)cc1
REMARK SMILES IDX 5 1 4 2 3 3 2 4 1 5 25 6 26 7 90 8 27 9 89 10 28 11 29 12
REMARK SMILES IDX 30 13 83 14 31 15 88 16 82 17 84 18 32 19 87 20 81 21 80 22
REMARK SMILES IDX 33 24 67 25 46 26 66 27 47 28 50 29 65 30 85 31 48 32 49 33
REMARK SMILES IDX 64 35 86 36 51 37 34 38 35 39 44 40 36 41 37 42 43 43 45 44
REMARK SMILES IDX 38 45 39 46 40 47 41 48 42 49 68 50 69 51 78 52 70 53 71 54
REMARK SMILES IDX 77 55 79 56 72 57 73 58 74 59 75 60 76 61 52 62 53 63 62 64
REMARK SMILES IDX 54 65 55 66 61 67 63 68 56 69 57 70 58 71 59 72 60 73 6 74
REMARK SMILES IDX 7 75 8 76 9 77 10 78 11 79 12 80 20 81 24 82 21 83 23 84
REMARK SMILES IDX 22 85 13 86 14 87 18 88 15 89 17 90 16 91 19 92
REMARK H PARENT 84 23 50 34 19 93
REMARK Flexibility Score: inf
ROOT
ATOM      1  C   UNL A   1      33.497  28.501  25.017  1.00  0.00     0.202 C 
ENDROOT
BRANCH   1   2
ATOM      2  C   UNL A   1      34.262  28.311  26.347  1.00  0.00     0.261 C 
BRANCH   2   3
ATOM      3  O   UNL A   1      33.853  29.020  27.540  1.00  0.00    -0.460 OA
BRANCH   3   4
ATOM      4  C   UNL A   1      34.407  30.211  27.921  1.00  0.00     0.338 C 
ATOM      5  O   UNL A   1      33.823  31.271  27.848  1.00  0.00    -0.246 OA
BRANCH   4   6
ATOM      6  C   UNL A   1      35.799  30.097  28.395  1.00  0.00     0.060 A 
ATOM      7  C   UNL A   1      36.784  30.493  27.516  1.00  0.00     0.016 A 
ATOM      8  C   UNL A   1      36.141  29.488  29.597  1.00  0.00     0.016 A 
ATOM      9  C   UNL A   1      38.019  29.913  27.605  1.00  0.00     0.010 A 
ATOM     10  C   UNL A   1      37.490  29.209  29.840  1.00  0.00     0.010 A 
ATOM     11  C   UNL A   1      38.439  29.379  28.815  1.00  0.00    -0.014 A 
BRANCH  11  12
ATOM     12  C   UNL A   1      39.879  29.063  28.961  1.00  0.00     0.031 A 
ATOM     13  C   UNL A   1      40.814  30.105  29.485  1.00  0.00     0.074 A 
ATOM     14  C   UNL A   1      40.316  27.819  28.657  1.00  0.00     0.049 A 
ATOM     15  N   UNL A   1      42.111  30.165  29.373  1.00  0.00    -0.248 NA
ATOM     16  C   UNL A   1      40.217  31.251  30.192  1.00  0.00     0.031 C 
ATOM     17  C   UNL A   1      39.472  26.694  28.218  1.00  0.00     0.029 A 
ATOM     18  N   UNL A   1      41.567  27.267  28.699  1.00  0.00    -0.354 N 
ATOM     19  C   UNL A   1      42.474  31.405  29.884  1.00  0.00     0.074 A 
ATOM     20  C   UNL A   1      41.266  32.045  30.354  1.00  0.00     0.031 C 
ATOM     21  C   UNL A   1      40.200  25.577  28.156  1.00  0.00     0.029 A 
ATOM     22  C   UNL A   1      41.590  25.945  28.311  1.00  0.00     0.049 A 
ATOM     23  H   UNL A   1      42.371  27.763  28.978  1.00  0.00     0.167 HD
ATOM     24  C   UNL A   1      43.714  31.950  29.900  1.00  0.00     0.037 A 
ATOM     25  C   UNL A   1      42.618  25.141  27.991  1.00  0.00     0.037 A 
ATOM     26  C   UNL A   1      44.877  31.223  29.459  1.00  0.00     0.049 A 
ATOM     27  C   UNL A   1      43.978  25.758  28.011  1.00  0.00     0.074 A 
ATOM     28  C   UNL A   1      46.187  31.648  29.360  1.00  0.00     0.029 A 
ATOM     29  N   UNL A   1      44.857  29.887  29.065  1.00  0.00    -0.354 N 
ATOM     30  N   UNL A   1      44.308  26.989  28.330  1.00  0.00    -0.248 NA
ATOM     31  C   UNL A   1      45.095  24.912  27.590  1.00  0.00     0.031 C 
ATOM     32  C   UNL A   1      46.953  30.576  28.885  1.00  0.00     0.029 A 
ATOM     33  C   UNL A   1      46.131  29.468  28.732  1.00  0.00     0.049 A 
ATOM     34  H   UNL A   1      44.051  29.322  29.030  1.00  0.00     0.167 HD
ATOM     35  C   UNL A   1      45.677  27.072  28.148  1.00  0.00     0.074 A 
ATOM     36  C   UNL A   1      46.113  25.756  27.709  1.00  0.00     0.031 C 
ATOM     37  C   UNL A   1      46.501  28.135  28.318  1.00  0.00     0.037 A 
BRANCH  24  38
ATOM     38  C   UNL A   1      43.828  33.396  30.302  1.00  0.00     0.058 A 
ATOM     39  C   UNL A   1      43.672  34.452  29.390  1.00  0.00     0.135 A 
ATOM     40  C   UNL A   1      44.167  33.728  31.625  1.00  0.00     0.135 A 
ATOM     41  F   UNL A   1      43.373  34.196  28.106  1.00  0.00    -0.206 F 
ATOM     42  C   UNL A   1      43.898  35.776  29.761  1.00  0.00     0.059 A 
ATOM     43  C   UNL A   1      44.373  35.046  32.025  1.00  0.00     0.059 A 
ATOM     44  F   UNL A   1      44.336  32.762  32.543  1.00  0.00    -0.206 F 
ATOM     45  C   UNL A   1      44.264  36.062  31.078  1.00  0.00     0.060 A 
BRANCH  45  46
ATOM     46  S   UNL A   1      44.626  37.772  31.531  1.00  0.00     0.124 S 
ATOM     47  O   UNL A   1      43.812  37.932  32.732  1.00  0.00    -0.237 OA
ATOM     48  O   UNL A   1      46.069  37.743  31.745  1.00  0.00    -0.237 OA
ATOM     49  O   UNL A   1      44.183  38.534  30.367  1.00  0.00    -0.744 OA
ENDBRANCH  45  46
ENDBRANCH  24  38
BRANCH  25  50
ATOM     50  C   UNL A   1      42.354  23.752  27.527  1.00  0.00     0.058 A 
ATOM     51  C   UNL A   1      42.263  23.452  26.161  1.00  0.00     0.135 A 
ATOM     52  C   UNL A   1      42.305  22.674  28.432  1.00  0.00     0.135 A 
ATOM     53  F   UNL A   1      42.302  24.441  25.255  1.00  0.00    -0.206 F 
ATOM     54  C   UNL A   1      42.147  22.140  25.709  1.00  0.00     0.059 A 
ATOM     55  C   UNL A   1      42.223  21.353  28.002  1.00  0.00     0.059 A 
ATOM     56  F   UNL A   1      42.412  22.899  29.752  1.00  0.00    -0.206 F 
ATOM     57  C   UNL A   1      42.140  21.096  26.637  1.00  0.00     0.060 A 
BRANCH  57  58
ATOM     58  S   UNL A   1      42.084  19.393  26.036  1.00  0.00     0.124 S 
ATOM     59  O   UNL A   1      42.951  19.467  24.866  1.00  0.00    -0.237 OA
ATOM     60  O   UNL A   1      42.608  18.644  27.174  1.00  0.00    -0.237 OA
ATOM     61  O   UNL A   1      40.665  19.183  25.757  1.00  0.00    -0.744 OA
ENDBRANCH  57  58
ENDBRANCH  25  50
BRANCH  37  62
ATOM     62  C   UNL A   1      47.954  27.882  28.083  1.00  0.00     0.058 A 
ATOM     63  C   UNL A   1      48.801  27.451  29.112  1.00  0.00     0.135 A 
ATOM     64  C   UNL A   1      48.482  28.020  26.790  1.00  0.00     0.135 A 
ATOM     65  F   UNL A   1      48.335  27.325  30.365  1.00  0.00    -0.206 F 
ATOM     66  C   UNL A   1      50.136  27.163  28.867  1.00  0.00     0.059 A 
ATOM     67  C   UNL A   1      49.809  27.718  26.520  1.00  0.00     0.059 A 
ATOM     68  F   UNL A   1      47.701  28.431  25.779  1.00  0.00    -0.206 F 
ATOM     69  C   UNL A   1      50.628  27.294  27.566  1.00  0.00     0.060 A 
BRANCH  69  70
ATOM     70  S   UNL A   1      52.346  26.853  27.244  1.00  0.00     0.124 S 
ATOM     71  O   UNL A   1      52.216  25.467  26.809  1.00  0.00    -0.237 OA
ATOM     72  O   UNL A   1      52.727  27.811  26.211  1.00  0.00    -0.237 OA
ATOM     73  O   UNL A   1      52.993  27.048  28.539  1.00  0.00    -0.744 OA
ENDBRANCH  69  70
ENDBRANCH  37  62
ENDBRANCH  11  12
ENDBRANCH   4   6
ENDBRANCH   3   4
ENDBRANCH   2   3
ENDBRANCH   1   2
BRANCH   1  74
ATOM     74  O   UNL A   1      33.921  27.891  23.809  1.00  0.00    -0.374 OA
BRANCH  74  75
ATOM     75  C   UNL A   1      33.071  27.005  23.104  1.00  0.00     0.202 C 
BRANCH  75  76
ATOM     76  C   UNL A   1      33.617  25.623  22.769  1.00  0.00     0.261 C 
BRANCH  76  77
ATOM     77  O   UNL A   1      34.344  24.960  23.820  1.00  0.00    -0.463 OA
BRANCH  77  78
ATOM     78  C   UNL A   1      34.914  23.793  23.420  1.00  0.00     0.312 C 
ATOM     79  O   UNL A   1      34.773  23.331  22.292  1.00  0.00    -0.252 OA
BRANCH  78  80
ATOM     80  C   UNL A   1      35.534  22.991  24.567  1.00  0.00     0.078 C 
ATOM     81  C   UNL A   1      36.244  24.056  25.466  1.00  0.00     0.047 C 
ATOM     82  C   UNL A   1      36.693  22.184  23.899  1.00  0.00     0.047 C 
ATOM     83  C   UNL A   1      37.246  23.443  26.425  1.00  0.00     0.161 C 
ATOM     84  C   UNL A   1      37.728  21.684  24.901  1.00  0.00     0.161 C 
ATOM     85  O   UNL A   1      38.251  22.746  25.692  1.00  0.00    -0.381 OA
BRANCH  80  86
ATOM     86  C   UNL A   1      34.600  22.033  25.424  1.00  0.00     0.035 C 
ATOM     87  C   UNL A   1      33.863  20.888  24.685  1.00  0.00     0.007 C 
ATOM     88  C   UNL A   1      33.727  22.653  26.546  1.00  0.00     0.118 C 
ATOM     89  C   UNL A   1      32.378  21.074  24.413  1.00  0.00     0.001 C 
ATOM     90  C   UNL A   1      32.275  22.912  26.185  1.00  0.00     0.032 C 
ATOM     91  C   UNL A   1      31.599  21.689  25.570  1.00  0.00     0.003 C 
BRANCH  88  92
ATOM     92  O   UNL A   1      33.735  21.717  27.638  1.00  0.00    -0.393 OA
ATOM     93  H   UNL A   1      33.935  22.186  28.464  1.00  0.00     0.210 HD
ENDBRANCH  88  92
ENDBRANCH  80  86
ENDBRANCH  78  80
ENDBRANCH  77  78
ENDBRANCH  76  77
ENDBRANCH  75  76
ENDBRANCH  74  75
ENDBRANCH   1  74
TORSDOF 19
ENDMDL
MODEL 3
REMARK VINA RESULT:     -10.1      4.217     10.105
REMARK SMILES O=C(OCCOCCOC(=O)C1([C@@H]2CCCC[C@H]2O)CCOCC1)c1ccc(-c2c3nc(c(-c4c(F)cc(S(=O)(=O)[O-])cc4F)c4ccc([nH]4)c(-c4c(F)cc(S(=O)(=O)[O-])cc4F)c4nc(c(-c5c(F)cc(S(=O)(=O)[O-])cc5F)c5ccc2[nH]5)C=C4)C=C3)cc1
REMARK SMILES IDX 5 1 4 2 3 3 2 4 1 5 25 6 26 7 90 8 27 9 89 10 28 11 29 12
REMARK SMILES IDX 30 13 83 14 31 15 88 16 82 17 84 18 32 19 87 20 81 21 80 22
REMARK SMILES IDX 33 24 67 25 46 26 66 27 47 28 50 29 65 30 85 31 48 32 49 33
REMARK SMILES IDX 64 35 86 36 51 37 34 38 35 39 44 40 36 41 37 42 43 43 45 44
REMARK SMILES IDX 38 45 39 46 40 47 41 48 42 49 68 50 69 51 78 52 70 53 71 54
REMARK SMILES IDX 77 55 79 56 72 57 73 58 74 59 75 60 76 61 52 62 53 63 62 64
REMARK SMILES IDX 54 65 55 66 61 67 63 68 56 69 57 70 58 71 59 72 60 73 6 74
REMARK SMILES IDX 7 75 8 76 9 77 10 78 11 79 12 80 20 81 24 82 21 83 23 84
REMARK SMILES IDX 22 85 13 86 14 87 18 88 15 89 17 90 16 91 19 92
REMARK H PARENT 84 23 50 34 19 93
REMARK Flexibility Score: inf
ROOT
ATOM      1  C   UNL A   1      35.124  22.248  25.454  1.00  0.00     0.202 C 
ENDROOT
BRANCH   1   2
ATOM      2  C   UNL A   1      36.167  23.194  26.090  1.00  0.00     0.261 C 
BRANCH   2   3
ATOM      3  O   UNL A   1      37.409  23.487  25.409  1.00  0.00    -0.460 OA
BRANCH   3   4
ATOM      4  C   UNL A   1      38.629  23.096  25.889  1.00  0.00     0.338 C 
ATOM      5  O   UNL A   1      39.072  21.976  25.749  1.00  0.00    -0.246 OA
BRANCH   4   6
ATOM      6  C   UNL A   1      39.343  24.151  26.632  1.00  0.00     0.060 A 
ATOM      7  C   UNL A   1      39.209  24.138  28.004  1.00  0.00     0.016 A 
ATOM      8  C   UNL A   1      40.003  25.202  26.006  1.00  0.00     0.016 A 
ATOM      9  C   UNL A   1      39.314  25.319  28.687  1.00  0.00     0.010 A 
ATOM     10  C   UNL A   1      40.434  26.277  26.790  1.00  0.00     0.010 A 
ATOM     11  C   UNL A   1      40.047  26.363  28.140  1.00  0.00    -0.014 A 
BRANCH  11  12
ATOM     12  C   UNL A   1      40.411  27.485  29.035  1.00  0.00     0.031 A 
ATOM     13  C   UNL A   1      41.699  27.438  29.793  1.00  0.00     0.074 A 
ATOM     14  C   UNL A   1      39.589  28.557  29.118  1.00  0.00     0.049 A 
ATOM     15  N   UNL A   1      42.045  28.112  30.852  1.00  0.00    -0.248 NA
ATOM     16  C   UNL A   1      42.717  26.480  29.329  1.00  0.00     0.031 C 
ATOM     17  C   UNL A   1      38.345  28.749  28.352  1.00  0.00     0.029 A 
ATOM     18  N   UNL A   1      39.680  29.710  29.850  1.00  0.00    -0.354 N 
ATOM     19  C   UNL A   1      43.263  27.580  31.254  1.00  0.00     0.074 A 
ATOM     20  C   UNL A   1      43.622  26.560  30.294  1.00  0.00     0.031 C 
ATOM     21  C   UNL A   1      37.868  29.978  28.559  1.00  0.00     0.029 A 
ATOM     22  C   UNL A   1      38.624  30.569  29.642  1.00  0.00     0.049 A 
ATOM     23  H   UNL A   1      40.425  29.906  30.463  1.00  0.00     0.167 HD
ATOM     24  C   UNL A   1      43.972  27.906  32.361  1.00  0.00     0.037 A 
ATOM     25  C   UNL A   1      38.227  31.655  30.327  1.00  0.00     0.037 A 
ATOM     26  C   UNL A   1      43.570  28.973  33.242  1.00  0.00     0.049 A 
ATOM     27  C   UNL A   1      39.017  32.000  31.546  1.00  0.00     0.074 A 
ATOM     28  C   UNL A   1      44.144  29.390  34.427  1.00  0.00     0.029 A 
ATOM     29  N   UNL A   1      42.488  29.816  33.000  1.00  0.00    -0.354 N 
ATOM     30  N   UNL A   1      40.076  31.390  32.029  1.00  0.00    -0.248 NA
ATOM     31  C   UNL A   1      38.547  33.135  32.341  1.00  0.00     0.031 C 
ATOM     32  C   UNL A   1      43.394  30.470  34.912  1.00  0.00     0.029 A 
ATOM     33  C   UNL A   1      42.381  30.757  34.007  1.00  0.00     0.049 A 
ATOM     34  H   UNL A   1      41.886  29.752  32.223  1.00  0.00     0.167 HD
ATOM     35  C   UNL A   1      40.405  32.066  33.189  1.00  0.00     0.074 A 
ATOM     36  C   UNL A   1      39.439  33.145  33.323  1.00  0.00     0.031 C 
ATOM     37  C   UNL A   1      41.405  31.819  34.071  1.00  0.00     0.037 A 
BRANCH  24  38
ATOM     38  C   UNL A   1      45.153  27.039  32.707  1.00  0.00     0.058 A 
ATOM     39  C   UNL A   1      45.040  25.876  33.484  1.00  0.00     0.135 A 
ATOM     40  C   UNL A   1      46.443  27.422  32.298  1.00  0.00     0.135 A 
ATOM     41  F   UNL A   1      43.837  25.473  33.924  1.00  0.00    -0.206 F 
ATOM     42  C   UNL A   1      46.163  25.156  33.888  1.00  0.00     0.059 A 
ATOM     43  C   UNL A   1      47.577  26.704  32.669  1.00  0.00     0.059 A 
ATOM     44  F   UNL A   1      46.617  28.529  31.558  1.00  0.00    -0.206 F 
ATOM     45  C   UNL A   1      47.429  25.587  33.489  1.00  0.00     0.060 A 
BRANCH  45  46
ATOM     46  S   UNL A   1      48.882  24.690  34.076  1.00  0.00     0.124 S 
ATOM     47  O   UNL A   1      49.228  25.451  35.272  1.00  0.00    -0.237 OA
ATOM     48  O   UNL A   1      48.352  23.350  34.311  1.00  0.00    -0.237 OA
ATOM     49  O   UNL A   1      49.823  24.802  32.966  1.00  0.00    -0.744 OA
ENDBRANCH  45  46
ENDBRANCH  24  38
BRANCH  25  50
ATOM     50  C   UNL A   1      36.986  32.372  29.923  1.00  0.00     0.058 A 
ATOM     51  C   UNL A   1      35.756  32.080  30.526  1.00  0.00     0.135 A 
ATOM     52  C   UNL A   1      37.024  33.444  29.011  1.00  0.00     0.135 A 
ATOM     53  F   UNL A   1      35.663  31.067  31.401  1.00  0.00    -0.206 F 
ATOM     54  C   UNL A   1      34.614  32.830  30.253  1.00  0.00     0.059 A 
ATOM     55  C   UNL A   1      35.905  34.228  28.748  1.00  0.00     0.059 A 
ATOM     56  F   UNL A   1      38.181  33.785  28.421  1.00  0.00    -0.206 F 
ATOM     57  C   UNL A   1      34.701  33.910  29.372  1.00  0.00     0.060 A 
BRANCH  57  58
ATOM     58  S   UNL A   1      33.238  34.933  29.097  1.00  0.00     0.124 S 
ATOM     59  O   UNL A   1      33.837  36.192  28.671  1.00  0.00    -0.237 OA
ATOM     60  O   UNL A   1      32.525  34.184  28.067  1.00  0.00    -0.237 OA
ATOM     61  O   UNL A   1      32.591  34.953  30.407  1.00  0.00    -0.744 OA
ENDBRANCH  57  58
ENDBRANCH  25  50
BRANCH  37  62
ATOM     62  C   UNL A   1      41.523  32.774  35.214  1.00  0.00     0.058 A 
ATOM     63  C   UNL A   1      42.331  33.916  35.135  1.00  0.00     0.135 A 
ATOM     64  C   UNL A   1      40.766  32.564  36.376  1.00  0.00     0.135 A 
ATOM     65  F   UNL A   1      43.082  34.141  34.045  1.00  0.00    -0.206 F 
ATOM     66  C   UNL A   1      42.386  34.827  36.181  1.00  0.00     0.059 A 
ATOM     67  C   UNL A   1      40.791  33.471  37.424  1.00  0.00     0.059 A 
ATOM     68  F   UNL A   1      39.982  31.480  36.487  1.00  0.00    -0.206 F 
ATOM     69  C   UNL A   1      41.607  34.598  37.318  1.00  0.00     0.060 A 
BRANCH  69  70
ATOM     70  S   UNL A   1      41.634  35.820  38.643  1.00  0.00     0.124 S 
ATOM     71  O   UNL A   1      42.089  37.010  37.933  1.00  0.00    -0.237 OA
ATOM     72  O   UNL A   1      40.243  35.836  39.082  1.00  0.00    -0.237 OA
ATOM     73  O   UNL A   1      42.580  35.258  39.602  1.00  0.00    -0.744 OA
ENDBRANCH  69  70
ENDBRANCH  37  62
ENDBRANCH  11  12
ENDBRANCH   4   6
ENDBRANCH   3   4
ENDBRANCH   2   3
ENDBRANCH   1   2
BRANCH   1  74
ATOM     74  O   UNL A   1      34.357  22.623  24.321  1.00  0.00    -0.374 OA
BRANCH  74  75
ATOM     75  C   UNL A   1      33.640  23.842  24.298  1.00  0.00     0.202 C 
BRANCH  75  76
ATOM     76  C   UNL A   1      32.555  24.042  25.348  1.00  0.00     0.261 C 
BRANCH  76  77
ATOM     77  O   UNL A   1      32.753  25.140  26.258  1.00  0.00    -0.463 OA
BRANCH  77  78
ATOM     78  C   UNL A   1      33.570  26.105  25.760  1.00  0.00     0.312 C 
ATOM     79  O   UNL A   1      34.772  25.936  25.578  1.00  0.00    -0.252 OA
BRANCH  78  80
ATOM     80  C   UNL A   1      32.912  27.484  25.683  1.00  0.00     0.078 C 
ATOM     81  C   UNL A   1      34.064  28.499  25.988  1.00  0.00     0.047 C 
ATOM     82  C   UNL A   1      31.977  27.542  26.933  1.00  0.00     0.047 C 
ATOM     83  C   UNL A   1      33.551  29.878  26.353  1.00  0.00     0.161 C 
ATOM     84  C   UNL A   1      31.581  28.964  27.319  1.00  0.00     0.161 C 
ATOM     85  O   UNL A   1      32.722  29.794  27.510  1.00  0.00    -0.381 OA
BRANCH  80  86
ATOM     86  C   UNL A   1      32.118  27.882  24.366  1.00  0.00     0.035 C 
ATOM     87  C   UNL A   1      30.753  27.195  24.108  1.00  0.00     0.007 C 
ATOM     88  C   UNL A   1      32.914  28.098  23.053  1.00  0.00     0.118 C 
ATOM     89  C   UNL A   1      30.712  26.093  23.059  1.00  0.00     0.001 C 
ATOM     90  C   UNL A   1      32.924  26.926  22.087  1.00  0.00     0.032 C 
ATOM     91  C   UNL A   1      31.523  26.392  21.802  1.00  0.00     0.003 C 
BRANCH  88  92
ATOM     92  O   UNL A   1      32.296  29.205  22.374  1.00  0.00    -0.393 OA
ATOM     93  H   UNL A   1      31.349  29.030  22.265  1.00  0.00     0.210 HD
ENDBRANCH  88  92
ENDBRANCH  80  86
ENDBRANCH  78  80
ENDBRANCH  77  78
ENDBRANCH  76  77
ENDBRANCH  75  76
ENDBRANCH  74  75
ENDBRANCH   1  74
TORSDOF 19
ENDMDL
