MODEL 1
REMARK VINA RESULT:     -11.1      0.000      0.000
REMARK SMILES O=C(OCCOCCOC(=O)c1ccc2nc(C3CCCCC3)[nH]c2c1)c1ccc(-c2c3nc(c(-c4c(F)cc(S(=O)(=O)[O-])cc4F)c4ccc([nH]4)c(-c4c(F)cc(S(=O)(=O)[O-])cc4F)c4nc(c(-c5c(F)cc(S(=O)(=O)[O-])cc5F)c5ccc2[nH]5)C=C4)C=C3)cc1
REMARK SMILES IDX 5 1 4 2 3 3 2 4 1 5 27 6 28 7 92 8 29 9 91 10 30 11 31 12
REMARK SMILES IDX 32 13 85 14 33 15 90 16 84 17 86 18 34 19 89 20 83 21 82 22
REMARK SMILES IDX 35 24 69 25 48 26 68 27 49 28 52 29 67 30 87 31 50 32 51 33
REMARK SMILES IDX 66 35 88 36 53 37 36 38 37 39 46 40 38 41 39 42 45 43 47 44
REMARK SMILES IDX 40 45 41 46 42 47 43 48 44 49 70 50 71 51 80 52 72 53 73 54
REMARK SMILES IDX 79 55 81 56 74 57 75 58 76 59 77 60 78 61 54 62 55 63 64 64
REMARK SMILES IDX 56 65 57 66 63 67 65 68 58 69 59 70 60 71 61 72 62 73 6 74
REMARK SMILES IDX 7 75 8 76 9 77 10 78 11 79 12 80 13 81 26 82 14 83 25 84
REMARK SMILES IDX 15 85 24 86 16 87 17 88 18 90 19 91 23 92 20 93 22 94 21 95
REMARK H PARENT 86 23 52 34 24 89
REMARK Flexibility Score: inf
ROOT
ATOM      1  C   UNL A   1      40.589  21.163  26.861  1.00  0.00     0.202 C 
ENDROOT
BRANCH   1   2
ATOM      2  C   UNL A   1      41.226  22.004  27.974  1.00  0.00     0.261 C 
BRANCH   2   3
ATOM      3  O   UNL A   1      41.539  23.324  27.498  1.00  0.00    -0.460 OA
BRANCH   3   4
ATOM      4  C   UNL A   1      40.725  24.399  27.378  1.00  0.00     0.338 C 
ATOM      5  O   UNL A   1      39.918  24.414  26.449  1.00  0.00    -0.246 OA
BRANCH   4   6
ATOM      6  C   UNL A   1      40.730  25.567  28.315  1.00  0.00     0.060 A 
ATOM      7  C   UNL A   1      41.858  26.304  28.676  1.00  0.00     0.016 A 
ATOM      8  C   UNL A   1      39.484  25.992  28.811  1.00  0.00     0.016 A 
ATOM      9  C   UNL A   1      41.779  27.367  29.561  1.00  0.00     0.010 A 
ATOM     10  C   UNL A   1      39.387  27.089  29.675  1.00  0.00     0.010 A 
ATOM     11  C   UNL A   1      40.547  27.756  30.077  1.00  0.00    -0.014 A 
BRANCH  11  12
ATOM     12  C   UNL A   1      40.564  28.762  31.152  1.00  0.00     0.031 A 
ATOM     13  C   UNL A   1      39.523  29.840  31.118  1.00  0.00     0.074 A 
ATOM     14  C   UNL A   1      41.368  28.577  32.215  1.00  0.00     0.049 A 
ATOM     15  N   UNL A   1      39.288  30.790  31.980  1.00  0.00    -0.248 NA
ATOM     16  C   UNL A   1      38.607  29.833  29.964  1.00  0.00     0.031 C 
ATOM     17  C   UNL A   1      42.313  27.467  32.372  1.00  0.00     0.029 A 
ATOM     18  N   UNL A   1      41.484  29.281  33.382  1.00  0.00    -0.354 N 
ATOM     19  C   UNL A   1      38.217  31.507  31.462  1.00  0.00     0.074 A 
ATOM     20  C   UNL A   1      37.847  30.889  30.210  1.00  0.00     0.031 C 
ATOM     21  C   UNL A   1      42.887  27.548  33.584  1.00  0.00     0.029 A 
ATOM     22  C   UNL A   1      42.397  28.743  34.260  1.00  0.00     0.049 A 
ATOM     23  H   UNL A   1      40.966  30.095  33.575  1.00  0.00     0.167 HD
ATOM     24  C   UNL A   1      37.607  32.592  31.991  1.00  0.00     0.037 A 
ATOM     25  C   UNL A   1      42.794  29.188  35.467  1.00  0.00     0.037 A 
ATOM     26  C   UNL A   1      38.003  33.179  33.242  1.00  0.00     0.049 A 
ATOM     27  C   UNL A   1      42.155  30.445  35.994  1.00  0.00     0.074 A 
ATOM     28  C   UNL A   1      37.517  34.316  33.858  1.00  0.00     0.029 A 
ATOM     29  N   UNL A   1      38.993  32.662  34.069  1.00  0.00    -0.354 N 
ATOM     30  N   UNL A   1      41.189  31.162  35.464  1.00  0.00    -0.248 NA
ATOM     31  C   UNL A   1      42.658  30.960  37.271  1.00  0.00     0.031 C 
ATOM     32  C   UNL A   1      38.244  34.511  35.037  1.00  0.00     0.029 A 
ATOM     33  C   UNL A   1      39.145  33.464  35.185  1.00  0.00     0.049 A 
ATOM     34  H   UNL A   1      39.510  31.844  33.888  1.00  0.00     0.167 HD
ATOM     35  C   UNL A   1      40.952  32.201  36.355  1.00  0.00     0.074 A 
ATOM     36  C   UNL A   1      41.867  32.008  37.464  1.00  0.00     0.031 C 
ATOM     37  C   UNL A   1      40.063  33.222  36.272  1.00  0.00     0.037 A 
BRANCH  24  38
ATOM     38  C   UNL A   1      36.525  33.239  31.171  1.00  0.00     0.058 A 
ATOM     39  C   UNL A   1      36.802  33.972  30.005  1.00  0.00     0.135 A 
ATOM     40  C   UNL A   1      35.188  33.159  31.591  1.00  0.00     0.135 A 
ATOM     41  F   UNL A   1      38.067  34.111  29.578  1.00  0.00    -0.206 F 
ATOM     42  C   UNL A   1      35.795  34.629  29.304  1.00  0.00     0.059 A 
ATOM     43  C   UNL A   1      34.163  33.787  30.892  1.00  0.00     0.059 A 
ATOM     44  F   UNL A   1      34.869  32.484  32.707  1.00  0.00    -0.206 F 
ATOM     45  C   UNL A   1      34.477  34.537  29.760  1.00  0.00     0.060 A 
BRANCH  45  46
ATOM     46  S   UNL A   1      33.185  35.419  28.860  1.00  0.00     0.124 S 
ATOM     47  O   UNL A   1      33.963  36.424  28.143  1.00  0.00    -0.237 OA
ATOM     48  O   UNL A   1      32.603  34.364  28.037  1.00  0.00    -0.237 OA
ATOM     49  O   UNL A   1      32.321  35.930  29.920  1.00  0.00    -0.744 OA
ENDBRANCH  45  46
ENDBRANCH  24  38
BRANCH  25  50
ATOM     50  C   UNL A   1      43.857  28.472  36.225  1.00  0.00     0.058 A 
ATOM     51  C   UNL A   1      45.200  28.871  36.163  1.00  0.00     0.135 A 
ATOM     52  C   UNL A   1      43.549  27.362  37.030  1.00  0.00     0.135 A 
ATOM     53  F   UNL A   1      45.555  29.921  35.406  1.00  0.00    -0.206 F 
ATOM     54  C   UNL A   1      46.200  28.188  36.853  1.00  0.00     0.059 A 
ATOM     55  C   UNL A   1      44.524  26.680  37.751  1.00  0.00     0.059 A 
ATOM     56  F   UNL A   1      42.279  26.939  37.137  1.00  0.00    -0.206 F 
ATOM     57  C   UNL A   1      45.850  27.092  37.645  1.00  0.00     0.060 A 
BRANCH  57  58
ATOM     58  S   UNL A   1      47.149  26.224  38.554  1.00  0.00     0.124 S 
ATOM     59  O   UNL A   1      46.494  25.972  39.833  1.00  0.00    -0.237 OA
ATOM     60  O   UNL A   1      47.382  25.054  37.715  1.00  0.00    -0.237 OA
ATOM     61  O   UNL A   1      48.241  27.191  38.585  1.00  0.00    -0.744 OA
ENDBRANCH  57  58
ENDBRANCH  25  50
BRANCH  37  62
ATOM     62  C   UNL A   1      40.008  34.170  37.434  1.00  0.00     0.058 A 
ATOM     63  C   UNL A   1      40.785  35.337  37.473  1.00  0.00     0.135 A 
ATOM     64  C   UNL A   1      39.124  33.927  38.497  1.00  0.00     0.135 A 
ATOM     65  F   UNL A   1      41.648  35.610  36.481  1.00  0.00    -0.206 F 
ATOM     66  C   UNL A   1      40.710  36.218  38.546  1.00  0.00     0.059 A 
ATOM     67  C   UNL A   1      39.012  34.809  39.564  1.00  0.00     0.059 A 
ATOM     68  F   UNL A   1      38.349  32.830  38.495  1.00  0.00    -0.206 F 
ATOM     69  C   UNL A   1      39.820  35.945  39.586  1.00  0.00     0.060 A 
BRANCH  69  70
ATOM     70  S   UNL A   1      39.710  37.108  40.959  1.00  0.00     0.124 S 
ATOM     71  O   UNL A   1      41.102  37.520  41.106  1.00  0.00    -0.237 OA
ATOM     72  O   UNL A   1      38.798  38.123  40.439  1.00  0.00    -0.237 OA
ATOM     73  O   UNL A   1      39.177  36.296  42.049  1.00  0.00    -0.744 OA
ENDBRANCH  69  70
ENDBRANCH  37  62
ENDBRANCH  11  12
ENDBRANCH   4   6
ENDBRANCH   3   4
ENDBRANCH   2   3
ENDBRANCH   1   2
BRANCH   1  74
ATOM     74  O   UNL A   1      41.528  20.450  26.056  1.00  0.00    -0.374 OA
BRANCH  74  75
ATOM     75  C   UNL A   1      42.144  19.315  26.675  1.00  0.00     0.202 C 
BRANCH  75  76
ATOM     76  C   UNL A   1      43.119  18.651  25.701  1.00  0.00     0.261 C 
BRANCH  76  77
ATOM     77  O   UNL A   1      43.541  19.631  24.741  1.00  0.00    -0.460 OA
BRANCH  77  78
ATOM     78  C   UNL A   1      44.885  19.796  24.658  1.00  0.00     0.338 C 
ATOM     79  O   UNL A   1      45.730  18.944  24.440  1.00  0.00    -0.246 OA
BRANCH  78  80
ATOM     80  C   UNL A   1      45.172  21.246  24.667  1.00  0.00     0.062 A 
ATOM     81  C   UNL A   1      46.398  21.744  24.211  1.00  0.00     0.018 A 
ATOM     82  C   UNL A   1      44.184  22.092  25.199  1.00  0.00     0.044 A 
ATOM     83  C   UNL A   1      46.666  23.118  24.255  1.00  0.00     0.031 A 
ATOM     84  C   UNL A   1      44.491  23.452  25.241  1.00  0.00     0.066 A 
ATOM     85  C   UNL A   1      45.686  23.980  24.770  1.00  0.00     0.089 A 
ATOM     86  N   UNL A   1      43.789  24.543  25.685  1.00  0.00    -0.342 N 
ATOM     87  N   UNL A   1      45.685  25.347  24.867  1.00  0.00    -0.233 NA
ATOM     88  C   UNL A   1      44.501  25.669  25.347  1.00  0.00     0.110 A 
ATOM     89  H   UNL A   1      42.928  24.523  26.161  1.00  0.00     0.168 HD
BRANCH  88  90
ATOM     90  C   UNL A   1      43.949  27.059  25.442  1.00  0.00     0.055 C 
ATOM     91  C   UNL A   1      42.416  27.075  25.350  1.00  0.00     0.011 C 
ATOM     92  C   UNL A   1      44.431  27.791  26.698  1.00  0.00     0.011 C 
ATOM     93  C   UNL A   1      41.876  28.501  25.380  1.00  0.00     0.001 C 
ATOM     94  C   UNL A   1      43.891  29.222  26.729  1.00  0.00     0.001 C 
ATOM     95  C   UNL A   1      42.369  29.259  26.608  1.00  0.00     0.000 C 
ENDBRANCH  88  90
ENDBRANCH  78  80
ENDBRANCH  77  78
ENDBRANCH  76  77
ENDBRANCH  75  76
ENDBRANCH  74  75
ENDBRANCH   1  74
TORSDOF 18
ENDMDL
MODEL 2
REMARK VINA RESULT:     -11.0      6.345     13.587
REMARK SMILES O=C(OCCOCCOC(=O)c1ccc2nc(C3CCCCC3)[nH]c2c1)c1ccc(-c2c3nc(c(-c4c(F)cc(S(=O)(=O)[O-])cc4F)c4ccc([nH]4)c(-c4c(F)cc(S(=O)(=O)[O-])cc4F)c4nc(c(-c5c(F)cc(S(=O)(=O)[O-])cc5F)c5ccc2[nH]5)C=C4)C=C3)cc1
REMARK SMILES IDX 5 1 4 2 3 3 2 4 1 5 27 6 28 7 92 8 29 9 91 10 30 11 31 12
REMARK SMILES IDX 32 13 85 14 33 15 90 16 84 17 86 18 34 19 89 20 83 21 82 22
REMARK SMILES IDX 35 24 69 25 48 26 68 27 49 28 52 29 67 30 87 31 50 32 51 33
REMARK SMILES IDX 66 35 88 36 53 37 36 38 37 39 46 40 38 41 39 42 45 43 47 44
REMARK SMILES IDX 40 45 41 46 42 47 43 48 44 49 70 50 71 51 80 52 72 53 73 54
REMARK SMILES IDX 79 55 81 56 74 57 75 58 76 59 77 60 78 61 54 62 55 63 64 64
REMARK SMILES IDX 56 65 57 66 63 67 65 68 58 69 59 70 60 71 61 72 62 73 6 74
REMARK SMILES IDX 7 75 8 76 9 77 10 78 11 79 12 80 13 81 26 82 14 83 25 84
REMARK SMILES IDX 15 85 24 86 16 87 17 88 18 90 19 91 23 92 20 93 22 94 21 95
REMARK H PARENT 86 23 52 34 24 89
REMARK Flexibility Score: inf
ROOT
ATOM      1  C   UNL A   1      34.676  33.458  31.594  1.00  0.00     0.202 C 
ENDROOT
BRANCH   1   2
ATOM      2  C   UNL A   1      36.012  32.935  31.054  1.00  0.00     0.261 C 
BRANCH   2   3
ATOM      3  O   UNL A   1      35.888  31.566  30.630  1.00  0.00    -0.460 OA
BRANCH   3   4
ATOM      4  C   UNL A   1      36.679  30.509  30.928  1.00  0.00     0.338 C 
ATOM      5  O   UNL A   1      36.258  29.678  31.732  1.00  0.00    -0.246 OA
BRANCH   4   6
ATOM      6  C   UNL A   1      38.031  30.276  30.328  1.00  0.00     0.060 A 
ATOM      7  C   UNL A   1      38.317  30.278  28.962  1.00  0.00     0.016 A 
ATOM      8  C   UNL A   1      39.105  30.111  31.221  1.00  0.00     0.016 A 
ATOM      9  C   UNL A   1      39.597  30.041  28.487  1.00  0.00     0.010 A 
ATOM     10  C   UNL A   1      40.409  29.909  30.753  1.00  0.00     0.010 A 
ATOM     11  C   UNL A   1      40.646  29.841  29.378  1.00  0.00    -0.014 A 
BRANCH  11  12
ATOM     12  C   UNL A   1      41.931  29.407  28.804  1.00  0.00     0.031 A 
ATOM     13  C   UNL A   1      43.081  30.367  28.857  1.00  0.00     0.074 A 
ATOM     14  C   UNL A   1      42.089  28.122  28.438  1.00  0.00     0.049 A 
ATOM     15  N   UNL A   1      44.319  30.195  28.486  1.00  0.00    -0.248 NA
ATOM     16  C   UNL A   1      42.801  31.697  29.426  1.00  0.00     0.031 C 
ATOM     17  C   UNL A   1      41.040  27.097  28.490  1.00  0.00     0.029 A 
ATOM     18  N   UNL A   1      43.194  27.445  28.000  1.00  0.00    -0.354 N 
ATOM     19  C   UNL A   1      44.959  31.399  28.753  1.00  0.00     0.074 A 
ATOM     20  C   UNL A   1      43.976  32.297  29.312  1.00  0.00     0.031 C 
ATOM     21  C   UNL A   1      41.565  25.915  28.131  1.00  0.00     0.029 A 
ATOM     22  C   UNL A   1      42.964  26.109  27.769  1.00  0.00     0.049 A 
ATOM     23  H   UNL A   1      44.069  27.873  27.863  1.00  0.00     0.167 HD
ATOM     24  C   UNL A   1      46.256  31.720  28.538  1.00  0.00     0.037 A 
ATOM     25  C   UNL A   1      43.797  25.161  27.299  1.00  0.00     0.037 A 
ATOM     26  C   UNL A   1      47.206  30.797  27.979  1.00  0.00     0.049 A 
ATOM     27  C   UNL A   1      45.215  25.567  26.992  1.00  0.00     0.074 A 
ATOM     28  C   UNL A   1      48.529  31.012  27.646  1.00  0.00     0.029 A 
ATOM     29  N   UNL A   1      46.921  29.472  27.671  1.00  0.00    -0.354 N 
ATOM     30  N   UNL A   1      45.796  26.731  27.178  1.00  0.00    -0.248 NA
ATOM     31  C   UNL A   1      46.085  24.544  26.403  1.00  0.00     0.031 C 
ATOM     32  C   UNL A   1      49.032  29.828  27.095  1.00  0.00     0.029 A 
ATOM     33  C   UNL A   1      48.039  28.858  27.137  1.00  0.00     0.049 A 
ATOM     34  H   UNL A   1      46.051  29.033  27.813  1.00  0.00     0.167 HD
ATOM     35  C   UNL A   1      47.109  26.574  26.753  1.00  0.00     0.074 A 
ATOM     36  C   UNL A   1      47.237  25.197  26.313  1.00  0.00     0.031 C 
ATOM     37  C   UNL A   1      48.121  27.478  26.726  1.00  0.00     0.037 A 
BRANCH  24  38
ATOM     38  C   UNL A   1      46.670  33.135  28.828  1.00  0.00     0.058 A 
ATOM     39  C   UNL A   1      46.631  34.145  27.853  1.00  0.00     0.135 A 
ATOM     40  C   UNL A   1      47.159  33.472  30.100  1.00  0.00     0.135 A 
ATOM     41  F   UNL A   1      46.205  33.869  26.610  1.00  0.00    -0.206 F 
ATOM     42  C   UNL A   1      47.093  35.431  28.120  1.00  0.00     0.059 A 
ATOM     43  C   UNL A   1      47.603  34.757  30.396  1.00  0.00     0.059 A 
ATOM     44  F   UNL A   1      47.232  32.542  31.065  1.00  0.00    -0.206 F 
ATOM     45  C   UNL A   1      47.585  35.726  29.394  1.00  0.00     0.060 A 
BRANCH  45  46
ATOM     46  S   UNL A   1      48.210  37.388  29.719  1.00  0.00     0.124 S 
ATOM     47  O   UNL A   1      49.253  37.119  30.704  1.00  0.00    -0.237 OA
ATOM     48  O   UNL A   1      48.676  37.808  28.402  1.00  0.00    -0.237 OA
ATOM     49  O   UNL A   1      47.038  38.099  30.222  1.00  0.00    -0.744 OA
ENDBRANCH  45  46
ENDBRANCH  24  38
BRANCH  25  50
ATOM     50  C   UNL A   1      43.311  23.774  27.063  1.00  0.00     0.058 A 
ATOM     51  C   UNL A   1      42.942  23.333  25.783  1.00  0.00     0.135 A 
ATOM     52  C   UNL A   1      43.200  22.856  28.120  1.00  0.00     0.135 A 
ATOM     53  F   UNL A   1      43.022  24.168  24.736  1.00  0.00    -0.206 F 
ATOM     54  C   UNL A   1      42.463  22.043  25.564  1.00  0.00     0.059 A 
ATOM     55  C   UNL A   1      42.752  21.553  27.922  1.00  0.00     0.059 A 
ATOM     56  F   UNL A   1      43.547  23.218  29.366  1.00  0.00    -0.206 F 
ATOM     57  C   UNL A   1      42.373  21.160  26.642  1.00  0.00     0.060 A 
BRANCH  57  58
ATOM     58  S   UNL A   1      41.772  19.481  26.346  1.00  0.00     0.124 S 
ATOM     59  O   UNL A   1      42.138  18.814  27.590  1.00  0.00    -0.237 OA
ATOM     60  O   UNL A   1      40.345  19.698  26.133  1.00  0.00    -0.237 OA
ATOM     61  O   UNL A   1      42.517  19.062  25.162  1.00  0.00    -0.744 OA
ENDBRANCH  57  58
ENDBRANCH  25  50
BRANCH  37  62
ATOM     62  C   UNL A   1      49.458  26.986  26.253  1.00  0.00     0.058 A 
ATOM     63  C   UNL A   1      50.347  26.323  27.111  1.00  0.00     0.135 A 
ATOM     64  C   UNL A   1      49.825  27.138  24.907  1.00  0.00     0.135 A 
ATOM     65  F   UNL A   1      50.042  26.158  28.408  1.00  0.00    -0.206 F 
ATOM     66  C   UNL A   1      51.574  25.855  26.656  1.00  0.00     0.059 A 
ATOM     67  C   UNL A   1      51.032  26.651  24.424  1.00  0.00     0.059 A 
ATOM     68  F   UNL A   1      48.998  27.752  24.045  1.00  0.00    -0.206 F 
ATOM     69  C   UNL A   1      51.907  26.023  25.310  1.00  0.00     0.060 A 
BRANCH  69  70
ATOM     70  S   UNL A   1      53.489  25.386  24.723  1.00  0.00     0.124 S 
ATOM     71  O   UNL A   1      54.431  26.242  25.436  1.00  0.00    -0.237 OA
ATOM     72  O   UNL A   1      53.445  23.992  25.155  1.00  0.00    -0.237 OA
ATOM     73  O   UNL A   1      53.421  25.591  23.279  1.00  0.00    -0.744 OA
ENDBRANCH  69  70
ENDBRANCH  37  62
ENDBRANCH  11  12
ENDBRANCH   4   6
ENDBRANCH   3   4
ENDBRANCH   2   3
ENDBRANCH   1   2
BRANCH   1  74
ATOM     74  O   UNL A   1      34.503  34.870  31.461  1.00  0.00    -0.374 OA
BRANCH  74  75
ATOM     75  C   UNL A   1      33.176  35.309  31.151  1.00  0.00     0.202 C 
BRANCH  75  76
ATOM     76  C   UNL A   1      33.121  35.838  29.717  1.00  0.00     0.261 C 
BRANCH  76  77
ATOM     77  O   UNL A   1      32.675  34.779  28.857  1.00  0.00    -0.460 OA
BRANCH  77  78
ATOM     78  C   UNL A   1      33.662  34.173  28.150  1.00  0.00     0.338 C 
ATOM     79  O   UNL A   1      34.836  34.494  28.081  1.00  0.00    -0.246 OA
BRANCH  78  80
ATOM     80  C   UNL A   1      33.131  32.901  27.618  1.00  0.00     0.062 A 
ATOM     81  C   UNL A   1      31.889  32.848  26.973  1.00  0.00     0.018 A 
ATOM     82  C   UNL A   1      33.901  31.744  27.830  1.00  0.00     0.044 A 
ATOM     83  C   UNL A   1      31.387  31.628  26.500  1.00  0.00     0.031 A 
ATOM     84  C   UNL A   1      33.363  30.547  27.361  1.00  0.00     0.066 A 
ATOM     85  C   UNL A   1      32.148  30.466  26.692  1.00  0.00     0.089 A 
ATOM     86  N   UNL A   1      33.820  29.255  27.393  1.00  0.00    -0.342 N 
ATOM     87  N   UNL A   1      31.905  29.182  26.279  1.00  0.00    -0.233 NA
ATOM     88  C   UNL A   1      32.963  28.485  26.644  1.00  0.00     0.110 A 
ATOM     89  H   UNL A   1      34.619  28.936  27.870  1.00  0.00     0.168 HD
BRANCH  88  90
ATOM     90  C   UNL A   1      33.256  27.073  26.238  1.00  0.00     0.055 C 
ATOM     91  C   UNL A   1      32.088  26.128  26.560  1.00  0.00     0.011 C 
ATOM     92  C   UNL A   1      33.660  26.963  24.764  1.00  0.00     0.011 C 
ATOM     93  C   UNL A   1      32.430  24.686  26.202  1.00  0.00     0.001 C 
ATOM     94  C   UNL A   1      34.005  25.518  24.405  1.00  0.00     0.001 C 
ATOM     95  C   UNL A   1      32.865  24.559  24.745  1.00  0.00     0.000 C 
ENDBRANCH  88  90
ENDBRANCH  78  80
ENDBRANCH  77  78
ENDBRANCH  76  77
ENDBRANCH  75  76
ENDBRANCH  74  75
ENDBRANCH   1  74
TORSDOF 18
ENDMDL
MODEL 3
REMARK VINA RESULT:     -10.9      2.161      8.936
REMARK SMILES O=C(OCCOCCOC(=O)c1ccc2nc(C3CCCCC3)[nH]c2c1)c1ccc(-c2c3nc(c(-c4c(F)cc(S(=O)(=O)[O-])cc4F)c4ccc([nH]4)c(-c4c(F)cc(S(=O)(=O)[O-])cc4F)c4nc(c(-c5c(F)cc(S(=O)(=O)[O-])cc5F)c5ccc2[nH]5)C=C4)C=C3)cc1
REMARK SMILES IDX 5 1 4 2 3 3 2 4 1 5 27 6 28 7 92 8 29 9 91 10 30 11 31 12
REMARK SMILES IDX 32 13 85 14 33 15 90 16 84 17 86 18 34 19 89 20 83 21 82 22
REMARK SMILES IDX 35 24 69 25 48 26 68 27 49 28 52 29 67 30 87 31 50 32 51 33
REMARK SMILES IDX 66 35 88 36 53 37 36 38 37 39 46 40 38 41 39 42 45 43 47 44
REMARK SMILES IDX 40 45 41 46 42 47 43 48 44 49 70 50 71 51 80 52 72 53 73 54
REMARK SMILES IDX 79 55 81 56 74 57 75 58 76 59 77 60 78 61 54 62 55 63 64 64
REMARK SMILES IDX 56 65 57 66 63 67 65 68 58 69 59 70 60 71 61 72 62 73 6 74
REMARK SMILES IDX 7 75 8 76 9 77 10 78 11 79 12 80 13 81 26 82 14 83 25 84
REMARK SMILES IDX 15 85 24 86 16 87 17 88 18 90 19 91 23 92 20 93 22 94 21 95
REMARK H PARENT 86 23 52 34 24 89
REMARK Flexibility Score: inf
ROOT
ATOM      1  C   UNL A   1      45.438  22.575  25.220  1.00  0.00     0.202 C 
ENDROOT
BRANCH   1   2
ATOM      2  C   UNL A   1      43.996  23.035  24.972  1.00  0.00     0.261 C 
BRANCH   2   3
ATOM      3  O   UNL A   1      43.597  24.009  25.952  1.00  0.00    -0.460 OA
BRANCH   3   4
ATOM      4  C   UNL A   1      42.931  25.173  25.771  1.00  0.00     0.338 C 
ATOM      5  O   UNL A   1      42.677  25.522  24.618  1.00  0.00    -0.246 OA
BRANCH   4   6
ATOM      6  C   UNL A   1      42.466  26.059  26.885  1.00  0.00     0.060 A 
ATOM      7  C   UNL A   1      42.857  27.384  27.076  1.00  0.00     0.016 A 
ATOM      8  C   UNL A   1      41.506  25.526  27.764  1.00  0.00     0.016 A 
ATOM      9  C   UNL A   1      42.388  28.134  28.143  1.00  0.00     0.010 A 
ATOM     10  C   UNL A   1      40.995  26.286  28.822  1.00  0.00     0.010 A 
ATOM     11  C   UNL A   1      41.467  27.586  29.030  1.00  0.00    -0.014 A 
BRANCH  11  12
ATOM     12  C   UNL A   1      41.163  28.368  30.240  1.00  0.00     0.031 A 
ATOM     13  C   UNL A   1      42.116  28.271  31.393  1.00  0.00     0.074 A 
ATOM     14  C   UNL A   1      40.171  29.276  30.205  1.00  0.00     0.049 A 
ATOM     15  N   UNL A   1      42.105  28.910  32.530  1.00  0.00    -0.248 NA
ATOM     16  C   UNL A   1      43.249  27.343  31.233  1.00  0.00     0.031 C 
ATOM     17  C   UNL A   1      39.288  29.515  29.059  1.00  0.00     0.029 A 
ATOM     18  N   UNL A   1      39.770  30.199  31.132  1.00  0.00    -0.354 N 
ATOM     19  C   UNL A   1      43.212  28.444  33.230  1.00  0.00     0.074 A 
ATOM     20  C   UNL A   1      43.871  27.467  32.396  1.00  0.00     0.031 C 
ATOM     21  C   UNL A   1      38.472  30.544  29.341  1.00  0.00     0.029 A 
ATOM     22  C   UNL A   1      38.734  30.994  30.703  1.00  0.00     0.049 A 
ATOM     23  H   UNL A   1      40.183  30.285  32.021  1.00  0.00     0.167 HD
ATOM     24  C   UNL A   1      43.627  28.803  34.466  1.00  0.00     0.037 A 
ATOM     25  C   UNL A   1      38.067  31.965  31.355  1.00  0.00     0.037 A 
ATOM     26  C   UNL A   1      42.943  29.782  35.266  1.00  0.00     0.049 A 
ATOM     27  C   UNL A   1      38.500  32.287  32.761  1.00  0.00     0.074 A 
ATOM     28  C   UNL A   1      43.217  30.189  36.558  1.00  0.00     0.029 A 
ATOM     29  N   UNL A   1      41.840  30.510  34.837  1.00  0.00    -0.354 N 
ATOM     30  N   UNL A   1      39.505  31.790  33.447  1.00  0.00    -0.248 NA
ATOM     31  C   UNL A   1      37.711  33.288  33.486  1.00  0.00     0.031 C 
ATOM     32  C   UNL A   1      42.250  31.131  36.925  1.00  0.00     0.029 A 
ATOM     33  C   UNL A   1      41.409  31.355  35.844  1.00  0.00     0.049 A 
ATOM     34  H   UNL A   1      41.426  30.437  33.947  1.00  0.00     0.167 HD
ATOM     35  C   UNL A   1      39.485  32.435  34.676  1.00  0.00     0.074 A 
ATOM     36  C   UNL A   1      38.375  33.369  34.632  1.00  0.00     0.031 C 
ATOM     37  C   UNL A   1      40.304  32.278  35.747  1.00  0.00     0.037 A 
BRANCH  24  38
ATOM     38  C   UNL A   1      44.810  28.069  35.032  1.00  0.00     0.058 A 
ATOM     39  C   UNL A   1      46.127  28.533  34.877  1.00  0.00     0.135 A 
ATOM     40  C   UNL A   1      44.620  26.851  35.703  1.00  0.00     0.135 A 
ATOM     41  F   UNL A   1      46.369  29.674  34.213  1.00  0.00    -0.206 F 
ATOM     42  C   UNL A   1      47.215  27.798  35.340  1.00  0.00     0.059 A 
ATOM     43  C   UNL A   1      45.691  26.112  36.196  1.00  0.00     0.059 A 
ATOM     44  F   UNL A   1      43.384  26.354  35.866  1.00  0.00    -0.206 F 
ATOM     45  C   UNL A   1      46.987  26.583  35.993  1.00  0.00     0.060 A 
BRANCH  45  46
ATOM     46  S   UNL A   1      48.407  25.625  36.561  1.00  0.00     0.124 S 
ATOM     47  O   UNL A   1      48.225  24.374  35.831  1.00  0.00    -0.237 OA
ATOM     48  O   UNL A   1      49.532  26.449  36.132  1.00  0.00    -0.237 OA
ATOM     49  O   UNL A   1      48.208  25.546  38.005  1.00  0.00    -0.744 OA
ENDBRANCH  45  46
ENDBRANCH  24  38
BRANCH  25  50
ATOM     50  C   UNL A   1      36.919  32.662  30.710  1.00  0.00     0.058 A 
ATOM     51  C   UNL A   1      35.592  32.322  31.009  1.00  0.00     0.135 A 
ATOM     52  C   UNL A   1      37.130  33.685  29.772  1.00  0.00     0.135 A 
ATOM     53  F   UNL A   1      35.330  31.348  31.894  1.00  0.00    -0.206 F 
ATOM     54  C   UNL A   1      34.517  32.955  30.389  1.00  0.00     0.059 A 
ATOM     55  C   UNL A   1      36.073  34.353  29.160  1.00  0.00     0.059 A 
ATOM     56  F   UNL A   1      38.378  34.061  29.453  1.00  0.00    -0.206 F 
ATOM     57  C   UNL A   1      34.769  33.971  29.465  1.00  0.00     0.060 A 
BRANCH  57  58
ATOM     58  S   UNL A   1      33.370  34.804  28.680  1.00  0.00     0.124 S 
ATOM     59  O   UNL A   1      34.034  35.895  27.976  1.00  0.00    -0.237 OA
ATOM     60  O   UNL A   1      32.814  33.747  27.842  1.00  0.00    -0.237 OA
ATOM     61  O   UNL A   1      32.537  35.199  29.812  1.00  0.00    -0.744 OA
ENDBRANCH  57  58
ENDBRANCH  25  50
BRANCH  37  62
ATOM     62  C   UNL A   1      40.056  33.170  36.928  1.00  0.00     0.058 A 
ATOM     63  C   UNL A   1      40.775  34.358  37.121  1.00  0.00     0.135 A 
ATOM     64  C   UNL A   1      39.046  32.849  37.849  1.00  0.00     0.135 A 
ATOM     65  F   UNL A   1      41.754  34.703  36.270  1.00  0.00    -0.206 F 
ATOM     66  C   UNL A   1      40.522  35.185  38.209  1.00  0.00     0.059 A 
ATOM     67  C   UNL A   1      38.756  33.677  38.925  1.00  0.00     0.059 A 
ATOM     68  F   UNL A   1      38.321  31.729  37.696  1.00  0.00    -0.206 F 
ATOM     69  C   UNL A   1      39.509  34.836  39.105  1.00  0.00     0.060 A 
BRANCH  69  70
ATOM     70  S   UNL A   1      39.169  35.931  40.497  1.00  0.00     0.124 S 
ATOM     71  O   UNL A   1      40.436  35.888  41.219  1.00  0.00    -0.237 OA
ATOM     72  O   UNL A   1      38.859  37.195  39.834  1.00  0.00    -0.237 OA
ATOM     73  O   UNL A   1      38.042  35.288  41.165  1.00  0.00    -0.744 OA
ENDBRANCH  69  70
ENDBRANCH  37  62
ENDBRANCH  11  12
ENDBRANCH   4   6
ENDBRANCH   3   4
ENDBRANCH   2   3
ENDBRANCH   1   2
BRANCH   1  74
ATOM     74  O   UNL A   1      45.556  21.211  25.624  1.00  0.00    -0.374 OA
BRANCH  74  75
ATOM     75  C   UNL A   1      45.250  20.236  24.621  1.00  0.00     0.202 C 
BRANCH  75  76
ATOM     76  C   UNL A   1      44.927  18.892  25.277  1.00  0.00     0.261 C 
BRANCH  76  77
ATOM     77  O   UNL A   1      43.523  18.635  25.122  1.00  0.00    -0.460 OA
BRANCH  77  78
ATOM     78  C   UNL A   1      42.843  18.502  26.288  1.00  0.00     0.338 C 
ATOM     79  O   UNL A   1      43.026  17.681  27.170  1.00  0.00    -0.246 OA
BRANCH  78  80
ATOM     80  C   UNL A   1      41.945  19.667  26.432  1.00  0.00     0.062 A 
ATOM     81  C   UNL A   1      42.304  20.764  27.225  1.00  0.00     0.018 A 
ATOM     82  C   UNL A   1      40.700  19.603  25.782  1.00  0.00     0.044 A 
ATOM     83  C   UNL A   1      41.428  21.847  27.375  1.00  0.00     0.031 A 
ATOM     84  C   UNL A   1      39.848  20.691  25.966  1.00  0.00     0.066 A 
ATOM     85  C   UNL A   1      40.188  21.807  26.722  1.00  0.00     0.089 A 
ATOM     86  N   UNL A   1      38.589  20.966  25.502  1.00  0.00    -0.342 N 
ATOM     87  N   UNL A   1      39.195  22.750  26.668  1.00  0.00    -0.233 NA
ATOM     88  C   UNL A   1      38.277  22.255  25.863  1.00  0.00     0.110 A 
ATOM     89  H   UNL A   1      38.010  20.349  24.999  1.00  0.00     0.168 HD
BRANCH  88  90
ATOM     90  C   UNL A   1      37.092  23.002  25.330  1.00  0.00     0.055 C 
ATOM     91  C   UNL A   1      36.724  22.555  23.907  1.00  0.00     0.011 C 
ATOM     92  C   UNL A   1      35.881  22.914  26.264  1.00  0.00     0.011 C 
ATOM     93  C   UNL A   1      35.560  23.372  23.356  1.00  0.00     0.001 C 
ATOM     94  C   UNL A   1      34.714  23.734  25.713  1.00  0.00     0.001 C 
ATOM     95  C   UNL A   1      34.352  23.323  24.287  1.00  0.00     0.000 C 
ENDBRANCH  88  90
ENDBRANCH  78  80
ENDBRANCH  77  78
ENDBRANCH  76  77
ENDBRANCH  75  76
ENDBRANCH  74  75
ENDBRANCH   1  74
TORSDOF 18
ENDMDL
